MODEL 1
REMARK VINA RESULT:      -7.1      0.000      0.000
REMARK  28 active torsions:
REMARK  status: ('A' for Active; 'I' for Inactive)
REMARK    1  A    between atoms: C_2  and  O_3 
REMARK    2  A    between atoms: C_2  and  C_4 
REMARK    3  A    between atoms: C_4  and  C_5 
REMARK    4  A    between atoms: C_5  and  C_6 
REMARK    5  A    between atoms: C_7  and  C_8 
REMARK    6  A    between atoms: C_8  and  C_9 
REMARK    7  A    between atoms: C_9  and  O_11 
REMARK    8  A    between atoms: C_28  and  C_29 
REMARK    9  A    between atoms: C_29  and  C_30 
REMARK   10  A    between atoms: C_30  and  O_32 
REMARK   11  A    between atoms: C_33  and  C_34 
REMARK   12  A    between atoms: C_34  and  C_35 
REMARK   13  A    between atoms: C_35  and  C_36 
REMARK   14  A    between atoms: C_36  and  O_38 
REMARK   15  A    between atoms: C_39  and  C_40 
REMARK   16  A    between atoms: C_40  and  C_41 
REMARK   17  A    between atoms: C_41  and  C_42 
REMARK   18  A    between atoms: C_42  and  O_44 
REMARK   19  A    between atoms: C_45  and  C_46 
REMARK   20  A    between atoms: C_46  and  C_47 
REMARK   21  A    between atoms: C_47  and  O_49 
REMARK   22  A    between atoms: C_50  and  C_51 
REMARK   23  A    between atoms: C_51  and  C_52 
REMARK   24  A    between atoms: C_52  and  O_54 
REMARK   25  A    between atoms: C_55  and  C_56 
REMARK   26  A    between atoms: C_56  and  C_57 
REMARK   27  A    between atoms: C_57  and  C_58 
REMARK   28  A    between atoms: C_58  and  O_60 
ROOT
ATOM      1  O   UNK d   0       9.781 -10.349  45.825  0.00  0.00    -0.650 OA
ATOM      2  C   UNK d   0       8.727 -10.638  46.433  0.00  0.00     0.139 C 
ENDROOT
BRANCH   2   3
ATOM      3  O   UNK d   0       7.678 -11.189  45.737  0.00  0.00    -0.776 OA
ATOM      4  H   UNK d   0       7.826 -11.964  45.087  0.00  0.00     0.167 HD
ENDBRANCH   2   3
BRANCH   2   5
ATOM      5  C   UNK d   0       8.613 -10.384  47.897  0.00  0.00     0.115 C 
BRANCH   5   6
ATOM      6  C   UNK d   0       9.661  -9.396  48.334  0.00  0.00     0.052 C 
BRANCH   6   7
ATOM      7  C   UNK d   0      10.383  -9.831  49.587  0.00  0.00    -0.020 A 
ATOM      8  C   UNK d   0      11.051 -10.940  49.779  0.00  0.00    -0.011 A 
ATOM      9  C   UNK d   0      11.562 -10.921  51.139  0.00  0.00     0.067 A 
ATOM     10  C   UNK d   0      12.347 -11.768  51.938  0.00  0.00     0.062 C 
ATOM     11  N   UNK d   0      11.153  -9.767  51.705  0.00  0.00    -0.248 NA
ATOM     12  C   UNK d   0      12.974 -11.451  53.147  0.00  0.00     0.041 A 
ATOM     13  N   UNK d   0      12.540 -10.755  54.215  0.00  0.00    -0.355 N 
ATOM     14  C   UNK d   0      14.311 -11.842  53.344  0.00  0.00    -0.022 A 
ATOM     15  C   UNK d   0      13.569 -10.688  55.081  0.00  0.00     0.042 A 
ATOM     16  H   UNK d   0      11.520 -10.336  54.363  0.00  0.00     0.166 HD
ATOM     17  C   UNK d   0      13.658 -10.081  56.349  0.00  0.00     0.062 C 
ATOM     18  C   UNK d   0      14.697 -11.358  54.569  0.00  0.00    -0.013 A 
ATOM     19  C   UNK d   0      13.221  -8.842  56.745  0.00  0.00     0.067 A 
ATOM     20  N   UNK d   0      12.432  -8.180  55.896  0.00  0.00    -0.248 NA
ATOM     21  C   UNK d   0      13.407  -7.992  57.909  0.00  0.00    -0.011 A 
ATOM     22  C   UNK d   0      12.089  -6.957  56.419  0.00  0.00     0.066 A 
ATOM     23  C   UNK d   0      11.237  -6.176  55.653  0.00  0.00     0.062 C 
ATOM     24  C   UNK d   0      12.745  -6.888  57.710  0.00  0.00    -0.020 A 
ATOM     25  C   UNK d   0      10.607  -6.518  54.446  0.00  0.00     0.041 A 
ATOM     26  N   UNK d   0      11.043  -7.197  53.379  0.00  0.00    -0.355 N 
ATOM     27  C   UNK d   0       9.264  -6.129  54.252  0.00  0.00    -0.022 A 
ATOM     28  C   UNK d   0      10.021  -7.257  52.510  0.00  0.00     0.042 A 
ATOM     29  H   UNK d   0      12.072  -7.608  53.227  0.00  0.00     0.166 HD
ATOM     30  C   UNK d   0       9.922  -7.850  51.242  0.00  0.00     0.062 C 
ATOM     31  C   UNK d   0       8.885  -6.593  53.030  0.00  0.00    -0.013 A 
ATOM     32  C   UNK d   0      10.440  -9.065  50.823  0.00  0.00     0.066 A 
BRANCH   8  33
ATOM     33  C   UNK d   0      11.257 -12.029  48.806  0.00  0.00     0.151 C 
BRANCH  33  34
ATOM     34  C   UNK d   0      10.647 -13.300  49.236  0.00  0.00     0.143 C 
ATOM     35  O   UNK d   0       9.615 -13.311  49.922  0.00  0.00    -0.650 OA
BRANCH  34  36
ATOM     36  O   UNK d   0      11.234 -14.489  48.870  0.00  0.00    -0.776 OA
ATOM     37  H   UNK d   0      10.854 -15.059  48.102  0.00  0.00     0.167 HD
ENDBRANCH  34  36
ENDBRANCH  33  34
ENDBRANCH   8  33
BRANCH  31  38
ATOM     38  C   UNK d   0       7.523  -6.428  52.396  0.00  0.00     0.151 C 
BRANCH  38  39
ATOM     39  C   UNK d   0       6.569  -7.417  52.852  0.00  0.00     0.143 C 
ATOM     40  O   UNK d   0       5.343  -7.280  52.694  0.00  0.00    -0.650 OA
BRANCH  39  41
ATOM     41  O   UNK d   0       7.027  -8.568  53.492  0.00  0.00    -0.776 OA
ATOM     42  H   UNK d   0       8.024  -8.783  53.399  0.00  0.00     0.167 HD
ENDBRANCH  39  41
ENDBRANCH  38  39
ENDBRANCH  31  38
BRANCH  27  43
ATOM     43  C   UNK d   0       8.351  -5.348  55.164  0.00  0.00     0.052 C 
BRANCH  43  44
ATOM     44  C   UNK d   0       8.531  -5.683  56.609  0.00  0.00     0.115 C 
BRANCH  44  45
ATOM     45  C   UNK d   0       8.031  -7.071  56.788  0.00  0.00     0.139 C 
ATOM     46  O   UNK d   0       8.693  -7.848  57.520  0.00  0.00    -0.650 OA
BRANCH  45  47
ATOM     47  O   UNK d   0       6.878  -7.533  56.192  0.00  0.00    -0.776 OA
ATOM     48  H   UNK d   0       6.276  -8.255  56.620  0.00  0.00     0.167 HD
ENDBRANCH  45  47
ENDBRANCH  44  45
ENDBRANCH  43  44
ENDBRANCH  27  43
BRANCH  24  49
ATOM     49  C   UNK d   0      12.629  -5.764  58.654  0.00  0.00     0.052 C 
BRANCH  49  50
ATOM     50  C   UNK d   0      11.348  -5.870  59.441  0.00  0.00     0.115 C 
BRANCH  50  51
ATOM     51  C   UNK d   0      11.418  -5.582  60.867  0.00  0.00     0.139 C 
ATOM     52  O   UNK d   0      11.815  -4.481  61.316  0.00  0.00    -0.650 OA
BRANCH  51  53
ATOM     53  O   UNK d   0      11.037  -6.552  61.782  0.00  0.00    -0.776 OA
ATOM     54  H   UNK d   0      11.614  -6.693  62.593  0.00  0.00     0.167 HD
ENDBRANCH  51  53
ENDBRANCH  50  51
ENDBRANCH  49  50
ENDBRANCH  24  49
BRANCH  21  55
ATOM     55  C   UNK d   0      14.222  -8.373  59.100  0.00  0.00     0.151 C 
BRANCH  55  56
ATOM     56  C   UNK d   0      13.491  -9.275  60.003  0.00  0.00     0.143 C 
ATOM     57  O   UNK d   0      12.735  -8.861  60.904  0.00  0.00    -0.650 OA
BRANCH  56  58
ATOM     58  O   UNK d   0      13.663 -10.647  59.829  0.00  0.00    -0.776 OA
ATOM     59  H   UNK d   0      14.549 -10.920  59.368  0.00  0.00     0.167 HD
ENDBRANCH  56  58
ENDBRANCH  55  56
ENDBRANCH  21  55
BRANCH  18  60
ATOM     60  C   UNK d   0      16.065 -11.540  55.178  0.00  0.00     0.151 C 
BRANCH  60  61
ATOM     61  C   UNK d   0      15.914 -12.582  56.206  0.00  0.00     0.143 C 
ATOM     62  O   UNK d   0      15.553 -13.747  56.034  0.00  0.00    -0.650 OA
BRANCH  61  63
ATOM     63  O   UNK d   0      16.223 -12.175  57.526  0.00  0.00    -0.776 OA
ATOM     64  H   UNK d   0      16.210 -11.205  57.786  0.00  0.00     0.167 HD
ENDBRANCH  61  63
ENDBRANCH  60  61
ENDBRANCH  18  60
BRANCH  14  65
ATOM     65  C   UNK d   0      15.210 -12.714  52.514  0.00  0.00     0.052 C 
BRANCH  65  66
ATOM     66  C   UNK d   0      14.941 -14.166  52.694  0.00  0.00     0.115 C 
BRANCH  66  67
ATOM     67  C   UNK d   0      14.002 -14.828  51.833  0.00  0.00     0.139 C 
ATOM     68  O   UNK d   0      13.288 -15.780  52.319  0.00  0.00    -0.650 OA
BRANCH  67  69
ATOM     69  O   UNK d   0      13.749 -14.568  50.486  0.00  0.00    -0.776 OA
ATOM     70  H   UNK d   0      12.758 -14.588  50.204  0.00  0.00     0.167 HD
ENDBRANCH  67  69
ENDBRANCH  66  67
ENDBRANCH  65  66
ENDBRANCH  14  65
ENDBRANCH   6   7
ENDBRANCH   5   6
ENDBRANCH   2   5
TORSDOF 28
ENDMDL
MODEL 2
REMARK VINA RESULT:      -6.9     29.054     32.427
REMARK  28 active torsions:
REMARK  status: ('A' for Active; 'I' for Inactive)
REMARK    1  A    between atoms: C_2  and  O_3 
REMARK    2  A    between atoms: C_2  and  C_4 
REMARK    3  A    between atoms: C_4  and  C_5 
REMARK    4  A    between atoms: C_5  and  C_6 
REMARK    5  A    between atoms: C_7  and  C_8 
REMARK    6  A    between atoms: C_8  and  C_9 
REMARK    7  A    between atoms: C_9  and  O_11 
REMARK    8  A    between atoms: C_28  and  C_29 
REMARK    9  A    between atoms: C_29  and  C_30 
REMARK   10  A    between atoms: C_30  and  O_32 
REMARK   11  A    between atoms: C_33  and  C_34 
REMARK   12  A    between atoms: C_34  and  C_35 
REMARK   13  A    between atoms: C_35  and  C_36 
REMARK   14  A    between atoms: C_36  and  O_38 
REMARK   15  A    between atoms: C_39  and  C_40 
REMARK   16  A    between atoms: C_40  and  C_41 
REMARK   17  A    between atoms: C_41  and  C_42 
REMARK   18  A    between atoms: C_42  and  O_44 
REMARK   19  A    between atoms: C_45  and  C_46 
REMARK   20  A    between atoms: C_46  and  C_47 
REMARK   21  A    between atoms: C_47  and  O_49 
REMARK   22  A    between atoms: C_50  and  C_51 
REMARK   23  A    between atoms: C_51  and  C_52 
REMARK   24  A    between atoms: C_52  and  O_54 
REMARK   25  A    between atoms: C_55  and  C_56 
REMARK   26  A    between atoms: C_56  and  C_57 
REMARK   27  A    between atoms: C_57  and  C_58 
REMARK   28  A    between atoms: C_58  and  O_60 
ROOT
ATOM      1  O   UNK d   0     -20.379 -22.037  55.063  0.00  0.00    -0.650 OA
ATOM      2  C   UNK d   0     -19.331 -22.432  54.507  0.00  0.00     0.139 C 
ENDROOT
BRANCH   2   3
ATOM      3  O   UNK d   0     -19.354 -22.744  53.169  0.00  0.00    -0.776 OA
ATOM      4  H   UNK d   0     -20.134 -23.264  52.762  0.00  0.00     0.167 HD
ENDBRANCH   2   3
BRANCH   2   5
ATOM      5  C   UNK d   0     -18.071 -22.562  55.292  0.00  0.00     0.115 C 
BRANCH   5   6
ATOM      6  C   UNK d   0     -17.442 -21.209  55.490  0.00  0.00     0.052 C 
BRANCH   6   7
ATOM      7  C   UNK d   0     -17.642 -20.674  56.888  0.00  0.00    -0.020 A 
ATOM      8  C   UNK d   0     -18.314 -19.611  57.248  0.00  0.00    -0.011 A 
ATOM      9  C   UNK d   0     -18.218 -19.492  58.693  0.00  0.00     0.067 A 
ATOM     10  C   UNK d   0     -18.714 -18.616  59.672  0.00  0.00     0.062 C 
ATOM     11  N   UNK d   0     -17.464 -20.521  59.131  0.00  0.00    -0.248 NA
ATOM     12  C   UNK d   0     -18.745 -18.822  61.055  0.00  0.00     0.041 A 
ATOM     13  N   UNK d   0     -17.824 -19.330  61.897  0.00  0.00    -0.355 N 
ATOM     14  C   UNK d   0     -19.924 -18.523  61.762  0.00  0.00    -0.022 A 
ATOM     15  C   UNK d   0     -18.392 -19.368  63.117  0.00  0.00     0.042 A 
ATOM     16  H   UNK d   0     -16.787 -19.637  61.637  0.00  0.00     0.166 HD
ATOM     17  C   UNK d   0     -17.874 -19.806  64.352  0.00  0.00     0.062 C 
ATOM     18  C   UNK d   0     -19.709 -18.871  63.072  0.00  0.00    -0.013 A 
ATOM     19  C   UNK d   0     -17.153 -20.939  64.632  0.00  0.00     0.067 A 
ATOM     20  N   UNK d   0     -16.698 -21.639  63.589  0.00  0.00    -0.248 NA
ATOM     21  C   UNK d   0     -16.732 -21.640  65.834  0.00  0.00    -0.011 A 
ATOM     22  C   UNK d   0     -16.012 -22.748  64.023  0.00  0.00     0.066 A 
ATOM     23  C   UNK d   0     -15.451 -23.548  63.039  0.00  0.00     0.062 C 
ATOM     24  C   UNK d   0     -16.069 -22.699  65.470  0.00  0.00    -0.020 A 
ATOM     25  C   UNK d   0     -15.420 -23.317  61.655  0.00  0.00     0.041 A 
ATOM     26  N   UNK d   0     -16.340 -22.826  60.816  0.00  0.00    -0.355 N 
ATOM     27  C   UNK d   0     -14.234 -23.613  60.948  0.00  0.00    -0.022 A 
ATOM     28  C   UNK d   0     -15.779 -22.795  59.597  0.00  0.00     0.042 A 
ATOM     29  H   UNK d   0     -17.385 -22.528  61.077  0.00  0.00     0.166 HD
ATOM     30  C   UNK d   0     -16.286 -22.371  58.359  0.00  0.00     0.062 C 
ATOM     31  C   UNK d   0     -14.453 -23.285  59.645  0.00  0.00    -0.013 A 
ATOM     32  C   UNK d   0     -17.086 -21.270  58.094  0.00  0.00     0.066 A 
BRANCH   8  33
ATOM     33  C   UNK d   0     -19.041 -18.683  56.362  0.00  0.00     0.151 C 
BRANCH  33  34
ATOM     34  C   UNK d   0     -20.489 -18.647  56.639  0.00  0.00     0.143 C 
ATOM     35  O   UNK d   0     -21.023 -17.629  57.103  0.00  0.00    -0.650 OA
BRANCH  34  36
ATOM     36  O   UNK d   0     -21.254 -19.760  56.379  0.00  0.00    -0.776 OA
ATOM     37  H   UNK d   0     -22.244 -19.677  56.111  0.00  0.00     0.167 HD
ENDBRANCH  34  36
ENDBRANCH  33  34
ENDBRANCH   8  33
BRANCH  31  38
ATOM     38  C   UNK d   0     -13.459 -23.415  58.514  0.00  0.00     0.151 C 
BRANCH  38  39
ATOM     39  C   UNK d   0     -13.755 -24.524  57.632  0.00  0.00     0.143 C 
ATOM     40  O   UNK d   0     -14.209 -25.604  58.049  0.00  0.00    -0.650 OA
BRANCH  39  41
ATOM     41  O   UNK d   0     -13.527 -24.390  56.262  0.00  0.00    -0.776 OA
ATOM     42  H   UNK d   0     -12.678 -24.827  55.891  0.00  0.00     0.167 HD
ENDBRANCH  39  41
ENDBRANCH  38  39
ENDBRANCH  31  38
BRANCH  27  43
ATOM     43  C   UNK d   0     -12.933 -24.184  61.454  0.00  0.00     0.052 C 
BRANCH  43  44
ATOM     44  C   UNK d   0     -12.000 -23.146  61.988  0.00  0.00     0.115 C 
BRANCH  44  45
ATOM     45  C   UNK d   0     -10.745 -23.259  61.201  0.00  0.00     0.139 C 
ATOM     46  O   UNK d   0     -10.621 -24.236  60.421  0.00  0.00    -0.650 OA
BRANCH  45  47
ATOM     47  O   UNK d   0      -9.723 -22.339  61.287  0.00  0.00    -0.776 OA
ATOM     48  H   UNK d   0      -9.746 -21.429  60.799  0.00  0.00     0.167 HD
ENDBRANCH  45  47
ENDBRANCH  44  45
ENDBRANCH  43  44
ENDBRANCH  27  43
BRANCH  24  49
ATOM     49  C   UNK d   0     -15.429 -23.674  66.370  0.00  0.00     0.052 C 
BRANCH  49  50
ATOM     50  C   UNK d   0     -13.951 -23.398  66.477  0.00  0.00     0.115 C 
BRANCH  50  51
ATOM     51  C   UNK d   0     -13.044 -24.469  66.089  0.00  0.00     0.139 C 
ATOM     52  O   UNK d   0     -13.275 -25.233  65.122  0.00  0.00    -0.650 OA
BRANCH  51  53
ATOM     53  O   UNK d   0     -11.875 -24.672  66.805  0.00  0.00    -0.776 OA
ATOM     54  H   UNK d   0     -10.999 -24.576  66.323  0.00  0.00     0.167 HD
ENDBRANCH  51  53
ENDBRANCH  50  51
ENDBRANCH  49  50
ENDBRANCH  24  49
BRANCH  21  55
ATOM     55  C   UNK d   0     -17.034 -21.175  67.220  0.00  0.00     0.151 C 
BRANCH  55  56
ATOM     56  C   UNK d   0     -16.074 -20.161  67.682  0.00  0.00     0.143 C 
ATOM     57  O   UNK d   0     -16.215 -18.943  67.454  0.00  0.00    -0.650 OA
BRANCH  56  58
ATOM     58  O   UNK d   0     -14.965 -20.599  68.405  0.00  0.00    -0.776 OA
ATOM     59  H   UNK d   0     -15.115 -20.681  69.427  0.00  0.00     0.167 HD
ENDBRANCH  56  58
ENDBRANCH  55  56
ENDBRANCH  21  55
BRANCH  18  60
ATOM     60  C   UNK d   0     -20.720 -18.727  64.182  0.00  0.00     0.151 C 
BRANCH  60  61
ATOM     61  C   UNK d   0     -20.591 -17.345  64.669  0.00  0.00     0.143 C 
ATOM     62  O   UNK d   0     -19.588 -16.820  65.153  0.00  0.00    -0.650 OA
BRANCH  61  63
ATOM     63  O   UNK d   0     -21.760 -16.554  64.557  0.00  0.00    -0.776 OA
ATOM     64  H   UNK d   0     -22.061 -16.198  63.667  0.00  0.00     0.167 HD
ENDBRANCH  61  63
ENDBRANCH  60  61
ENDBRANCH  18  60
BRANCH  14  65
ATOM     65  C   UNK d   0     -21.191 -17.850  61.315  0.00  0.00     0.052 C 
BRANCH  65  66
ATOM     66  C   UNK d   0     -22.293 -18.810  61.035  0.00  0.00     0.115 C 
BRANCH  66  67
ATOM     67  C   UNK d   0     -22.437 -19.362  59.718  0.00  0.00     0.139 C 
ATOM     68  O   UNK d   0     -21.756 -20.409  59.412  0.00  0.00    -0.650 OA
BRANCH  67  69
ATOM     69  O   UNK d   0     -23.249 -18.899  58.683  0.00  0.00    -0.776 OA
ATOM     70  H   UNK d   0     -23.171 -19.407  57.790  0.00  0.00     0.167 HD
ENDBRANCH  67  69
ENDBRANCH  66  67
ENDBRANCH  65  66
ENDBRANCH  14  65
ENDBRANCH   6   7
ENDBRANCH   5   6
ENDBRANCH   2   5
TORSDOF 28
ENDMDL
MODEL 3
REMARK VINA RESULT:      -6.8     29.064     32.832
REMARK  28 active torsions:
REMARK  status: ('A' for Active; 'I' for Inactive)
REMARK    1  A    between atoms: C_2  and  O_3 
REMARK    2  A    between atoms: C_2  and  C_4 
REMARK    3  A    between atoms: C_4  and  C_5 
REMARK    4  A    between atoms: C_5  and  C_6 
REMARK    5  A    between atoms: C_7  and  C_8 
REMARK    6  A    between atoms: C_8  and  C_9 
REMARK    7  A    between atoms: C_9  and  O_11 
REMARK    8  A    between atoms: C_28  and  C_29 
REMARK    9  A    between atoms: C_29  and  C_30 
REMARK   10  A    between atoms: C_30  and  O_32 
REMARK   11  A    between atoms: C_33  and  C_34 
REMARK   12  A    between atoms: C_34  and  C_35 
REMARK   13  A    between atoms: C_35  and  C_36 
REMARK   14  A    between atoms: C_36  and  O_38 
REMARK   15  A    between atoms: C_39  and  C_40 
REMARK   16  A    between atoms: C_40  and  C_41 
REMARK   17  A    between atoms: C_41  and  C_42 
REMARK   18  A    between atoms: C_42  and  O_44 
REMARK   19  A    between atoms: C_45  and  C_46 
REMARK   20  A    between atoms: C_46  and  C_47 
REMARK   21  A    between atoms: C_47  and  O_49 
REMARK   22  A    between atoms: C_50  and  C_51 
REMARK   23  A    between atoms: C_51  and  C_52 
REMARK   24  A    between atoms: C_52  and  O_54 
REMARK   25  A    between atoms: C_55  and  C_56 
REMARK   26  A    between atoms: C_56  and  C_57 
REMARK   27  A    between atoms: C_57  and  C_58 
REMARK   28  A    between atoms: C_58  and  O_60 
ROOT
ATOM      1  O   UNK d   0     -10.035 -33.226  55.753  0.00  0.00    -0.650 OA
ATOM      2  C   UNK d   0     -10.146 -33.438  54.525  0.00  0.00     0.139 C 
ENDROOT
BRANCH   2   3
ATOM      3  O   UNK d   0     -10.201 -34.732  54.067  0.00  0.00    -0.776 OA
ATOM      4  H   UNK d   0     -10.071 -35.522  54.703  0.00  0.00     0.167 HD
ENDBRANCH   2   3
BRANCH   2   5
ATOM      5  C   UNK d   0     -10.216 -32.295  53.571  0.00  0.00     0.115 C 
BRANCH   5   6
ATOM      6  C   UNK d   0      -8.836 -31.931  53.096  0.00  0.00     0.052 C 
BRANCH   6   7
ATOM      7  C   UNK d   0      -8.542 -32.455  51.710  0.00  0.00    -0.020 A 
ATOM      8  C   UNK d   0      -7.642 -33.340  51.366  0.00  0.00    -0.011 A 
ATOM      9  C   UNK d   0      -7.722 -33.520  49.926  0.00  0.00     0.067 A 
ATOM     10  C   UNK d   0      -7.073 -34.312  48.966  0.00  0.00     0.062 C 
ATOM     11  N   UNK d   0      -8.695 -32.700  49.474  0.00  0.00    -0.248 NA
ATOM     12  C   UNK d   0      -7.480 -34.552  47.649  0.00  0.00     0.041 A 
ATOM     13  N   UNK d   0      -7.977 -33.724  46.710  0.00  0.00    -0.355 N 
ATOM     14  C   UNK d   0      -7.449 -35.869  47.156  0.00  0.00    -0.022 A 
ATOM     15  C   UNK d   0      -8.269 -34.483  45.637  0.00  0.00     0.042 A 
ATOM     16  H   UNK d   0      -8.101 -32.622  46.798  0.00  0.00     0.166 HD
ATOM     17  C   UNK d   0      -8.809 -34.126  44.386  0.00  0.00     0.062 C 
ATOM     18  C   UNK d   0      -7.951 -35.834  45.879  0.00  0.00    -0.013 A 
ATOM     19  C   UNK d   0      -9.863 -33.295  44.106  0.00  0.00     0.067 A 
ATOM     20  N   UNK d   0     -10.337 -32.559  45.115  0.00  0.00    -0.248 NA
ATOM     21  C   UNK d   0     -10.668 -32.986  42.937  0.00  0.00    -0.011 A 
ATOM     22  C   UNK d   0     -11.394 -31.793  44.691  0.00  0.00     0.066 A 
ATOM     23  C   UNK d   0     -11.961 -30.948  45.634  0.00  0.00     0.062 C 
ATOM     24  C   UNK d   0     -11.565 -32.109  43.286  0.00  0.00    -0.020 A 
ATOM     25  C   UNK d   0     -11.528 -30.712  46.948  0.00  0.00     0.041 A 
ATOM     26  N   UNK d   0     -11.049 -31.537  47.886  0.00  0.00    -0.355 N 
ATOM     27  C   UNK d   0     -11.557 -29.389  47.440  0.00  0.00    -0.022 A 
ATOM     28  C   UNK d   0     -10.765 -30.783  48.960  0.00  0.00     0.042 A 
ATOM     29  H   UNK d   0     -10.935 -32.645  47.801  0.00  0.00     0.166 HD
ATOM     30  C   UNK d   0     -10.237 -31.126  50.215  0.00  0.00     0.062 C 
ATOM     31  C   UNK d   0     -11.075 -29.425  48.713  0.00  0.00    -0.013 A 
ATOM     32  C   UNK d   0      -9.227 -32.032  50.498  0.00  0.00     0.066 A 
BRANCH   8  33
ATOM     33  C   UNK d   0      -6.700 -34.039  52.260  0.00  0.00     0.151 C 
BRANCH  33  34
ATOM     34  C   UNK d   0      -6.948 -35.491  52.327  0.00  0.00     0.143 C 
ATOM     35  O   UNK d   0      -6.211 -36.290  51.732  0.00  0.00    -0.650 OA
BRANCH  34  36
ATOM     36  O   UNK d   0      -8.013 -35.962  53.059  0.00  0.00    -0.776 OA
ATOM     37  H   UNK d   0      -8.033 -36.928  53.414  0.00  0.00     0.167 HD
ENDBRANCH  34  36
ENDBRANCH  33  34
ENDBRANCH   8  33
BRANCH  31  38
ATOM     38  C   UNK d   0     -10.905 -28.241  49.635  0.00  0.00     0.151 C 
BRANCH  38  39
ATOM     39  C   UNK d   0     -12.098 -27.951  50.403  0.00  0.00     0.143 C 
ATOM     40  O   UNK d   0     -12.153 -27.013  51.218  0.00  0.00    -0.650 OA
BRANCH  39  41
ATOM     41  O   UNK d   0     -13.233 -28.743  50.232  0.00  0.00    -0.776 OA
ATOM     42  H   UNK d   0     -13.750 -28.997  51.079  0.00  0.00     0.167 HD
ENDBRANCH  39  41
ENDBRANCH  38  39
ENDBRANCH  31  38
BRANCH  27  43
ATOM     43  C   UNK d   0     -12.016 -28.123  46.761  0.00  0.00     0.052 C 
BRANCH  43  44
ATOM     44  C   UNK d   0     -10.934 -27.439  45.991  0.00  0.00     0.115 C 
BRANCH  44  45
ATOM     45  C   UNK d   0     -10.771 -26.090  46.595  0.00  0.00     0.139 C 
ATOM     46  O   UNK d   0     -11.655 -25.688  47.391  0.00  0.00    -0.650 OA
BRANCH  45  47
ATOM     47  O   UNK d   0      -9.695 -25.274  46.321  0.00  0.00    -0.776 OA
ATOM     48  H   UNK d   0      -9.650 -24.286  46.621  0.00  0.00     0.167 HD
ENDBRANCH  45  47
ENDBRANCH  44  45
ENDBRANCH  43  44
ENDBRANCH  27  43
BRANCH  24  49
ATOM     49  C   UNK d   0     -12.566 -31.490  42.401  0.00  0.00     0.052 C 
BRANCH  49  50
ATOM     50  C   UNK d   0     -12.210 -30.050  42.133  0.00  0.00     0.115 C 
BRANCH  50  51
ATOM     51  C   UNK d   0     -11.648 -29.736  40.826  0.00  0.00     0.139 C 
ATOM     52  O   UNK d   0     -10.697 -28.933  40.674  0.00  0.00    -0.650 OA
BRANCH  51  53
ATOM     53  O   UNK d   0     -12.173 -30.336  39.691  0.00  0.00    -0.776 OA
ATOM     54  H   UNK d   0     -11.597 -30.381  38.869  0.00  0.00     0.167 HD
ENDBRANCH  51  53
ENDBRANCH  50  51
ENDBRANCH  49  50
ENDBRANCH  24  49
BRANCH  21  55
ATOM     55  C   UNK d   0     -10.455 -33.595  41.591  0.00  0.00     0.151 C 
BRANCH  55  56
ATOM     56  C   UNK d   0      -9.314 -32.990  40.886  0.00  0.00     0.143 C 
ATOM     57  O   UNK d   0      -8.151 -33.427  40.984  0.00  0.00    -0.650 OA
BRANCH  56  58
ATOM     58  O   UNK d   0      -9.565 -31.881  40.079  0.00  0.00    -0.776 OA
ATOM     59  H   UNK d   0      -9.051 -31.872  39.179  0.00  0.00     0.167 HD
ENDBRANCH  56  58
ENDBRANCH  55  56
ENDBRANCH  21  55
BRANCH  18  60
ATOM     60  C   UNK d   0      -8.107 -37.034  44.978  0.00  0.00     0.151 C 
BRANCH  60  61
ATOM     61  C   UNK d   0      -6.835 -37.159  44.250  0.00  0.00     0.143 C 
ATOM     62  O   UNK d   0      -6.397 -36.399  43.385  0.00  0.00    -0.650 OA
BRANCH  61  63
ATOM     63  O   UNK d   0      -6.049 -38.283  44.599  0.00  0.00    -0.776 OA
ATOM     64  H   UNK d   0      -5.839 -38.490  45.560  0.00  0.00     0.167 HD
ENDBRANCH  61  63
ENDBRANCH  60  61
ENDBRANCH  18  60
BRANCH  14  65
ATOM     65  C   UNK d   0      -6.893 -37.128  47.758  0.00  0.00     0.052 C 
BRANCH  65  66
ATOM     66  C   UNK d   0      -5.412 -37.104  47.893  0.00  0.00     0.115 C 
BRANCH  66  67
ATOM     67  C   UNK d   0      -4.761 -38.050  48.755  0.00  0.00     0.139 C 
ATOM     68  O   UNK d   0      -4.520 -39.229  48.302  0.00  0.00    -0.650 OA
BRANCH  67  69
ATOM     69  O   UNK d   0      -4.337 -37.856  50.069  0.00  0.00    -0.776 OA
ATOM     70  H   UNK d   0      -3.523 -37.237  50.191  0.00  0.00     0.167 HD
ENDBRANCH  67  69
ENDBRANCH  66  67
ENDBRANCH  65  66
ENDBRANCH  14  65
ENDBRANCH   6   7
ENDBRANCH   5   6
ENDBRANCH   2   5
TORSDOF 28
ENDMDL
MODEL 4
REMARK VINA RESULT:      -6.7     29.883     33.085
REMARK  28 active torsions:
REMARK  status: ('A' for Active; 'I' for Inactive)
REMARK    1  A    between atoms: C_2  and  O_3 
REMARK    2  A    between atoms: C_2  and  C_4 
REMARK    3  A    between atoms: C_4  and  C_5 
REMARK    4  A    between atoms: C_5  and  C_6 
REMARK    5  A    between atoms: C_7  and  C_8 
REMARK    6  A    between atoms: C_8  and  C_9 
REMARK    7  A    between atoms: C_9  and  O_11 
REMARK    8  A    between atoms: C_28  and  C_29 
REMARK    9  A    between atoms: C_29  and  C_30 
REMARK   10  A    between atoms: C_30  and  O_32 
REMARK   11  A    between atoms: C_33  and  C_34 
REMARK   12  A    between atoms: C_34  and  C_35 
REMARK   13  A    between atoms: C_35  and  C_36 
REMARK   14  A    between atoms: C_36  and  O_38 
REMARK   15  A    between atoms: C_39  and  C_40 
REMARK   16  A    between atoms: C_40  and  C_41 
REMARK   17  A    between atoms: C_41  and  C_42 
REMARK   18  A    between atoms: C_42  and  O_44 
REMARK   19  A    between atoms: C_45  and  C_46 
REMARK   20  A    between atoms: C_46  and  C_47 
REMARK   21  A    between atoms: C_47  and  O_49 
REMARK   22  A    between atoms: C_50  and  C_51 
REMARK   23  A    between atoms: C_51  and  C_52 
REMARK   24  A    between atoms: C_52  and  O_54 
REMARK   25  A    between atoms: C_55  and  C_56 
REMARK   26  A    between atoms: C_56  and  C_57 
REMARK   27  A    between atoms: C_57  and  C_58 
REMARK   28  A    between atoms: C_58  and  O_60 
ROOT
ATOM      1  O   UNK d   0     -11.579 -29.299  53.866  0.00  0.00    -0.650 OA
ATOM      2  C   UNK d   0     -11.402 -28.509  52.912  0.00  0.00     0.139 C 
ENDROOT
BRANCH   2   3
ATOM      3  O   UNK d   0     -11.035 -27.210  53.171  0.00  0.00    -0.776 OA
ATOM      4  H   UNK d   0     -11.418 -26.435  52.626  0.00  0.00     0.167 HD
ENDBRANCH   2   3
BRANCH   2   5
ATOM      5  C   UNK d   0     -11.590 -28.976  51.509  0.00  0.00     0.115 C 
BRANCH   5   6
ATOM      6  C   UNK d   0     -11.697 -30.476  51.473  0.00  0.00     0.052 C 
BRANCH   6   7
ATOM      7  C   UNK d   0     -10.588 -31.119  50.676  0.00  0.00    -0.020 A 
ATOM      8  C   UNK d   0      -9.415 -31.505  51.108  0.00  0.00    -0.011 A 
ATOM      9  C   UNK d   0      -8.685 -32.058  49.979  0.00  0.00     0.067 A 
ATOM     10  C   UNK d   0      -7.425 -32.644  49.777  0.00  0.00     0.062 C 
ATOM     11  N   UNK d   0      -9.487 -31.963  48.898  0.00  0.00    -0.248 NA
ATOM     12  C   UNK d   0      -7.000 -33.376  48.663  0.00  0.00     0.041 A 
ATOM     13  N   UNK d   0      -7.175 -33.165  47.344  0.00  0.00    -0.355 N 
ATOM     14  C   UNK d   0      -6.309 -34.585  48.866  0.00  0.00    -0.022 A 
ATOM     15  C   UNK d   0      -6.620 -34.213  46.706  0.00  0.00     0.042 A 
ATOM     16  H   UNK d   0      -7.664 -32.284  46.874  0.00  0.00     0.166 HD
ATOM     17  C   UNK d   0      -6.521 -34.495  45.329  0.00  0.00     0.062 C 
ATOM     18  C   UNK d   0      -6.068 -35.124  47.627  0.00  0.00    -0.013 A 
ATOM     19  C   UNK d   0      -7.482 -34.387  44.355  0.00  0.00     0.067 A 
ATOM     20  N   UNK d   0      -8.608 -33.750  44.685  0.00  0.00    -0.248 NA
ATOM     21  C   UNK d   0      -7.622 -34.818  42.974  0.00  0.00    -0.011 A 
ATOM     22  C   UNK d   0      -9.476 -33.735  43.620  0.00  0.00     0.066 A 
ATOM     23  C   UNK d   0     -10.677 -33.068  43.814  0.00  0.00     0.062 C 
ATOM     24  C   UNK d   0      -8.793 -34.437  42.552  0.00  0.00    -0.020 A 
ATOM     25  C   UNK d   0     -11.079 -32.328  44.936  0.00  0.00     0.041 A 
ATOM     26  N   UNK d   0     -10.918 -32.545  46.247  0.00  0.00    -0.355 N 
ATOM     27  C   UNK d   0     -11.768 -31.113  44.731  0.00  0.00    -0.022 A 
ATOM     28  C   UNK d   0     -11.479 -31.506  46.886  0.00  0.00     0.042 A 
ATOM     29  H   UNK d   0     -10.436 -33.436  46.719  0.00  0.00     0.166 HD
ATOM     30  C   UNK d   0     -11.592 -31.217  48.255  0.00  0.00     0.062 C 
ATOM     31  C   UNK d   0     -12.025 -30.586  45.960  0.00  0.00    -0.013 A 
ATOM     32  C   UNK d   0     -10.647 -31.408  49.250  0.00  0.00     0.066 A 
BRANCH   8  33
ATOM     33  C   UNK d   0      -8.902 -31.403  52.486  0.00  0.00     0.151 C 
BRANCH  33  34
ATOM     34  C   UNK d   0      -9.647 -32.247  53.437  0.00  0.00     0.143 C 
ATOM     35  O   UNK d   0      -9.721 -33.474  53.276  0.00  0.00    -0.650 OA
BRANCH  34  36
ATOM     36  O   UNK d   0     -10.270 -31.663  54.515  0.00  0.00    -0.776 OA
ATOM     37  H   UNK d   0      -9.741 -31.107  55.201  0.00  0.00     0.167 HD
ENDBRANCH  34  36
ENDBRANCH  33  34
ENDBRANCH   8  33
BRANCH  31  38
ATOM     38  C   UNK d   0     -12.733 -29.281  46.240  0.00  0.00     0.151 C 
BRANCH  38  39
ATOM     39  C   UNK d   0     -11.857 -28.133  46.137  0.00  0.00     0.143 C 
ATOM     40  O   UNK d   0     -11.071 -27.812  47.045  0.00  0.00    -0.650 OA
BRANCH  39  41
ATOM     41  O   UNK d   0     -11.886 -27.350  44.983  0.00  0.00    -0.776 OA
ATOM     42  H   UNK d   0     -10.991 -27.195  44.508  0.00  0.00     0.167 HD
ENDBRANCH  39  41
ENDBRANCH  38  39
ENDBRANCH  31  38
BRANCH  27  43
ATOM     43  C   UNK d   0     -12.184 -30.452  43.441  0.00  0.00     0.052 C 
BRANCH  43  44
ATOM     44  C   UNK d   0     -13.616 -30.692  43.089  0.00  0.00     0.115 C 
BRANCH  44  45
ATOM     45  C   UNK d   0     -14.264 -29.356  43.013  0.00  0.00     0.139 C 
ATOM     46  O   UNK d   0     -15.503 -29.287  43.207  0.00  0.00    -0.650 OA
BRANCH  45  47
ATOM     47  O   UNK d   0     -13.563 -28.200  42.745  0.00  0.00    -0.776 OA
ATOM     48  H   UNK d   0     -14.005 -27.357  42.345  0.00  0.00     0.167 HD
ENDBRANCH  45  47
ENDBRANCH  44  45
ENDBRANCH  43  44
ENDBRANCH  27  43
BRANCH  24  49
ATOM     49  C   UNK d   0      -9.333 -34.633  41.195  0.00  0.00     0.052 C 
BRANCH  49  50
ATOM     50  C   UNK d   0      -9.010 -33.446  40.325  0.00  0.00     0.115 C 
BRANCH  50  51
ATOM     51  C   UNK d   0      -7.941 -33.607  39.349  0.00  0.00     0.139 C 
ATOM     52  O   UNK d   0      -7.579 -34.729  38.922  0.00  0.00    -0.650 OA
BRANCH  51  53
ATOM     53  O   UNK d   0      -7.283 -32.489  38.860  0.00  0.00    -0.776 OA
ATOM     54  H   UNK d   0      -7.798 -31.849  38.282  0.00  0.00     0.167 HD
ENDBRANCH  51  53
ENDBRANCH  50  51
ENDBRANCH  49  50
ENDBRANCH  24  49
BRANCH  21  55
ATOM     55  C   UNK d   0      -6.570 -35.562  42.221  0.00  0.00     0.151 C 
BRANCH  55  56
ATOM     56  C   UNK d   0      -6.579 -36.999  42.535  0.00  0.00     0.143 C 
ATOM     57  O   UNK d   0      -7.333 -37.811  41.962  0.00  0.00    -0.650 OA
BRANCH  56  58
ATOM     58  O   UNK d   0      -5.701 -37.455  43.516  0.00  0.00    -0.776 OA
ATOM     59  H   UNK d   0      -5.225 -36.709  44.056  0.00  0.00     0.167 HD
ENDBRANCH  56  58
ENDBRANCH  55  56
ENDBRANCH  21  55
BRANCH  18  60
ATOM     60  C   UNK d   0      -5.354 -36.429  47.376  0.00  0.00     0.151 C 
BRANCH  60  61
ATOM     61  C   UNK d   0      -6.398 -37.465  47.366  0.00  0.00     0.143 C 
ATOM     62  O   UNK d   0      -6.783 -38.140  48.321  0.00  0.00    -0.650 OA
BRANCH  61  63
ATOM     63  O   UNK d   0      -7.011 -37.689  46.110  0.00  0.00    -0.776 OA
ATOM     64  H   UNK d   0      -7.524 -38.534  45.927  0.00  0.00     0.167 HD
ENDBRANCH  61  63
ENDBRANCH  60  61
ENDBRANCH  18  60
BRANCH  14  65
ATOM     65  C   UNK d   0      -5.780 -35.212  50.124  0.00  0.00     0.052 C 
BRANCH  65  66
ATOM     66  C   UNK d   0      -6.823 -35.944  50.892  0.00  0.00     0.115 C 
BRANCH  66  67
ATOM     67  C   UNK d   0      -7.237 -35.452  52.176  0.00  0.00     0.139 C 
ATOM     68  O   UNK d   0      -6.665 -34.400  52.643  0.00  0.00    -0.650 OA
BRANCH  67  69
ATOM     69  O   UNK d   0      -8.214 -35.982  53.018  0.00  0.00    -0.776 OA
ATOM     70  H   UNK d   0      -8.509 -35.377  53.798  0.00  0.00     0.167 HD
ENDBRANCH  67  69
ENDBRANCH  66  67
ENDBRANCH  65  66
ENDBRANCH  14  65
ENDBRANCH   6   7
ENDBRANCH   5   6
ENDBRANCH   2   5
TORSDOF 28
ENDMDL
MODEL 5
REMARK VINA RESULT:      -6.7     30.090     33.579
REMARK  28 active torsions:
REMARK  status: ('A' for Active; 'I' for Inactive)
REMARK    1  A    between atoms: C_2  and  O_3 
REMARK    2  A    between atoms: C_2  and  C_4 
REMARK    3  A    between atoms: C_4  and  C_5 
REMARK    4  A    between atoms: C_5  and  C_6 
REMARK    5  A    between atoms: C_7  and  C_8 
REMARK    6  A    between atoms: C_8  and  C_9 
REMARK    7  A    between atoms: C_9  and  O_11 
REMARK    8  A    between atoms: C_28  and  C_29 
REMARK    9  A    between atoms: C_29  and  C_30 
REMARK   10  A    between atoms: C_30  and  O_32 
REMARK   11  A    between atoms: C_33  and  C_34 
REMARK   12  A    between atoms: C_34  and  C_35 
REMARK   13  A    between atoms: C_35  and  C_36 
REMARK   14  A    between atoms: C_36  and  O_38 
REMARK   15  A    between atoms: C_39  and  C_40 
REMARK   16  A    between atoms: C_40  and  C_41 
REMARK   17  A    between atoms: C_41  and  C_42 
REMARK   18  A    between atoms: C_42  and  O_44 
REMARK   19  A    between atoms: C_45  and  C_46 
REMARK   20  A    between atoms: C_46  and  C_47 
REMARK   21  A    between atoms: C_47  and  O_49 
REMARK   22  A    between atoms: C_50  and  C_51 
REMARK   23  A    between atoms: C_51  and  C_52 
REMARK   24  A    between atoms: C_52  and  O_54 
REMARK   25  A    between atoms: C_55  and  C_56 
REMARK   26  A    between atoms: C_56  and  C_57 
REMARK   27  A    between atoms: C_57  and  C_58 
REMARK   28  A    between atoms: C_58  and  O_60 
ROOT
ATOM      1  O   UNK d   0     -10.172 -33.322  53.395  0.00  0.00    -0.650 OA
ATOM      2  C   UNK d   0      -9.607 -32.209  53.478  0.00  0.00     0.139 C 
ENDROOT
BRANCH   2   3
ATOM      3  O   UNK d   0      -8.275 -32.153  53.811  0.00  0.00    -0.776 OA
ATOM      4  H   UNK d   0      -7.830 -31.267  54.059  0.00  0.00     0.167 HD
ENDBRANCH   2   3
BRANCH   2   5
ATOM      5  C   UNK d   0     -10.375 -30.959  53.217  0.00  0.00     0.115 C 
BRANCH   5   6
ATOM      6  C   UNK d   0      -9.745 -30.190  52.088  0.00  0.00     0.052 C 
BRANCH   6   7
ATOM      7  C   UNK d   0     -10.111 -30.743  50.732  0.00  0.00    -0.020 A 
ATOM      8  C   UNK d   0     -11.239 -30.592  50.086  0.00  0.00    -0.011 A 
ATOM      9  C   UNK d   0     -11.132 -31.311  48.828  0.00  0.00     0.067 A 
ATOM     10  C   UNK d   0     -11.953 -31.522  47.709  0.00  0.00     0.062 C 
ATOM     11  N   UNK d   0      -9.907 -31.876  48.793  0.00  0.00    -0.248 NA
ATOM     12  C   UNK d   0     -11.569 -32.019  46.458  0.00  0.00     0.041 A 
ATOM     13  N   UNK d   0     -10.753 -33.036  46.121  0.00  0.00    -0.355 N 
ATOM     14  C   UNK d   0     -12.027 -31.369  45.298  0.00  0.00    -0.022 A 
ATOM     15  C   UNK d   0     -10.676 -33.043  44.777  0.00  0.00     0.042 A 
ATOM     16  H   UNK d   0     -10.258 -33.747  46.818  0.00  0.00     0.166 HD
ATOM     17  C   UNK d   0      -9.964 -33.894  43.907  0.00  0.00     0.062 C 
ATOM     18  C   UNK d   0     -11.461 -32.012  44.225  0.00  0.00    -0.013 A 
ATOM     19  C   UNK d   0      -8.670 -34.336  44.002  0.00  0.00     0.067 A 
ATOM     20  N   UNK d   0      -8.036 -34.109  45.156  0.00  0.00    -0.248 NA
ATOM     21  C   UNK d   0      -7.732 -35.018  43.126  0.00  0.00    -0.011 A 
ATOM     22  C   UNK d   0      -6.752 -34.592  45.097  0.00  0.00     0.066 A 
ATOM     23  C   UNK d   0      -5.989 -34.456  46.247  0.00  0.00     0.062 C 
ATOM     24  C   UNK d   0      -6.610 -35.161  43.771  0.00  0.00    -0.020 A 
ATOM     25  C   UNK d   0      -6.397 -33.966  47.497  0.00  0.00     0.041 A 
ATOM     26  N   UNK d   0      -7.195 -32.946  47.833  0.00  0.00    -0.355 N 
ATOM     27  C   UNK d   0      -5.940 -34.621  48.661  0.00  0.00    -0.022 A 
ATOM     28  C   UNK d   0      -7.267 -32.931  49.173  0.00  0.00     0.042 A 
ATOM     29  H   UNK d   0      -7.684 -32.226  47.132  0.00  0.00     0.166 HD
ATOM     30  C   UNK d   0      -7.964 -32.085  50.051  0.00  0.00     0.062 C 
ATOM     31  C   UNK d   0      -6.486 -33.974  49.726  0.00  0.00    -0.013 A 
ATOM     32  C   UNK d   0      -9.243 -31.572  49.909  0.00  0.00     0.066 A 
BRANCH   8  33
ATOM     33  C   UNK d   0     -12.422 -29.836  50.537  0.00  0.00     0.151 C 
BRANCH  33  34
ATOM     34  C   UNK d   0     -12.324 -28.394  50.246  0.00  0.00     0.143 C 
ATOM     35  O   UNK d   0     -12.285 -27.561  51.162  0.00  0.00    -0.650 OA
BRANCH  34  36
ATOM     36  O   UNK d   0     -12.276 -27.971  48.937  0.00  0.00    -0.776 OA
ATOM     37  H   UNK d   0     -11.403 -27.616  48.523  0.00  0.00     0.167 HD
ENDBRANCH  34  36
ENDBRANCH  33  34
ENDBRANCH   8  33
BRANCH  31  38
ATOM     38  C   UNK d   0      -6.292 -34.329  51.182  0.00  0.00     0.151 C 
BRANCH  38  39
ATOM     39  C   UNK d   0      -7.385 -35.110  51.721  0.00  0.00     0.143 C 
ATOM     40  O   UNK d   0      -8.064 -35.878  51.017  0.00  0.00    -0.650 OA
BRANCH  39  41
ATOM     41  O   UNK d   0      -7.699 -35.007  53.075  0.00  0.00    -0.776 OA
ATOM     42  H   UNK d   0      -7.091 -35.509  53.730  0.00  0.00     0.167 HD
ENDBRANCH  39  41
ENDBRANCH  38  39
ENDBRANCH  31  38
BRANCH  27  43
ATOM     43  C   UNK d   0      -5.023 -35.811  48.794  0.00  0.00     0.052 C 
BRANCH  43  44
ATOM     44  C   UNK d   0      -5.750 -37.116  48.836  0.00  0.00     0.115 C 
BRANCH  44  45
ATOM     45  C   UNK d   0      -4.757 -38.167  48.492  0.00  0.00     0.139 C 
ATOM     46  O   UNK d   0      -4.958 -38.857  47.462  0.00  0.00    -0.650 OA
BRANCH  45  47
ATOM     47  O   UNK d   0      -3.631 -38.408  49.249  0.00  0.00    -0.776 OA
ATOM     48  H   UNK d   0      -3.636 -38.392  50.281  0.00  0.00     0.167 HD
ENDBRANCH  45  47
ENDBRANCH  44  45
ENDBRANCH  43  44
ENDBRANCH  27  43
BRANCH  24  49
ATOM     49  C   UNK d   0      -5.400 -35.835  43.270  0.00  0.00     0.052 C 
BRANCH  49  50
ATOM     50  C   UNK d   0      -5.031 -36.987  44.169  0.00  0.00     0.115 C 
BRANCH  50  51
ATOM     51  C   UNK d   0      -5.530 -38.305  43.800  0.00  0.00     0.139 C 
ATOM     52  O   UNK d   0      -6.143 -38.520  42.728  0.00  0.00    -0.650 OA
BRANCH  51  53
ATOM     53  O   UNK d   0      -5.334 -39.377  44.657  0.00  0.00    -0.776 OA
ATOM     54  H   UNK d   0      -6.081 -40.040  44.767  0.00  0.00     0.167 HD
ENDBRANCH  51  53
ENDBRANCH  50  51
ENDBRANCH  49  50
ENDBRANCH  24  49
BRANCH  21  55
ATOM     55  C   UNK d   0      -8.056 -35.460  41.737  0.00  0.00     0.151 C 
BRANCH  55  56
ATOM     56  C   UNK d   0      -7.667 -34.456  40.735  0.00  0.00     0.143 C 
ATOM     57  O   UNK d   0      -6.887 -34.709  39.795  0.00  0.00    -0.650 OA
BRANCH  56  58
ATOM     58  O   UNK d   0      -8.202 -33.175  40.857  0.00  0.00    -0.776 OA
ATOM     59  H   UNK d   0      -8.963 -33.085  41.554  0.00  0.00     0.167 HD
ENDBRANCH  56  58
ENDBRANCH  55  56
ENDBRANCH  21  55
BRANCH  18  60
ATOM     60  C   UNK d   0     -11.676 -31.636  42.780  0.00  0.00     0.151 C 
BRANCH  60  61
ATOM     61  C   UNK d   0     -12.900 -32.336  42.359  0.00  0.00     0.143 C 
ATOM     62  O   UNK d   0     -13.069 -33.553  42.279  0.00  0.00    -0.650 OA
BRANCH  61  63
ATOM     63  O   UNK d   0     -13.986 -31.496  42.014  0.00  0.00    -0.776 OA
ATOM     64  H   UNK d   0     -13.956 -30.508  42.198  0.00  0.00     0.167 HD
ENDBRANCH  61  63
ENDBRANCH  60  61
ENDBRANCH  18  60
BRANCH  14  65
ATOM     65  C   UNK d   0     -13.026 -30.261  45.124  0.00  0.00     0.052 C 
BRANCH  65  66
ATOM     66  C   UNK d   0     -12.466 -28.919  45.436  0.00  0.00     0.115 C 
BRANCH  66  67
ATOM     67  C   UNK d   0     -11.634 -28.254  44.474  0.00  0.00     0.139 C 
ATOM     68  O   UNK d   0     -10.545 -27.703  44.880  0.00  0.00    -0.650 OA
BRANCH  67  69
ATOM     69  O   UNK d   0     -11.854 -28.118  43.103  0.00  0.00    -0.776 OA
ATOM     70  H   UNK d   0     -12.829 -27.937  42.822  0.00  0.00     0.167 HD
ENDBRANCH  67  69
ENDBRANCH  66  67
ENDBRANCH  65  66
ENDBRANCH  14  65
ENDBRANCH   6   7
ENDBRANCH   5   6
ENDBRANCH   2   5
TORSDOF 28
ENDMDL
MODEL 6
REMARK VINA RESULT:      -6.7     29.725     33.939
REMARK  28 active torsions:
REMARK  status: ('A' for Active; 'I' for Inactive)
REMARK    1  A    between atoms: C_2  and  O_3 
REMARK    2  A    between atoms: C_2  and  C_4 
REMARK    3  A    between atoms: C_4  and  C_5 
REMARK    4  A    between atoms: C_5  and  C_6 
REMARK    5  A    between atoms: C_7  and  C_8 
REMARK    6  A    between atoms: C_8  and  C_9 
REMARK    7  A    between atoms: C_9  and  O_11 
REMARK    8  A    between atoms: C_28  and  C_29 
REMARK    9  A    between atoms: C_29  and  C_30 
REMARK   10  A    between atoms: C_30  and  O_32 
REMARK   11  A    between atoms: C_33  and  C_34 
REMARK   12  A    between atoms: C_34  and  C_35 
REMARK   13  A    between atoms: C_35  and  C_36 
REMARK   14  A    between atoms: C_36  and  O_38 
REMARK   15  A    between atoms: C_39  and  C_40 
REMARK   16  A    between atoms: C_40  and  C_41 
REMARK   17  A    between atoms: C_41  and  C_42 
REMARK   18  A    between atoms: C_42  and  O_44 
REMARK   19  A    between atoms: C_45  and  C_46 
REMARK   20  A    between atoms: C_46  and  C_47 
REMARK   21  A    between atoms: C_47  and  O_49 
REMARK   22  A    between atoms: C_50  and  C_51 
REMARK   23  A    between atoms: C_51  and  C_52 
REMARK   24  A    between atoms: C_52  and  O_54 
REMARK   25  A    between atoms: C_55  and  C_56 
REMARK   26  A    between atoms: C_56  and  C_57 
REMARK   27  A    between atoms: C_57  and  C_58 
REMARK   28  A    between atoms: C_58  and  O_60 
ROOT
ATOM      1  O   UNK d   0      -7.239 -36.004  50.687  0.00  0.00    -0.650 OA
ATOM      2  C   UNK d   0      -6.495 -35.165  51.240  0.00  0.00     0.139 C 
ENDROOT
BRANCH   2   3
ATOM      3  O   UNK d   0      -6.576 -34.986  52.600  0.00  0.00    -0.776 OA
ATOM      4  H   UNK d   0      -6.011 -35.548  53.241  0.00  0.00     0.167 HD
ENDBRANCH   2   3
BRANCH   2   5
ATOM      5  C   UNK d   0      -5.532 -34.368  50.428  0.00  0.00     0.115 C 
BRANCH   5   6
ATOM      6  C   UNK d   0      -5.973 -32.930  50.367  0.00  0.00     0.052 C 
BRANCH   6   7
ATOM      7  C   UNK d   0      -7.222 -32.740  49.540  0.00  0.00    -0.020 A 
ATOM      8  C   UNK d   0      -8.358 -32.212  49.919  0.00  0.00    -0.011 A 
ATOM      9  C   UNK d   0      -9.267 -32.251  48.786  0.00  0.00     0.067 A 
ATOM     10  C   UNK d   0     -10.584 -31.839  48.530  0.00  0.00     0.062 C 
ATOM     11  N   UNK d   0      -8.604 -32.825  47.760  0.00  0.00    -0.248 NA
ATOM     12  C   UNK d   0     -11.204 -31.709  47.283  0.00  0.00     0.041 A 
ATOM     13  N   UNK d   0     -11.182 -32.502  46.195  0.00  0.00    -0.355 N 
ATOM     14  C   UNK d   0     -11.957 -30.551  47.015  0.00  0.00    -0.022 A 
ATOM     15  C   UNK d   0     -11.895 -31.874  45.241  0.00  0.00     0.042 A 
ATOM     16  H   UNK d   0     -10.689 -33.496  46.110  0.00  0.00     0.166 HD
ATOM     17  C   UNK d   0     -12.190 -32.260  43.918  0.00  0.00     0.062 C 
ATOM     18  C   UNK d   0     -12.396 -30.647  45.718  0.00  0.00    -0.013 A 
ATOM     19  C   UNK d   0     -11.357 -32.794  42.969  0.00  0.00     0.067 A 
ATOM     20  N   UNK d   0     -10.150 -33.194  43.380  0.00  0.00    -0.248 NA
ATOM     21  C   UNK d   0     -11.427 -33.047  41.540  0.00  0.00    -0.011 A 
ATOM     22  C   UNK d   0      -9.427 -33.689  42.323  0.00  0.00     0.066 A 
ATOM     23  C   UNK d   0      -8.162 -34.178  42.616  0.00  0.00     0.062 C 
ATOM     24  C   UNK d   0     -10.294 -33.567  41.167  0.00  0.00    -0.020 A 
ATOM     25  C   UNK d   0      -7.563 -34.312  43.878  0.00  0.00     0.041 A 
ATOM     26  N   UNK d   0      -7.572 -33.516  44.954  0.00  0.00    -0.355 N 
ATOM     27  C   UNK d   0      -6.811 -35.476  44.148  0.00  0.00    -0.022 A 
ATOM     28  C   UNK d   0      -6.855 -34.136  45.904  0.00  0.00     0.042 A 
ATOM     29  H   UNK d   0      -8.059 -32.513  45.035  0.00  0.00     0.166 HD
ATOM     30  C   UNK d   0      -6.545 -33.759  47.221  0.00  0.00     0.062 C 
ATOM     31  C   UNK d   0      -6.360 -35.373  45.428  0.00  0.00    -0.013 A 
ATOM     32  C   UNK d   0      -7.368 -33.142  48.149  0.00  0.00     0.066 A 
BRANCH   8  33
ATOM     33  C   UNK d   0      -8.681 -31.673  51.253  0.00  0.00     0.151 C 
BRANCH  33  34
ATOM     34  C   UNK d   0      -9.159 -32.709  52.187  0.00  0.00     0.143 C 
ATOM     35  O   UNK d   0      -8.556 -32.940  53.244  0.00  0.00    -0.650 OA
BRANCH  34  36
ATOM     36  O   UNK d   0     -10.291 -33.427  51.876  0.00  0.00    -0.776 OA
ATOM     37  H   UNK d   0     -11.082 -33.488  52.532  0.00  0.00     0.167 HD
ENDBRANCH  34  36
ENDBRANCH  33  34
ENDBRANCH   8  33
BRANCH  31  38
ATOM     38  C   UNK d   0      -5.521 -36.393  46.162  0.00  0.00     0.151 C 
BRANCH  38  39
ATOM     39  C   UNK d   0      -6.313 -37.449  46.756  0.00  0.00     0.143 C 
ATOM     40  O   UNK d   0      -6.411 -38.577  46.242  0.00  0.00    -0.650 OA
BRANCH  39  41
ATOM     41  O   UNK d   0      -6.995 -37.208  47.948  0.00  0.00    -0.776 OA
ATOM     42  H   UNK d   0      -7.068 -37.991  48.605  0.00  0.00     0.167 HD
ENDBRANCH  39  41
ENDBRANCH  38  39
ENDBRANCH  31  38
BRANCH  27  43
ATOM     43  C   UNK d   0      -6.513 -36.653  43.253  0.00  0.00     0.052 C 
BRANCH  43  44
ATOM     44  C   UNK d   0      -5.227 -36.514  42.504  0.00  0.00     0.115 C 
BRANCH  44  45
ATOM     45  C   UNK d   0      -4.449 -37.753  42.763  0.00  0.00     0.139 C 
ATOM     46  O   UNK d   0      -3.339 -37.885  42.190  0.00  0.00    -0.650 OA
BRANCH  45  47
ATOM     47  O   UNK d   0      -4.892 -38.752  43.603  0.00  0.00    -0.776 OA
ATOM     48  H   UNK d   0      -5.888 -39.007  43.694  0.00  0.00     0.167 HD
ENDBRANCH  45  47
ENDBRANCH  44  45
ENDBRANCH  43  44
ENDBRANCH  27  43
BRANCH  24  49
ATOM     49  C   UNK d   0      -9.948 -34.013  39.806  0.00  0.00     0.052 C 
BRANCH  49  50
ATOM     50  C   UNK d   0      -9.235 -32.914  39.060  0.00  0.00     0.115 C 
BRANCH  50  51
ATOM     51  C   UNK d   0      -7.789 -33.030  38.929  0.00  0.00     0.139 C 
ATOM     52  O   UNK d   0      -7.158 -34.054  39.282  0.00  0.00    -0.650 OA
BRANCH  51  53
ATOM     53  O   UNK d   0      -7.062 -31.976  38.398  0.00  0.00    -0.776 OA
ATOM     54  H   UNK d   0      -7.097 -31.089  38.868  0.00  0.00     0.167 HD
ENDBRANCH  51  53
ENDBRANCH  50  51
ENDBRANCH  49  50
ENDBRANCH  24  49
BRANCH  21  55
ATOM     55  C   UNK d   0     -12.622 -32.747  40.697  0.00  0.00     0.151 C 
BRANCH  55  56
ATOM     56  C   UNK d   0     -12.701 -31.322  40.340  0.00  0.00     0.143 C 
ATOM     57  O   UNK d   0     -12.089 -30.835  39.369  0.00  0.00    -0.650 OA
BRANCH  56  58
ATOM     58  O   UNK d   0     -13.500 -30.498  41.131  0.00  0.00    -0.776 OA
ATOM     59  H   UNK d   0     -13.014 -30.064  41.937  0.00  0.00     0.167 HD
ENDBRANCH  56  58
ENDBRANCH  55  56
ENDBRANCH  21  55
BRANCH  18  60
ATOM     60  C   UNK d   0     -13.237 -29.613  45.011  0.00  0.00     0.151 C 
BRANCH  60  61
ATOM     61  C   UNK d   0     -12.298 -28.795  44.228  0.00  0.00     0.143 C 
ATOM     62  O   UNK d   0     -11.820 -29.064  43.125  0.00  0.00    -0.650 OA
BRANCH  61  63
ATOM     63  O   UNK d   0     -11.918 -27.572  44.830  0.00  0.00    -0.776 OA
ATOM     64  H   UNK d   0     -11.082 -27.504  45.385  0.00  0.00     0.167 HD
ENDBRANCH  61  63
ENDBRANCH  60  61
ENDBRANCH  18  60
BRANCH  14  65
ATOM     65  C   UNK d   0     -12.370 -29.420  47.912  0.00  0.00     0.052 C 
BRANCH  65  66
ATOM     66  C   UNK d   0     -11.260 -28.474  48.204  0.00  0.00     0.115 C 
BRANCH  66  67
ATOM     67  C   UNK d   0     -11.531 -27.067  48.304  0.00  0.00     0.139 C 
ATOM     68  O   UNK d   0     -11.391 -26.339  47.253  0.00  0.00    -0.650 OA
BRANCH  67  69
ATOM     69  O   UNK d   0     -11.940 -26.355  49.430  0.00  0.00    -0.776 OA
ATOM     70  H   UNK d   0     -12.876 -26.588  49.792  0.00  0.00     0.167 HD
ENDBRANCH  67  69
ENDBRANCH  66  67
ENDBRANCH  65  66
ENDBRANCH  14  65
ENDBRANCH   6   7
ENDBRANCH   5   6
ENDBRANCH   2   5
TORSDOF 28
ENDMDL
MODEL 7
REMARK VINA RESULT:      -6.7     29.381     32.793
REMARK  28 active torsions:
REMARK  status: ('A' for Active; 'I' for Inactive)
REMARK    1  A    between atoms: C_2  and  O_3 
REMARK    2  A    between atoms: C_2  and  C_4 
REMARK    3  A    between atoms: C_4  and  C_5 
REMARK    4  A    between atoms: C_5  and  C_6 
REMARK    5  A    between atoms: C_7  and  C_8 
REMARK    6  A    between atoms: C_8  and  C_9 
REMARK    7  A    between atoms: C_9  and  O_11 
REMARK    8  A    between atoms: C_28  and  C_29 
REMARK    9  A    between atoms: C_29  and  C_30 
REMARK   10  A    between atoms: C_30  and  O_32 
REMARK   11  A    between atoms: C_33  and  C_34 
REMARK   12  A    between atoms: C_34  and  C_35 
REMARK   13  A    between atoms: C_35  and  C_36 
REMARK   14  A    between atoms: C_36  and  O_38 
REMARK   15  A    between atoms: C_39  and  C_40 
REMARK   16  A    between atoms: C_40  and  C_41 
REMARK   17  A    between atoms: C_41  and  C_42 
REMARK   18  A    between atoms: C_42  and  O_44 
REMARK   19  A    between atoms: C_45  and  C_46 
REMARK   20  A    between atoms: C_46  and  C_47 
REMARK   21  A    between atoms: C_47  and  O_49 
REMARK   22  A    between atoms: C_50  and  C_51 
REMARK   23  A    between atoms: C_51  and  C_52 
REMARK   24  A    between atoms: C_52  and  O_54 
REMARK   25  A    between atoms: C_55  and  C_56 
REMARK   26  A    between atoms: C_56  and  C_57 
REMARK   27  A    between atoms: C_57  and  C_58 
REMARK   28  A    between atoms: C_58  and  O_60 
ROOT
ATOM      1  O   UNK d   0     -15.033 -25.890  57.498  0.00  0.00    -0.650 OA
ATOM      2  C   UNK d   0     -14.711 -25.225  56.489  0.00  0.00     0.139 C 
ENDROOT
BRANCH   2   3
ATOM      3  O   UNK d   0     -13.391 -24.895  56.293  0.00  0.00    -0.776 OA
ATOM      4  H   UNK d   0     -12.985 -24.877  55.356  0.00  0.00     0.167 HD
ENDBRANCH   2   3
BRANCH   2   5
ATOM      5  C   UNK d   0     -15.751 -24.797  55.511  0.00  0.00     0.115 C 
BRANCH   5   6
ATOM      6  C   UNK d   0     -17.092 -24.711  56.187  0.00  0.00     0.052 C 
BRANCH   6   7
ATOM      7  C   UNK d   0     -17.393 -23.325  56.707  0.00  0.00    -0.020 A 
ATOM      8  C   UNK d   0     -17.858 -22.304  56.035  0.00  0.00    -0.011 A 
ATOM      9  C   UNK d   0     -17.976 -21.183  56.953  0.00  0.00     0.067 A 
ATOM     10  C   UNK d   0     -18.416 -19.852  56.875  0.00  0.00     0.062 C 
ATOM     11  N   UNK d   0     -17.556 -21.610  58.162  0.00  0.00    -0.248 NA
ATOM     12  C   UNK d   0     -18.719 -18.997  57.940  0.00  0.00     0.041 A 
ATOM     13  N   UNK d   0     -18.087 -18.778  59.109  0.00  0.00    -0.355 N 
ATOM     14  C   UNK d   0     -19.900 -18.235  57.886  0.00  0.00    -0.022 A 
ATOM     15  C   UNK d   0     -18.841 -17.903  59.801  0.00  0.00     0.042 A 
ATOM     16  H   UNK d   0     -17.117 -19.218  59.430  0.00  0.00     0.166 HD
ATOM     17  C   UNK d   0     -18.644 -17.337  61.076  0.00  0.00     0.062 C 
ATOM     18  C   UNK d   0     -19.986 -17.540  59.066  0.00  0.00    -0.013 A 
ATOM     19  C   UNK d   0     -18.253 -17.948  62.240  0.00  0.00     0.067 A 
ATOM     20  N   UNK d   0     -17.803 -19.202  62.143  0.00  0.00    -0.248 NA
ATOM     21  C   UNK d   0     -18.204 -17.583  63.646  0.00  0.00    -0.011 A 
ATOM     22  C   UNK d   0     -17.465 -19.684  63.384  0.00  0.00     0.066 A 
ATOM     23  C   UNK d   0     -16.945 -20.969  63.425  0.00  0.00     0.062 C 
ATOM     24  C   UNK d   0     -17.746 -18.605  64.311  0.00  0.00    -0.020 A 
ATOM     25  C   UNK d   0     -16.636 -21.807  62.343  0.00  0.00     0.041 A 
ATOM     26  N   UNK d   0     -17.272 -22.036  61.188  0.00  0.00    -0.355 N 
ATOM     27  C   UNK d   0     -15.448 -22.568  62.396  0.00  0.00    -0.022 A 
ATOM     28  C   UNK d   0     -16.526 -22.915  60.499  0.00  0.00     0.042 A 
ATOM     29  H   UNK d   0     -18.251 -21.601  60.871  0.00  0.00     0.166 HD
ATOM     30  C   UNK d   0     -16.714 -23.493  59.234  0.00  0.00     0.062 C 
ATOM     31  C   UNK d   0     -15.370 -23.271  61.234  0.00  0.00    -0.013 A 
ATOM     32  C   UNK d   0     -17.191 -22.891  58.081  0.00  0.00     0.066 A 
BRANCH   8  33
ATOM     33  C   UNK d   0     -18.202 -22.270  54.601  0.00  0.00     0.151 C 
BRANCH  33  34
ATOM     34  C   UNK d   0     -19.444 -23.004  54.295  0.00  0.00     0.143 C 
ATOM     35  O   UNK d   0     -19.407 -24.138  53.798  0.00  0.00    -0.650 OA
BRANCH  34  36
ATOM     36  O   UNK d   0     -20.659 -22.417  54.565  0.00  0.00    -0.776 OA
ATOM     37  H   UNK d   0     -20.750 -21.682  55.280  0.00  0.00     0.167 HD
ENDBRANCH  34  36
ENDBRANCH  33  34
ENDBRANCH   8  33
BRANCH  31  38
ATOM     38  C   UNK d   0     -14.260 -24.215  60.835  0.00  0.00     0.151 C 
BRANCH  38  39
ATOM     39  C   UNK d   0     -13.159 -23.543  60.179  0.00  0.00     0.143 C 
ATOM     40  O   UNK d   0     -13.178 -23.263  58.967  0.00  0.00    -0.650 OA
BRANCH  39  41
ATOM     41  O   UNK d   0     -12.031 -23.189  60.919  0.00  0.00    -0.776 OA
ATOM     42  H   UNK d   0     -11.615 -23.920  61.503  0.00  0.00     0.167 HD
ENDBRANCH  39  41
ENDBRANCH  38  39
ENDBRANCH  31  38
BRANCH  27  43
ATOM     43  C   UNK d   0     -14.410 -22.650  63.488  0.00  0.00     0.052 C 
BRANCH  43  44
ATOM     44  C   UNK d   0     -14.652 -23.768  64.450  0.00  0.00     0.115 C 
BRANCH  44  45
ATOM     45  C   UNK d   0     -13.366 -24.503  64.578  0.00  0.00     0.139 C 
ATOM     46  O   UNK d   0     -13.341 -25.528  65.302  0.00  0.00    -0.650 OA
BRANCH  45  47
ATOM     47  O   UNK d   0     -12.213 -24.109  63.933  0.00  0.00    -0.776 OA
ATOM     48  H   UNK d   0     -11.563 -23.410  64.326  0.00  0.00     0.167 HD
ENDBRANCH  45  47
ENDBRANCH  44  45
ENDBRANCH  43  44
ENDBRANCH  27  43
BRANCH  24  49
ATOM     49  C   UNK d   0     -17.499 -18.656  65.762  0.00  0.00     0.052 C 
BRANCH  49  50
ATOM     50  C   UNK d   0     -18.400 -19.675  66.412  0.00  0.00     0.115 C 
BRANCH  50  51
ATOM     51  C   UNK d   0     -19.833 -19.415  66.374  0.00  0.00     0.139 C 
ATOM     52  O   UNK d   0     -20.636 -20.144  65.746  0.00  0.00    -0.650 OA
BRANCH  51  53
ATOM     53  O   UNK d   0     -20.350 -18.320  67.050  0.00  0.00    -0.776 OA
ATOM     54  H   UNK d   0     -21.224 -18.430  67.533  0.00  0.00     0.167 HD
ENDBRANCH  51  53
ENDBRANCH  50  51
ENDBRANCH  49  50
ENDBRANCH  24  49
BRANCH  21  55
ATOM     55  C   UNK d   0     -18.616 -16.251  64.178  0.00  0.00     0.151 C 
BRANCH  55  56
ATOM     56  C   UNK d   0     -20.068 -16.038  64.070  0.00  0.00     0.143 C 
ATOM     57  O   UNK d   0     -20.878 -16.473  64.911  0.00  0.00    -0.650 OA
BRANCH  56  58
ATOM     58  O   UNK d   0     -20.538 -15.318  62.973  0.00  0.00    -0.776 OA
ATOM     59  H   UNK d   0     -21.481 -14.905  63.094  0.00  0.00     0.167 HD
ENDBRANCH  56  58
ENDBRANCH  55  56
ENDBRANCH  21  55
BRANCH  18  60
ATOM     60  C   UNK d   0     -21.107 -16.600  59.436  0.00  0.00     0.151 C 
BRANCH  60  61
ATOM     61  C   UNK d   0     -21.949 -17.333  60.394  0.00  0.00     0.143 C 
ATOM     62  O   UNK d   0     -22.188 -18.541  60.399  0.00  0.00    -0.650 OA
BRANCH  61  63
ATOM     63  O   UNK d   0     -22.536 -16.541  61.410  0.00  0.00    -0.776 OA
ATOM     64  H   UNK d   0     -23.476 -16.711  61.722  0.00  0.00     0.167 HD
ENDBRANCH  61  63
ENDBRANCH  60  61
ENDBRANCH  18  60
BRANCH  14  65
ATOM     65  C   UNK d   0     -20.892 -18.041  56.774  0.00  0.00     0.052 C 
BRANCH  65  66
ATOM     66  C   UNK d   0     -22.148 -18.812  56.974  0.00  0.00     0.115 C 
BRANCH  66  67
ATOM     67  C   UNK d   0     -22.258 -20.142  56.442  0.00  0.00     0.139 C 
ATOM     68  O   UNK d   0     -21.722 -21.110  57.095  0.00  0.00    -0.650 OA
BRANCH  67  69
ATOM     69  O   UNK d   0     -22.893 -20.540  55.266  0.00  0.00    -0.776 OA
ATOM     70  H   UNK d   0     -22.296 -20.585  54.428  0.00  0.00     0.167 HD
ENDBRANCH  67  69
ENDBRANCH  66  67
ENDBRANCH  65  66
ENDBRANCH  14  65
ENDBRANCH   6   7
ENDBRANCH   5   6
ENDBRANCH   2   5
TORSDOF 28
ENDMDL
MODEL 8
REMARK VINA RESULT:      -6.6     30.093     33.563
REMARK  28 active torsions:
REMARK  status: ('A' for Active; 'I' for Inactive)
REMARK    1  A    between atoms: C_2  and  O_3 
REMARK    2  A    between atoms: C_2  and  C_4 
REMARK    3  A    between atoms: C_4  and  C_5 
REMARK    4  A    between atoms: C_5  and  C_6 
REMARK    5  A    between atoms: C_7  and  C_8 
REMARK    6  A    between atoms: C_8  and  C_9 
REMARK    7  A    between atoms: C_9  and  O_11 
REMARK    8  A    between atoms: C_28  and  C_29 
REMARK    9  A    between atoms: C_29  and  C_30 
REMARK   10  A    between atoms: C_30  and  O_32 
REMARK   11  A    between atoms: C_33  and  C_34 
REMARK   12  A    between atoms: C_34  and  C_35 
REMARK   13  A    between atoms: C_35  and  C_36 
REMARK   14  A    between atoms: C_36  and  O_38 
REMARK   15  A    between atoms: C_39  and  C_40 
REMARK   16  A    between atoms: C_40  and  C_41 
REMARK   17  A    between atoms: C_41  and  C_42 
REMARK   18  A    between atoms: C_42  and  O_44 
REMARK   19  A    between atoms: C_45  and  C_46 
REMARK   20  A    between atoms: C_46  and  C_47 
REMARK   21  A    between atoms: C_47  and  O_49 
REMARK   22  A    between atoms: C_50  and  C_51 
REMARK   23  A    between atoms: C_51  and  C_52 
REMARK   24  A    between atoms: C_52  and  O_54 
REMARK   25  A    between atoms: C_55  and  C_56 
REMARK   26  A    between atoms: C_56  and  C_57 
REMARK   27  A    between atoms: C_57  and  C_58 
REMARK   28  A    between atoms: C_58  and  O_60 
ROOT
ATOM      1  O   UNK d   0     -10.253 -32.944  52.980  0.00  0.00    -0.650 OA
ATOM      2  C   UNK d   0      -9.734 -31.806  52.996  0.00  0.00     0.139 C 
ENDROOT
BRANCH   2   3
ATOM      3  O   UNK d   0      -8.461 -31.653  53.493  0.00  0.00    -0.776 OA
ATOM      4  H   UNK d   0      -8.255 -30.952  54.207  0.00  0.00     0.167 HD
ENDBRANCH   2   3
BRANCH   2   5
ATOM      5  C   UNK d   0     -10.491 -30.630  52.481  0.00  0.00     0.115 C 
BRANCH   5   6
ATOM      6  C   UNK d   0      -9.763 -30.016  51.316  0.00  0.00     0.052 C 
BRANCH   6   7
ATOM      7  C   UNK d   0     -10.010 -30.753  50.022  0.00  0.00    -0.020 A 
ATOM      8  C   UNK d   0     -11.068 -30.687  49.254  0.00  0.00    -0.011 A 
ATOM      9  C   UNK d   0     -10.856 -31.578  48.126  0.00  0.00     0.067 A 
ATOM     10  C   UNK d   0     -11.570 -31.940  46.973  0.00  0.00     0.062 C 
ATOM     11  N   UNK d   0      -9.645 -32.151  48.290  0.00  0.00    -0.248 NA
ATOM     12  C   UNK d   0     -11.079 -32.612  45.849  0.00  0.00     0.041 A 
ATOM     13  N   UNK d   0     -10.257 -33.673  45.739  0.00  0.00    -0.355 N 
ATOM     14  C   UNK d   0     -11.411 -32.130  44.569  0.00  0.00    -0.022 A 
ATOM     15  C   UNK d   0     -10.051 -33.871  44.423  0.00  0.00     0.042 A 
ATOM     16  H   UNK d   0      -9.845 -34.281  46.574  0.00  0.00     0.166 HD
ATOM     17  C   UNK d   0      -9.278 -34.841  43.755  0.00  0.00     0.062 C 
ATOM     18  C   UNK d   0     -10.758 -32.923  43.658  0.00  0.00    -0.013 A 
ATOM     19  C   UNK d   0      -8.008 -35.276  44.037  0.00  0.00     0.067 A 
ATOM     20  N   UNK d   0      -7.483 -34.892  45.204  0.00  0.00    -0.248 NA
ATOM     21  C   UNK d   0      -7.005 -36.082  43.362  0.00  0.00    -0.011 A 
ATOM     22  C   UNK d   0      -6.209 -35.388  45.339  0.00  0.00     0.066 A 
ATOM     23  C   UNK d   0      -5.557 -35.095  46.528  0.00  0.00     0.062 C 
ATOM     24  C   UNK d   0      -5.954 -36.140  44.127  0.00  0.00    -0.020 A 
ATOM     25  C   UNK d   0      -6.072 -34.429  47.651  0.00  0.00     0.041 A 
ATOM     26  N   UNK d   0      -6.878 -33.366  47.760  0.00  0.00    -0.355 N 
ATOM     27  C   UNK d   0      -5.743 -34.916  48.934  0.00  0.00    -0.022 A 
ATOM     28  C   UNK d   0      -7.077 -33.161  49.072  0.00  0.00     0.042 A 
ATOM     29  H   UNK d   0      -7.282 -32.749  46.920  0.00  0.00     0.166 HD
ATOM     30  C   UNK d   0      -7.836 -32.194  49.750  0.00  0.00     0.062 C 
ATOM     31  C   UNK d   0      -6.375 -34.120  49.839  0.00  0.00    -0.013 A 
ATOM     32  C   UNK d   0      -9.085 -31.697  49.412  0.00  0.00     0.066 A 
BRANCH   8  33
ATOM     33  C   UNK d   0     -12.273 -29.866  49.477  0.00  0.00     0.151 C 
BRANCH  33  34
ATOM     34  C   UNK d   0     -12.116 -28.480  48.999  0.00  0.00     0.143 C 
ATOM     35  O   UNK d   0     -11.898 -28.241  47.802  0.00  0.00    -0.650 OA
BRANCH  34  36
ATOM     36  O   UNK d   0     -12.211 -27.441  49.895  0.00  0.00    -0.776 OA
ATOM     37  H   UNK d   0     -12.427 -27.610  50.887  0.00  0.00     0.167 HD
ENDBRANCH  34  36
ENDBRANCH  33  34
ENDBRANCH   8  33
BRANCH  31  38
ATOM     38  C   UNK d   0      -6.328 -34.267  51.342  0.00  0.00     0.151 C 
BRANCH  38  39
ATOM     39  C   UNK d   0      -7.517 -34.890  51.883  0.00  0.00     0.143 C 
ATOM     40  O   UNK d   0      -8.242 -35.639  51.206  0.00  0.00    -0.650 OA
BRANCH  39  41
ATOM     41  O   UNK d   0      -7.874 -34.651  53.210  0.00  0.00    -0.776 OA
ATOM     42  H   UNK d   0      -7.923 -35.466  53.829  0.00  0.00     0.167 HD
ENDBRANCH  39  41
ENDBRANCH  38  39
ENDBRANCH  31  38
BRANCH  27  43
ATOM     43  C   UNK d   0      -4.868 -36.082  49.321  0.00  0.00     0.052 C 
BRANCH  43  44
ATOM     44  C   UNK d   0      -5.643 -37.297  49.717  0.00  0.00     0.115 C 
BRANCH  44  45
ATOM     45  C   UNK d   0      -4.997 -38.452  49.041  0.00  0.00     0.139 C 
ATOM     46  O   UNK d   0      -4.710 -38.340  47.823  0.00  0.00    -0.650 OA
BRANCH  45  47
ATOM     47  O   UNK d   0      -4.698 -39.628  49.693  0.00  0.00    -0.776 OA
ATOM     48  H   UNK d   0      -4.542 -39.680  50.713  0.00  0.00     0.167 HD
ENDBRANCH  45  47
ENDBRANCH  44  45
ENDBRANCH  43  44
ENDBRANCH  27  43
BRANCH  24  49
ATOM     49  C   UNK d   0      -4.716 -36.887  43.846  0.00  0.00     0.052 C 
BRANCH  49  50
ATOM     50  C   UNK d   0      -3.616 -35.943  43.431  0.00  0.00     0.115 C 
BRANCH  50  51
ATOM     51  C   UNK d   0      -2.614 -36.455  42.506  0.00  0.00     0.139 C 
ATOM     52  O   UNK d   0      -2.874 -37.323  41.639  0.00  0.00    -0.650 OA
BRANCH  51  53
ATOM     53  O   UNK d   0      -1.314 -35.978  42.570  0.00  0.00    -0.776 OA
ATOM     54  H   UNK d   0      -0.740 -36.265  43.343  0.00  0.00     0.167 HD
ENDBRANCH  51  53
ENDBRANCH  50  51
ENDBRANCH  49  50
ENDBRANCH  24  49
BRANCH  21  55
ATOM     55  C   UNK d   0      -7.205 -36.714  42.024  0.00  0.00     0.151 C 
BRANCH  55  56
ATOM     56  C   UNK d   0      -6.567 -35.939  40.948  0.00  0.00     0.143 C 
ATOM     57  O   UNK d   0      -6.982 -34.822  40.584  0.00  0.00    -0.650 OA
BRANCH  56  58
ATOM     58  O   UNK d   0      -5.453 -36.495  40.321  0.00  0.00    -0.776 OA
ATOM     59  H   UNK d   0      -5.404 -37.529  40.354  0.00  0.00     0.167 HD
ENDBRANCH  56  58
ENDBRANCH  55  56
ENDBRANCH  21  55
BRANCH  18  60
ATOM     60  C   UNK d   0     -10.827 -32.755  42.160  0.00  0.00     0.151 C 
BRANCH  60  61
ATOM     61  C   UNK d   0     -12.026 -33.486  41.726  0.00  0.00     0.143 C 
ATOM     62  O   UNK d   0     -12.243 -34.693  41.843  0.00  0.00    -0.650 OA
BRANCH  61  63
ATOM     63  O   UNK d   0     -13.025 -32.694  41.110  0.00  0.00    -0.776 OA
ATOM     64  H   UNK d   0     -12.912 -32.355  40.171  0.00  0.00     0.167 HD
ENDBRANCH  61  63
ENDBRANCH  60  61
ENDBRANCH  18  60
BRANCH  14  65
ATOM     65  C   UNK d   0     -12.365 -31.050  44.145  0.00  0.00     0.052 C 
BRANCH  65  66
ATOM     66  C   UNK d   0     -11.733 -29.705  44.087  0.00  0.00     0.115 C 
BRANCH  66  67
ATOM     67  C   UNK d   0     -12.539 -28.531  44.271  0.00  0.00     0.139 C 
ATOM     68  O   UNK d   0     -13.712 -28.503  43.743  0.00  0.00    -0.650 OA
BRANCH  67  69
ATOM     69  O   UNK d   0     -12.210 -27.371  44.971  0.00  0.00    -0.776 OA
ATOM     70  H   UNK d   0     -12.959 -26.974  45.556  0.00  0.00     0.167 HD
ENDBRANCH  67  69
ENDBRANCH  66  67
ENDBRANCH  65  66
ENDBRANCH  14  65
ENDBRANCH   6   7
ENDBRANCH   5   6
ENDBRANCH   2   5
TORSDOF 28
ENDMDL
MODEL 9
REMARK VINA RESULT:      -6.6     30.154     32.332
REMARK  28 active torsions:
REMARK  status: ('A' for Active; 'I' for Inactive)
REMARK    1  A    between atoms: C_2  and  O_3 
REMARK    2  A    between atoms: C_2  and  C_4 
REMARK    3  A    between atoms: C_4  and  C_5 
REMARK    4  A    between atoms: C_5  and  C_6 
REMARK    5  A    between atoms: C_7  and  C_8 
REMARK    6  A    between atoms: C_8  and  C_9 
REMARK    7  A    between atoms: C_9  and  O_11 
REMARK    8  A    between atoms: C_28  and  C_29 
REMARK    9  A    between atoms: C_29  and  C_30 
REMARK   10  A    between atoms: C_30  and  O_32 
REMARK   11  A    between atoms: C_33  and  C_34 
REMARK   12  A    between atoms: C_34  and  C_35 
REMARK   13  A    between atoms: C_35  and  C_36 
REMARK   14  A    between atoms: C_36  and  O_38 
REMARK   15  A    between atoms: C_39  and  C_40 
REMARK   16  A    between atoms: C_40  and  C_41 
REMARK   17  A    between atoms: C_41  and  C_42 
REMARK   18  A    between atoms: C_42  and  O_44 
REMARK   19  A    between atoms: C_45  and  C_46 
REMARK   20  A    between atoms: C_46  and  C_47 
REMARK   21  A    between atoms: C_47  and  O_49 
REMARK   22  A    between atoms: C_50  and  C_51 
REMARK   23  A    between atoms: C_51  and  C_52 
REMARK   24  A    between atoms: C_52  and  O_54 
REMARK   25  A    between atoms: C_55  and  C_56 
REMARK   26  A    between atoms: C_56  and  C_57 
REMARK   27  A    between atoms: C_57  and  C_58 
REMARK   28  A    between atoms: C_58  and  O_60 
ROOT
ATOM      1  O   UNK d   0     -19.551 -23.508  55.175  0.00  0.00    -0.650 OA
ATOM      2  C   UNK d   0     -18.430 -22.990  54.976  0.00  0.00     0.139 C 
ENDROOT
BRANCH   2   3
ATOM      3  O   UNK d   0     -18.355 -21.666  54.612  0.00  0.00    -0.776 OA
ATOM      4  H   UNK d   0     -19.195 -21.139  54.365  0.00  0.00     0.167 HD
ENDBRANCH   2   3
BRANCH   2   5
ATOM      5  C   UNK d   0     -17.191 -23.803  55.131  0.00  0.00     0.115 C 
BRANCH   5   6
ATOM      6  C   UNK d   0     -16.160 -23.033  55.910  0.00  0.00     0.052 C 
BRANCH   6   7
ATOM      7  C   UNK d   0     -16.479 -22.961  57.384  0.00  0.00    -0.020 A 
ATOM      8  C   UNK d   0     -16.468 -23.940  58.251  0.00  0.00    -0.011 A 
ATOM      9  C   UNK d   0     -16.851 -23.395  59.543  0.00  0.00     0.067 A 
ATOM     10  C   UNK d   0     -17.007 -23.892  60.846  0.00  0.00     0.062 C 
ATOM     11  N   UNK d   0     -17.084 -22.077  59.368  0.00  0.00    -0.248 NA
ATOM     12  C   UNK d   0     -17.116 -23.152  62.028  0.00  0.00     0.041 A 
ATOM     13  N   UNK d   0     -17.809 -22.033  62.313  0.00  0.00    -0.355 N 
ATOM     14  C   UNK d   0     -16.361 -23.544  63.149  0.00  0.00    -0.022 A 
ATOM     15  C   UNK d   0     -17.507 -21.701  63.582  0.00  0.00     0.042 A 
ATOM     16  H   UNK d   0     -18.513 -21.500  61.637  0.00  0.00     0.166 HD
ATOM     17  C   UNK d   0     -17.953 -20.625  64.376  0.00  0.00     0.062 C 
ATOM     18  C   UNK d   0     -16.602 -22.624  64.139  0.00  0.00    -0.013 A 
ATOM     19  C   UNK d   0     -18.081 -19.301  64.040  0.00  0.00     0.067 A 
ATOM     20  N   UNK d   0     -17.962 -18.990  62.747  0.00  0.00    -0.248 NA
ATOM     21  C   UNK d   0     -18.312 -18.059  64.759  0.00  0.00    -0.011 A 
ATOM     22  C   UNK d   0     -18.098 -17.636  62.568  0.00  0.00     0.066 A 
ATOM     23  C   UNK d   0     -18.033 -17.177  61.260  0.00  0.00     0.062 C 
ATOM     24  C   UNK d   0     -18.316 -17.088  63.892  0.00  0.00    -0.020 A 
ATOM     25  C   UNK d   0     -17.937 -17.939  60.085  0.00  0.00     0.041 A 
ATOM     26  N   UNK d   0     -17.236 -19.043  59.797  0.00  0.00    -0.355 N 
ATOM     27  C   UNK d   0     -18.699 -17.547  58.963  0.00  0.00    -0.022 A 
ATOM     28  C   UNK d   0     -17.529 -19.371  58.529  0.00  0.00     0.042 A 
ATOM     29  H   UNK d   0     -16.521 -19.571  60.475  0.00  0.00     0.166 HD
ATOM     30  C   UNK d   0     -17.086 -20.433  57.725  0.00  0.00     0.062 C 
ATOM     31  C   UNK d   0     -18.447 -18.448  57.974  0.00  0.00    -0.013 A 
ATOM     32  C   UNK d   0     -16.877 -21.753  58.091  0.00  0.00     0.066 A 
BRANCH   8  33
ATOM     33  C   UNK d   0     -16.135 -25.353  57.988  0.00  0.00     0.151 C 
BRANCH  33  34
ATOM     34  C   UNK d   0     -14.854 -25.759  58.592  0.00  0.00     0.143 C 
ATOM     35  O   UNK d   0     -13.776 -25.353  58.133  0.00  0.00    -0.650 OA
BRANCH  34  36
ATOM     36  O   UNK d   0     -14.857 -26.601  59.680  0.00  0.00    -0.776 OA
ATOM     37  H   UNK d   0     -13.988 -27.031  60.025  0.00  0.00     0.167 HD
ENDBRANCH  34  36
ENDBRANCH  33  34
ENDBRANCH   8  33
BRANCH  31  38
ATOM     38  C   UNK d   0     -19.051 -18.444  56.589  0.00  0.00     0.151 C 
BRANCH  38  39
ATOM     39  C   UNK d   0     -20.312 -19.150  56.524  0.00  0.00     0.143 C 
ATOM     40  O   UNK d   0     -20.378 -20.391  56.477  0.00  0.00    -0.650 OA
BRANCH  39  41
ATOM     41  O   UNK d   0     -21.504 -18.427  56.512  0.00  0.00    -0.776 OA
ATOM     42  H   UNK d   0     -21.430 -17.417  56.352  0.00  0.00     0.167 HD
ENDBRANCH  39  41
ENDBRANCH  38  39
ENDBRANCH  31  38
BRANCH  27  43
ATOM     43  C   UNK d   0     -19.633 -16.374  58.800  0.00  0.00     0.052 C 
BRANCH  43  44
ATOM     44  C   UNK d   0     -20.977 -16.600  59.412  0.00  0.00     0.115 C 
BRANCH  44  45
ATOM     45  C   UNK d   0     -21.886 -15.580  58.827  0.00  0.00     0.139 C 
ATOM     46  O   UNK d   0     -22.466 -15.853  57.748  0.00  0.00    -0.650 OA
BRANCH  45  47
ATOM     47  O   UNK d   0     -22.119 -14.359  59.422  0.00  0.00    -0.776 OA
ATOM     48  H   UNK d   0     -21.632 -13.494  59.136  0.00  0.00     0.167 HD
ENDBRANCH  45  47
ENDBRANCH  44  45
ENDBRANCH  43  44
ENDBRANCH  27  43
BRANCH  24  49
ATOM     49  C   UNK d   0     -18.554 -15.664  64.184  0.00  0.00     0.052 C 
BRANCH  49  50
ATOM     50  C   UNK d   0     -20.008 -15.322  63.980  0.00  0.00     0.115 C 
BRANCH  50  51
ATOM     51  C   UNK d   0     -20.762 -14.899  65.153  0.00  0.00     0.139 C 
ATOM     52  O   UNK d   0     -21.836 -15.445  65.500  0.00  0.00    -0.650 OA
BRANCH  51  53
ATOM     53  O   UNK d   0     -20.293 -13.850  65.928  0.00  0.00    -0.776 OA
ATOM     54  H   UNK d   0     -19.336 -13.566  65.815  0.00  0.00     0.167 HD
ENDBRANCH  51  53
ENDBRANCH  50  51
ENDBRANCH  49  50
ENDBRANCH  24  49
BRANCH  21  55
ATOM     55  C   UNK d   0     -18.508 -17.973  66.236  0.00  0.00     0.151 C 
BRANCH  55  56
ATOM     56  C   UNK d   0     -19.809 -18.518  66.652  0.00  0.00     0.143 C 
ATOM     57  O   UNK d   0     -19.960 -19.181  67.697  0.00  0.00    -0.650 OA
BRANCH  56  58
ATOM     58  O   UNK d   0     -20.908 -18.273  65.831  0.00  0.00    -0.776 OA
ATOM     59  H   UNK d   0     -21.107 -17.271  65.655  0.00  0.00     0.167 HD
ENDBRANCH  56  58
ENDBRANCH  55  56
ENDBRANCH  21  55
BRANCH  18  60
ATOM     60  C   UNK d   0     -15.986 -22.656  65.516  0.00  0.00     0.151 C 
BRANCH  60  61
ATOM     61  C   UNK d   0     -16.895 -23.461  66.346  0.00  0.00     0.143 C 
ATOM     62  O   UNK d   0     -17.989 -23.118  66.796  0.00  0.00    -0.650 OA
BRANCH  61  63
ATOM     63  O   UNK d   0     -16.439 -24.767  66.646  0.00  0.00    -0.776 OA
ATOM     64  H   UNK d   0     -15.633 -24.914  67.228  0.00  0.00     0.167 HD
ENDBRANCH  61  63
ENDBRANCH  60  61
ENDBRANCH  18  60
BRANCH  14  65
ATOM     65  C   UNK d   0     -15.515 -24.763  63.384  0.00  0.00     0.052 C 
BRANCH  65  66
ATOM     66  C   UNK d   0     -14.057 -24.465  63.399  0.00  0.00     0.115 C 
BRANCH  66  67
ATOM     67  C   UNK d   0     -13.435 -23.897  62.236  0.00  0.00     0.139 C 
ATOM     68  O   UNK d   0     -13.134 -22.647  62.251  0.00  0.00    -0.650 OA
BRANCH  67  69
ATOM     69  O   UNK d   0     -13.100 -24.542  61.046  0.00  0.00    -0.776 OA
ATOM     70  H   UNK d   0     -12.804 -23.930  60.273  0.00  0.00     0.167 HD
ENDBRANCH  67  69
ENDBRANCH  66  67
ENDBRANCH  65  66
ENDBRANCH  14  65
ENDBRANCH   6   7
ENDBRANCH   5   6
ENDBRANCH   2   5
TORSDOF 28
ENDMDL
MODEL 10
REMARK VINA RESULT:      -6.6     28.931     31.654
REMARK  28 active torsions:
REMARK  status: ('A' for Active; 'I' for Inactive)
REMARK    1  A    between atoms: C_2  and  O_3 
REMARK    2  A    between atoms: C_2  and  C_4 
REMARK    3  A    between atoms: C_4  and  C_5 
REMARK    4  A    between atoms: C_5  and  C_6 
REMARK    5  A    between atoms: C_7  and  C_8 
REMARK    6  A    between atoms: C_8  and  C_9 
REMARK    7  A    between atoms: C_9  and  O_11 
REMARK    8  A    between atoms: C_28  and  C_29 
REMARK    9  A    between atoms: C_29  and  C_30 
REMARK   10  A    between atoms: C_30  and  O_32 
REMARK   11  A    between atoms: C_33  and  C_34 
REMARK   12  A    between atoms: C_34  and  C_35 
REMARK   13  A    between atoms: C_35  and  C_36 
REMARK   14  A    between atoms: C_36  and  O_38 
REMARK   15  A    between atoms: C_39  and  C_40 
REMARK   16  A    between atoms: C_40  and  C_41 
REMARK   17  A    between atoms: C_41  and  C_42 
REMARK   18  A    between atoms: C_42  and  O_44 
REMARK   19  A    between atoms: C_45  and  C_46 
REMARK   20  A    between atoms: C_46  and  C_47 
REMARK   21  A    between atoms: C_47  and  O_49 
REMARK   22  A    between atoms: C_50  and  C_51 
REMARK   23  A    between atoms: C_51  and  C_52 
REMARK   24  A    between atoms: C_52  and  O_54 
REMARK   25  A    between atoms: C_55  and  C_56 
REMARK   26  A    between atoms: C_56  and  C_57 
REMARK   27  A    between atoms: C_57  and  C_58 
REMARK   28  A    between atoms: C_58  and  O_60 
ROOT
ATOM      1  O   UNK d   0     -20.703 -18.779  58.227  0.00  0.00    -0.650 OA
ATOM      2  C   UNK d   0     -19.924 -18.164  57.466  0.00  0.00     0.139 C 
ENDROOT
BRANCH   2   3
ATOM      3  O   UNK d   0     -20.006 -18.368  56.109  0.00  0.00    -0.776 OA
ATOM      4  H   UNK d   0     -19.257 -18.842  55.601  0.00  0.00     0.167 HD
ENDBRANCH   2   3
BRANCH   2   5
ATOM      5  C   UNK d   0     -18.916 -17.221  58.029  0.00  0.00     0.115 C 
BRANCH   5   6
ATOM      6  C   UNK d   0     -17.538 -17.816  57.930  0.00  0.00     0.052 C 
BRANCH   6   7
ATOM      7  C   UNK d   0     -17.311 -18.926  58.928  0.00  0.00    -0.020 A 
ATOM      8  C   UNK d   0     -16.967 -20.164  58.680  0.00  0.00    -0.011 A 
ATOM      9  C   UNK d   0     -16.876 -20.864  59.951  0.00  0.00     0.067 A 
ATOM     10  C   UNK d   0     -16.544 -22.161  60.371  0.00  0.00     0.062 C 
ATOM     11  N   UNK d   0     -17.186 -19.976  60.919  0.00  0.00    -0.248 NA
ATOM     12  C   UNK d   0     -16.240 -22.579  61.671  0.00  0.00     0.041 A 
ATOM     13  N   UNK d   0     -16.812 -22.282  62.854  0.00  0.00    -0.355 N 
ATOM     14  C   UNK d   0     -15.126 -23.412  61.875  0.00  0.00    -0.022 A 
ATOM     15  C   UNK d   0     -16.084 -22.900  63.803  0.00  0.00     0.042 A 
ATOM     16  H   UNK d   0     -17.723 -21.665  63.013  0.00  0.00     0.166 HD
ATOM     17  C   UNK d   0     -16.242 -22.925  65.203  0.00  0.00     0.062 C 
ATOM     18  C   UNK d   0     -15.018 -23.618  63.228  0.00  0.00    -0.013 A 
ATOM     19  C   UNK d   0     -16.512 -21.888  66.059  0.00  0.00     0.067 A 
ATOM     20  N   UNK d   0     -16.871 -20.726  65.508  0.00  0.00    -0.248 NA
ATOM     21  C   UNK d   0     -16.499 -21.692  67.500  0.00  0.00    -0.011 A 
ATOM     22  C   UNK d   0     -17.093 -19.784  66.482  0.00  0.00     0.066 A 
ATOM     23  C   UNK d   0     -17.511 -18.535  66.048  0.00  0.00     0.062 C 
ATOM     24  C   UNK d   0     -16.836 -20.457  67.740  0.00  0.00    -0.020 A 
ATOM     25  C   UNK d   0     -17.823 -18.139  64.738  0.00  0.00     0.041 A 
ATOM     26  N   UNK d   0     -17.246 -18.422  63.564  0.00  0.00    -0.355 N 
ATOM     27  C   UNK d   0     -18.945 -17.306  64.534  0.00  0.00    -0.022 A 
ATOM     28  C   UNK d   0     -17.965 -17.800  62.616  0.00  0.00     0.042 A 
ATOM     29  H   UNK d   0     -16.324 -19.034  63.407  0.00  0.00     0.166 HD
ATOM     30  C   UNK d   0     -17.814 -17.759  61.221  0.00  0.00     0.062 C 
ATOM     31  C   UNK d   0     -19.042 -17.087  63.194  0.00  0.00    -0.013 A 
ATOM     32  C   UNK d   0     -17.457 -18.792  60.369  0.00  0.00     0.066 A 
BRANCH   8  33
ATOM     33  C   UNK d   0     -16.718 -20.765  57.357  0.00  0.00     0.151 C 
BRANCH  33  34
ATOM     34  C   UNK d   0     -17.961 -21.104  56.640  0.00  0.00     0.143 C 
ATOM     35  O   UNK d   0     -18.810 -21.845  57.155  0.00  0.00    -0.650 OA
BRANCH  34  36
ATOM     36  O   UNK d   0     -18.177 -20.590  55.383  0.00  0.00    -0.776 OA
ATOM     37  H   UNK d   0     -18.619 -21.153  54.644  0.00  0.00     0.167 HD
ENDBRANCH  34  36
ENDBRANCH  33  34
ENDBRANCH   8  33
BRANCH  31  38
ATOM     38  C   UNK d   0     -20.101 -16.262  62.501  0.00  0.00     0.151 C 
BRANCH  38  39
ATOM     39  C   UNK d   0     -21.260 -17.040  62.121  0.00  0.00     0.143 C 
ATOM     40  O   UNK d   0     -22.210 -17.242  62.898  0.00  0.00    -0.650 OA
BRANCH  39  41
ATOM     41  O   UNK d   0     -21.329 -17.590  60.841  0.00  0.00    -0.776 OA
ATOM     42  H   UNK d   0     -21.221 -18.606  60.768  0.00  0.00     0.167 HD
ENDBRANCH  39  41
ENDBRANCH  38  39
ENDBRANCH  31  38
BRANCH  27  43
ATOM     43  C   UNK d   0     -19.902 -16.723  65.543  0.00  0.00     0.052 C 
BRANCH  43  44
ATOM     44  C   UNK d   0     -19.372 -15.503  66.224  0.00  0.00     0.115 C 
BRANCH  44  45
ATOM     45  C   UNK d   0     -20.243 -14.373  65.809  0.00  0.00     0.139 C 
ATOM     46  O   UNK d   0     -21.402 -14.637  65.404  0.00  0.00    -0.650 OA
BRANCH  45  47
ATOM     47  O   UNK d   0     -19.834 -13.058  65.856  0.00  0.00    -0.776 OA
ATOM     48  H   UNK d   0     -20.476 -12.279  66.075  0.00  0.00     0.167 HD
ENDBRANCH  45  47
ENDBRANCH  44  45
ENDBRANCH  43  44
ENDBRANCH  27  43
BRANCH  24  49
ATOM     49  C   UNK d   0     -16.987 -19.842  69.070  0.00  0.00     0.052 C 
BRANCH  49  50
ATOM     50  C   UNK d   0     -15.658 -19.335  69.567  0.00  0.00     0.115 C 
BRANCH  50  51
ATOM     51  C   UNK d   0     -15.121 -18.140  68.929  0.00  0.00     0.139 C 
ATOM     52  O   UNK d   0     -14.162 -18.178  68.122  0.00  0.00    -0.650 OA
BRANCH  51  53
ATOM     53  O   UNK d   0     -15.675 -16.902  69.213  0.00  0.00    -0.776 OA
ATOM     54  H   UNK d   0     -15.135 -16.252  69.756  0.00  0.00     0.167 HD
ENDBRANCH  51  53
ENDBRANCH  50  51
ENDBRANCH  49  50
ENDBRANCH  24  49
BRANCH  21  55
ATOM     55  C   UNK d   0     -16.156 -22.759  68.485  0.00  0.00     0.151 C 
BRANCH  55  56
ATOM     56  C   UNK d   0     -14.719 -23.070  68.484  0.00  0.00     0.143 C 
ATOM     57  O   UNK d   0     -14.273 -24.205  68.742  0.00  0.00    -0.650 OA
BRANCH  56  58
ATOM     58  O   UNK d   0     -13.832 -22.038  68.178  0.00  0.00    -0.776 OA
ATOM     59  H   UNK d   0     -13.008 -21.972  68.803  0.00  0.00     0.167 HD
ENDBRANCH  56  58
ENDBRANCH  55  56
ENDBRANCH  21  55
BRANCH  18  60
ATOM     60  C   UNK d   0     -13.950 -24.451  63.893  0.00  0.00     0.151 C 
BRANCH  60  61
ATOM     61  C   UNK d   0     -13.040 -23.496  64.544  0.00  0.00     0.143 C 
ATOM     62  O   UNK d   0     -12.743 -23.450  65.738  0.00  0.00    -0.650 OA
BRANCH  61  63
ATOM     63  O   UNK d   0     -12.457 -22.537  63.682  0.00  0.00    -0.776 OA
ATOM     64  H   UNK d   0     -11.574 -22.111  63.902  0.00  0.00     0.167 HD
ENDBRANCH  61  63
ENDBRANCH  60  61
ENDBRANCH  18  60
BRANCH  14  65
ATOM     65  C   UNK d   0     -14.224 -24.102  60.891  0.00  0.00     0.052 C 
BRANCH  65  66
ATOM     66  C   UNK d   0     -13.042 -23.281  60.511  0.00  0.00     0.115 C 
BRANCH  66  67
ATOM     67  C   UNK d   0     -11.732 -23.867  60.534  0.00  0.00     0.139 C 
ATOM     68  O   UNK d   0     -11.011 -23.716  61.588  0.00  0.00    -0.650 OA
BRANCH  67  69
ATOM     69  O   UNK d   0     -11.110 -24.607  59.529  0.00  0.00    -0.776 OA
ATOM     70  H   UNK d   0     -11.737 -25.021  58.824  0.00  0.00     0.167 HD
ENDBRANCH  67  69
ENDBRANCH  66  67
ENDBRANCH  65  66
ENDBRANCH  14  65
ENDBRANCH   6   7
ENDBRANCH   5   6
ENDBRANCH   2   5
TORSDOF 28
ENDMDL
MODEL 11
REMARK VINA RESULT:      -6.6     30.478     33.752
REMARK  28 active torsions:
REMARK  status: ('A' for Active; 'I' for Inactive)
REMARK    1  A    between atoms: C_2  and  O_3 
REMARK    2  A    between atoms: C_2  and  C_4 
REMARK    3  A    between atoms: C_4  and  C_5 
REMARK    4  A    between atoms: C_5  and  C_6 
REMARK    5  A    between atoms: C_7  and  C_8 
REMARK    6  A    between atoms: C_8  and  C_9 
REMARK    7  A    between atoms: C_9  and  O_11 
REMARK    8  A    between atoms: C_28  and  C_29 
REMARK    9  A    between atoms: C_29  and  C_30 
REMARK   10  A    between atoms: C_30  and  O_32 
REMARK   11  A    between atoms: C_33  and  C_34 
REMARK   12  A    between atoms: C_34  and  C_35 
REMARK   13  A    between atoms: C_35  and  C_36 
REMARK   14  A    between atoms: C_36  and  O_38 
REMARK   15  A    between atoms: C_39  and  C_40 
REMARK   16  A    between atoms: C_40  and  C_41 
REMARK   17  A    between atoms: C_41  and  C_42 
REMARK   18  A    between atoms: C_42  and  O_44 
REMARK   19  A    between atoms: C_45  and  C_46 
REMARK   20  A    between atoms: C_46  and  C_47 
REMARK   21  A    between atoms: C_47  and  O_49 
REMARK   22  A    between atoms: C_50  and  C_51 
REMARK   23  A    between atoms: C_51  and  C_52 
REMARK   24  A    between atoms: C_52  and  O_54 
REMARK   25  A    between atoms: C_55  and  C_56 
REMARK   26  A    between atoms: C_56  and  C_57 
REMARK   27  A    between atoms: C_57  and  C_58 
REMARK   28  A    between atoms: C_58  and  O_60 
ROOT
ATOM      1  O   UNK d   0     -13.342 -24.700  58.406  0.00  0.00    -0.650 OA
ATOM      2  C   UNK d   0     -14.561 -24.816  58.660  0.00  0.00     0.139 C 
ENDROOT
BRANCH   2   3
ATOM      3  O   UNK d   0     -15.438 -25.102  57.641  0.00  0.00    -0.776 OA
ATOM      4  H   UNK d   0     -16.185 -25.788  57.765  0.00  0.00     0.167 HD
ENDBRANCH   2   3
BRANCH   2   5
ATOM      5  C   UNK d   0     -15.054 -24.644  60.056  0.00  0.00     0.115 C 
BRANCH   5   6
ATOM      6  C   UNK d   0     -14.396 -23.451  60.694  0.00  0.00     0.052 C 
BRANCH   6   7
ATOM      7  C   UNK d   0     -15.392 -22.503  61.318  0.00  0.00    -0.020 A 
ATOM      8  C   UNK d   0     -15.588 -22.276  62.591  0.00  0.00    -0.011 A 
ATOM      9  C   UNK d   0     -16.653 -21.294  62.710  0.00  0.00     0.067 A 
ATOM     10  C   UNK d   0     -17.305 -20.628  63.760  0.00  0.00     0.062 C 
ATOM     11  N   UNK d   0     -17.051 -20.982  61.458  0.00  0.00    -0.248 NA
ATOM     12  C   UNK d   0     -18.126 -19.499  63.667  0.00  0.00     0.041 A 
ATOM     13  N   UNK d   0     -19.093 -19.176  62.788  0.00  0.00    -0.355 N 
ATOM     14  C   UNK d   0     -17.938 -18.445  64.579  0.00  0.00    -0.022 A 
ATOM     15  C   UNK d   0     -19.519 -17.941  63.114  0.00  0.00     0.042 A 
ATOM     16  H   UNK d   0     -19.481 -19.816  61.965  0.00  0.00     0.166 HD
ATOM     17  C   UNK d   0     -20.512 -17.132  62.526  0.00  0.00     0.062 C 
ATOM     18  C   UNK d   0     -18.818 -17.450  64.232  0.00  0.00    -0.013 A 
ATOM     19  C   UNK d   0     -20.745 -16.881  61.198  0.00  0.00     0.067 A 
ATOM     20  N   UNK d   0     -20.089 -17.639  60.315  0.00  0.00    -0.248 NA
ATOM     21  C   UNK d   0     -21.555 -15.943  60.439  0.00  0.00    -0.011 A 
ATOM     22  C   UNK d   0     -20.410 -17.263  59.034  0.00  0.00     0.066 A 
ATOM     23  C   UNK d   0     -19.826 -17.997  58.012  0.00  0.00     0.062 C 
ATOM     24  C   UNK d   0     -21.351 -16.169  59.173  0.00  0.00    -0.020 A 
ATOM     25  C   UNK d   0     -19.014 -19.136  58.126  0.00  0.00     0.041 A 
ATOM     26  N   UNK d   0     -18.043 -19.451  58.991  0.00  0.00    -0.355 N 
ATOM     27  C   UNK d   0     -19.206 -20.195  57.213  0.00  0.00    -0.022 A 
ATOM     28  C   UNK d   0     -17.610 -20.679  58.662  0.00  0.00     0.042 A 
ATOM     29  H   UNK d   0     -17.647 -18.802  59.810  0.00  0.00     0.166 HD
ATOM     30  C   UNK d   0     -16.618 -21.491  59.232  0.00  0.00     0.062 C 
ATOM     31  C   UNK d   0     -18.323 -21.176  57.545  0.00  0.00    -0.013 A 
ATOM     32  C   UNK d   0     -16.331 -21.675  60.575  0.00  0.00     0.066 A 
BRANCH   8  33
ATOM     33  C   UNK d   0     -14.874 -22.898  63.722  0.00  0.00     0.151 C 
BRANCH  33  34
ATOM     34  C   UNK d   0     -15.543 -24.112  64.221  0.00  0.00     0.143 C 
ATOM     35  O   UNK d   0     -16.340 -24.055  65.169  0.00  0.00    -0.650 OA
BRANCH  34  36
ATOM     36  O   UNK d   0     -15.276 -25.324  63.627  0.00  0.00    -0.776 OA
ATOM     37  H   UNK d   0     -14.689 -26.029  64.091  0.00  0.00     0.167 HD
ENDBRANCH  34  36
ENDBRANCH  33  34
ENDBRANCH   8  33
BRANCH  31  38
ATOM     38  C   UNK d   0     -18.170 -22.510  56.853  0.00  0.00     0.151 C 
BRANCH  38  39
ATOM     39  C   UNK d   0     -17.144 -22.500  55.832  0.00  0.00     0.143 C 
ATOM     40  O   UNK d   0     -16.617 -23.544  55.408  0.00  0.00    -0.650 OA
BRANCH  39  41
ATOM     41  O   UNK d   0     -16.722 -21.284  55.296  0.00  0.00    -0.776 OA
ATOM     42  H   UNK d   0     -16.938 -20.441  55.838  0.00  0.00     0.167 HD
ENDBRANCH  39  41
ENDBRANCH  38  39
ENDBRANCH  31  38
BRANCH  27  43
ATOM     43  C   UNK d   0     -20.175 -20.305  56.062  0.00  0.00     0.052 C 
BRANCH  43  44
ATOM     44  C   UNK d   0     -21.543 -20.739  56.480  0.00  0.00     0.115 C 
BRANCH  44  45
ATOM     45  C   UNK d   0     -22.044 -21.645  55.414  0.00  0.00     0.139 C 
ATOM     46  O   UNK d   0     -21.519 -22.782  55.308  0.00  0.00    -0.650 OA
BRANCH  45  47
ATOM     47  O   UNK d   0     -23.058 -21.293  54.550  0.00  0.00    -0.776 OA
ATOM     48  H   UNK d   0     -23.416 -21.928  53.818  0.00  0.00     0.167 HD
ENDBRANCH  45  47
ENDBRANCH  44  45
ENDBRANCH  43  44
ENDBRANCH  27  43
BRANCH  24  49
ATOM     49  C   UNK d   0     -22.002 -15.471  58.051  0.00  0.00     0.052 C 
BRANCH  49  50
ATOM     50  C   UNK d   0     -22.850 -16.432  57.257  0.00  0.00     0.115 C 
BRANCH  50  51
ATOM     51  C   UNK d   0     -24.092 -16.885  57.870  0.00  0.00     0.139 C 
ATOM     52  O   UNK d   0     -24.236 -18.043  58.328  0.00  0.00    -0.650 OA
BRANCH  51  53
ATOM     53  O   UNK d   0     -25.170 -16.018  57.959  0.00  0.00    -0.776 OA
ATOM     54  H   UNK d   0     -25.130 -15.155  57.445  0.00  0.00     0.167 HD
ENDBRANCH  51  53
ENDBRANCH  50  51
ENDBRANCH  49  50
ENDBRANCH  24  49
BRANCH  21  55
ATOM     55  C   UNK d   0     -22.451 -14.922  61.058  0.00  0.00     0.151 C 
BRANCH  55  56
ATOM     56  C   UNK d   0     -23.854 -15.363  61.086  0.00  0.00     0.143 C 
ATOM     57  O   UNK d   0     -24.201 -16.481  61.514  0.00  0.00    -0.650 OA
BRANCH  56  58
ATOM     58  O   UNK d   0     -24.822 -14.481  60.609  0.00  0.00    -0.776 OA
ATOM     59  H   UNK d   0     -24.831 -13.553  61.070  0.00  0.00     0.167 HD
ENDBRANCH  56  58
ENDBRANCH  55  56
ENDBRANCH  21  55
BRANCH  18  60
ATOM     60  C   UNK d   0     -18.950 -16.126  64.944  0.00  0.00     0.151 C 
BRANCH  60  61
ATOM     61  C   UNK d   0     -19.938 -16.339  66.013  0.00  0.00     0.143 C 
ATOM     62  O   UNK d   0     -21.153 -16.491  65.881  0.00  0.00    -0.650 OA
BRANCH  61  63
ATOM     63  O   UNK d   0     -19.409 -16.370  67.325  0.00  0.00    -0.776 OA
ATOM     64  H   UNK d   0     -18.968 -15.560  67.726  0.00  0.00     0.167 HD
ENDBRANCH  61  63
ENDBRANCH  60  61
ENDBRANCH  18  60
BRANCH  14  65
ATOM     65  C   UNK d   0     -17.069 -18.348  65.801  0.00  0.00     0.052 C 
BRANCH  65  66
ATOM     66  C   UNK d   0     -17.594 -19.131  66.952  0.00  0.00     0.115 C 
BRANCH  66  67
ATOM     67  C   UNK d   0     -17.015 -18.956  68.254  0.00  0.00     0.139 C 
ATOM     68  O   UNK d   0     -17.175 -17.828  68.851  0.00  0.00    -0.650 OA
BRANCH  67  69
ATOM     69  O   UNK d   0     -16.274 -19.881  68.989  0.00  0.00    -0.776 OA
ATOM     70  H   UNK d   0     -16.006 -20.740  68.488  0.00  0.00     0.167 HD
ENDBRANCH  67  69
ENDBRANCH  66  67
ENDBRANCH  65  66
ENDBRANCH  14  65
ENDBRANCH   6   7
ENDBRANCH   5   6
ENDBRANCH   2   5
TORSDOF 28
ENDMDL
MODEL 12
REMARK VINA RESULT:      -6.5     30.183     33.593
REMARK  28 active torsions:
REMARK  status: ('A' for Active; 'I' for Inactive)
REMARK    1  A    between atoms: C_2  and  O_3 
REMARK    2  A    between atoms: C_2  and  C_4 
REMARK    3  A    between atoms: C_4  and  C_5 
REMARK    4  A    between atoms: C_5  and  C_6 
REMARK    5  A    between atoms: C_7  and  C_8 
REMARK    6  A    between atoms: C_8  and  C_9 
REMARK    7  A    between atoms: C_9  and  O_11 
REMARK    8  A    between atoms: C_28  and  C_29 
REMARK    9  A    between atoms: C_29  and  C_30 
REMARK   10  A    between atoms: C_30  and  O_32 
REMARK   11  A    between atoms: C_33  and  C_34 
REMARK   12  A    between atoms: C_34  and  C_35 
REMARK   13  A    between atoms: C_35  and  C_36 
REMARK   14  A    between atoms: C_36  and  O_38 
REMARK   15  A    between atoms: C_39  and  C_40 
REMARK   16  A    between atoms: C_40  and  C_41 
REMARK   17  A    between atoms: C_41  and  C_42 
REMARK   18  A    between atoms: C_42  and  O_44 
REMARK   19  A    between atoms: C_45  and  C_46 
REMARK   20  A    between atoms: C_46  and  C_47 
REMARK   21  A    between atoms: C_47  and  O_49 
REMARK   22  A    between atoms: C_50  and  C_51 
REMARK   23  A    between atoms: C_51  and  C_52 
REMARK   24  A    between atoms: C_52  and  O_54 
REMARK   25  A    between atoms: C_55  and  C_56 
REMARK   26  A    between atoms: C_56  and  C_57 
REMARK   27  A    between atoms: C_57  and  C_58 
REMARK   28  A    between atoms: C_58  and  O_60 
ROOT
ATOM      1  O   UNK d   0      -9.934 -33.450  54.240  0.00  0.00    -0.650 OA
ATOM      2  C   UNK d   0      -9.215 -32.760  53.483  0.00  0.00     0.139 C 
ENDROOT
BRANCH   2   3
ATOM      3  O   UNK d   0      -8.101 -32.138  53.993  0.00  0.00    -0.776 OA
ATOM      4  H   UNK d   0      -7.442 -32.643  54.589  0.00  0.00     0.167 HD
ENDBRANCH   2   3
BRANCH   2   5
ATOM      5  C   UNK d   0      -9.569 -32.616  52.042  0.00  0.00     0.115 C 
BRANCH   5   6
ATOM      6  C   UNK d   0      -8.595 -31.694  51.360  0.00  0.00     0.052 C 
BRANCH   6   7
ATOM      7  C   UNK d   0      -8.126 -32.226  50.027  0.00  0.00    -0.020 A 
ATOM      8  C   UNK d   0      -7.006 -32.849  49.766  0.00  0.00    -0.011 A 
ATOM      9  C   UNK d   0      -6.991 -33.162  48.346  0.00  0.00     0.067 A 
ATOM     10  C   UNK d   0      -6.118 -33.817  47.463  0.00  0.00     0.062 C 
ATOM     11  N   UNK d   0      -8.139 -32.688  47.819  0.00  0.00    -0.248 NA
ATOM     12  C   UNK d   0      -6.404 -34.269  46.170  0.00  0.00     0.041 A 
ATOM     13  N   UNK d   0      -7.084 -33.694  45.160  0.00  0.00    -0.355 N 
ATOM     14  C   UNK d   0      -5.992 -35.560  45.794  0.00  0.00    -0.022 A 
ATOM     15  C   UNK d   0      -7.120 -34.590  44.156  0.00  0.00     0.042 A 
ATOM     16  H   UNK d   0      -7.512 -32.667  45.150  0.00  0.00     0.166 HD
ATOM     17  C   UNK d   0      -7.701 -34.503  42.875  0.00  0.00     0.062 C 
ATOM     18  C   UNK d   0      -6.446 -35.773  44.516  0.00  0.00    -0.013 A 
ATOM     19  C   UNK d   0      -8.937 -34.026  42.518  0.00  0.00     0.067 A 
ATOM     20  N   UNK d   0      -9.626 -33.372  43.457  0.00  0.00    -0.248 NA
ATOM     21  C   UNK d   0      -9.761 -34.052  41.322  0.00  0.00    -0.011 A 
ATOM     22  C   UNK d   0     -10.842 -32.970  42.961  0.00  0.00     0.066 A 
ATOM     23  C   UNK d   0     -11.649 -32.243  43.824  0.00  0.00     0.062 C 
ATOM     24  C   UNK d   0     -10.877 -33.437  41.589  0.00  0.00    -0.020 A 
ATOM     25  C   UNK d   0     -11.339 -31.788  45.114  0.00  0.00     0.041 A 
ATOM     26  N   UNK d   0     -10.676 -32.366  46.124  0.00  0.00    -0.355 N 
ATOM     27  C   UNK d   0     -11.749 -30.490  45.489  0.00  0.00    -0.022 A 
ATOM     28  C   UNK d   0     -10.646 -31.477  47.130  0.00  0.00     0.042 A 
ATOM     29  H   UNK d   0     -10.255 -33.401  46.136  0.00  0.00     0.166 HD
ATOM     30  C   UNK d   0     -10.080 -31.554  48.412  0.00  0.00     0.062 C 
ATOM     31  C   UNK d   0     -11.314 -30.285  46.763  0.00  0.00    -0.013 A 
ATOM     32  C   UNK d   0      -8.867 -32.114  48.779  0.00  0.00     0.066 A 
BRANCH   8  33
ATOM     33  C   UNK d   0      -5.934 -33.181  50.722  0.00  0.00     0.151 C 
BRANCH  33  34
ATOM     34  C   UNK d   0      -6.211 -34.410  51.487  0.00  0.00     0.143 C 
ATOM     35  O   UNK d   0      -6.494 -34.360  52.692  0.00  0.00    -0.650 OA
BRANCH  34  36
ATOM     36  O   UNK d   0      -6.151 -35.629  50.851  0.00  0.00    -0.776 OA
ATOM     37  H   UNK d   0      -5.528 -35.781  50.046  0.00  0.00     0.167 HD
ENDBRANCH  34  36
ENDBRANCH  33  34
ENDBRANCH   8  33
BRANCH  31  38
ATOM     38  C   UNK d   0     -11.508 -29.029  47.579  0.00  0.00     0.151 C 
BRANCH  38  39
ATOM     39  C   UNK d   0     -12.587 -29.143  48.538  0.00  0.00     0.143 C 
ATOM     40  O   UNK d   0     -13.522 -29.949  48.394  0.00  0.00    -0.650 OA
BRANCH  39  41
ATOM     41  O   UNK d   0     -12.589 -28.327  49.669  0.00  0.00    -0.776 OA
ATOM     42  H   UNK d   0     -11.697 -27.893  49.927  0.00  0.00     0.167 HD
ENDBRANCH  39  41
ENDBRANCH  38  39
ENDBRANCH  31  38
BRANCH  27  43
ATOM     43  C   UNK d   0     -12.523 -29.464  44.700  0.00  0.00     0.052 C 
BRANCH  43  44
ATOM     44  C   UNK d   0     -14.003 -29.589  44.860  0.00  0.00     0.115 C 
BRANCH  44  45
ATOM     45  C   UNK d   0     -14.612 -29.061  43.611  0.00  0.00     0.139 C 
ATOM     46  O   UNK d   0     -13.863 -28.476  42.790  0.00  0.00    -0.650 OA
BRANCH  45  47
ATOM     47  O   UNK d   0     -15.952 -29.193  43.319  0.00  0.00    -0.776 OA
ATOM     48  H   UNK d   0     -16.513 -28.430  42.908  0.00  0.00     0.167 HD
ENDBRANCH  45  47
ENDBRANCH  44  45
ENDBRANCH  43  44
ENDBRANCH  27  43
BRANCH  24  49
ATOM     49  C   UNK d   0     -11.984 -33.198  40.647  0.00  0.00     0.052 C 
BRANCH  49  50
ATOM     50  C   UNK d   0     -11.754 -31.921  39.880  0.00  0.00     0.115 C 
BRANCH  50  51
ATOM     51  C   UNK d   0     -12.215 -30.684  40.495  0.00  0.00     0.139 C 
ATOM     52  O   UNK d   0     -11.430 -29.843  40.994  0.00  0.00    -0.650 OA
BRANCH  51  53
ATOM     53  O   UNK d   0     -13.572 -30.405  40.542  0.00  0.00    -0.776 OA
ATOM     54  H   UNK d   0     -14.155 -30.979  41.125  0.00  0.00     0.167 HD
ENDBRANCH  51  53
ENDBRANCH  50  51
ENDBRANCH  49  50
ENDBRANCH  24  49
BRANCH  21  55
ATOM     55  C   UNK d   0      -9.347 -34.686  40.036  0.00  0.00     0.151 C 
BRANCH  55  56
ATOM     56  C   UNK d   0      -9.224 -36.147  40.155  0.00  0.00     0.143 C 
ATOM     57  O   UNK d   0      -8.252 -36.782  39.701  0.00  0.00    -0.650 OA
BRANCH  56  58
ATOM     58  O   UNK d   0     -10.248 -36.833  40.806  0.00  0.00    -0.776 OA
ATOM     59  H   UNK d   0     -10.509 -37.739  40.376  0.00  0.00     0.167 HD
ENDBRANCH  56  58
ENDBRANCH  55  56
ENDBRANCH  21  55
BRANCH  18  60
ATOM     60  C   UNK d   0      -6.235 -37.038  43.723  0.00  0.00     0.151 C 
BRANCH  60  61
ATOM     61  C   UNK d   0      -7.524 -37.746  43.740  0.00  0.00     0.143 C 
ATOM     62  O   UNK d   0      -8.215 -38.004  44.726  0.00  0.00    -0.650 OA
BRANCH  61  63
ATOM     63  O   UNK d   0      -7.998 -38.165  42.474  0.00  0.00    -0.776 OA
ATOM     64  H   UNK d   0      -8.982 -38.275  42.300  0.00  0.00     0.167 HD
ENDBRANCH  61  63
ENDBRANCH  60  61
ENDBRANCH  18  60
BRANCH  14  65
ATOM     65  C   UNK d   0      -5.125 -36.560  46.506  0.00  0.00     0.052 C 
BRANCH  65  66
ATOM     66  C   UNK d   0      -5.903 -37.506  47.350  0.00  0.00     0.115 C 
BRANCH  66  67
ATOM     67  C   UNK d   0      -5.300 -38.076  48.522  0.00  0.00     0.139 C 
ATOM     68  O   UNK d   0      -6.006 -38.169  49.592  0.00  0.00    -0.650 OA
BRANCH  67  69
ATOM     69  O   UNK d   0      -4.000 -38.561  48.662  0.00  0.00    -0.776 OA
ATOM     70  H   UNK d   0      -3.900 -39.586  48.645  0.00  0.00     0.167 HD
ENDBRANCH  67  69
ENDBRANCH  66  67
ENDBRANCH  65  66
ENDBRANCH  14  65
ENDBRANCH   6   7
ENDBRANCH   5   6
ENDBRANCH   2   5
TORSDOF 28
ENDMDL
MODEL 13
REMARK VINA RESULT:      -6.5     30.354     33.221
REMARK  28 active torsions:
REMARK  status: ('A' for Active; 'I' for Inactive)
REMARK    1  A    between atoms: C_2  and  O_3 
REMARK    2  A    between atoms: C_2  and  C_4 
REMARK    3  A    between atoms: C_4  and  C_5 
REMARK    4  A    between atoms: C_5  and  C_6 
REMARK    5  A    between atoms: C_7  and  C_8 
REMARK    6  A    between atoms: C_8  and  C_9 
REMARK    7  A    between atoms: C_9  and  O_11 
REMARK    8  A    between atoms: C_28  and  C_29 
REMARK    9  A    between atoms: C_29  and  C_30 
REMARK   10  A    between atoms: C_30  and  O_32 
REMARK   11  A    between atoms: C_33  and  C_34 
REMARK   12  A    between atoms: C_34  and  C_35 
REMARK   13  A    between atoms: C_35  and  C_36 
REMARK   14  A    between atoms: C_36  and  O_38 
REMARK   15  A    between atoms: C_39  and  C_40 
REMARK   16  A    between atoms: C_40  and  C_41 
REMARK   17  A    between atoms: C_41  and  C_42 
REMARK   18  A    between atoms: C_42  and  O_44 
REMARK   19  A    between atoms: C_45  and  C_46 
REMARK   20  A    between atoms: C_46  and  C_47 
REMARK   21  A    between atoms: C_47  and  O_49 
REMARK   22  A    between atoms: C_50  and  C_51 
REMARK   23  A    between atoms: C_51  and  C_52 
REMARK   24  A    between atoms: C_52  and  O_54 
REMARK   25  A    between atoms: C_55  and  C_56 
REMARK   26  A    between atoms: C_56  and  C_57 
REMARK   27  A    between atoms: C_57  and  C_58 
REMARK   28  A    between atoms: C_58  and  O_60 
ROOT
ATOM      1  O   UNK d   0     -13.817 -28.634  43.715  0.00  0.00    -0.650 OA
ATOM      2  C   UNK d   0     -12.657 -28.558  44.178  0.00  0.00     0.139 C 
ENDROOT
BRANCH   2   3
ATOM      3  O   UNK d   0     -12.222 -27.369  44.713  0.00  0.00    -0.776 OA
ATOM      4  H   UNK d   0     -12.262 -27.198  45.720  0.00  0.00     0.167 HD
ENDBRANCH   2   3
BRANCH   2   5
ATOM      5  C   UNK d   0     -11.760 -29.747  44.146  0.00  0.00     0.115 C 
BRANCH   5   6
ATOM      6  C   UNK d   0     -12.350 -30.863  44.964  0.00  0.00     0.052 C 
BRANCH   6   7
ATOM      7  C   UNK d   0     -11.464 -31.269  46.118  0.00  0.00    -0.020 A 
ATOM      8  C   UNK d   0     -11.416 -30.737  47.312  0.00  0.00    -0.011 A 
ATOM      9  C   UNK d   0     -10.409 -31.453  48.077  0.00  0.00     0.067 A 
ATOM     10  C   UNK d   0      -9.900 -31.396  49.384  0.00  0.00     0.062 C 
ATOM     11  N   UNK d   0      -9.890 -32.401  47.269  0.00  0.00    -0.248 NA
ATOM     12  C   UNK d   0      -9.118 -32.359  50.032  0.00  0.00     0.041 A 
ATOM     13  N   UNK d   0      -8.074 -33.091  49.598  0.00  0.00    -0.355 N 
ATOM     14  C   UNK d   0      -9.443 -32.725  51.350  0.00  0.00    -0.022 A 
ATOM     15  C   UNK d   0      -7.734 -33.917  50.605  0.00  0.00     0.042 A 
ATOM     16  H   UNK d   0      -7.575 -33.011  48.607  0.00  0.00     0.166 HD
ATOM     17  C   UNK d   0      -6.715 -34.888  50.686  0.00  0.00     0.062 C 
ATOM     18  C   UNK d   0      -8.570 -33.717  51.721  0.00  0.00    -0.013 A 
ATOM     19  C   UNK d   0      -6.350 -35.833  49.762  0.00  0.00     0.067 A 
ATOM     20  N   UNK d   0      -6.877 -35.720  48.540  0.00  0.00    -0.248 NA
ATOM     21  C   UNK d   0      -5.499 -37.012  49.754  0.00  0.00    -0.011 A 
ATOM     22  C   UNK d   0      -6.433 -36.740  47.734  0.00  0.00     0.066 A 
ATOM     23  C   UNK d   0      -6.876 -36.723  46.419  0.00  0.00     0.062 C 
ATOM     24  C   UNK d   0      -5.556 -37.540  48.565  0.00  0.00    -0.020 A 
ATOM     25  C   UNK d   0      -7.650 -35.739  45.785  0.00  0.00     0.041 A 
ATOM     26  N   UNK d   0      -8.697 -35.022  46.210  0.00  0.00    -0.355 N 
ATOM     27  C   UNK d   0      -7.320 -35.369  44.463  0.00  0.00    -0.022 A 
ATOM     28  C   UNK d   0      -9.044 -34.203  45.205  0.00  0.00     0.042 A 
ATOM     29  H   UNK d   0      -9.204 -35.111  47.203  0.00  0.00     0.166 HD
ATOM     30  C   UNK d   0     -10.061 -33.240  45.108  0.00  0.00     0.062 C 
ATOM     31  C   UNK d   0      -8.197 -34.398  44.088  0.00  0.00    -0.013 A 
ATOM     32  C   UNK d   0     -10.483 -32.343  46.076  0.00  0.00     0.066 A 
BRANCH   8  33
ATOM     33  C   UNK d   0     -12.224 -29.610  47.812  0.00  0.00     0.151 C 
BRANCH  33  34
ATOM     34  C   UNK d   0     -11.430 -28.384  48.015  0.00  0.00     0.143 C 
ATOM     35  O   UNK d   0     -11.398 -27.823  49.119  0.00  0.00    -0.650 OA
BRANCH  34  36
ATOM     36  O   UNK d   0     -10.718 -27.859  46.962  0.00  0.00    -0.776 OA
ATOM     37  H   UNK d   0     -10.005 -28.414  46.469  0.00  0.00     0.167 HD
ENDBRANCH  34  36
ENDBRANCH  33  34
ENDBRANCH   8  33
BRANCH  31  38
ATOM     38  C   UNK d   0      -8.222 -33.685  42.756  0.00  0.00     0.151 C 
BRANCH  38  39
ATOM     39  C   UNK d   0      -8.898 -34.445  41.726  0.00  0.00     0.143 C 
ATOM     40  O   UNK d   0      -8.384 -34.663  40.614  0.00  0.00    -0.650 OA
BRANCH  39  41
ATOM     41  O   UNK d   0     -10.171 -34.957  41.975  0.00  0.00    -0.776 OA
ATOM     42  H   UNK d   0     -10.286 -35.971  41.885  0.00  0.00     0.167 HD
ENDBRANCH  39  41
ENDBRANCH  38  39
ENDBRANCH  31  38
BRANCH  27  43
ATOM     43  C   UNK d   0      -6.229 -35.896  43.564  0.00  0.00     0.052 C 
BRANCH  43  44
ATOM     44  C   UNK d   0      -4.871 -35.835  44.185  0.00  0.00     0.115 C 
BRANCH  44  45
ATOM     45  C   UNK d   0      -3.939 -36.492  43.232  0.00  0.00     0.139 C 
ATOM     46  O   UNK d   0      -2.835 -35.938  43.006  0.00  0.00    -0.650 OA
BRANCH  45  47
ATOM     47  O   UNK d   0      -4.234 -37.679  42.598  0.00  0.00    -0.776 OA
ATOM     48  H   UNK d   0      -3.619 -38.100  41.882  0.00  0.00     0.167 HD
ENDBRANCH  45  47
ENDBRANCH  44  45
ENDBRANCH  43  44
ENDBRANCH  27  43
BRANCH  24  49
ATOM     49  C   UNK d   0      -4.815 -38.728  48.107  0.00  0.00     0.052 C 
BRANCH  49  50
ATOM     50  C   UNK d   0      -5.650 -39.969  48.290  0.00  0.00     0.115 C 
BRANCH  50  51
ATOM     51  C   UNK d   0      -5.066 -41.054  49.068  0.00  0.00     0.139 C 
ATOM     52  O   UNK d   0      -5.571 -41.467  50.138  0.00  0.00    -0.650 OA
BRANCH  51  53
ATOM     53  O   UNK d   0      -3.903 -41.666  48.626  0.00  0.00    -0.776 OA
ATOM     54  H   UNK d   0      -3.265 -41.128  48.065  0.00  0.00     0.167 HD
ENDBRANCH  51  53
ENDBRANCH  50  51
ENDBRANCH  49  50
ENDBRANCH  24  49
BRANCH  21  55
ATOM     55  C   UNK d   0      -4.715 -37.484  50.933  0.00  0.00     0.151 C 
BRANCH  55  56
ATOM     56  C   UNK d   0      -5.459 -38.472  51.729  0.00  0.00     0.143 C 
ATOM     57  O   UNK d   0      -6.690 -38.403  51.913  0.00  0.00    -0.650 OA
BRANCH  56  58
ATOM     58  O   UNK d   0      -4.739 -39.523  52.295  0.00  0.00    -0.776 OA
ATOM     59  H   UNK d   0      -4.731 -40.396  51.737  0.00  0.00     0.167 HD
ENDBRANCH  56  58
ENDBRANCH  55  56
ENDBRANCH  21  55
BRANCH  18  60
ATOM     60  C   UNK d   0      -8.566 -34.410  53.061  0.00  0.00     0.151 C 
BRANCH  60  61
ATOM     61  C   UNK d   0      -9.211 -35.714  52.844  0.00  0.00     0.143 C 
ATOM     62  O   UNK d   0     -10.248 -35.934  52.218  0.00  0.00    -0.650 OA
BRANCH  61  63
ATOM     63  O   UNK d   0      -8.545 -36.819  53.427  0.00  0.00    -0.776 OA
ATOM     64  H   UNK d   0      -9.038 -37.473  54.008  0.00  0.00     0.167 HD
ENDBRANCH  61  63
ENDBRANCH  60  61
ENDBRANCH  18  60
BRANCH  14  65
ATOM     65  C   UNK d   0     -10.442 -32.145  52.311  0.00  0.00     0.052 C 
BRANCH  65  66
ATOM     66  C   UNK d   0      -9.936 -30.939  53.020  0.00  0.00     0.115 C 
BRANCH  66  67
ATOM     67  C   UNK d   0     -10.836 -29.863  53.325  0.00  0.00     0.139 C 
ATOM     68  O   UNK d   0     -11.125 -29.023  52.395  0.00  0.00    -0.650 OA
BRANCH  67  69
ATOM     69  O   UNK d   0     -11.463 -29.594  54.541  0.00  0.00    -0.776 OA
ATOM     70  H   UNK d   0     -11.200 -30.207  55.326  0.00  0.00     0.167 HD
ENDBRANCH  67  69
ENDBRANCH  66  67
ENDBRANCH  65  66
ENDBRANCH  14  65
ENDBRANCH   6   7
ENDBRANCH   5   6
ENDBRANCH   2   5
TORSDOF 28
ENDMDL
MODEL 14
REMARK VINA RESULT:      -6.5     29.206     32.098
REMARK  28 active torsions:
REMARK  status: ('A' for Active; 'I' for Inactive)
REMARK    1  A    between atoms: C_2  and  O_3 
REMARK    2  A    between atoms: C_2  and  C_4 
REMARK    3  A    between atoms: C_4  and  C_5 
REMARK    4  A    between atoms: C_5  and  C_6 
REMARK    5  A    between atoms: C_7  and  C_8 
REMARK    6  A    between atoms: C_8  and  C_9 
REMARK    7  A    between atoms: C_9  and  O_11 
REMARK    8  A    between atoms: C_28  and  C_29 
REMARK    9  A    between atoms: C_29  and  C_30 
REMARK   10  A    between atoms: C_30  and  O_32 
REMARK   11  A    between atoms: C_33  and  C_34 
REMARK   12  A    between atoms: C_34  and  C_35 
REMARK   13  A    between atoms: C_35  and  C_36 
REMARK   14  A    between atoms: C_36  and  O_38 
REMARK   15  A    between atoms: C_39  and  C_40 
REMARK   16  A    between atoms: C_40  and  C_41 
REMARK   17  A    between atoms: C_41  and  C_42 
REMARK   18  A    between atoms: C_42  and  O_44 
REMARK   19  A    between atoms: C_45  and  C_46 
REMARK   20  A    between atoms: C_46  and  C_47 
REMARK   21  A    between atoms: C_47  and  O_49 
REMARK   22  A    between atoms: C_50  and  C_51 
REMARK   23  A    between atoms: C_51  and  C_52 
REMARK   24  A    between atoms: C_52  and  O_54 
REMARK   25  A    between atoms: C_55  and  C_56 
REMARK   26  A    between atoms: C_56  and  C_57 
REMARK   27  A    between atoms: C_57  and  C_58 
REMARK   28  A    between atoms: C_58  and  O_60 
ROOT
ATOM      1  O   UNK d   0     -21.095 -15.741  60.869  0.00  0.00    -0.650 OA
ATOM      2  C   UNK d   0     -21.296 -15.735  59.634  0.00  0.00     0.139 C 
ENDROOT
BRANCH   2   3
ATOM      3  O   UNK d   0     -22.190 -14.837  59.102  0.00  0.00    -0.776 OA
ATOM      4  H   UNK d   0     -23.042 -15.154  58.636  0.00  0.00     0.167 HD
ENDBRANCH   2   3
BRANCH   2   5
ATOM      5  C   UNK d   0     -20.573 -16.695  58.753  0.00  0.00     0.115 C 
BRANCH   5   6
ATOM      6  C   UNK d   0     -19.095 -16.641  59.031  0.00  0.00     0.052 C 
BRANCH   6   7
ATOM      7  C   UNK d   0     -18.516 -17.995  59.365  0.00  0.00    -0.020 A 
ATOM      8  C   UNK d   0     -18.086 -18.906  58.530  0.00  0.00    -0.011 A 
ATOM      9  C   UNK d   0     -17.628 -20.043  59.311  0.00  0.00     0.067 A 
ATOM     10  C   UNK d   0     -17.053 -21.294  59.037  0.00  0.00     0.062 C 
ATOM     11  N   UNK d   0     -17.822 -19.740  60.612  0.00  0.00    -0.248 NA
ATOM     12  C   UNK d   0     -16.418 -22.151  59.942  0.00  0.00     0.041 A 
ATOM     13  N   UNK d   0     -16.743 -22.514  61.198  0.00  0.00    -0.355 N 
ATOM     14  C   UNK d   0     -15.191 -22.737  59.579  0.00  0.00    -0.022 A 
ATOM     15  C   UNK d   0     -15.751 -23.308  61.643  0.00  0.00     0.042 A 
ATOM     16  H   UNK d   0     -17.665 -22.230  61.751  0.00  0.00     0.166 HD
ATOM     17  C   UNK d   0     -15.589 -23.959  62.882  0.00  0.00     0.062 C 
ATOM     18  C   UNK d   0     -14.760 -23.471  60.656  0.00  0.00    -0.013 A 
ATOM     19  C   UNK d   0     -15.787 -23.468  64.147  0.00  0.00     0.067 A 
ATOM     20  N   UNK d   0     -16.401 -22.286  64.247  0.00  0.00    -0.248 NA
ATOM     21  C   UNK d   0     -15.478 -23.905  65.498  0.00  0.00    -0.011 A 
ATOM     22  C   UNK d   0     -16.515 -21.918  65.566  0.00  0.00     0.066 A 
ATOM     23  C   UNK d   0     -17.170 -20.722  65.818  0.00  0.00     0.062 C 
ATOM     24  C   UNK d   0     -15.903 -22.992  66.323  0.00  0.00    -0.020 A 
ATOM     25  C   UNK d   0     -17.813 -19.882  64.895  0.00  0.00     0.041 A 
ATOM     26  N   UNK d   0     -17.482 -19.510  63.653  0.00  0.00    -0.355 N 
ATOM     27  C   UNK d   0     -19.046 -19.299  65.259  0.00  0.00    -0.022 A 
ATOM     28  C   UNK d   0     -18.466 -18.711  63.210  0.00  0.00     0.042 A 
ATOM     29  H   UNK d   0     -16.550 -19.787  63.102  0.00  0.00     0.166 HD
ATOM     30  C   UNK d   0     -18.635 -18.049  61.984  0.00  0.00     0.062 C 
ATOM     31  C   UNK d   0     -19.466 -18.556  64.199  0.00  0.00    -0.013 A 
ATOM     32  C   UNK d   0     -18.353 -18.521  60.712  0.00  0.00     0.066 A 
BRANCH   8  33
ATOM     33  C   UNK d   0     -18.065 -18.820  57.059  0.00  0.00     0.151 C 
BRANCH  33  34
ATOM     34  C   UNK d   0     -19.078 -19.681  56.422  0.00  0.00     0.143 C 
ATOM     35  O   UNK d   0     -18.777 -20.800  55.983  0.00  0.00    -0.650 OA
BRANCH  34  36
ATOM     36  O   UNK d   0     -20.374 -19.233  56.314  0.00  0.00    -0.776 OA
ATOM     37  H   UNK d   0     -20.899 -18.913  57.140  0.00  0.00     0.167 HD
ENDBRANCH  34  36
ENDBRANCH  33  34
ENDBRANCH   8  33
BRANCH  31  38
ATOM     38  C   UNK d   0     -20.747 -17.758  64.121  0.00  0.00     0.151 C 
BRANCH  38  39
ATOM     39  C   UNK d   0     -20.561 -16.364  64.465  0.00  0.00     0.143 C 
ATOM     40  O   UNK d   0     -21.368 -15.481  64.123  0.00  0.00    -0.650 OA
BRANCH  39  41
ATOM     41  O   UNK d   0     -19.443 -15.983  65.206  0.00  0.00    -0.776 OA
ATOM     42  H   UNK d   0     -19.154 -15.002  65.134  0.00  0.00     0.167 HD
ENDBRANCH  39  41
ENDBRANCH  38  39
ENDBRANCH  31  38
BRANCH  27  43
ATOM     43  C   UNK d   0     -19.819 -19.417  66.549  0.00  0.00     0.052 C 
BRANCH  43  44
ATOM     44  C   UNK d   0     -19.298 -18.530  67.633  0.00  0.00     0.115 C 
BRANCH  44  45
ATOM     45  C   UNK d   0     -20.480 -17.865  68.242  0.00  0.00     0.139 C 
ATOM     46  O   UNK d   0     -20.970 -18.367  69.284  0.00  0.00    -0.650 OA
BRANCH  45  47
ATOM     47  O   UNK d   0     -21.050 -16.726  67.715  0.00  0.00    -0.776 OA
ATOM     48  H   UNK d   0     -21.692 -16.744  66.906  0.00  0.00     0.167 HD
ENDBRANCH  45  47
ENDBRANCH  44  45
ENDBRANCH  43  44
ENDBRANCH  27  43
BRANCH  24  49
ATOM     49  C   UNK d   0     -15.829 -23.048  67.793  0.00  0.00     0.052 C 
BRANCH  49  50
ATOM     50  C   UNK d   0     -14.898 -21.982  68.312  0.00  0.00     0.115 C 
BRANCH  50  51
ATOM     51  C   UNK d   0     -13.478 -22.303  68.354  0.00  0.00     0.139 C 
ATOM     52  O   UNK d   0     -12.638 -21.756  67.600  0.00  0.00    -0.650 OA
BRANCH  51  53
ATOM     53  O   UNK d   0     -13.014 -23.249  69.255  0.00  0.00    -0.776 OA
ATOM     54  H   UNK d   0     -13.687 -23.739  69.818  0.00  0.00     0.167 HD
ENDBRANCH  51  53
ENDBRANCH  50  51
ENDBRANCH  49  50
ENDBRANCH  24  49
BRANCH  21  55
ATOM     55  C   UNK d   0     -14.795 -25.192  65.823  0.00  0.00     0.151 C 
BRANCH  55  56
ATOM     56  C   UNK d   0     -13.339 -25.027  65.950  0.00  0.00     0.143 C 
ATOM     57  O   UNK d   0     -12.719 -25.285  67.000  0.00  0.00    -0.650 OA
BRANCH  56  58
ATOM     58  O   UNK d   0     -12.640 -24.560  64.838  0.00  0.00    -0.776 OA
ATOM     59  H   UNK d   0     -11.609 -24.550  64.944  0.00  0.00     0.167 HD
ENDBRANCH  56  58
ENDBRANCH  55  56
ENDBRANCH  21  55
BRANCH  18  60
ATOM     60  C   UNK d   0     -13.476 -24.262  60.704  0.00  0.00     0.151 C 
BRANCH  60  61
ATOM     61  C   UNK d   0     -12.477 -23.373  61.315  0.00  0.00     0.143 C 
ATOM     62  O   UNK d   0     -12.500 -22.899  62.451  0.00  0.00    -0.650 OA
BRANCH  61  63
ATOM     63  O   UNK d   0     -11.379 -23.041  60.485  0.00  0.00    -0.776 OA
ATOM     64  H   UNK d   0     -11.330 -22.150  60.022  0.00  0.00     0.167 HD
ENDBRANCH  61  63
ENDBRANCH  60  61
ENDBRANCH  18  60
BRANCH  14  65
ATOM     65  C   UNK d   0     -14.453 -22.735  58.271  0.00  0.00     0.052 C 
BRANCH  65  66
ATOM     66  C   UNK d   0     -15.113 -23.567  57.229  0.00  0.00     0.115 C 
BRANCH  66  67
ATOM     67  C   UNK d   0     -15.824 -22.932  56.155  0.00  0.00     0.139 C 
ATOM     68  O   UNK d   0     -16.511 -23.668  55.355  0.00  0.00    -0.650 OA
BRANCH  67  69
ATOM     69  O   UNK d   0     -15.871 -21.573  55.850  0.00  0.00    -0.776 OA
ATOM     70  H   UNK d   0     -15.826 -20.931  56.654  0.00  0.00     0.167 HD
ENDBRANCH  67  69
ENDBRANCH  66  67
ENDBRANCH  65  66
ENDBRANCH  14  65
ENDBRANCH   6   7
ENDBRANCH   5   6
ENDBRANCH   2   5
TORSDOF 28
ENDMDL
MODEL 15
REMARK VINA RESULT:      -6.4     30.285     32.880
REMARK  28 active torsions:
REMARK  status: ('A' for Active; 'I' for Inactive)
REMARK    1  A    between atoms: C_2  and  O_3 
REMARK    2  A    between atoms: C_2  and  C_4 
REMARK    3  A    between atoms: C_4  and  C_5 
REMARK    4  A    between atoms: C_5  and  C_6 
REMARK    5  A    between atoms: C_7  and  C_8 
REMARK    6  A    between atoms: C_8  and  C_9 
REMARK    7  A    between atoms: C_9  and  O_11 
REMARK    8  A    between atoms: C_28  and  C_29 
REMARK    9  A    between atoms: C_29  and  C_30 
REMARK   10  A    between atoms: C_30  and  O_32 
REMARK   11  A    between atoms: C_33  and  C_34 
REMARK   12  A    between atoms: C_34  and  C_35 
REMARK   13  A    between atoms: C_35  and  C_36 
REMARK   14  A    between atoms: C_36  and  O_38 
REMARK   15  A    between atoms: C_39  and  C_40 
REMARK   16  A    between atoms: C_40  and  C_41 
REMARK   17  A    between atoms: C_41  and  C_42 
REMARK   18  A    between atoms: C_42  and  O_44 
REMARK   19  A    between atoms: C_45  and  C_46 
REMARK   20  A    between atoms: C_46  and  C_47 
REMARK   21  A    between atoms: C_47  and  O_49 
REMARK   22  A    between atoms: C_50  and  C_51 
REMARK   23  A    between atoms: C_51  and  C_52 
REMARK   24  A    between atoms: C_52  and  O_54 
REMARK   25  A    between atoms: C_55  and  C_56 
REMARK   26  A    between atoms: C_56  and  C_57 
REMARK   27  A    between atoms: C_57  and  C_58 
REMARK   28  A    between atoms: C_58  and  O_60 
ROOT
ATOM      1  O   UNK d   0     -16.080 -31.269  43.396  0.00  0.00    -0.650 OA
ATOM      2  C   UNK d   0     -15.831 -30.044  43.438  0.00  0.00     0.139 C 
ENDROOT
BRANCH   2   3
ATOM      3  O   UNK d   0     -16.501 -29.191  42.594  0.00  0.00    -0.776 OA
ATOM      4  H   UNK d   0     -16.270 -29.144  41.599  0.00  0.00     0.167 HD
ENDBRANCH   2   3
BRANCH   2   5
ATOM      5  C   UNK d   0     -14.817 -29.518  44.395  0.00  0.00     0.115 C 
BRANCH   5   6
ATOM      6  C   UNK d   0     -13.512 -29.279  43.687  0.00  0.00     0.052 C 
BRANCH   6   7
ATOM      7  C   UNK d   0     -12.610 -30.490  43.704  0.00  0.00    -0.020 A 
ATOM      8  C   UNK d   0     -12.434 -31.368  42.750  0.00  0.00    -0.011 A 
ATOM      9  C   UNK d   0     -11.482 -32.358  43.226  0.00  0.00     0.067 A 
ATOM     10  C   UNK d   0     -10.871 -33.508  42.703  0.00  0.00     0.062 C 
ATOM     11  N   UNK d   0     -11.135 -32.008  44.482  0.00  0.00    -0.248 NA
ATOM     12  C   UNK d   0      -9.758 -34.184  43.216  0.00  0.00     0.041 A 
ATOM     13  N   UNK d   0      -9.427 -34.515  44.479  0.00  0.00    -0.355 N 
ATOM     14  C   UNK d   0      -8.734 -34.575  42.335  0.00  0.00    -0.022 A 
ATOM     15  C   UNK d   0      -8.215 -35.098  44.423  0.00  0.00     0.042 A 
ATOM     16  H   UNK d   0     -10.046 -34.356  45.389  0.00  0.00     0.166 HD
ATOM     17  C   UNK d   0      -7.410 -35.631  45.449  0.00  0.00     0.062 C 
ATOM     18  C   UNK d   0      -7.748 -35.154  43.095  0.00  0.00    -0.013 A 
ATOM     19  C   UNK d   0      -7.117 -35.099  46.679  0.00  0.00     0.067 A 
ATOM     20  N   UNK d   0      -7.827 -34.035  47.062  0.00  0.00    -0.248 NA
ATOM     21  C   UNK d   0      -6.172 -35.390  47.744  0.00  0.00    -0.011 A 
ATOM     22  C   UNK d   0      -7.413 -33.607  48.300  0.00  0.00     0.066 A 
ATOM     23  C   UNK d   0      -8.096 -32.526  48.838  0.00  0.00     0.062 C 
ATOM     24  C   UNK d   0      -6.347 -34.511  48.688  0.00  0.00    -0.020 A 
ATOM     25  C   UNK d   0      -9.219 -31.869  48.313  0.00  0.00     0.041 A 
ATOM     26  N   UNK d   0      -9.541 -31.527  47.059  0.00  0.00    -0.355 N 
ATOM     27  C   UNK d   0     -10.249 -31.481  49.197  0.00  0.00    -0.022 A 
ATOM     28  C   UNK d   0     -10.746 -30.937  47.114  0.00  0.00     0.042 A 
ATOM     29  H   UNK d   0      -8.913 -31.678  46.147  0.00  0.00     0.166 HD
ATOM     30  C   UNK d   0     -11.554 -30.395  46.102  0.00  0.00     0.062 C 
ATOM     31  C   UNK d   0     -11.219 -30.891  48.446  0.00  0.00    -0.013 A 
ATOM     32  C   UNK d   0     -11.779 -30.893  44.829  0.00  0.00     0.066 A 
BRANCH   8  33
ATOM     33  C   UNK d   0     -13.079 -31.374  41.423  0.00  0.00     0.151 C 
BRANCH  33  34
ATOM     34  C   UNK d   0     -12.452 -30.432  40.479  0.00  0.00     0.143 C 
ATOM     35  O   UNK d   0     -13.075 -30.005  39.497  0.00  0.00    -0.650 OA
BRANCH  34  36
ATOM     36  O   UNK d   0     -11.156 -30.023  40.694  0.00  0.00    -0.776 OA
ATOM     37  H   UNK d   0     -10.374 -30.692  40.672  0.00  0.00     0.167 HD
ENDBRANCH  34  36
ENDBRANCH  33  34
ENDBRANCH   8  33
BRANCH  31  38
ATOM     38  C   UNK d   0     -12.524 -30.329  48.960  0.00  0.00     0.151 C 
BRANCH  38  39
ATOM     39  C   UNK d   0     -12.403 -28.963  49.424  0.00  0.00     0.143 C 
ATOM     40  O   UNK d   0     -12.503 -28.658  50.625  0.00  0.00    -0.650 OA
BRANCH  39  41
ATOM     41  O   UNK d   0     -12.165 -27.944  48.503  0.00  0.00    -0.776 OA
ATOM     42  H   UNK d   0     -11.998 -27.007  48.884  0.00  0.00     0.167 HD
ENDBRANCH  39  41
ENDBRANCH  38  39
ENDBRANCH  31  38
BRANCH  27  43
ATOM     43  C   UNK d   0     -10.340 -31.645  50.693  0.00  0.00     0.052 C 
BRANCH  43  44
ATOM     44  C   UNK d   0      -9.648 -30.559  51.450  0.00  0.00     0.115 C 
BRANCH  44  45
ATOM     45  C   UNK d   0      -9.597 -30.996  52.869  0.00  0.00     0.139 C 
ATOM     46  O   UNK d   0     -10.648 -30.912  53.552  0.00  0.00    -0.650 OA
BRANCH  45  47
ATOM     47  O   UNK d   0      -8.454 -31.491  53.459  0.00  0.00    -0.776 OA
ATOM     48  H   UNK d   0      -7.728 -30.883  53.871  0.00  0.00     0.167 HD
ENDBRANCH  45  47
ENDBRANCH  44  45
ENDBRANCH  43  44
ENDBRANCH  27  43
BRANCH  24  49
ATOM     49  C   UNK d   0      -5.626 -34.458  49.971  0.00  0.00     0.052 C 
BRANCH  49  50
ATOM     50  C   UNK d   0      -6.422 -35.146  51.050  0.00  0.00     0.115 C 
BRANCH  50  51
ATOM     51  C   UNK d   0      -7.024 -34.302  52.073  0.00  0.00     0.139 C 
ATOM     52  O   UNK d   0      -8.238 -34.370  52.377  0.00  0.00    -0.650 OA
BRANCH  51  53
ATOM     53  O   UNK d   0      -6.241 -33.378  52.748  0.00  0.00    -0.776 OA
ATOM     54  H   UNK d   0      -6.194 -32.441  52.388  0.00  0.00     0.167 HD
ENDBRANCH  51  53
ENDBRANCH  50  51
ENDBRANCH  49  50
ENDBRANCH  24  49
BRANCH  21  55
ATOM     55  C   UNK d   0      -5.195 -36.518  47.709  0.00  0.00     0.151 C 
BRANCH  55  56
ATOM     56  C   UNK d   0      -5.663 -37.677  48.484  0.00  0.00     0.143 C 
ATOM     57  O   UNK d   0      -6.710 -38.295  48.207  0.00  0.00    -0.650 OA
BRANCH  56  58
ATOM     58  O   UNK d   0      -4.891 -38.088  49.569  0.00  0.00    -0.776 OA
ATOM     59  H   UNK d   0      -4.876 -37.429  50.368  0.00  0.00     0.167 HD
ENDBRANCH  56  58
ENDBRANCH  55  56
ENDBRANCH  21  55
BRANCH  18  60
ATOM     60  C   UNK d   0      -6.454 -35.711  42.555  0.00  0.00     0.151 C 
BRANCH  60  61
ATOM     61  C   UNK d   0      -6.740 -37.103  42.176  0.00  0.00     0.143 C 
ATOM     62  O   UNK d   0      -7.068 -38.023  42.926  0.00  0.00    -0.650 OA
BRANCH  61  63
ATOM     63  O   UNK d   0      -6.620 -37.389  40.795  0.00  0.00    -0.776 OA
ATOM     64  H   UNK d   0      -7.433 -37.518  40.219  0.00  0.00     0.167 HD
ENDBRANCH  61  63
ENDBRANCH  60  61
ENDBRANCH  18  60
BRANCH  14  65
ATOM     65  C   UNK d   0      -8.660 -34.532  40.835  0.00  0.00     0.052 C 
BRANCH  65  66
ATOM     66  C   UNK d   0      -8.005 -33.300  40.320  0.00  0.00     0.115 C 
BRANCH  66  67
ATOM     67  C   UNK d   0      -8.807 -32.246  39.767  0.00  0.00     0.139 C 
ATOM     68  O   UNK d   0      -8.391 -31.034  39.879  0.00  0.00    -0.650 OA
BRANCH  67  69
ATOM     69  O   UNK d   0     -10.026 -32.362  39.098  0.00  0.00    -0.776 OA
ATOM     70  H   UNK d   0     -10.542 -33.239  39.256  0.00  0.00     0.167 HD
ENDBRANCH  67  69
ENDBRANCH  66  67
ENDBRANCH  65  66
ENDBRANCH  14  65
ENDBRANCH   6   7
ENDBRANCH   5   6
ENDBRANCH   2   5
TORSDOF 28
ENDMDL
MODEL 16
REMARK VINA RESULT:      -6.4     28.940     32.356
REMARK  28 active torsions:
REMARK  status: ('A' for Active; 'I' for Inactive)
REMARK    1  A    between atoms: C_2  and  O_3 
REMARK    2  A    between atoms: C_2  and  C_4 
REMARK    3  A    between atoms: C_4  and  C_5 
REMARK    4  A    between atoms: C_5  and  C_6 
REMARK    5  A    between atoms: C_7  and  C_8 
REMARK    6  A    between atoms: C_8  and  C_9 
REMARK    7  A    between atoms: C_9  and  O_11 
REMARK    8  A    between atoms: C_28  and  C_29 
REMARK    9  A    between atoms: C_29  and  C_30 
REMARK   10  A    between atoms: C_30  and  O_32 
REMARK   11  A    between atoms: C_33  and  C_34 
REMARK   12  A    between atoms: C_34  and  C_35 
REMARK   13  A    between atoms: C_35  and  C_36 
REMARK   14  A    between atoms: C_36  and  O_38 
REMARK   15  A    between atoms: C_39  and  C_40 
REMARK   16  A    between atoms: C_40  and  C_41 
REMARK   17  A    between atoms: C_41  and  C_42 
REMARK   18  A    between atoms: C_42  and  O_44 
REMARK   19  A    between atoms: C_45  and  C_46 
REMARK   20  A    between atoms: C_46  and  C_47 
REMARK   21  A    between atoms: C_47  and  O_49 
REMARK   22  A    between atoms: C_50  and  C_51 
REMARK   23  A    between atoms: C_51  and  C_52 
REMARK   24  A    between atoms: C_52  and  O_54 
REMARK   25  A    between atoms: C_55  and  C_56 
REMARK   26  A    between atoms: C_56  and  C_57 
REMARK   27  A    between atoms: C_57  and  C_58 
REMARK   28  A    between atoms: C_58  and  O_60 
ROOT
ATOM      1  O   UNK d   0     -19.119 -22.240  54.809  0.00  0.00    -0.650 OA
ATOM      2  C   UNK d   0     -18.470 -21.291  55.303  0.00  0.00     0.139 C 
ENDROOT
BRANCH   2   3
ATOM      3  O   UNK d   0     -17.120 -21.203  55.065  0.00  0.00    -0.776 OA
ATOM      4  H   UNK d   0     -16.613 -21.966  54.612  0.00  0.00     0.167 HD
ENDBRANCH   2   3
BRANCH   2   5
ATOM      5  C   UNK d   0     -19.160 -20.269  56.140  0.00  0.00     0.115 C 
BRANCH   5   6
ATOM      6  C   UNK d   0     -18.184 -19.208  56.570  0.00  0.00     0.052 C 
BRANCH   6   7
ATOM      7  C   UNK d   0     -18.086 -19.083  58.072  0.00  0.00    -0.020 A 
ATOM      8  C   UNK d   0     -18.471 -18.078  58.816  0.00  0.00    -0.011 A 
ATOM      9  C   UNK d   0     -18.166 -18.405  60.199  0.00  0.00     0.067 A 
ATOM     10  C   UNK d   0     -18.339 -17.788  61.447  0.00  0.00     0.062 C 
ATOM     11  N   UNK d   0     -17.591 -19.626  60.204  0.00  0.00    -0.248 NA
ATOM     12  C   UNK d   0     -18.232 -18.383  62.709  0.00  0.00     0.041 A 
ATOM     13  N   UNK d   0     -17.335 -19.258  63.203  0.00  0.00    -0.355 N 
ATOM     14  C   UNK d   0     -19.222 -18.119  63.672  0.00  0.00    -0.022 A 
ATOM     15  C   UNK d   0     -17.735 -19.561  64.453  0.00  0.00     0.042 A 
ATOM     16  H   UNK d   0     -16.426 -19.638  62.687  0.00  0.00     0.166 HD
ATOM     17  C   UNK d   0     -17.163 -20.420  65.412  0.00  0.00     0.062 C 
ATOM     18  C   UNK d   0     -18.915 -18.866  64.782  0.00  0.00    -0.013 A 
ATOM     19  C   UNK d   0     -16.661 -21.686  65.246  0.00  0.00     0.067 A 
ATOM     20  N   UNK d   0     -16.501 -22.113  63.991  0.00  0.00    -0.248 NA
ATOM     21  C   UNK d   0     -16.242 -22.767  66.122  0.00  0.00    -0.011 A 
ATOM     22  C   UNK d   0     -16.008 -23.395  63.983  0.00  0.00     0.066 A 
ATOM     23  C   UNK d   0     -15.757 -23.951  62.737  0.00  0.00     0.062 C 
ATOM     24  C   UNK d   0     -15.865 -23.765  65.377  0.00  0.00    -0.020 A 
ATOM     25  C   UNK d   0     -15.859 -23.331  61.482  0.00  0.00     0.041 A 
ATOM     26  N   UNK d   0     -16.758 -22.474  60.986  0.00  0.00    -0.355 N 
ATOM     27  C   UNK d   0     -14.862 -23.594  60.517  0.00  0.00    -0.022 A 
ATOM     28  C   UNK d   0     -16.366 -22.177  59.736  0.00  0.00     0.042 A 
ATOM     29  H   UNK d   0     -17.677 -22.101  61.502  0.00  0.00     0.166 HD
ATOM     30  C   UNK d   0     -16.931 -21.332  58.768  0.00  0.00     0.062 C 
ATOM     31  C   UNK d   0     -15.175 -22.867  59.410  0.00  0.00    -0.013 A 
ATOM     32  C   UNK d   0     -17.514 -20.088  58.955  0.00  0.00     0.066 A 
BRANCH   8  33
ATOM     33  C   UNK d   0     -19.100 -16.826  58.356  0.00  0.00     0.151 C 
BRANCH  33  34
ATOM     34  C   UNK d   0     -20.547 -16.780  58.629  0.00  0.00     0.143 C 
ATOM     35  O   UNK d   0     -21.002 -16.066  59.534  0.00  0.00    -0.650 OA
BRANCH  34  36
ATOM     36  O   UNK d   0     -21.403 -17.542  57.868  0.00  0.00    -0.776 OA
ATOM     37  H   UNK d   0     -21.461 -18.562  57.989  0.00  0.00     0.167 HD
ENDBRANCH  34  36
ENDBRANCH  33  34
ENDBRANCH   8  33
BRANCH  31  38
ATOM     38  C   UNK d   0     -14.385 -22.818  58.123  0.00  0.00     0.151 C 
BRANCH  38  39
ATOM     39  C   UNK d   0     -14.836 -23.790  57.150  0.00  0.00     0.143 C 
ATOM     40  O   UNK d   0     -15.652 -23.507  56.255  0.00  0.00    -0.650 OA
BRANCH  39  41
ATOM     41  O   UNK d   0     -14.346 -25.095  57.206  0.00  0.00    -0.776 OA
ATOM     42  H   UNK d   0     -13.515 -25.300  56.641  0.00  0.00     0.167 HD
ENDBRANCH  39  41
ENDBRANCH  38  39
ENDBRANCH  31  38
BRANCH  27  43
ATOM     43  C   UNK d   0     -13.653 -24.491  60.608  0.00  0.00     0.052 C 
BRANCH  43  44
ATOM     44  C   UNK d   0     -12.551 -23.916  61.438  0.00  0.00     0.115 C 
BRANCH  44  45
ATOM     45  C   UNK d   0     -11.329 -23.932  60.591  0.00  0.00     0.139 C 
ATOM     46  O   UNK d   0     -10.355 -23.223  60.945  0.00  0.00    -0.650 OA
BRANCH  45  47
ATOM     47  O   UNK d   0     -11.223 -24.693  59.447  0.00  0.00    -0.776 OA
ATOM     48  H   UNK d   0     -11.714 -24.457  58.570  0.00  0.00     0.167 HD
ENDBRANCH  45  47
ENDBRANCH  44  45
ENDBRANCH  43  44
ENDBRANCH  27  43
BRANCH  24  49
ATOM     49  C   UNK d   0     -15.329 -25.051  65.855  0.00  0.00     0.052 C 
BRANCH  49  50
ATOM     50  C   UNK d   0     -13.848 -25.133  65.589  0.00  0.00     0.115 C 
BRANCH  50  51
ATOM     51  C   UNK d   0     -12.961 -25.068  66.743  0.00  0.00     0.139 C 
ATOM     52  O   UNK d   0     -13.168 -25.721  67.793  0.00  0.00    -0.650 OA
BRANCH  51  53
ATOM     53  O   UNK d   0     -11.838 -24.255  66.700  0.00  0.00    -0.776 OA
ATOM     54  H   UNK d   0     -11.712 -23.661  65.899  0.00  0.00     0.167 HD
ENDBRANCH  51  53
ENDBRANCH  50  51
ENDBRANCH  49  50
ENDBRANCH  24  49
BRANCH  21  55
ATOM     55  C   UNK d   0     -16.259 -22.687  67.613  0.00  0.00     0.151 C 
BRANCH  55  56
ATOM     56  C   UNK d   0     -15.002 -22.142  68.150  0.00  0.00     0.143 C 
ATOM     57  O   UNK d   0     -13.957 -22.067  67.475  0.00  0.00    -0.650 OA
BRANCH  56  58
ATOM     58  O   UNK d   0     -15.000 -21.696  69.470  0.00  0.00    -0.776 OA
ATOM     59  H   UNK d   0     -15.793 -22.033  70.046  0.00  0.00     0.167 HD
ENDBRANCH  56  58
ENDBRANCH  55  56
ENDBRANCH  21  55
BRANCH  18  60
ATOM     60  C   UNK d   0     -19.722 -18.893  66.057  0.00  0.00     0.151 C 
BRANCH  60  61
ATOM     61  C   UNK d   0     -19.049 -17.968  66.980  0.00  0.00     0.143 C 
ATOM     62  O   UNK d   0     -18.250 -17.077  66.687  0.00  0.00    -0.650 OA
BRANCH  61  63
ATOM     63  O   UNK d   0     -19.371 -18.140  68.348  0.00  0.00    -0.776 OA
ATOM     64  H   UNK d   0     -18.943 -17.572  69.057  0.00  0.00     0.167 HD
ENDBRANCH  61  63
ENDBRANCH  60  61
ENDBRANCH  18  60
BRANCH  14  65
ATOM     65  C   UNK d   0     -20.370 -17.149  63.659  0.00  0.00     0.052 C 
BRANCH  65  66
ATOM     66  C   UNK d   0     -19.933 -15.733  63.531  0.00  0.00     0.115 C 
BRANCH  66  67
ATOM     67  C   UNK d   0     -19.808 -14.918  64.706  0.00  0.00     0.139 C 
ATOM     68  O   UNK d   0     -18.962 -13.949  64.694  0.00  0.00    -0.650 OA
BRANCH  67  69
ATOM     69  O   UNK d   0     -20.507 -15.038  65.907  0.00  0.00    -0.776 OA
ATOM     70  H   UNK d   0     -20.056 -14.617  66.732  0.00  0.00     0.167 HD
ENDBRANCH  67  69
ENDBRANCH  66  67
ENDBRANCH  65  66
ENDBRANCH  14  65
ENDBRANCH   6   7
ENDBRANCH   5   6
ENDBRANCH   2   5
TORSDOF 28
ENDMDL
MODEL 17
REMARK VINA RESULT:      -6.4     29.922     33.832
REMARK  28 active torsions:
REMARK  status: ('A' for Active; 'I' for Inactive)
REMARK    1  A    between atoms: C_2  and  O_3 
REMARK    2  A    between atoms: C_2  and  C_4 
REMARK    3  A    between atoms: C_4  and  C_5 
REMARK    4  A    between atoms: C_5  and  C_6 
REMARK    5  A    between atoms: C_7  and  C_8 
REMARK    6  A    between atoms: C_8  and  C_9 
REMARK    7  A    between atoms: C_9  and  O_11 
REMARK    8  A    between atoms: C_28  and  C_29 
REMARK    9  A    between atoms: C_29  and  C_30 
REMARK   10  A    between atoms: C_30  and  O_32 
REMARK   11  A    between atoms: C_33  and  C_34 
REMARK   12  A    between atoms: C_34  and  C_35 
REMARK   13  A    between atoms: C_35  and  C_36 
REMARK   14  A    between atoms: C_36  and  O_38 
REMARK   15  A    between atoms: C_39  and  C_40 
REMARK   16  A    between atoms: C_40  and  C_41 
REMARK   17  A    between atoms: C_41  and  C_42 
REMARK   18  A    between atoms: C_42  and  O_44 
REMARK   19  A    between atoms: C_45  and  C_46 
REMARK   20  A    between atoms: C_46  and  C_47 
REMARK   21  A    between atoms: C_47  and  O_49 
REMARK   22  A    between atoms: C_50  and  C_51 
REMARK   23  A    between atoms: C_51  and  C_52 
REMARK   24  A    between atoms: C_52  and  O_54 
REMARK   25  A    between atoms: C_55  and  C_56 
REMARK   26  A    between atoms: C_56  and  C_57 
REMARK   27  A    between atoms: C_57  and  C_58 
REMARK   28  A    between atoms: C_58  and  O_60 
ROOT
ATOM      1  O   UNK d   0      -4.867 -35.413  48.937  0.00  0.00    -0.650 OA
ATOM      2  C   UNK d   0      -5.106 -34.195  48.776  0.00  0.00     0.139 C 
ENDROOT
BRANCH   2   3
ATOM      3  O   UNK d   0      -4.407 -33.492  47.824  0.00  0.00    -0.776 OA
ATOM      4  H   UNK d   0      -3.422 -33.693  47.637  0.00  0.00     0.167 HD
ENDBRANCH   2   3
BRANCH   2   5
ATOM      5  C   UNK d   0      -6.138 -33.518  49.611  0.00  0.00     0.115 C 
BRANCH   5   6
ATOM      6  C   UNK d   0      -7.413 -34.316  49.606  0.00  0.00     0.052 C 
BRANCH   6   7
ATOM      7  C   UNK d   0      -8.442 -33.760  48.651  0.00  0.00    -0.020 A 
ATOM      8  C   UNK d   0      -9.526 -33.089  48.947  0.00  0.00    -0.011 A 
ATOM      9  C   UNK d   0     -10.207 -32.772  47.703  0.00  0.00     0.067 A 
ATOM     10  C   UNK d   0     -11.370 -32.079  47.333  0.00  0.00     0.062 C 
ATOM     11  N   UNK d   0      -9.471 -33.294  46.699  0.00  0.00    -0.248 NA
ATOM     12  C   UNK d   0     -11.722 -31.636  46.053  0.00  0.00     0.041 A 
ATOM     13  N   UNK d   0     -11.632 -32.237  44.852  0.00  0.00    -0.355 N 
ATOM     14  C   UNK d   0     -12.214 -30.327  45.897  0.00  0.00    -0.022 A 
ATOM     15  C   UNK d   0     -12.047 -31.341  43.937  0.00  0.00     0.042 A 
ATOM     16  H   UNK d   0     -11.301 -33.281  44.656  0.00  0.00     0.166 HD
ATOM     17  C   UNK d   0     -12.155 -31.449  42.536  0.00  0.00     0.062 C 
ATOM     18  C   UNK d   0     -12.419 -30.131  44.554  0.00  0.00    -0.013 A 
ATOM     19  C   UNK d   0     -11.261 -31.978  41.640  0.00  0.00     0.067 A 
ATOM     20  N   UNK d   0     -10.232 -32.663  42.145  0.00  0.00    -0.248 NA
ATOM     21  C   UNK d   0     -11.110 -31.984  40.194  0.00  0.00    -0.011 A 
ATOM     22  C   UNK d   0      -9.419 -33.115  41.135  0.00  0.00     0.066 A 
ATOM     23  C   UNK d   0      -8.326 -33.878  41.519  0.00  0.00     0.062 C 
ATOM     24  C   UNK d   0     -10.028 -32.647  39.906  0.00  0.00    -0.020 A 
ATOM     25  C   UNK d   0      -7.997 -34.323  42.809  0.00  0.00     0.041 A 
ATOM     26  N   UNK d   0      -8.072 -33.720  44.002  0.00  0.00    -0.355 N 
ATOM     27  C   UNK d   0      -7.508 -35.638  42.965  0.00  0.00    -0.022 A 
ATOM     28  C   UNK d   0      -7.651 -34.609  44.915  0.00  0.00     0.042 A 
ATOM     29  H   UNK d   0      -8.395 -32.668  44.195  0.00  0.00     0.166 HD
ATOM     30  C   UNK d   0      -7.530 -34.512  46.310  0.00  0.00     0.062 C 
ATOM     31  C   UNK d   0      -7.287 -35.828  44.295  0.00  0.00    -0.013 A 
ATOM     32  C   UNK d   0      -8.396 -33.901  47.203  0.00  0.00     0.066 A 
BRANCH   8  33
ATOM     33  C   UNK d   0      -9.995 -32.715  50.294  0.00  0.00     0.151 C 
BRANCH  33  34
ATOM     34  C   UNK d   0      -9.427 -31.437  50.761  0.00  0.00     0.143 C 
ATOM     35  O   UNK d   0      -9.952 -30.357  50.453  0.00  0.00    -0.650 OA
BRANCH  34  36
ATOM     36  O   UNK d   0      -8.299 -31.446  51.548  0.00  0.00    -0.776 OA
ATOM     37  H   UNK d   0      -8.075 -30.657  52.169  0.00  0.00     0.167 HD
ENDBRANCH  34  36
ENDBRANCH  33  34
ENDBRANCH   8  33
BRANCH  31  38
ATOM     38  C   UNK d   0      -6.774 -37.093  44.942  0.00  0.00     0.151 C 
BRANCH  38  39
ATOM     39  C   UNK d   0      -5.453 -36.937  45.511  0.00  0.00     0.143 C 
ATOM     40  O   UNK d   0      -5.091 -37.549  46.531  0.00  0.00    -0.650 OA
BRANCH  39  41
ATOM     41  O   UNK d   0      -4.541 -36.074  44.903  0.00  0.00    -0.776 OA
ATOM     42  H   UNK d   0      -4.917 -35.199  44.525  0.00  0.00     0.167 HD
ENDBRANCH  39  41
ENDBRANCH  38  39
ENDBRANCH  31  38
BRANCH  27  43
ATOM     43  C   UNK d   0      -7.248 -36.695  41.921  0.00  0.00     0.052 C 
BRANCH  43  44
ATOM     44  C   UNK d   0      -5.827 -37.155  41.888  0.00  0.00     0.115 C 
BRANCH  44  45
ATOM     45  C   UNK d   0      -5.026 -36.025  41.349  0.00  0.00     0.139 C 
ATOM     46  O   UNK d   0      -3.990 -35.684  41.972  0.00  0.00    -0.650 OA
BRANCH  45  47
ATOM     47  O   UNK d   0      -5.370 -35.346  40.200  0.00  0.00    -0.776 OA
ATOM     48  H   UNK d   0      -6.136 -34.654  40.167  0.00  0.00     0.167 HD
ENDBRANCH  45  47
ENDBRANCH  44  45
ENDBRANCH  43  44
ENDBRANCH  27  43
BRANCH  24  49
ATOM     49  C   UNK d   0      -9.518 -32.931  38.553  0.00  0.00     0.052 C 
BRANCH  49  50
ATOM     50  C   UNK d   0      -8.094 -32.456  38.420  0.00  0.00     0.115 C 
BRANCH  50  51
ATOM     51  C   UNK d   0      -7.856 -31.024  38.539  0.00  0.00     0.139 C 
ATOM     52  O   UNK d   0      -8.343 -30.189  37.740  0.00  0.00    -0.650 OA
BRANCH  51  53
ATOM     53  O   UNK d   0      -7.062 -30.543  39.568  0.00  0.00    -0.776 OA
ATOM     54  H   UNK d   0      -7.222 -30.893  40.496  0.00  0.00     0.167 HD
ENDBRANCH  51  53
ENDBRANCH  50  51
ENDBRANCH  49  50
ENDBRANCH  24  49
BRANCH  21  55
ATOM     55  C   UNK d   0     -12.066 -31.329  39.252  0.00  0.00     0.151 C 
BRANCH  55  56
ATOM     56  C   UNK d   0     -11.648 -29.962  38.905  0.00  0.00     0.143 C 
ATOM     57  O   UNK d   0     -11.801 -28.994  39.675  0.00  0.00    -0.650 OA
BRANCH  56  58
ATOM     58  O   UNK d   0     -11.060 -29.760  37.658  0.00  0.00    -0.776 OA
ATOM     59  H   UNK d   0     -11.393 -28.922  37.149  0.00  0.00     0.167 HD
ENDBRANCH  56  58
ENDBRANCH  55  56
ENDBRANCH  21  55
BRANCH  18  60
ATOM     60  C   UNK d   0     -12.936 -28.856  43.936  0.00  0.00     0.151 C 
BRANCH  60  61
ATOM     61  C   UNK d   0     -11.747 -28.111  43.493  0.00  0.00     0.143 C 
ATOM     62  O   UNK d   0     -10.804 -27.736  44.190  0.00  0.00    -0.650 OA
BRANCH  61  63
ATOM     63  O   UNK d   0     -11.708 -27.807  42.111  0.00  0.00    -0.776 OA
ATOM     64  H   UNK d   0     -11.878 -28.515  41.419  0.00  0.00     0.167 HD
ENDBRANCH  61  63
ENDBRANCH  60  61
ENDBRANCH  18  60
BRANCH  14  65
ATOM     65  C   UNK d   0     -12.593 -29.293  46.919  0.00  0.00     0.052 C 
BRANCH  65  66
ATOM     66  C   UNK d   0     -11.416 -28.610  47.520  0.00  0.00     0.115 C 
BRANCH  66  67
ATOM     67  C   UNK d   0     -11.524 -27.241  47.937  0.00  0.00     0.139 C 
ATOM     68  O   UNK d   0     -11.244 -26.317  47.088  0.00  0.00    -0.650 OA
BRANCH  67  69
ATOM     69  O   UNK d   0     -11.906 -26.757  49.188  0.00  0.00    -0.776 OA
ATOM     70  H   UNK d   0     -12.713 -26.117  49.193  0.00  0.00     0.167 HD
ENDBRANCH  67  69
ENDBRANCH  66  67
ENDBRANCH  65  66
ENDBRANCH  14  65
ENDBRANCH   6   7
ENDBRANCH   5   6
ENDBRANCH   2   5
TORSDOF 28
ENDMDL
MODEL 18
REMARK VINA RESULT:      -6.4     30.018     32.754
REMARK  28 active torsions:
REMARK  status: ('A' for Active; 'I' for Inactive)
REMARK    1  A    between atoms: C_2  and  O_3 
REMARK    2  A    between atoms: C_2  and  C_4 
REMARK    3  A    between atoms: C_4  and  C_5 
REMARK    4  A    between atoms: C_5  and  C_6 
REMARK    5  A    between atoms: C_7  and  C_8 
REMARK    6  A    between atoms: C_8  and  C_9 
REMARK    7  A    between atoms: C_9  and  O_11 
REMARK    8  A    between atoms: C_28  and  C_29 
REMARK    9  A    between atoms: C_29  and  C_30 
REMARK   10  A    between atoms: C_30  and  O_32 
REMARK   11  A    between atoms: C_33  and  C_34 
REMARK   12  A    between atoms: C_34  and  C_35 
REMARK   13  A    between atoms: C_35  and  C_36 
REMARK   14  A    between atoms: C_36  and  O_38 
REMARK   15  A    between atoms: C_39  and  C_40 
REMARK   16  A    between atoms: C_40  and  C_41 
REMARK   17  A    between atoms: C_41  and  C_42 
REMARK   18  A    between atoms: C_42  and  O_44 
REMARK   19  A    between atoms: C_45  and  C_46 
REMARK   20  A    between atoms: C_46  and  C_47 
REMARK   21  A    between atoms: C_47  and  O_49 
REMARK   22  A    between atoms: C_50  and  C_51 
REMARK   23  A    between atoms: C_51  and  C_52 
REMARK   24  A    between atoms: C_52  and  O_54 
REMARK   25  A    between atoms: C_55  and  C_56 
REMARK   26  A    between atoms: C_56  and  C_57 
REMARK   27  A    between atoms: C_57  and  C_58 
REMARK   28  A    between atoms: C_58  and  O_60 
ROOT
ATOM      1  O   UNK d   0     -21.082 -20.516  56.373  0.00  0.00    -0.650 OA
ATOM      2  C   UNK d   0     -20.002 -19.933  56.615  0.00  0.00     0.139 C 
ENDROOT
BRANCH   2   3
ATOM      3  O   UNK d   0     -19.768 -18.694  56.069  0.00  0.00    -0.776 OA
ATOM      4  H   UNK d   0     -19.209 -17.996  56.564  0.00  0.00     0.167 HD
ENDBRANCH   2   3
BRANCH   2   5
ATOM      5  C   UNK d   0     -18.981 -20.581  57.487  0.00  0.00     0.115 C 
BRANCH   5   6
ATOM      6  C   UNK d   0     -17.829 -19.641  57.721  0.00  0.00     0.052 C 
BRANCH   6   7
ATOM      7  C   UNK d   0     -17.770 -19.137  59.142  0.00  0.00    -0.020 A 
ATOM      8  C   UNK d   0     -18.064 -17.938  59.577  0.00  0.00    -0.011 A 
ATOM      9  C   UNK d   0     -17.848 -17.920  61.014  0.00  0.00     0.067 A 
ATOM     10  C   UNK d   0     -17.993 -16.981  62.048  0.00  0.00     0.062 C 
ATOM     11  N   UNK d   0     -17.418 -19.148  61.370  0.00  0.00    -0.248 NA
ATOM     12  C   UNK d   0     -18.000 -17.232  63.424  0.00  0.00     0.041 A 
ATOM     13  N   UNK d   0     -17.228 -18.032  64.184  0.00  0.00    -0.355 N 
ATOM     14  C   UNK d   0     -18.987 -16.624  64.221  0.00  0.00    -0.022 A 
ATOM     15  C   UNK d   0     -17.705 -17.954  65.441  0.00  0.00     0.042 A 
ATOM     16  H   UNK d   0     -16.352 -18.626  63.842  0.00  0.00     0.166 HD
ATOM     17  C   UNK d   0     -17.270 -18.585  66.623  0.00  0.00     0.062 C 
ATOM     18  C   UNK d   0     -18.808 -17.081  65.503  0.00  0.00    -0.013 A 
ATOM     19  C   UNK d   0     -16.913 -19.894  66.821  0.00  0.00     0.067 A 
ATOM     20  N   UNK d   0     -16.758 -20.650  65.731  0.00  0.00    -0.248 NA
ATOM     21  C   UNK d   0     -16.653 -20.743  67.971  0.00  0.00    -0.011 A 
ATOM     22  C   UNK d   0     -16.417 -21.932  66.085  0.00  0.00     0.066 A 
ATOM     23  C   UNK d   0     -16.187 -22.819  65.044  0.00  0.00     0.062 C 
ATOM     24  C   UNK d   0     -16.367 -21.936  67.534  0.00  0.00    -0.020 A 
ATOM     25  C   UNK d   0     -16.172 -22.544  63.667  0.00  0.00     0.041 A 
ATOM     26  N   UNK d   0     -16.948 -21.760  62.910  0.00  0.00    -0.355 N 
ATOM     27  C   UNK d   0     -15.178 -23.151  62.869  0.00  0.00    -0.022 A 
ATOM     28  C   UNK d   0     -16.480 -21.843  61.654  0.00  0.00     0.042 A 
ATOM     29  H   UNK d   0     -17.835 -21.173  63.253  0.00  0.00     0.166 HD
ATOM     30  C   UNK d   0     -16.909 -21.229  60.467  0.00  0.00     0.062 C 
ATOM     31  C   UNK d   0     -15.366 -22.713  61.594  0.00  0.00    -0.013 A 
ATOM     32  C   UNK d   0     -17.350 -19.928  60.289  0.00  0.00     0.066 A 
BRANCH   8  33
ATOM     33  C   UNK d   0     -18.527 -16.793  58.770  0.00  0.00     0.151 C 
BRANCH  33  34
ATOM     34  C   UNK d   0     -19.965 -16.520  58.939  0.00  0.00     0.143 C 
ATOM     35  O   UNK d   0     -20.803 -17.025  58.177  0.00  0.00    -0.650 OA
BRANCH  34  36
ATOM     36  O   UNK d   0     -20.381 -15.693  59.957  0.00  0.00    -0.776 OA
ATOM     37  H   UNK d   0     -21.091 -14.965  59.797  0.00  0.00     0.167 HD
ENDBRANCH  34  36
ENDBRANCH  33  34
ENDBRANCH   8  33
BRANCH  31  38
ATOM     38  C   UNK d   0     -14.530 -23.085  60.392  0.00  0.00     0.151 C 
BRANCH  38  39
ATOM     39  C   UNK d   0     -14.936 -24.339  59.792  0.00  0.00     0.143 C 
ATOM     40  O   UNK d   0     -16.022 -24.473  59.202  0.00  0.00    -0.650 OA
BRANCH  39  41
ATOM     41  O   UNK d   0     -14.088 -25.443  59.870  0.00  0.00    -0.776 OA
ATOM     42  H   UNK d   0     -13.553 -25.554  60.738  0.00  0.00     0.167 HD
ENDBRANCH  39  41
ENDBRANCH  38  39
ENDBRANCH  31  38
BRANCH  27  43
ATOM     43  C   UNK d   0     -14.085 -24.112  63.265  0.00  0.00     0.052 C 
BRANCH  43  44
ATOM     44  C   UNK d   0     -12.790 -23.436  63.581  0.00  0.00     0.115 C 
BRANCH  44  45
ATOM     45  C   UNK d   0     -12.519 -23.689  65.020  0.00  0.00     0.139 C 
ATOM     46  O   UNK d   0     -12.962 -24.749  65.528  0.00  0.00    -0.650 OA
BRANCH  45  47
ATOM     47  O   UNK d   0     -11.801 -22.818  65.810  0.00  0.00    -0.776 OA
ATOM     48  H   UNK d   0     -12.250 -22.146  66.454  0.00  0.00     0.167 HD
ENDBRANCH  45  47
ENDBRANCH  44  45
ENDBRANCH  43  44
ENDBRANCH  27  43
BRANCH  24  49
ATOM     49  C   UNK d   0     -16.001 -23.099  68.360  0.00  0.00     0.052 C 
BRANCH  49  50
ATOM     50  C   UNK d   0     -14.542 -23.434  68.177  0.00  0.00     0.115 C 
BRANCH  50  51
ATOM     51  C   UNK d   0     -13.574 -22.581  68.853  0.00  0.00     0.139 C 
ATOM     52  O   UNK d   0     -13.295 -22.707  70.068  0.00  0.00    -0.650 OA
BRANCH  51  53
ATOM     53  O   UNK d   0     -12.926 -21.582  68.143  0.00  0.00    -0.776 OA
ATOM     54  H   UNK d   0     -12.367 -20.922  68.654  0.00  0.00     0.167 HD
ENDBRANCH  51  53
ENDBRANCH  50  51
ENDBRANCH  49  50
ENDBRANCH  24  49
BRANCH  21  55
ATOM     55  C   UNK d   0     -16.713 -20.274  69.387  0.00  0.00     0.151 C 
BRANCH  55  56
ATOM     56  C   UNK d   0     -15.389 -19.883  69.895  0.00  0.00     0.143 C 
ATOM     57  O   UNK d   0     -14.606 -19.158  69.251  0.00  0.00    -0.650 OA
BRANCH  56  58
ATOM     58  O   UNK d   0     -15.011 -20.353  71.152  0.00  0.00    -0.776 OA
ATOM     59  H   UNK d   0     -15.236 -19.720  71.940  0.00  0.00     0.167 HD
ENDBRANCH  56  58
ENDBRANCH  55  56
ENDBRANCH  21  55
BRANCH  18  60
ATOM     60  C   UNK d   0     -19.657 -16.689  66.687  0.00  0.00     0.151 C 
BRANCH  60  61
ATOM     61  C   UNK d   0     -20.683 -17.735  66.812  0.00  0.00     0.143 C 
ATOM     62  O   UNK d   0     -20.499 -18.933  67.027  0.00  0.00    -0.650 OA
BRANCH  61  63
ATOM     63  O   UNK d   0     -22.019 -17.289  66.665  0.00  0.00    -0.776 OA
ATOM     64  H   UNK d   0     -22.775 -17.943  66.563  0.00  0.00     0.167 HD
ENDBRANCH  61  63
ENDBRANCH  60  61
ENDBRANCH  18  60
BRANCH  14  65
ATOM     65  C   UNK d   0     -20.013 -15.580  63.885  0.00  0.00     0.052 C 
BRANCH  65  66
ATOM     66  C   UNK d   0     -21.363 -16.151  63.631  0.00  0.00     0.115 C 
BRANCH  66  67
ATOM     67  C   UNK d   0     -21.485 -17.462  63.058  0.00  0.00     0.139 C 
ATOM     68  O   UNK d   0     -21.819 -18.438  63.825  0.00  0.00    -0.650 OA
BRANCH  67  69
ATOM     69  O   UNK d   0     -21.281 -17.835  61.730  0.00  0.00    -0.776 OA
ATOM     70  H   UNK d   0     -21.825 -18.646  61.404  0.00  0.00     0.167 HD
ENDBRANCH  67  69
ENDBRANCH  66  67
ENDBRANCH  65  66
ENDBRANCH  14  65
ENDBRANCH   6   7
ENDBRANCH   5   6
ENDBRANCH   2   5
TORSDOF 28
ENDMDL
MODEL 19
REMARK VINA RESULT:      -6.3     29.799     33.525
REMARK  28 active torsions:
REMARK  status: ('A' for Active; 'I' for Inactive)
REMARK    1  A    between atoms: C_2  and  O_3 
REMARK    2  A    between atoms: C_2  and  C_4 
REMARK    3  A    between atoms: C_4  and  C_5 
REMARK    4  A    between atoms: C_5  and  C_6 
REMARK    5  A    between atoms: C_7  and  C_8 
REMARK    6  A    between atoms: C_8  and  C_9 
REMARK    7  A    between atoms: C_9  and  O_11 
REMARK    8  A    between atoms: C_28  and  C_29 
REMARK    9  A    between atoms: C_29  and  C_30 
REMARK   10  A    between atoms: C_30  and  O_32 
REMARK   11  A    between atoms: C_33  and  C_34 
REMARK   12  A    between atoms: C_34  and  C_35 
REMARK   13  A    between atoms: C_35  and  C_36 
REMARK   14  A    between atoms: C_36  and  O_38 
REMARK   15  A    between atoms: C_39  and  C_40 
REMARK   16  A    between atoms: C_40  and  C_41 
REMARK   17  A    between atoms: C_41  and  C_42 
REMARK   18  A    between atoms: C_42  and  O_44 
REMARK   19  A    between atoms: C_45  and  C_46 
REMARK   20  A    between atoms: C_46  and  C_47 
REMARK   21  A    between atoms: C_47  and  O_49 
REMARK   22  A    between atoms: C_50  and  C_51 
REMARK   23  A    between atoms: C_51  and  C_52 
REMARK   24  A    between atoms: C_52  and  O_54 
REMARK   25  A    between atoms: C_55  and  C_56 
REMARK   26  A    between atoms: C_56  and  C_57 
REMARK   27  A    between atoms: C_57  and  C_58 
REMARK   28  A    between atoms: C_58  and  O_60 
ROOT
ATOM      1  O   UNK d   0     -15.802 -25.853  66.209  0.00  0.00    -0.650 OA
ATOM      2  C   UNK d   0     -15.399 -25.347  65.138  0.00  0.00     0.139 C 
ENDROOT
BRANCH   2   3
ATOM      3  O   UNK d   0     -14.157 -25.686  64.658  0.00  0.00    -0.776 OA
ATOM      4  H   UNK d   0     -13.436 -26.062  65.278  0.00  0.00     0.167 HD
ENDBRANCH   2   3
BRANCH   2   5
ATOM      5  C   UNK d   0     -16.261 -24.385  64.394  0.00  0.00     0.115 C 
BRANCH   5   6
ATOM      6  C   UNK d   0     -15.482 -23.140  64.065  0.00  0.00     0.052 C 
BRANCH   6   7
ATOM      7  C   UNK d   0     -15.986 -22.452  62.818  0.00  0.00    -0.020 A 
ATOM      8  C   UNK d   0     -15.734 -22.770  61.574  0.00  0.00    -0.011 A 
ATOM      9  C   UNK d   0     -16.429 -21.819  60.723  0.00  0.00     0.067 A 
ATOM     10  C   UNK d   0     -16.584 -21.621  59.342  0.00  0.00     0.062 C 
ATOM     11  N   UNK d   0     -17.073 -20.953  61.533  0.00  0.00    -0.248 NA
ATOM     12  C   UNK d   0     -17.526 -20.807  58.703  0.00  0.00     0.041 A 
ATOM     13  N   UNK d   0     -17.961 -19.565  58.986  0.00  0.00    -0.355 N 
ATOM     14  C   UNK d   0     -18.226 -21.318  57.595  0.00  0.00    -0.022 A 
ATOM     15  C   UNK d   0     -18.926 -19.277  58.091  0.00  0.00     0.042 A 
ATOM     16  H   UNK d   0     -17.581 -18.897  59.790  0.00  0.00     0.166 HD
ATOM     17  C   UNK d   0     -19.709 -18.116  57.934  0.00  0.00     0.062 C 
ATOM     18  C   UNK d   0     -19.120 -20.352  57.203  0.00  0.00    -0.013 A 
ATOM     19  C   UNK d   0     -20.351 -17.373  58.892  0.00  0.00     0.067 A 
ATOM     20  N   UNK d   0     -20.054 -17.642  60.166  0.00  0.00    -0.248 NA
ATOM     21  C   UNK d   0     -21.342 -16.310  58.899  0.00  0.00    -0.011 A 
ATOM     22  C   UNK d   0     -20.781 -16.833  61.005  0.00  0.00     0.066 A 
ATOM     23  C   UNK d   0     -20.542 -16.982  62.363  0.00  0.00     0.062 C 
ATOM     24  C   UNK d   0     -21.592 -16.002  60.138  0.00  0.00    -0.020 A 
ATOM     25  C   UNK d   0     -19.582 -17.796  62.984  0.00  0.00     0.041 A 
ATOM     26  N   UNK d   0     -19.160 -19.036  62.712  0.00  0.00    -0.355 N 
ATOM     27  C   UNK d   0     -18.876 -17.281  64.093  0.00  0.00    -0.022 A 
ATOM     28  C   UNK d   0     -18.204 -19.329  63.609  0.00  0.00     0.042 A 
ATOM     29  H   UNK d   0     -19.550 -19.710  61.910  0.00  0.00     0.166 HD
ATOM     30  C   UNK d   0     -17.423 -20.482  63.782  0.00  0.00     0.062 C 
ATOM     31  C   UNK d   0     -18.002 -18.244  64.494  0.00  0.00    -0.013 A 
ATOM     32  C   UNK d   0     -16.847 -21.280  62.806  0.00  0.00     0.066 A 
BRANCH   8  33
ATOM     33  C   UNK d   0     -14.896 -23.886  61.098  0.00  0.00     0.151 C 
BRANCH  33  34
ATOM     34  C   UNK d   0     -13.575 -23.441  60.616  0.00  0.00     0.143 C 
ATOM     35  O   UNK d   0     -12.672 -23.150  61.414  0.00  0.00    -0.650 OA
BRANCH  34  36
ATOM     36  O   UNK d   0     -13.346 -23.348  59.263  0.00  0.00    -0.776 OA
ATOM     37  H   UNK d   0     -13.827 -22.644  58.687  0.00  0.00     0.167 HD
ENDBRANCH  34  36
ENDBRANCH  33  34
ENDBRANCH   8  33
BRANCH  31  38
ATOM     38  C   UNK d   0     -17.023 -18.138  65.640  0.00  0.00     0.151 C 
BRANCH  38  39
ATOM     39  C   UNK d   0     -17.614 -18.479  66.917  0.00  0.00     0.143 C 
ATOM     40  O   UNK d   0     -18.490 -19.354  67.032  0.00  0.00    -0.650 OA
BRANCH  39  41
ATOM     41  O   UNK d   0     -17.195 -17.811  68.067  0.00  0.00    -0.776 OA
ATOM     42  H   UNK d   0     -17.841 -17.120  68.461  0.00  0.00     0.167 HD
ENDBRANCH  39  41
ENDBRANCH  38  39
ENDBRANCH  31  38
BRANCH  27  43
ATOM     43  C   UNK d   0     -19.002 -15.939  64.770  0.00  0.00     0.052 C 
BRANCH  43  44
ATOM     44  C   UNK d   0     -19.957 -15.944  65.920  0.00  0.00     0.115 C 
BRANCH  44  45
ATOM     45  C   UNK d   0     -19.449 -14.948  66.898  0.00  0.00     0.139 C 
ATOM     46  O   UNK d   0     -20.154 -13.936  67.133  0.00  0.00    -0.650 OA
BRANCH  45  47
ATOM     47  O   UNK d   0     -18.247 -15.094  67.557  0.00  0.00    -0.776 OA
ATOM     48  H   UNK d   0     -18.089 -15.811  68.283  0.00  0.00     0.167 HD
ENDBRANCH  45  47
ENDBRANCH  44  45
ENDBRANCH  43  44
ENDBRANCH  27  43
BRANCH  24  49
ATOM     49  C   UNK d   0     -22.509 -14.947  60.603  0.00  0.00     0.052 C 
BRANCH  49  50
ATOM     50  C   UNK d   0     -23.723 -15.557  61.256  0.00  0.00     0.115 C 
BRANCH  50  51
ATOM     51  C   UNK d   0     -24.734 -16.129  60.377  0.00  0.00     0.139 C 
ATOM     52  O   UNK d   0     -24.949 -17.362  60.305  0.00  0.00    -0.650 OA
BRANCH  51  53
ATOM     53  O   UNK d   0     -25.499 -15.295  59.576  0.00  0.00    -0.776 OA
ATOM     54  H   UNK d   0     -26.134 -14.657  60.024  0.00  0.00     0.167 HD
ENDBRANCH  51  53
ENDBRANCH  50  51
ENDBRANCH  49  50
ENDBRANCH  24  49
BRANCH  21  55
ATOM     55  C   UNK d   0     -21.932 -15.710  57.665  0.00  0.00     0.151 C 
BRANCH  55  56
ATOM     56  C   UNK d   0     -23.147 -16.418  57.235  0.00  0.00     0.143 C 
ATOM     57  O   UNK d   0     -23.225 -17.661  57.193  0.00  0.00    -0.650 OA
BRANCH  56  58
ATOM     58  O   UNK d   0     -24.249 -15.648  56.863  0.00  0.00    -0.776 OA
ATOM     59  H   UNK d   0     -24.631 -15.044  57.612  0.00  0.00     0.167 HD
ENDBRANCH  56  58
ENDBRANCH  55  56
ENDBRANCH  21  55
BRANCH  18  60
ATOM     60  C   UNK d   0     -20.085 -20.485  56.051  0.00  0.00     0.151 C 
BRANCH  60  61
ATOM     61  C   UNK d   0     -21.397 -20.766  56.654  0.00  0.00     0.143 C 
ATOM     62  O   UNK d   0     -21.630 -21.498  57.616  0.00  0.00    -0.650 OA
BRANCH  61  63
ATOM     63  O   UNK d   0     -22.494 -20.112  56.042  0.00  0.00    -0.776 OA
ATOM     64  H   UNK d   0     -22.467 -19.126  55.849  0.00  0.00     0.167 HD
ENDBRANCH  61  63
ENDBRANCH  60  61
ENDBRANCH  18  60
BRANCH  14  65
ATOM     65  C   UNK d   0     -18.049 -22.596  56.827  0.00  0.00     0.052 C 
BRANCH  65  66
ATOM     66  C   UNK d   0     -16.932 -22.535  55.846  0.00  0.00     0.115 C 
BRANCH  66  67
ATOM     67  C   UNK d   0     -15.916 -23.550  55.859  0.00  0.00     0.139 C 
ATOM     68  O   UNK d   0     -15.022 -23.512  56.783  0.00  0.00    -0.650 OA
BRANCH  67  69
ATOM     69  O   UNK d   0     -15.762 -24.614  54.971  0.00  0.00    -0.776 OA
ATOM     70  H   UNK d   0     -14.919 -25.190  55.105  0.00  0.00     0.167 HD
ENDBRANCH  67  69
ENDBRANCH  66  67
ENDBRANCH  65  66
ENDBRANCH  14  65
ENDBRANCH   6   7
ENDBRANCH   5   6
ENDBRANCH   2   5
TORSDOF 28
ENDMDL
MODEL 20
REMARK VINA RESULT:      -6.2     30.144     33.245
REMARK  28 active torsions:
REMARK  status: ('A' for Active; 'I' for Inactive)
REMARK    1  A    between atoms: C_2  and  O_3 
REMARK    2  A    between atoms: C_2  and  C_4 
REMARK    3  A    between atoms: C_4  and  C_5 
REMARK    4  A    between atoms: C_5  and  C_6 
REMARK    5  A    between atoms: C_7  and  C_8 
REMARK    6  A    between atoms: C_8  and  C_9 
REMARK    7  A    between atoms: C_9  and  O_11 
REMARK    8  A    between atoms: C_28  and  C_29 
REMARK    9  A    between atoms: C_29  and  C_30 
REMARK   10  A    between atoms: C_30  and  O_32 
REMARK   11  A    between atoms: C_33  and  C_34 
REMARK   12  A    between atoms: C_34  and  C_35 
REMARK   13  A    between atoms: C_35  and  C_36 
REMARK   14  A    between atoms: C_36  and  O_38 
REMARK   15  A    between atoms: C_39  and  C_40 
REMARK   16  A    between atoms: C_40  and  C_41 
REMARK   17  A    between atoms: C_41  and  C_42 
REMARK   18  A    between atoms: C_42  and  O_44 
REMARK   19  A    between atoms: C_45  and  C_46 
REMARK   20  A    between atoms: C_46  and  C_47 
REMARK   21  A    between atoms: C_47  and  O_49 
REMARK   22  A    between atoms: C_50  and  C_51 
REMARK   23  A    between atoms: C_51  and  C_52 
REMARK   24  A    between atoms: C_52  and  O_54 
REMARK   25  A    between atoms: C_55  and  C_56 
REMARK   26  A    between atoms: C_56  and  C_57 
REMARK   27  A    between atoms: C_57  and  C_58 
REMARK   28  A    between atoms: C_58  and  O_60 
ROOT
ATOM      1  O   UNK d   0     -16.638 -32.297  42.437  0.00  0.00    -0.650 OA
ATOM      2  C   UNK d   0     -15.498 -31.917  42.088  0.00  0.00     0.139 C 
ENDROOT
BRANCH   2   3
ATOM      3  O   UNK d   0     -15.359 -30.720  41.428  0.00  0.00    -0.776 OA
ATOM      4  H   UNK d   0     -16.074 -29.993  41.499  0.00  0.00     0.167 HD
ENDBRANCH   2   3
BRANCH   2   5
ATOM      5  C   UNK d   0     -14.305 -32.759  42.388  0.00  0.00     0.115 C 
BRANCH   5   6
ATOM      6  C   UNK d   0     -13.050 -31.937  42.276  0.00  0.00     0.052 C 
BRANCH   6   7
ATOM      7  C   UNK d   0     -12.376 -31.722  43.610  0.00  0.00    -0.020 A 
ATOM      8  C   UNK d   0     -12.681 -30.839  44.526  0.00  0.00    -0.011 A 
ATOM      9  C   UNK d   0     -11.751 -31.003  45.630  0.00  0.00     0.067 A 
ATOM     10  C   UNK d   0     -11.554 -30.406  46.885  0.00  0.00     0.062 C 
ATOM     11  N   UNK d   0     -10.909 -32.005  45.300  0.00  0.00    -0.248 NA
ATOM     12  C   UNK d   0     -10.770 -30.889  47.939  0.00  0.00     0.041 A 
ATOM     13  N   UNK d   0      -9.544 -31.446  47.950  0.00  0.00    -0.355 N 
ATOM     14  C   UNK d   0     -11.301 -30.878  49.242  0.00  0.00    -0.022 A 
ATOM     15  C   UNK d   0      -9.286 -31.795  49.224  0.00  0.00     0.042 A 
ATOM     16  H   UNK d   0      -8.866 -31.571  47.077  0.00  0.00     0.166 HD
ATOM     17  C   UNK d   0      -8.152 -32.410  49.791  0.00  0.00     0.062 C 
ATOM     18  C   UNK d   0     -10.365 -31.456  50.064  0.00  0.00    -0.013 A 
ATOM     19  C   UNK d   0      -7.433 -33.484  49.332  0.00  0.00     0.067 A 
ATOM     20  N   UNK d   0      -7.697 -33.902  48.091  0.00  0.00    -0.248 NA
ATOM     21  C   UNK d   0      -6.404 -34.359  49.868  0.00  0.00    -0.011 A 
ATOM     22  C   UNK d   0      -6.915 -34.987  47.778  0.00  0.00     0.066 A 
ATOM     23  C   UNK d   0      -7.060 -35.502  46.498  0.00  0.00     0.062 C 
ATOM     24  C   UNK d   0      -6.108 -35.239  48.956  0.00  0.00    -0.020 A 
ATOM     25  C   UNK d   0      -7.843 -34.995  45.450  0.00  0.00     0.041 A 
ATOM     26  N   UNK d   0      -9.068 -34.455  45.437  0.00  0.00    -0.355 N 
ATOM     27  C   UNK d   0      -7.308 -35.002  44.143  0.00  0.00    -0.022 A 
ATOM     28  C   UNK d   0      -9.331 -34.114  44.166  0.00  0.00     0.042 A 
ATOM     29  H   UNK d   0      -9.752 -34.340  46.314  0.00  0.00     0.166 HD
ATOM     30  C   UNK d   0     -10.458 -33.510  43.587  0.00  0.00     0.062 C 
ATOM     31  C   UNK d   0      -8.242 -34.446  43.325  0.00  0.00    -0.013 A 
ATOM     32  C   UNK d   0     -11.233 -32.480  44.096  0.00  0.00     0.066 A 
BRANCH   8  33
ATOM     33  C   UNK d   0     -13.766 -29.842  44.467  0.00  0.00     0.151 C 
BRANCH  33  34
ATOM     34  C   UNK d   0     -13.388 -28.630  43.719  0.00  0.00     0.143 C 
ATOM     35  O   UNK d   0     -13.793 -28.443  42.563  0.00  0.00    -0.650 OA
BRANCH  34  36
ATOM     36  O   UNK d   0     -12.572 -27.696  44.314  0.00  0.00    -0.776 OA
ATOM     37  H   UNK d   0     -12.856 -27.209  45.175  0.00  0.00     0.167 HD
ENDBRANCH  34  36
ENDBRANCH  33  34
ENDBRANCH   8  33
BRANCH  31  38
ATOM     38  C   UNK d   0      -8.107 -34.229  41.836  0.00  0.00     0.151 C 
BRANCH  38  39
ATOM     39  C   UNK d   0      -8.465 -35.399  41.063  0.00  0.00     0.143 C 
ATOM     40  O   UNK d   0      -9.604 -35.898  41.098  0.00  0.00    -0.650 OA
BRANCH  39  41
ATOM     41  O   UNK d   0      -7.508 -36.000  40.245  0.00  0.00    -0.776 OA
ATOM     42  H   UNK d   0      -6.674 -35.446  40.027  0.00  0.00     0.167 HD
ENDBRANCH  39  41
ENDBRANCH  38  39
ENDBRANCH  31  38
BRANCH  27  43
ATOM     43  C   UNK d   0      -5.973 -35.508  43.657  0.00  0.00     0.052 C 
BRANCH  43  44
ATOM     44  C   UNK d   0      -5.978 -36.966  43.331  0.00  0.00     0.115 C 
BRANCH  44  45
ATOM     45  C   UNK d   0      -4.859 -37.192  42.378  0.00  0.00     0.139 C 
ATOM     46  O   UNK d   0      -5.141 -37.386  41.170  0.00  0.00    -0.650 OA
BRANCH  45  47
ATOM     47  O   UNK d   0      -3.537 -37.191  42.765  0.00  0.00    -0.776 OA
ATOM     48  H   UNK d   0      -2.819 -37.777  42.309  0.00  0.00     0.167 HD
ENDBRANCH  45  47
ENDBRANCH  44  45
ENDBRANCH  43  44
ENDBRANCH  27  43
BRANCH  24  49
ATOM     49  C   UNK d   0      -5.087 -36.294  49.066  0.00  0.00     0.052 C 
BRANCH  49  50
ATOM     50  C   UNK d   0      -5.734 -37.655  49.054  0.00  0.00     0.115 C 
BRANCH  50  51
ATOM     51  C   UNK d   0      -5.867 -38.339  50.333  0.00  0.00     0.139 C 
ATOM     52  O   UNK d   0      -5.180 -38.035  51.337  0.00  0.00    -0.650 OA
BRANCH  51  53
ATOM     53  O   UNK d   0      -6.781 -39.372  50.467  0.00  0.00    -0.776 OA
ATOM     54  H   UNK d   0      -7.051 -39.651  51.394  0.00  0.00     0.167 HD
ENDBRANCH  51  53
ENDBRANCH  50  51
ENDBRANCH  49  50
ENDBRANCH  24  49
BRANCH  21  55
ATOM     55  C   UNK d   0      -5.821 -34.221  51.236  0.00  0.00     0.151 C 
BRANCH  55  56
ATOM     56  C   UNK d   0      -6.767 -34.636  52.283  0.00  0.00     0.143 C 
ATOM     57  O   UNK d   0      -7.581 -33.851  52.807  0.00  0.00    -0.650 OA
BRANCH  56  58
ATOM     58  O   UNK d   0      -6.736 -35.968  52.694  0.00  0.00    -0.776 OA
ATOM     59  H   UNK d   0      -7.187 -36.636  52.043  0.00  0.00     0.167 HD
ENDBRANCH  56  58
ENDBRANCH  55  56
ENDBRANCH  21  55
BRANCH  18  60
ATOM     60  C   UNK d   0     -10.526 -31.657  51.550  0.00  0.00     0.151 C 
BRANCH  60  61
ATOM     61  C   UNK d   0      -9.576 -30.732  52.188  0.00  0.00     0.143 C 
ATOM     62  O   UNK d   0      -9.333 -29.572  51.855  0.00  0.00    -0.650 OA
BRANCH  61  63
ATOM     63  O   UNK d   0      -8.879 -31.258  53.302  0.00  0.00    -0.776 OA
ATOM     64  H   UNK d   0      -8.692 -30.692  54.110  0.00  0.00     0.167 HD
ENDBRANCH  61  63
ENDBRANCH  60  61
ENDBRANCH  18  60
BRANCH  14  65
ATOM     65  C   UNK d   0     -12.571 -30.281  49.779  0.00  0.00     0.052 C 
BRANCH  65  66
ATOM     66  C   UNK d   0     -12.489 -28.807  49.959  0.00  0.00     0.115 C 
BRANCH  66  67
ATOM     67  C   UNK d   0     -12.399 -28.255  51.282  0.00  0.00     0.139 C 
ATOM     68  O   UNK d   0     -13.394 -28.410  52.081  0.00  0.00    -0.650 OA
BRANCH  67  69
ATOM     69  O   UNK d   0     -11.336 -27.545  51.839  0.00  0.00    -0.776 OA
ATOM     70  H   UNK d   0     -10.531 -28.111  52.147  0.00  0.00     0.167 HD
ENDBRANCH  67  69
ENDBRANCH  66  67
ENDBRANCH  65  66
ENDBRANCH  14  65
ENDBRANCH   6   7
ENDBRANCH   5   6
ENDBRANCH   2   5
TORSDOF 28
ENDMDL
