MODEL 1
REMARK VINA RESULT:     -10.8      0.000      0.000
REMARK  16 active torsions:
REMARK  status: ('A' for Active; 'I' for Inactive)
REMARK    1  A    between atoms: C_6  and  C_7 
REMARK    2  A    between atoms: C_7  and  C_8 
REMARK    3  A    between atoms: C_8  and  C_9 
REMARK    4  A    between atoms: C_9  and  O_11 
REMARK    5  A    between atoms: C_16  and  C_17 
REMARK    6  A    between atoms: C_17  and  C_18 
REMARK    7  A    between atoms: C_18  and  C_19 
REMARK    8  A    between atoms: C_19  and  O_21 
REMARK    9  A    between atoms: C_28  and  C_29 
REMARK   10  A    between atoms: C_29  and  C_30 
REMARK   11  A    between atoms: C_30  and  C_31 
REMARK   12  A    between atoms: C_31  and  O_33 
REMARK   13  A    between atoms: C_42  and  C_43 
REMARK   14  A    between atoms: C_43  and  C_44 
REMARK   15  A    between atoms: C_44  and  C_45 
REMARK   16  A    between atoms: C_45  and  O_47 
ROOT
HETATM    1  C   UNK     0       8.279   4.117  22.640  0.00  0.00     0.051 C 
HETATM    2  C   UNK     0       7.040   4.840  23.127  0.00  0.00    -0.031 A 
HETATM    3  C   UNK     0       6.879   6.171  23.478  0.00  0.00     0.021 A 
HETATM    4  N   UNK     0       5.603   6.369  23.886  0.00  0.00    -0.361 N 
HETATM    5  C   UNK     0       4.945   5.195  23.794  0.00  0.00     0.022 A 
HETATM    6  C   UNK     0       5.815   4.216  23.325  0.00  0.00    -0.027 A 
HETATM    7  C   UNK     0       3.498   4.893  24.033  0.00  0.00     0.115 C 
HETATM    8  C   UNK     0       2.494   5.895  23.490  0.00  0.00     0.021 A 
HETATM    9  N   UNK     0       2.559   6.614  22.359  0.00  0.00    -0.361 N 
HETATM   10  C   UNK     0       1.493   7.442  22.326  0.00  0.00     0.022 A 
HETATM   11  C   UNK     0       0.715   7.243  23.464  0.00  0.00    -0.027 A 
HETATM   12  C   UNK     0       1.340   6.270  24.201  0.00  0.00    -0.031 A 
HETATM   13  C   UNK     0       0.849   5.724  25.523  0.00  0.00     0.051 C 
HETATM   14  C   UNK     0       1.194   8.485  21.254  0.00  0.00     0.115 C 
HETATM   15  C   UNK     0       2.265   9.556  21.121  0.00  0.00     0.021 A 
HETATM   16  N   UNK     0       3.570   9.383  20.840  0.00  0.00    -0.361 N 
HETATM   17  C   UNK     0       4.188  10.565  20.883  0.00  0.00     0.022 A 
HETATM   18  C   UNK     0       3.239  11.557  21.199  0.00  0.00    -0.027 A 
HETATM   19  C   UNK     0       2.038  10.913  21.344  0.00  0.00    -0.031 A 
HETATM   20  C   UNK     0       0.732  11.622  21.653  0.00  0.00     0.051 C 
HETATM   21  C   UNK     0       5.652  10.902  20.714  0.00  0.00     0.115 C 
HETATM   22  C   UNK     0       6.662   9.894  21.210  0.00  0.00     0.022 A 
HETATM   23  N   UNK     0       6.622   9.161  22.330  0.00  0.00    -0.361 N 
HETATM   24  C   UNK     0       7.650   8.290  22.303  0.00  0.00     0.021 A 
HETATM   25  C   UNK     0       8.377   8.474  21.143  0.00  0.00    -0.031 A 
HETATM   26  C   UNK     0       9.635   7.766  20.684  0.00  0.00     0.051 C 
HETATM   27  C   UNK     0       7.764   9.495  20.427  0.00  0.00    -0.027 A 
HETATM   28  C   UNK     0       7.966   7.194  23.306  0.00  0.00     0.115 C 
HETATM   29  H   UNK     0       5.187   7.327  24.274  0.00  0.00     0.165 HD
HETATM   30  H   UNK     0       3.329   6.505  21.557  0.00  0.00     0.165 HD
HETATM   31  H   UNK     0       4.056   8.413  20.558  0.00  0.00     0.165 HD
HETATM   32  H   UNK     0       5.891   9.281  23.172  0.00  0.00     0.165 HD
ENDROOT
BRANCH   6  33
HETATM   33  C   UNK     0       5.574   2.752  23.056  0.00  0.00     0.051 C 
BRANCH  33  34
HETATM   34  C   UNK     0       5.785   1.936  24.309  0.00  0.00     0.114 C 
BRANCH  34  35
HETATM   35  C   UNK     0       6.109   0.544  23.886  0.00  0.00     0.139 C 
HETATM   36  O   UNK     0       6.111   0.235  22.659  0.00  0.00    -0.650 OA
BRANCH  35  37
HETATM   37  O   UNK     0       6.419  -0.462  24.793  0.00  0.00    -0.776 OA
HETATM   38  H   UNK     0       6.084  -0.447  25.743  0.00  0.00     0.167 HD
ENDBRANCH  35  37
ENDBRANCH  34  35
ENDBRANCH  33  34
ENDBRANCH   6  33
BRANCH  27  39
HETATM   39  C   UNK     0       8.306  10.026  19.147  0.00  0.00     0.051 C 
BRANCH  39  40
HETATM   40  C   UNK     0       9.387  11.011  19.206  0.00  0.00     0.114 C 
BRANCH  40  41
HETATM   41  C   UNK     0      10.614  10.854  18.458  0.00  0.00     0.139 C 
HETATM   42  O   UNK     0      11.270   9.803  18.433  0.00  0.00    -0.650 OA
BRANCH  41  43
HETATM   43  O   UNK     0      11.110  11.955  17.704  0.00  0.00    -0.776 OA
HETATM   44  H   UNK     0      10.792  11.983  16.743  0.00  0.00     0.167 HD
ENDBRANCH  41  43
ENDBRANCH  40  41
ENDBRANCH  39  40
ENDBRANCH  27  39
BRANCH  11  45
HETATM   45  C   UNK     0      -0.566   7.927  23.859  0.00  0.00     0.051 C 
BRANCH  45  46
HETATM   46  C   UNK     0      -0.392   9.336  24.294  0.00  0.00     0.114 C 
BRANCH  46  47
HETATM   47  C   UNK     0      -0.981   9.452  25.659  0.00  0.00     0.139 C 
HETATM   48  O   UNK     0      -0.585   8.680  26.543  0.00  0.00    -0.650 OA
BRANCH  47  49
HETATM   49  O   UNK     0      -1.942  10.393  25.932  0.00  0.00    -0.776 OA
HETATM   50  H   UNK     0      -2.672  10.238  26.637  0.00  0.00     0.167 HD
ENDBRANCH  47  49
ENDBRANCH  46  47
ENDBRANCH  45  46
ENDBRANCH  11  45
BRANCH  18  51
HETATM   51  C   UNK     0       3.461  13.042  21.333  0.00  0.00     0.051 C 
BRANCH  51  52
HETATM   52  C   UNK     0       3.836  13.544  19.947  0.00  0.00     0.114 C 
BRANCH  52  53
HETATM   53  C   UNK     0       5.041  14.395  19.978  0.00  0.00     0.139 C 
HETATM   54  O   UNK     0       5.638  14.589  21.050  0.00  0.00    -0.650 OA
BRANCH  53  55
HETATM   55  O   UNK     0       5.496  14.973  18.818  0.00  0.00    -0.776 OA
HETATM   56  H   UNK     0       4.948  15.183  18.017  0.00  0.00     0.167 HD
ENDBRANCH  53  55
ENDBRANCH  52  53
ENDBRANCH  51  52
ENDBRANCH  18  51
TORSDOF 16
ENDMDL
MODEL 2
REMARK VINA RESULT:     -10.7      2.470      7.049
REMARK  16 active torsions:
REMARK  status: ('A' for Active; 'I' for Inactive)
REMARK    1  A    between atoms: C_6  and  C_7 
REMARK    2  A    between atoms: C_7  and  C_8 
REMARK    3  A    between atoms: C_8  and  C_9 
REMARK    4  A    between atoms: C_9  and  O_11 
REMARK    5  A    between atoms: C_16  and  C_17 
REMARK    6  A    between atoms: C_17  and  C_18 
REMARK    7  A    between atoms: C_18  and  C_19 
REMARK    8  A    between atoms: C_19  and  O_21 
REMARK    9  A    between atoms: C_28  and  C_29 
REMARK   10  A    between atoms: C_29  and  C_30 
REMARK   11  A    between atoms: C_30  and  C_31 
REMARK   12  A    between atoms: C_31  and  O_33 
REMARK   13  A    between atoms: C_42  and  C_43 
REMARK   14  A    between atoms: C_43  and  C_44 
REMARK   15  A    between atoms: C_44  and  C_45 
REMARK   16  A    between atoms: C_45  and  O_47 
ROOT
HETATM    1  C   UNK     0      -0.524   6.790  24.122  0.00  0.00     0.051 C 
HETATM    2  C   UNK     0       0.838   6.492  23.528  0.00  0.00    -0.031 A 
HETATM    3  C   UNK     0       1.400   6.943  22.344  0.00  0.00     0.021 A 
HETATM    4  N   UNK     0       2.628   6.393  22.200  0.00  0.00    -0.361 N 
HETATM    5  C   UNK     0       2.866   5.607  23.271  0.00  0.00     0.022 A 
HETATM    6  C   UNK     0       1.765   5.643  24.120  0.00  0.00    -0.027 A 
HETATM    7  C   UNK     0       4.104   4.852  23.642  0.00  0.00     0.115 C 
HETATM    8  C   UNK     0       5.426   5.572  23.443  0.00  0.00     0.021 A 
HETATM    9  N   UNK     0       5.702   6.875  23.608  0.00  0.00    -0.361 N 
HETATM   10  C   UNK     0       6.981   7.083  23.229  0.00  0.00     0.022 A 
HETATM   11  C   UNK     0       7.547   5.880  22.818  0.00  0.00    -0.027 A 
HETATM   12  C   UNK     0       6.573   4.924  22.951  0.00  0.00    -0.031 A 
HETATM   13  C   UNK     0       6.739   3.456  22.624  0.00  0.00     0.051 C 
HETATM   14  C   UNK     0       7.701   8.428  23.189  0.00  0.00     0.115 C 
HETATM   15  C   UNK     0       7.062   9.441  22.253  0.00  0.00     0.021 A 
HETATM   16  N   UNK     0       5.803   9.917  22.293  0.00  0.00    -0.361 N 
HETATM   17  C   UNK     0       5.610  10.734  21.255  0.00  0.00     0.022 A 
HETATM   18  C   UNK     0       6.804  10.802  20.509  0.00  0.00    -0.027 A 
HETATM   19  C   UNK     0       7.705   9.989  21.145  0.00  0.00    -0.031 A 
HETATM   20  C   UNK     0       9.140   9.801  20.688  0.00  0.00     0.051 C 
HETATM   21  C   UNK     0       4.361  11.461  20.809  0.00  0.00     0.115 C 
HETATM   22  C   UNK     0       3.035  10.775  21.041  0.00  0.00     0.022 A 
HETATM   23  N   UNK     0       2.733   9.479  20.889  0.00  0.00    -0.361 N 
HETATM   24  C   UNK     0       1.480   9.281  21.346  0.00  0.00     0.021 A 
HETATM   25  C   UNK     0       0.959  10.480  21.793  0.00  0.00    -0.031 A 
HETATM   26  C   UNK     0      -0.418  10.771  22.353  0.00  0.00     0.051 C 
HETATM   27  C   UNK     0       1.936  11.451  21.608  0.00  0.00    -0.027 A 
HETATM   28  C   UNK     0       0.733   7.964  21.466  0.00  0.00     0.115 C 
HETATM   29  H   UNK     0       3.304   6.532  21.324  0.00  0.00     0.165 HD
HETATM   30  H   UNK     0       5.012   7.641  24.039  0.00  0.00     0.165 HD
HETATM   31  H   UNK     0       5.049   9.709  23.096  0.00  0.00     0.165 HD
HETATM   32  H   UNK     0       3.386   8.700  20.418  0.00  0.00     0.165 HD
ENDROOT
BRANCH   6  33
HETATM   33  C   UNK     0       1.529   4.941  25.433  0.00  0.00     0.051 C 
BRANCH  33  34
HETATM   34  C   UNK     0       0.935   3.570  25.208  0.00  0.00     0.114 C 
BRANCH  34  35
HETATM   35  C   UNK     0       1.628   2.626  26.131  0.00  0.00     0.139 C 
HETATM   36  O   UNK     0       0.969   1.992  27.006  0.00  0.00    -0.650 OA
BRANCH  35  37
HETATM   37  O   UNK     0       2.997   2.397  26.079  0.00  0.00    -0.776 OA
HETATM   38  H   UNK     0       3.434   1.649  26.593  0.00  0.00     0.167 HD
ENDBRANCH  35  37
ENDBRANCH  34  35
ENDBRANCH  33  34
ENDBRANCH   6  33
BRANCH  27  39
HETATM   39  C   UNK     0       1.714  12.892  21.910  0.00  0.00     0.051 C 
BRANCH  39  40
HETATM   40  C   UNK     0       1.469  13.804  20.793  0.00  0.00     0.114 C 
BRANCH  40  41
HETATM   41  C   UNK     0       2.349  14.913  20.497  0.00  0.00     0.139 C 
HETATM   42  O   UNK     0       3.580  14.862  20.628  0.00  0.00    -0.650 OA
BRANCH  41  43
HETATM   43  O   UNK     0       1.788  16.134  20.029  0.00  0.00    -0.776 OA
HETATM   44  H   UNK     0       2.144  16.963  20.490  0.00  0.00     0.167 HD
ENDBRANCH  41  43
ENDBRANCH  40  41
ENDBRANCH  39  40
ENDBRANCH  27  39
BRANCH  11  45
HETATM   45  C   UNK     0       8.943   5.618  22.321  0.00  0.00     0.051 C 
BRANCH  45  46
HETATM   46  C   UNK     0      10.012   6.077  23.244  0.00  0.00     0.114 C 
BRANCH  46  47
HETATM   47  C   UNK     0      11.016   6.815  22.425  0.00  0.00     0.139 C 
HETATM   48  O   UNK     0      10.971   6.704  21.192  0.00  0.00    -0.650 OA
BRANCH  47  49
HETATM   49  O   UNK     0      11.970   7.599  23.023  0.00  0.00    -0.776 OA
HETATM   50  H   UNK     0      12.349   8.438  22.568  0.00  0.00     0.167 HD
ENDBRANCH  47  49
ENDBRANCH  46  47
ENDBRANCH  45  46
ENDBRANCH  11  45
BRANCH  18  51
HETATM   51  C   UNK     0       7.076  11.615  19.270  0.00  0.00     0.051 C 
BRANCH  51  52
HETATM   52  C   UNK     0       6.796  10.697  18.089  0.00  0.00     0.114 C 
BRANCH  52  53
HETATM   53  C   UNK     0       7.790  10.869  17.012  0.00  0.00     0.139 C 
HETATM   54  O   UNK     0       8.894  11.380  17.261  0.00  0.00    -0.650 OA
BRANCH  53  55
HETATM   55  O   UNK     0       7.486  10.463  15.735  0.00  0.00    -0.776 OA
HETATM   56  H   UNK     0       6.576  10.401  15.343  0.00  0.00     0.167 HD
ENDBRANCH  53  55
ENDBRANCH  52  53
ENDBRANCH  51  52
ENDBRANCH  18  51
TORSDOF 16
ENDMDL
MODEL 3
REMARK VINA RESULT:     -10.5      2.488      8.797
REMARK  16 active torsions:
REMARK  status: ('A' for Active; 'I' for Inactive)
REMARK    1  A    between atoms: C_6  and  C_7 
REMARK    2  A    between atoms: C_7  and  C_8 
REMARK    3  A    between atoms: C_8  and  C_9 
REMARK    4  A    between atoms: C_9  and  O_11 
REMARK    5  A    between atoms: C_16  and  C_17 
REMARK    6  A    between atoms: C_17  and  C_18 
REMARK    7  A    between atoms: C_18  and  C_19 
REMARK    8  A    between atoms: C_19  and  O_21 
REMARK    9  A    between atoms: C_28  and  C_29 
REMARK   10  A    between atoms: C_29  and  C_30 
REMARK   11  A    between atoms: C_30  and  C_31 
REMARK   12  A    between atoms: C_31  and  O_33 
REMARK   13  A    between atoms: C_42  and  C_43 
REMARK   14  A    between atoms: C_43  and  C_44 
REMARK   15  A    between atoms: C_44  and  C_45 
REMARK   16  A    between atoms: C_45  and  O_47 
ROOT
HETATM    1  C   UNK     0       0.431   6.406  22.933  0.00  0.00     0.051 C 
HETATM    2  C   UNK     0       1.539   7.424  22.762  0.00  0.00    -0.031 A 
HETATM    3  C   UNK     0       2.745   7.534  23.436  0.00  0.00     0.021 A 
HETATM    4  N   UNK     0       3.412   8.618  22.973  0.00  0.00    -0.361 N 
HETATM    5  C   UNK     0       2.661   9.196  22.013  0.00  0.00     0.022 A 
HETATM    6  C   UNK     0       1.481   8.477  21.857  0.00  0.00    -0.027 A 
HETATM    7  C   UNK     0       2.980  10.360  21.127  0.00  0.00     0.115 C 
HETATM    8  C   UNK     0       4.382  10.409  20.545  0.00  0.00     0.021 A 
HETATM    9  N   UNK     0       5.156   9.390  20.141  0.00  0.00    -0.361 N 
HETATM   10  C   UNK     0       6.357   9.892  19.782  0.00  0.00     0.022 A 
HETATM   11  C   UNK     0       6.353  11.274  19.951  0.00  0.00    -0.027 A 
HETATM   12  C   UNK     0       5.112  11.606  20.431  0.00  0.00    -0.031 A 
HETATM   13  C   UNK     0       4.648  13.007  20.759  0.00  0.00     0.051 C 
HETATM   14  C   UNK     0       7.568   9.088  19.319  0.00  0.00     0.115 C 
HETATM   15  C   UNK     0       8.081   8.098  20.352  0.00  0.00     0.021 A 
HETATM   16  N   UNK     0       7.406   7.084  20.925  0.00  0.00    -0.361 N 
HETATM   17  C   UNK     0       8.188   6.494  21.831  0.00  0.00     0.022 A 
HETATM   18  C   UNK     0       9.436   7.147  21.842  0.00  0.00    -0.027 A 
HETATM   19  C   UNK     0       9.357   8.149  20.910  0.00  0.00    -0.031 A 
HETATM   20  C   UNK     0      10.506   9.082  20.574  0.00  0.00     0.051 C 
HETATM   21  C   UNK     0       7.884   5.364  22.789  0.00  0.00     0.115 C 
HETATM   22  C   UNK     0       6.480   5.277  23.342  0.00  0.00     0.022 A 
HETATM   23  N   UNK     0       5.685   6.275  23.748  0.00  0.00    -0.361 N 
HETATM   24  C   UNK     0       4.470   5.762  24.027  0.00  0.00     0.021 A 
HETATM   25  C   UNK     0       4.486   4.398  23.804  0.00  0.00    -0.031 A 
HETATM   26  C   UNK     0       3.380   3.385  24.013  0.00  0.00     0.051 C 
HETATM   27  C   UNK     0       5.762   4.064  23.366  0.00  0.00    -0.027 A 
HETATM   28  C   UNK     0       3.214   6.513  24.434  0.00  0.00     0.115 C 
HETATM   29  H   UNK     0       4.390   8.990  23.356  0.00  0.00     0.165 HD
HETATM   30  H   UNK     0       4.841   8.321  20.061  0.00  0.00     0.165 HD
HETATM   31  H   UNK     0       6.372   6.748  20.652  0.00  0.00     0.165 HD
HETATM   32  H   UNK     0       5.987   7.346  23.883  0.00  0.00     0.165 HD
ENDROOT
BRANCH   6  33
HETATM   33  C   UNK     0       0.318   8.711  20.928  0.00  0.00     0.051 C 
BRANCH  33  34
HETATM   34  C   UNK     0      -0.644   9.716  21.517  0.00  0.00     0.114 C 
BRANCH  34  35
HETATM   35  C   UNK     0      -1.950   9.023  21.712  0.00  0.00     0.139 C 
HETATM   36  O   UNK     0      -2.672   8.733  20.715  0.00  0.00    -0.650 OA
BRANCH  35  37
HETATM   37  O   UNK     0      -2.428   8.667  22.967  0.00  0.00    -0.776 OA
HETATM   38  H   UNK     0      -2.465   7.707  23.272  0.00  0.00     0.167 HD
ENDBRANCH  35  37
ENDBRANCH  34  35
ENDBRANCH  33  34
ENDBRANCH   6  33
BRANCH  27  39
HETATM   39  C   UNK     0       6.184   2.664  23.090  0.00  0.00     0.051 C 
BRANCH  39  40
HETATM   40  C   UNK     0       6.546   1.813  24.223  0.00  0.00     0.114 C 
BRANCH  40  41
HETATM   41  C   UNK     0       6.141   0.427  24.306  0.00  0.00     0.139 C 
HETATM   42  O   UNK     0       6.941  -0.518  24.337  0.00  0.00    -0.650 OA
BRANCH  41  43
HETATM   43  O   UNK     0       4.753   0.114  24.356  0.00  0.00    -0.776 OA
HETATM   44  H   UNK     0       4.140   0.903  24.192  0.00  0.00     0.167 HD
ENDBRANCH  41  43
ENDBRANCH  40  41
ENDBRANCH  39  40
ENDBRANCH  27  39
BRANCH  11  45
HETATM   45  C   UNK     0       7.457  12.259  19.676  0.00  0.00     0.051 C 
BRANCH  45  46
HETATM   46  C   UNK     0       8.768  11.879  20.261  0.00  0.00     0.114 C 
BRANCH  46  47
HETATM   47  C   UNK     0       8.909  12.620  21.547  0.00  0.00     0.139 C 
HETATM   48  O   UNK     0       8.665  13.835  21.560  0.00  0.00    -0.650 OA
BRANCH  47  49
HETATM   49  O   UNK     0       9.301  11.973  22.691  0.00  0.00    -0.776 OA
HETATM   50  H   UNK     0       8.678  11.872  23.501  0.00  0.00     0.167 HD
ENDBRANCH  47  49
ENDBRANCH  46  47
ENDBRANCH  45  46
ENDBRANCH  11  45
BRANCH  18  51
HETATM   51  C   UNK     0      10.645   6.822  22.680  0.00  0.00     0.051 C 
BRANCH  51  52
HETATM   52  C   UNK     0      10.518   7.648  23.951  0.00  0.00     0.114 C 
BRANCH  52  53
HETATM   53  C   UNK     0      10.738   6.832  25.161  0.00  0.00     0.139 C 
HETATM   54  O   UNK     0      11.888   6.660  25.595  0.00  0.00    -0.650 OA
BRANCH  53  55
HETATM   55  O   UNK     0       9.663   6.263  25.801  0.00  0.00    -0.776 OA
HETATM   56  H   UNK     0       9.498   5.290  25.912  0.00  0.00     0.167 HD
ENDBRANCH  53  55
ENDBRANCH  52  53
ENDBRANCH  51  52
ENDBRANCH  18  51
TORSDOF 16
ENDMDL
MODEL 4
REMARK VINA RESULT:     -10.4      1.455      1.621
REMARK  16 active torsions:
REMARK  status: ('A' for Active; 'I' for Inactive)
REMARK    1  A    between atoms: C_6  and  C_7 
REMARK    2  A    between atoms: C_7  and  C_8 
REMARK    3  A    between atoms: C_8  and  C_9 
REMARK    4  A    between atoms: C_9  and  O_11 
REMARK    5  A    between atoms: C_16  and  C_17 
REMARK    6  A    between atoms: C_17  and  C_18 
REMARK    7  A    between atoms: C_18  and  C_19 
REMARK    8  A    between atoms: C_19  and  O_21 
REMARK    9  A    between atoms: C_28  and  C_29 
REMARK   10  A    between atoms: C_29  and  C_30 
REMARK   11  A    between atoms: C_30  and  C_31 
REMARK   12  A    between atoms: C_31  and  O_33 
REMARK   13  A    between atoms: C_42  and  C_43 
REMARK   14  A    between atoms: C_43  and  C_44 
REMARK   15  A    between atoms: C_44  and  C_45 
REMARK   16  A    between atoms: C_45  and  O_47 
ROOT
HETATM    1  C   UNK     0       8.475   4.494  22.512  0.00  0.00     0.051 C 
HETATM    2  C   UNK     0       7.183   5.086  23.038  0.00  0.00    -0.031 A 
HETATM    3  C   UNK     0       6.909   6.385  23.436  0.00  0.00     0.021 A 
HETATM    4  N   UNK     0       5.626   6.454  23.865  0.00  0.00    -0.361 N 
HETATM    5  C   UNK     0       5.075   5.229  23.741  0.00  0.00     0.022 A 
HETATM    6  C   UNK     0       6.022   4.349  23.230  0.00  0.00    -0.027 A 
HETATM    7  C   UNK     0       3.665   4.791  23.987  0.00  0.00     0.115 C 
HETATM    8  C   UNK     0       2.567   5.714  23.490  0.00  0.00     0.021 A 
HETATM    9  N   UNK     0       2.550   6.472  22.383  0.00  0.00    -0.361 N 
HETATM   10  C   UNK     0       1.413   7.201  22.391  0.00  0.00     0.022 A 
HETATM   11  C   UNK     0       0.674   6.897  23.530  0.00  0.00    -0.027 A 
HETATM   12  C   UNK     0       1.395   5.961  24.227  0.00  0.00    -0.031 A 
HETATM   13  C   UNK     0       0.974   5.330  25.535  0.00  0.00     0.051 C 
HETATM   14  C   UNK     0       1.006   8.247  21.357  0.00  0.00     0.115 C 
HETATM   15  C   UNK     0       1.974   9.414  21.247  0.00  0.00     0.021 A 
HETATM   16  N   UNK     0       3.285   9.368  20.945  0.00  0.00    -0.361 N 
HETATM   17  C   UNK     0       3.795  10.599  21.020  0.00  0.00     0.022 A 
HETATM   18  C   UNK     0       2.766  11.491  21.379  0.00  0.00    -0.027 A 
HETATM   19  C   UNK     0       1.630  10.737  21.518  0.00  0.00    -0.031 A 
HETATM   20  C   UNK     0       0.270  11.314  21.866  0.00  0.00     0.051 C 
HETATM   21  C   UNK     0       5.221  11.073  20.845  0.00  0.00     0.115 C 
HETATM   22  C   UNK     0       6.324  10.145  21.295  0.00  0.00     0.022 A 
HETATM   23  N   UNK     0       6.366   9.375  22.390  0.00  0.00    -0.361 N 
HETATM   24  C   UNK     0       7.469   8.602  22.323  0.00  0.00     0.021 A 
HETATM   25  C   UNK     0       8.159   8.888  21.160  0.00  0.00    -0.031 A 
HETATM   26  C   UNK     0       9.468   8.312  20.663  0.00  0.00     0.051 C 
HETATM   27  C   UNK     0       7.446   9.872  20.486  0.00  0.00    -0.027 A 
HETATM   28  C   UNK     0       7.897   7.507  23.285  0.00  0.00     0.115 C 
HETATM   29  H   UNK     0       5.132   7.358  24.289  0.00  0.00     0.165 HD
HETATM   30  H   UNK     0       3.315   6.459  21.568  0.00  0.00     0.165 HD
HETATM   31  H   UNK     0       3.852   8.456  20.625  0.00  0.00     0.165 HD
HETATM   32  H   UNK     0       5.640   9.402  23.244  0.00  0.00     0.165 HD
ENDROOT
BRANCH   6  33
HETATM   33  C   UNK     0       5.910   2.878  22.915  0.00  0.00     0.051 C 
BRANCH  33  34
HETATM   34  C   UNK     0       6.263   2.044  24.124  0.00  0.00     0.114 C 
BRANCH  34  35
HETATM   35  C   UNK     0       5.277   0.928  24.199  0.00  0.00     0.139 C 
HETATM   36  O   UNK     0       4.038   1.164  24.101  0.00  0.00    -0.650 OA
BRANCH  35  37
HETATM   37  O   UNK     0       5.658  -0.397  24.373  0.00  0.00    -0.776 OA
HETATM   38  H   UNK     0       5.962  -0.972  23.604  0.00  0.00     0.167 HD
ENDBRANCH  35  37
ENDBRANCH  34  35
ENDBRANCH  33  34
ENDBRANCH   6  33
BRANCH  27  39
HETATM   39  C   UNK     0       7.919  10.491  19.218  0.00  0.00     0.051 C 
BRANCH  39  40
HETATM   40  C   UNK     0       7.006  10.517  18.075  0.00  0.00     0.114 C 
BRANCH  40  41
HETATM   41  C   UNK     0       7.406  11.021  16.781  0.00  0.00     0.139 C 
HETATM   42  O   UNK     0       7.520  10.308  15.775  0.00  0.00    -0.650 OA
BRANCH  41  43
HETATM   43  O   UNK     0       7.687  12.409  16.636  0.00  0.00    -0.776 OA
HETATM   44  H   UNK     0       7.129  12.879  15.934  0.00  0.00     0.167 HD
ENDBRANCH  41  43
ENDBRANCH  40  41
ENDBRANCH  39  40
ENDBRANCH  27  39
BRANCH  11  45
HETATM   45  C   UNK     0      -0.658   7.448  23.963  0.00  0.00     0.051 C 
BRANCH  45  46
HETATM   46  C   UNK     0      -0.631   8.891  24.314  0.00  0.00     0.114 C 
BRANCH  46  47
HETATM   47  C   UNK     0       0.110   9.019  25.601  0.00  0.00     0.139 C 
HETATM   48  O   UNK     0      -0.446   8.647  26.644  0.00  0.00    -0.650 OA
BRANCH  47  49
HETATM   49  O   UNK     0       1.380   9.537  25.632  0.00  0.00    -0.776 OA
HETATM   50  H   UNK     0       2.181   9.042  25.223  0.00  0.00     0.167 HD
ENDBRANCH  47  49
ENDBRANCH  46  47
ENDBRANCH  45  46
ENDBRANCH  11  45
BRANCH  18  51
HETATM   51  C   UNK     0       2.855  12.984  21.561  0.00  0.00     0.051 C 
BRANCH  51  52
HETATM   52  C   UNK     0       2.988  13.576  20.165  0.00  0.00     0.114 C 
BRANCH  52  53
HETATM   53  C   UNK     0       2.153  14.781  19.997  0.00  0.00     0.139 C 
HETATM   54  O   UNK     0       0.946  14.668  19.728  0.00  0.00    -0.650 OA
BRANCH  53  55
HETATM   55  O   UNK     0       2.719  16.025  20.135  0.00  0.00    -0.776 OA
HETATM   56  H   UNK     0       3.680  16.245  20.019  0.00  0.00     0.167 HD
ENDBRANCH  53  55
ENDBRANCH  52  53
ENDBRANCH  51  52
ENDBRANCH  18  51
TORSDOF 16
ENDMDL
MODEL 5
REMARK VINA RESULT:     -10.3      2.220      8.390
REMARK  16 active torsions:
REMARK  status: ('A' for Active; 'I' for Inactive)
REMARK    1  A    between atoms: C_6  and  C_7 
REMARK    2  A    between atoms: C_7  and  C_8 
REMARK    3  A    between atoms: C_8  and  C_9 
REMARK    4  A    between atoms: C_9  and  O_11 
REMARK    5  A    between atoms: C_16  and  C_17 
REMARK    6  A    between atoms: C_17  and  C_18 
REMARK    7  A    between atoms: C_18  and  C_19 
REMARK    8  A    between atoms: C_19  and  O_21 
REMARK    9  A    between atoms: C_28  and  C_29 
REMARK   10  A    between atoms: C_29  and  C_30 
REMARK   11  A    between atoms: C_30  and  C_31 
REMARK   12  A    between atoms: C_31  and  O_33 
REMARK   13  A    between atoms: C_42  and  C_43 
REMARK   14  A    between atoms: C_43  and  C_44 
REMARK   15  A    between atoms: C_44  and  C_45 
REMARK   16  A    between atoms: C_45  and  O_47 
ROOT
HETATM    1  C   UNK     0      -0.726   4.582  22.945  0.00  0.00     0.051 C 
HETATM    2  C   UNK     0       0.120   5.839  22.977  0.00  0.00    -0.031 A 
HETATM    3  C   UNK     0       1.247   6.122  23.733  0.00  0.00     0.021 A 
HETATM    4  N   UNK     0       1.657   7.383  23.458  0.00  0.00    -0.361 N 
HETATM    5  C   UNK     0       0.821   7.907  22.538  0.00  0.00     0.022 A 
HETATM    6  C   UNK     0      -0.154   6.968  22.216  0.00  0.00    -0.027 A 
HETATM    7  C   UNK     0       0.888   9.225  21.833  0.00  0.00     0.115 C 
HETATM    8  C   UNK     0       2.256   9.672  21.350  0.00  0.00     0.021 A 
HETATM    9  N   UNK     0       3.257   8.922  20.864  0.00  0.00    -0.361 N 
HETATM   10  C   UNK     0       4.319   9.728  20.649  0.00  0.00     0.022 A 
HETATM   11  C   UNK     0       3.989  11.035  20.997  0.00  0.00    -0.027 A 
HETATM   12  C   UNK     0       2.691  11.007  21.439  0.00  0.00    -0.031 A 
HETATM   13  C   UNK     0       1.905  12.206  21.919  0.00  0.00     0.051 C 
HETATM   14  C   UNK     0       5.697   9.292  20.159  0.00  0.00     0.115 C 
HETATM   15  C   UNK     0       6.395   8.308  21.083  0.00  0.00     0.021 A 
HETATM   16  N   UNK     0       5.957   7.097  21.476  0.00  0.00    -0.361 N 
HETATM   17  C   UNK     0       6.828   6.576  22.344  0.00  0.00     0.022 A 
HETATM   18  C   UNK     0       7.889   7.487  22.517  0.00  0.00    -0.027 A 
HETATM   19  C   UNK     0       7.607   8.566  21.721  0.00  0.00    -0.031 A 
HETATM   20  C   UNK     0       8.518   9.772  21.581  0.00  0.00     0.051 C 
HETATM   21  C   UNK     0       6.766   5.283  23.125  0.00  0.00     0.115 C 
HETATM   22  C   UNK     0       5.405   4.804  23.574  0.00  0.00     0.022 A 
HETATM   23  N   UNK     0       4.388   5.528  24.057  0.00  0.00    -0.361 N 
HETATM   24  C   UNK     0       3.318   4.719  24.191  0.00  0.00     0.021 A 
HETATM   25  C   UNK     0       3.657   3.440  23.793  0.00  0.00    -0.031 A 
HETATM   26  C   UNK     0       2.810   2.184  23.799  0.00  0.00     0.051 C 
HETATM   27  C   UNK     0       4.988   3.469  23.394  0.00  0.00    -0.027 A 
HETATM   28  C   UNK     0       1.910   5.102  24.615  0.00  0.00     0.115 C 
HETATM   29  H   UNK     0       2.510   7.908  23.946  0.00  0.00     0.165 HD
HETATM   30  H   UNK     0       3.202   7.832  20.625  0.00  0.00     0.165 HD
HETATM   31  H   UNK     0       5.038   6.578  21.098  0.00  0.00     0.165 HD
HETATM   32  H   UNK     0       4.428   6.610  24.351  0.00  0.00     0.165 HD
ENDROOT
BRANCH   6  33
HETATM   33  C   UNK     0      -1.312   7.063  21.256  0.00  0.00     0.051 C 
BRANCH  33  34
HETATM   34  C   UNK     0      -2.509   7.701  21.922  0.00  0.00     0.114 C 
BRANCH  34  35
HETATM   35  C   UNK     0      -3.730   7.062  21.352  0.00  0.00     0.139 C 
HETATM   36  O   UNK     0      -3.706   5.848  20.995  0.00  0.00    -0.650 OA
BRANCH  35  37
HETATM   37  O   UNK     0      -4.928   7.746  21.190  0.00  0.00    -0.776 OA
HETATM   38  H   UNK     0      -5.019   8.724  21.414  0.00  0.00     0.167 HD
ENDBRANCH  35  37
ENDBRANCH  34  35
ENDBRANCH  33  34
ENDBRANCH   6  33
BRANCH  27  39
HETATM   39  C   UNK     0       5.732   2.254  22.964  0.00  0.00     0.051 C 
BRANCH  39  40
HETATM   40  C   UNK     0       6.447   1.482  23.980  0.00  0.00     0.114 C 
BRANCH  40  41
HETATM   41  C   UNK     0       6.143   0.095  24.250  0.00  0.00     0.139 C 
HETATM   42  O   UNK     0       5.282  -0.548  23.635  0.00  0.00    -0.650 OA
BRANCH  41  43
HETATM   43  O   UNK     0       6.861  -0.583  25.275  0.00  0.00    -0.776 OA
HETATM   44  H   UNK     0       6.548  -0.374  26.215  0.00  0.00     0.167 HD
ENDBRANCH  41  43
ENDBRANCH  40  41
ENDBRANCH  39  40
ENDBRANCH  27  39
BRANCH  11  45
HETATM   45  C   UNK     0       4.841  12.273  20.922  0.00  0.00     0.051 C 
BRANCH  45  46
HETATM   46  C   UNK     0       4.484  13.188  19.808  0.00  0.00     0.114 C 
BRANCH  46  47
HETATM   47  C   UNK     0       5.422  14.346  19.870  0.00  0.00     0.139 C 
HETATM   48  O   UNK     0       6.005  14.580  20.938  0.00  0.00    -0.650 OA
BRANCH  47  49
HETATM   49  O   UNK     0       5.635  15.137  18.769  0.00  0.00    -0.776 OA
HETATM   50  H   UNK     0       6.203  14.823  17.973  0.00  0.00     0.167 HD
ENDBRANCH  47  49
ENDBRANCH  46  47
ENDBRANCH  45  46
ENDBRANCH  11  45
BRANCH  18  51
HETATM   51  C   UNK     0       9.115   7.327  23.378  0.00  0.00     0.051 C 
BRANCH  51  52
HETATM   52  C   UNK     0      10.172   6.675  22.498  0.00  0.00     0.114 C 
BRANCH  52  53
HETATM   53  C   UNK     0      11.417   7.467  22.456  0.00  0.00     0.139 C 
HETATM   54  O   UNK     0      11.656   8.198  21.482  0.00  0.00    -0.650 OA
BRANCH  53  55
HETATM   55  O   UNK     0      12.308   7.386  23.498  0.00  0.00    -0.776 OA
HETATM   56  H   UNK     0      13.281   7.202  23.421  0.00  0.00     0.167 HD
ENDBRANCH  53  55
ENDBRANCH  52  53
ENDBRANCH  51  52
ENDBRANCH  18  51
TORSDOF 16
ENDMDL
MODEL 6
REMARK VINA RESULT:     -10.2      2.395      8.025
REMARK  16 active torsions:
REMARK  status: ('A' for Active; 'I' for Inactive)
REMARK    1  A    between atoms: C_6  and  C_7 
REMARK    2  A    between atoms: C_7  and  C_8 
REMARK    3  A    between atoms: C_8  and  C_9 
REMARK    4  A    between atoms: C_9  and  O_11 
REMARK    5  A    between atoms: C_16  and  C_17 
REMARK    6  A    between atoms: C_17  and  C_18 
REMARK    7  A    between atoms: C_18  and  C_19 
REMARK    8  A    between atoms: C_19  and  O_21 
REMARK    9  A    between atoms: C_28  and  C_29 
REMARK   10  A    between atoms: C_29  and  C_30 
REMARK   11  A    between atoms: C_30  and  C_31 
REMARK   12  A    between atoms: C_31  and  O_33 
REMARK   13  A    between atoms: C_42  and  C_43 
REMARK   14  A    between atoms: C_43  and  C_44 
REMARK   15  A    between atoms: C_44  and  C_45 
REMARK   16  A    between atoms: C_45  and  O_47 
ROOT
HETATM    1  C   UNK     0       6.820  12.752  19.978  0.00  0.00     0.051 C 
HETATM    2  C   UNK     0       5.805  11.638  20.135  0.00  0.00    -0.031 A 
HETATM    3  C   UNK     0       5.921  10.292  19.824  0.00  0.00     0.021 A 
HETATM    4  N   UNK     0       4.749   9.672  20.102  0.00  0.00    -0.361 N 
HETATM    5  C   UNK     0       3.892  10.592  20.591  0.00  0.00     0.022 A 
HETATM    6  C   UNK     0       4.520  11.833  20.622  0.00  0.00    -0.027 A 
HETATM    7  C   UNK     0       2.509  10.411  21.134  0.00  0.00     0.115 C 
HETATM    8  C   UNK     0       2.284   9.214  22.040  0.00  0.00     0.021 A 
HETATM    9  N   UNK     0       3.125   8.672  22.935  0.00  0.00    -0.361 N 
HETATM   10  C   UNK     0       2.541   7.567  23.444  0.00  0.00     0.022 A 
HETATM   11  C   UNK     0       1.285   7.398  22.869  0.00  0.00    -0.027 A 
HETATM   12  C   UNK     0       1.116   8.432  21.984  0.00  0.00    -0.031 A 
HETATM   13  C   UNK     0      -0.110   8.660  21.129  0.00  0.00     0.051 C 
HETATM   14  C   UNK     0       3.162   6.602  24.450  0.00  0.00     0.115 C 
HETATM   15  C   UNK     0       4.431   5.928  23.954  0.00  0.00     0.021 A 
HETATM   16  N   UNK     0       5.571   6.520  23.551  0.00  0.00    -0.361 N 
HETATM   17  C   UNK     0       6.423   5.586  23.124  0.00  0.00     0.022 A 
HETATM   18  C   UNK     0       5.813   4.323  23.264  0.00  0.00    -0.027 A 
HETATM   19  C   UNK     0       4.566   4.552  23.786  0.00  0.00    -0.031 A 
HETATM   20  C   UNK     0       3.580   3.450  24.130  0.00  0.00     0.051 C 
HETATM   21  C   UNK     0       7.797   5.731  22.510  0.00  0.00     0.115 C 
HETATM   22  C   UNK     0       8.049   6.941  21.641  0.00  0.00     0.022 A 
HETATM   23  N   UNK     0       7.228   7.504  20.745  0.00  0.00    -0.361 N 
HETATM   24  C   UNK     0       7.798   8.645  20.308  0.00  0.00     0.021 A 
HETATM   25  C   UNK     0       9.020   8.815  20.930  0.00  0.00    -0.031 A 
HETATM   26  C   UNK     0      10.041   9.917  20.739  0.00  0.00     0.051 C 
HETATM   27  C   UNK     0       9.203   7.737  21.787  0.00  0.00    -0.027 A 
HETATM   28  C   UNK     0       7.209   9.674  19.357  0.00  0.00     0.115 C 
HETATM   29  H   UNK     0       4.523   8.597  19.914  0.00  0.00     0.165 HD
HETATM   30  H   UNK     0       4.112   9.095  23.245  0.00  0.00     0.165 HD
HETATM   31  H   UNK     0       5.798   7.616  23.613  0.00  0.00     0.165 HD
HETATM   32  H   UNK     0       6.257   7.079  20.380  0.00  0.00     0.165 HD
ENDROOT
BRANCH   6  33
HETATM   33  C   UNK     0       3.996  13.174  21.072  0.00  0.00     0.051 C 
BRANCH  33  34
HETATM   34  C   UNK     0       3.131  13.797  20.002  0.00  0.00     0.114 C 
BRANCH  34  35
HETATM   35  C   UNK     0       2.291  14.840  20.658  0.00  0.00     0.139 C 
HETATM   36  O   UNK     0       1.962  14.721  21.874  0.00  0.00    -0.650 OA
BRANCH  35  37
HETATM   37  O   UNK     0       1.840  15.970  19.987  0.00  0.00    -0.776 OA
HETATM   38  H   UNK     0       2.276  16.299  19.141  0.00  0.00     0.167 HD
ENDBRANCH  35  37
ENDBRANCH  34  35
ENDBRANCH  33  34
ENDBRANCH   6  33
BRANCH  27  39
HETATM   39  C   UNK     0      10.445   7.535  22.582  0.00  0.00     0.051 C 
BRANCH  39  40
HETATM   40  C   UNK     0      10.537   8.167  23.898  0.00  0.00     0.114 C 
BRANCH  40  41
HETATM   41  C   UNK     0      10.948   7.437  25.076  0.00  0.00     0.139 C 
HETATM   42  O   UNK     0      10.192   6.698  25.721  0.00  0.00    -0.650 OA
BRANCH  41  43
HETATM   43  O   UNK     0      12.291   7.564  25.534  0.00  0.00    -0.776 OA
HETATM   44  H   UNK     0      12.772   6.683  25.669  0.00  0.00     0.167 HD
ENDBRANCH  41  43
ENDBRANCH  40  41
ENDBRANCH  39  40
ENDBRANCH  27  39
BRANCH  11  45
HETATM   45  C   UNK     0       0.268   6.319  23.129  0.00  0.00     0.051 C 
BRANCH  45  46
HETATM   46  C   UNK     0      -0.482   6.486  24.400  0.00  0.00     0.114 C 
BRANCH  46  47
HETATM   47  C   UNK     0      -1.880   6.860  24.041  0.00  0.00     0.139 C 
HETATM   48  O   UNK     0      -2.712   5.956  23.877  0.00  0.00    -0.650 OA
BRANCH  47  49
HETATM   49  O   UNK     0      -2.240   8.176  23.894  0.00  0.00    -0.776 OA
HETATM   50  H   UNK     0      -1.806   8.925  24.447  0.00  0.00     0.167 HD
ENDBRANCH  47  49
ENDBRANCH  46  47
ENDBRANCH  45  46
ENDBRANCH  11  45
BRANCH  18  51
HETATM   51  C   UNK     0       6.394   2.972  22.938  0.00  0.00     0.051 C 
BRANCH  51  52
HETATM   52  C   UNK     0       6.613   2.270  24.270  0.00  0.00     0.114 C 
BRANCH  52  53
HETATM   53  C   UNK     0       6.351   0.821  24.177  0.00  0.00     0.139 C 
HETATM   54  O   UNK     0       5.836   0.347  23.152  0.00  0.00    -0.650 OA
BRANCH  53  55
HETATM   55  O   UNK     0       6.677   0.003  25.232  0.00  0.00    -0.776 OA
HETATM   56  H   UNK     0       7.547  -0.015  25.710  0.00  0.00     0.167 HD
ENDBRANCH  53  55
ENDBRANCH  52  53
ENDBRANCH  51  52
ENDBRANCH  18  51
TORSDOF 16
ENDMDL
MODEL 7
REMARK VINA RESULT:      -9.7      3.037      7.877
REMARK  16 active torsions:
REMARK  status: ('A' for Active; 'I' for Inactive)
REMARK    1  A    between atoms: C_6  and  C_7 
REMARK    2  A    between atoms: C_7  and  C_8 
REMARK    3  A    between atoms: C_8  and  C_9 
REMARK    4  A    between atoms: C_9  and  O_11 
REMARK    5  A    between atoms: C_16  and  C_17 
REMARK    6  A    between atoms: C_17  and  C_18 
REMARK    7  A    between atoms: C_18  and  C_19 
REMARK    8  A    between atoms: C_19  and  O_21 
REMARK    9  A    between atoms: C_28  and  C_29 
REMARK   10  A    between atoms: C_29  and  C_30 
REMARK   11  A    between atoms: C_30  and  C_31 
REMARK   12  A    between atoms: C_31  and  O_33 
REMARK   13  A    between atoms: C_42  and  C_43 
REMARK   14  A    between atoms: C_43  and  C_44 
REMARK   15  A    between atoms: C_44  and  C_45 
REMARK   16  A    between atoms: C_45  and  O_47 
ROOT
HETATM    1  C   UNK     0      -1.586   2.431  25.634  0.00  0.00     0.051 C 
HETATM    2  C   UNK     0      -0.319   2.613  24.823  0.00  0.00    -0.031 A 
HETATM    3  C   UNK     0      -0.134   3.270  23.617  0.00  0.00     0.021 A 
HETATM    4  N   UNK     0       1.163   3.153  23.245  0.00  0.00    -0.361 N 
HETATM    5  C   UNK     0       1.810   2.443  24.192  0.00  0.00     0.022 A 
HETATM    6  C   UNK     0       0.912   2.086  25.192  0.00  0.00    -0.027 A 
HETATM    7  C   UNK     0       3.266   2.114  24.307  0.00  0.00     0.115 C 
HETATM    8  C   UNK     0       4.244   3.230  23.985  0.00  0.00     0.021 A 
HETATM    9  N   UNK     0       4.123   4.544  24.228  0.00  0.00    -0.361 N 
HETATM   10  C   UNK     0       5.190   5.171  23.688  0.00  0.00     0.022 A 
HETATM   11  C   UNK     0       6.026   4.233  23.089  0.00  0.00    -0.027 A 
HETATM   12  C   UNK     0       5.436   3.008  23.273  0.00  0.00    -0.031 A 
HETATM   13  C   UNK     0       5.995   1.688  22.791  0.00  0.00     0.051 C 
HETATM   14  C   UNK     0       5.436   6.677  23.668  0.00  0.00     0.115 C 
HETATM   15  C   UNK     0       4.365   7.466  22.933  0.00  0.00     0.021 A 
HETATM   16  N   UNK     0       3.046   7.507  23.199  0.00  0.00    -0.361 N 
HETATM   17  C   UNK     0       2.436   8.260  22.281  0.00  0.00     0.022 A 
HETATM   18  C   UNK     0       3.406   8.741  21.379  0.00  0.00    -0.027 A 
HETATM   19  C   UNK     0       4.610   8.238  21.799  0.00  0.00    -0.031 A 
HETATM   20  C   UNK     0       5.934   8.542  21.122  0.00  0.00     0.051 C 
HETATM   21  C   UNK     0       0.967   8.562  22.091  0.00  0.00     0.115 C 
HETATM   22  C   UNK     0      -0.020   7.475  22.450  0.00  0.00     0.022 A 
HETATM   23  N   UNK     0       0.077   6.159  22.224  0.00  0.00    -0.361 N 
HETATM   24  C   UNK     0      -0.956   5.547  22.838  0.00  0.00     0.021 A 
HETATM   25  C   UNK     0      -1.743   6.494  23.465  0.00  0.00    -0.031 A 
HETATM   26  C   UNK     0      -3.027   6.301  24.245  0.00  0.00     0.051 C 
HETATM   27  C   UNK     0      -1.164   7.736  23.231  0.00  0.00    -0.027 A 
HETATM   28  C   UNK     0      -1.224   4.055  22.943  0.00  0.00     0.115 C 
HETATM   29  H   UNK     0       1.604   3.539  22.297  0.00  0.00     0.165 HD
HETATM   30  H   UNK     0       3.310   5.028  24.824  0.00  0.00     0.165 HD
HETATM   31  H   UNK     0       2.541   7.034  24.081  0.00  0.00     0.165 HD
HETATM   32  H   UNK     0       0.852   5.652  21.592  0.00  0.00     0.165 HD
ENDROOT
BRANCH   6  33
HETATM   33  C   UNK     0       1.131   1.292  26.455  0.00  0.00     0.051 C 
BRANCH  33  34
HETATM   34  C   UNK     0       0.995  -0.188  26.186  0.00  0.00     0.114 C 
BRANCH  34  35
HETATM   35  C   UNK     0       0.671  -0.850  27.483  0.00  0.00     0.139 C 
HETATM   36  O   UNK     0      -0.404  -1.504  27.613  0.00  0.00    -0.650 OA
BRANCH  35  37
HETATM   37  O   UNK     0       1.512  -0.786  28.587  0.00  0.00    -0.776 OA
HETATM   38  H   UNK     0       1.409  -0.081  29.298  0.00  0.00     0.167 HD
ENDBRANCH  35  37
ENDBRANCH  34  35
ENDBRANCH  33  34
ENDBRANCH   6  33
BRANCH  27  39
HETATM   39  C   UNK     0      -1.771   9.013  23.694  0.00  0.00     0.051 C 
BRANCH  39  40
HETATM   40  C   UNK     0      -1.558   9.420  25.082  0.00  0.00     0.114 C 
BRANCH  40  41
HETATM   41  C   UNK     0      -0.374   9.045  25.822  0.00  0.00     0.139 C 
HETATM   42  O   UNK     0      -0.396   8.318  26.824  0.00  0.00    -0.650 OA
BRANCH  41  43
HETATM   43  O   UNK     0       0.893   9.529  25.390  0.00  0.00    -0.776 OA
HETATM   44  H   UNK     0       1.252   9.079  24.557  0.00  0.00     0.167 HD
ENDBRANCH  41  43
ENDBRANCH  40  41
ENDBRANCH  39  40
ENDBRANCH  27  39
BRANCH  11  45
HETATM   45  C   UNK     0       7.330   4.456  22.372  0.00  0.00     0.051 C 
BRANCH  45  46
HETATM   46  C   UNK     0       8.468   4.782  23.269  0.00  0.00     0.114 C 
BRANCH  46  47
HETATM   47  C   UNK     0       9.223   5.901  22.637  0.00  0.00     0.139 C 
HETATM   48  O   UNK     0       9.091   7.042  23.102  0.00  0.00    -0.650 OA
BRANCH  47  49
HETATM   49  O   UNK     0      10.046   5.674  21.563  0.00  0.00    -0.776 OA
HETATM   50  H   UNK     0      10.064   4.774  21.069  0.00  0.00     0.167 HD
ENDBRANCH  47  49
ENDBRANCH  46  47
ENDBRANCH  45  46
ENDBRANCH  11  45
BRANCH  18  51
HETATM   51  C   UNK     0       3.199   9.648  20.194  0.00  0.00     0.051 C 
BRANCH  51  52
HETATM   52  C   UNK     0       3.256  11.070  20.731  0.00  0.00     0.114 C 
BRANCH  52  53
HETATM   53  C   UNK     0       4.424  11.808  20.210  0.00  0.00     0.139 C 
HETATM   54  O   UNK     0       5.025  11.391  19.207  0.00  0.00    -0.650 OA
BRANCH  53  55
HETATM   55  O   UNK     0       4.841  12.953  20.843  0.00  0.00    -0.776 OA
HETATM   56  H   UNK     0       5.696  13.431  20.681  0.00  0.00     0.167 HD
ENDBRANCH  53  55
ENDBRANCH  52  53
ENDBRANCH  51  52
ENDBRANCH  18  51
TORSDOF 16
ENDMDL
MODEL 8
REMARK VINA RESULT:      -9.6      2.973      9.875
REMARK  16 active torsions:
REMARK  status: ('A' for Active; 'I' for Inactive)
REMARK    1  A    between atoms: C_6  and  C_7 
REMARK    2  A    between atoms: C_7  and  C_8 
REMARK    3  A    between atoms: C_8  and  C_9 
REMARK    4  A    between atoms: C_9  and  O_11 
REMARK    5  A    between atoms: C_16  and  C_17 
REMARK    6  A    between atoms: C_17  and  C_18 
REMARK    7  A    between atoms: C_18  and  C_19 
REMARK    8  A    between atoms: C_19  and  O_21 
REMARK    9  A    between atoms: C_28  and  C_29 
REMARK   10  A    between atoms: C_29  and  C_30 
REMARK   11  A    between atoms: C_30  and  C_31 
REMARK   12  A    between atoms: C_31  and  O_33 
REMARK   13  A    between atoms: C_42  and  C_43 
REMARK   14  A    between atoms: C_43  and  C_44 
REMARK   15  A    between atoms: C_44  and  C_45 
REMARK   16  A    between atoms: C_45  and  O_47 
ROOT
HETATM    1  C   UNK     0       2.700  11.438  22.326  0.00  0.00     0.051 C 
HETATM    2  C   UNK     0       3.315  10.201  22.950  0.00  0.00    -0.031 A 
HETATM    3  C   UNK     0       2.927   9.500  24.080  0.00  0.00     0.021 A 
HETATM    4  N   UNK     0       3.789   8.476  24.283  0.00  0.00    -0.361 N 
HETATM    5  C   UNK     0       4.713   8.504  23.301  0.00  0.00     0.022 A 
HETATM    6  C   UNK     0       4.448   9.572  22.451  0.00  0.00    -0.027 A 
HETATM    7  C   UNK     0       5.825   7.543  23.012  0.00  0.00     0.115 C 
HETATM    8  C   UNK     0       5.499   6.066  23.137  0.00  0.00     0.021 A 
HETATM    9  N   UNK     0       4.353   5.434  22.837  0.00  0.00    -0.361 N 
HETATM   10  C   UNK     0       4.483   4.139  23.194  0.00  0.00     0.022 A 
HETATM   11  C   UNK     0       5.750   3.928  23.729  0.00  0.00    -0.027 A 
HETATM   12  C   UNK     0       6.395   5.138  23.696  0.00  0.00    -0.031 A 
HETATM   13  C   UNK     0       7.808   5.388  24.174  0.00  0.00     0.051 C 
HETATM   14  C   UNK     0       3.404   3.064  23.094  0.00  0.00     0.115 C 
HETATM   15  C   UNK     0       2.161   3.360  23.918  0.00  0.00     0.021 A 
HETATM   16  N   UNK     0       1.351   4.432  23.827  0.00  0.00    -0.361 N 
HETATM   17  C   UNK     0       0.413   4.354  24.773  0.00  0.00     0.022 A 
HETATM   18  C   UNK     0       0.615   3.170  25.510  0.00  0.00    -0.027 A 
HETATM   19  C   UNK     0       1.712   2.556  24.963  0.00  0.00    -0.031 A 
HETATM   20  C   UNK     0       2.257   1.222  25.440  0.00  0.00     0.051 C 
HETATM   21  C   UNK     0      -0.682   5.330  25.139  0.00  0.00     0.115 C 
HETATM   22  C   UNK     0      -0.386   6.803  24.978  0.00  0.00     0.022 A 
HETATM   23  N   UNK     0       0.747   7.458  25.264  0.00  0.00    -0.361 N 
HETATM   24  C   UNK     0       0.623   8.728  24.829  0.00  0.00     0.021 A 
HETATM   25  C   UNK     0      -0.624   8.898  24.258  0.00  0.00    -0.031 A 
HETATM   26  C   UNK     0      -1.240  10.149  23.669  0.00  0.00     0.051 C 
HETATM   27  C   UNK     0      -1.288   7.679  24.342  0.00  0.00    -0.027 A 
HETATM   28  C   UNK     0       1.675   9.823  24.846  0.00  0.00     0.115 C 
HETATM   29  H   UNK     0       3.762   7.764  25.140  0.00  0.00     0.165 HD
HETATM   30  H   UNK     0       3.468   5.889  22.327  0.00  0.00     0.165 HD
HETATM   31  H   UNK     0       1.414   5.237  23.049  0.00  0.00     0.165 HD
HETATM   32  H   UNK     0       1.629   7.041  25.816  0.00  0.00     0.165 HD
ENDROOT
BRANCH   6  33
HETATM   33  C   UNK     0       5.182  10.036  21.218  0.00  0.00     0.051 C 
BRANCH  33  34
HETATM   34  C   UNK     0       4.609   9.390  19.979  0.00  0.00     0.114 C 
BRANCH  34  35
HETATM   35  C   UNK     0       5.731   9.196  19.017  0.00  0.00     0.139 C 
HETATM   36  O   UNK     0       5.794   9.893  17.962  0.00  0.00    -0.650 OA
BRANCH  35  37
HETATM   37  O   UNK     0       6.743   8.267  19.223  0.00  0.00    -0.776 OA
HETATM   38  H   UNK     0       7.692   8.434  18.928  0.00  0.00     0.167 HD
ENDBRANCH  35  37
ENDBRANCH  34  35
ENDBRANCH  33  34
ENDBRANCH   6  33
BRANCH  27  39
HETATM   39  C   UNK     0      -2.694   7.490  23.891  0.00  0.00     0.051 C 
BRANCH  39  40
HETATM   40  C   UNK     0      -2.927   6.973  22.543  0.00  0.00     0.114 C 
BRANCH  40  41
HETATM   41  C   UNK     0      -3.417   7.810  21.471  0.00  0.00     0.139 C 
HETATM   42  O   UNK     0      -2.686   8.523  20.771  0.00  0.00    -0.650 OA
BRANCH  41  43
HETATM   43  O   UNK     0      -4.813   7.828  21.192  0.00  0.00    -0.776 OA
HETATM   44  H   UNK     0      -5.230   8.751  21.198  0.00  0.00     0.167 HD
ENDBRANCH  41  43
ENDBRANCH  40  41
ENDBRANCH  39  40
ENDBRANCH  27  39
BRANCH  11  45
HETATM   45  C   UNK     0       6.350   2.651  24.253  0.00  0.00     0.051 C 
BRANCH  45  46
HETATM   46  C   UNK     0       6.358   1.537  23.271  0.00  0.00     0.114 C 
BRANCH  46  47
HETATM   47  C   UNK     0       5.927   0.307  23.995  0.00  0.00     0.139 C 
HETATM   48  O   UNK     0       4.930  -0.303  23.584  0.00  0.00    -0.650 OA
BRANCH  47  49
HETATM   49  O   UNK     0       6.617  -0.140  25.093  0.00  0.00    -0.776 OA
HETATM   50  H   UNK     0       6.188  -0.756  25.793  0.00  0.00     0.167 HD
ENDBRANCH  47  49
ENDBRANCH  46  47
ENDBRANCH  45  46
ENDBRANCH  11  45
BRANCH  18  51
HETATM   51  C   UNK     0      -0.205   2.642  26.658  0.00  0.00     0.051 C 
BRANCH  51  52
HETATM   52  C   UNK     0       0.262   3.391  27.896  0.00  0.00     0.114 C 
BRANCH  52  53
HETATM   53  C   UNK     0       1.194   2.585  28.708  0.00  0.00     0.139 C 
HETATM   54  O   UNK     0       0.993   1.370  28.861  0.00  0.00    -0.650 OA
BRANCH  53  55
HETATM   55  O   UNK     0       2.280   3.187  29.295  0.00  0.00    -0.776 OA
HETATM   56  H   UNK     0       3.201   2.819  29.335  0.00  0.00     0.167 HD
ENDBRANCH  53  55
ENDBRANCH  52  53
ENDBRANCH  51  52
ENDBRANCH  18  51
TORSDOF 16
ENDMDL
MODEL 9
REMARK VINA RESULT:      -9.5      3.404      8.164
REMARK  16 active torsions:
REMARK  status: ('A' for Active; 'I' for Inactive)
REMARK    1  A    between atoms: C_6  and  C_7 
REMARK    2  A    between atoms: C_7  and  C_8 
REMARK    3  A    between atoms: C_8  and  C_9 
REMARK    4  A    between atoms: C_9  and  O_11 
REMARK    5  A    between atoms: C_16  and  C_17 
REMARK    6  A    between atoms: C_17  and  C_18 
REMARK    7  A    between atoms: C_18  and  C_19 
REMARK    8  A    between atoms: C_19  and  O_21 
REMARK    9  A    between atoms: C_28  and  C_29 
REMARK   10  A    between atoms: C_29  and  C_30 
REMARK   11  A    between atoms: C_30  and  C_31 
REMARK   12  A    between atoms: C_31  and  O_33 
REMARK   13  A    between atoms: C_42  and  C_43 
REMARK   14  A    between atoms: C_43  and  C_44 
REMARK   15  A    between atoms: C_44  and  C_45 
REMARK   16  A    between atoms: C_45  and  O_47 
ROOT
HETATM    1  C   UNK     0       5.938   1.828  24.252  0.00  0.00     0.051 C 
HETATM    2  C   UNK     0       5.361   3.122  23.716  0.00  0.00    -0.031 A 
HETATM    3  C   UNK     0       4.134   3.357  23.117  0.00  0.00     0.021 A 
HETATM    4  N   UNK     0       4.056   4.663  22.766  0.00  0.00    -0.361 N 
HETATM    5  C   UNK     0       5.204   5.267  23.136  0.00  0.00     0.022 A 
HETATM    6  C   UNK     0       6.044   4.332  23.732  0.00  0.00    -0.027 A 
HETATM    7  C   UNK     0       5.586   6.712  23.062  0.00  0.00     0.115 C 
HETATM    8  C   UNK     0       4.522   7.720  23.461  0.00  0.00     0.021 A 
HETATM    9  N   UNK     0       3.587   7.614  24.418  0.00  0.00    -0.361 N 
HETATM   10  C   UNK     0       2.799   8.708  24.357  0.00  0.00     0.022 A 
HETATM   11  C   UNK     0       3.244   9.546  23.338  0.00  0.00    -0.027 A 
HETATM   12  C   UNK     0       4.329   8.929  22.770  0.00  0.00    -0.031 A 
HETATM   13  C   UNK     0       5.145   9.479  21.621  0.00  0.00     0.051 C 
HETATM   14  C   UNK     0       1.568   8.982  25.216  0.00  0.00     0.115 C 
HETATM   15  C   UNK     0       0.464   7.948  25.058  0.00  0.00     0.021 A 
HETATM   16  N   UNK     0       0.542   6.622  25.279  0.00  0.00    -0.361 N 
HETATM   17  C   UNK     0      -0.622   6.055  24.957  0.00  0.00     0.022 A 
HETATM   18  C   UNK     0      -1.505   7.060  24.515  0.00  0.00    -0.027 A 
HETATM   19  C   UNK     0      -0.813   8.242  24.584  0.00  0.00    -0.031 A 
HETATM   20  C   UNK     0      -1.409   9.591  24.229  0.00  0.00     0.051 C 
HETATM   21  C   UNK     0      -1.025   4.598  24.955  0.00  0.00     0.115 C 
HETATM   22  C   UNK     0       0.035   3.581  24.603  0.00  0.00     0.022 A 
HETATM   23  N   UNK     0       0.981   3.662  23.658  0.00  0.00    -0.361 N 
HETATM   24  C   UNK     0       1.801   2.599  23.788  0.00  0.00     0.021 A 
HETATM   25  C   UNK     0       1.367   1.811  24.836  0.00  0.00    -0.031 A 
HETATM   26  C   UNK     0       1.933   0.499  25.340  0.00  0.00     0.051 C 
HETATM   27  C   UNK     0       0.238   2.418  25.373  0.00  0.00    -0.027 A 
HETATM   28  C   UNK     0       3.069   2.303  23.006  0.00  0.00     0.115 C 
HETATM   29  H   UNK     0       3.208   5.139  22.223  0.00  0.00     0.165 HD
HETATM   30  H   UNK     0       3.511   6.792  25.171  0.00  0.00     0.165 HD
HETATM   31  H   UNK     0       1.422   6.081  25.715  0.00  0.00     0.165 HD
HETATM   32  H   UNK     0       1.053   4.447  22.861  0.00  0.00     0.165 HD
ENDROOT
BRANCH   6  33
HETATM   33  C   UNK     0       7.429   4.497  24.304  0.00  0.00     0.051 C 
BRANCH  33  34
HETATM   34  C   UNK     0       8.465   4.509  23.205  0.00  0.00     0.114 C 
BRANCH  34  35
HETATM   35  C   UNK     0       9.238   5.778  23.334  0.00  0.00     0.139 C 
HETATM   36  O   UNK     0       8.975   6.592  24.266  0.00  0.00    -0.650 OA
BRANCH  35  37
HETATM   37  O   UNK     0      10.263   6.122  22.461  0.00  0.00    -0.776 OA
HETATM   38  H   UNK     0      11.216   6.228  22.771  0.00  0.00     0.167 HD
ENDBRANCH  35  37
ENDBRANCH  34  35
ENDBRANCH  33  34
ENDBRANCH   6  33
BRANCH  27  39
HETATM   39  C   UNK     0      -0.556   1.820  26.480  0.00  0.00     0.051 C 
BRANCH  39  40
HETATM   40  C   UNK     0      -0.155   2.109  27.857  0.00  0.00     0.114 C 
BRANCH  40  41
HETATM   41  C   UNK     0       0.700   3.226  28.191  0.00  0.00     0.139 C 
HETATM   42  O   UNK     0       0.295   4.392  28.291  0.00  0.00    -0.650 OA
BRANCH  41  43
HETATM   43  O   UNK     0       2.086   2.991  28.422  0.00  0.00    -0.776 OA
HETATM   44  H   UNK     0       2.305   2.054  28.738  0.00  0.00     0.167 HD
ENDBRANCH  41  43
ENDBRANCH  40  41
ENDBRANCH  39  40
ENDBRANCH  27  39
BRANCH  11  45
HETATM   45  C   UNK     0       2.689  10.876  22.903  0.00  0.00     0.051 C 
BRANCH  45  46
HETATM   46  C   UNK     0       1.689  10.786  21.808  0.00  0.00     0.114 C 
BRANCH  46  47
HETATM   47  C   UNK     0       0.889  12.044  21.836  0.00  0.00     0.139 C 
HETATM   48  O   UNK     0      -0.342  11.965  21.724  0.00  0.00    -0.650 OA
BRANCH  47  49
HETATM   49  O   UNK     0       1.502  13.263  21.982  0.00  0.00    -0.776 OA
HETATM   50  H   UNK     0       1.054  14.042  22.478  0.00  0.00     0.167 HD
ENDBRANCH  47  49
ENDBRANCH  46  47
ENDBRANCH  45  46
ENDBRANCH  11  45
BRANCH  18  51
HETATM   51  C   UNK     0      -2.936   6.907  24.071  0.00  0.00     0.051 C 
BRANCH  51  52
HETATM   52  C   UNK     0      -2.886   6.390  22.641  0.00  0.00     0.114 C 
BRANCH  52  53
HETATM   53  C   UNK     0      -2.942   7.489  21.657  0.00  0.00     0.139 C 
HETATM   54  O   UNK     0      -3.893   8.286  21.670  0.00  0.00    -0.650 OA
BRANCH  53  55
HETATM   55  O   UNK     0      -1.940   7.620  20.727  0.00  0.00    -0.776 OA
HETATM   56  H   UNK     0      -1.007   7.905  20.910  0.00  0.00     0.167 HD
ENDBRANCH  53  55
ENDBRANCH  52  53
ENDBRANCH  51  52
ENDBRANCH  18  51
TORSDOF 16
ENDMDL
MODEL 10
REMARK VINA RESULT:      -9.3      4.518      8.066
REMARK  16 active torsions:
REMARK  status: ('A' for Active; 'I' for Inactive)
REMARK    1  A    between atoms: C_6  and  C_7 
REMARK    2  A    between atoms: C_7  and  C_8 
REMARK    3  A    between atoms: C_8  and  C_9 
REMARK    4  A    between atoms: C_9  and  O_11 
REMARK    5  A    between atoms: C_16  and  C_17 
REMARK    6  A    between atoms: C_17  and  C_18 
REMARK    7  A    between atoms: C_18  and  C_19 
REMARK    8  A    between atoms: C_19  and  O_21 
REMARK    9  A    between atoms: C_28  and  C_29 
REMARK   10  A    between atoms: C_29  and  C_30 
REMARK   11  A    between atoms: C_30  and  C_31 
REMARK   12  A    between atoms: C_31  and  O_33 
REMARK   13  A    between atoms: C_42  and  C_43 
REMARK   14  A    between atoms: C_43  and  C_44 
REMARK   15  A    between atoms: C_44  and  C_45 
REMARK   16  A    between atoms: C_45  and  O_47 
ROOT
HETATM    1  C   UNK     0      -2.017  -0.714  23.639  0.00  0.00     0.051 C 
HETATM    2  C   UNK     0      -2.071   0.780  23.886  0.00  0.00    -0.031 A 
HETATM    3  C   UNK     0      -1.193   1.588  24.589  0.00  0.00     0.021 A 
HETATM    4  N   UNK     0      -1.656   2.860  24.576  0.00  0.00    -0.361 N 
HETATM    5  C   UNK     0      -2.807   2.882  23.872  0.00  0.00     0.022 A 
HETATM    6  C   UNK     0      -3.098   1.596  23.428  0.00  0.00    -0.027 A 
HETATM    7  C   UNK     0      -3.664   4.046  23.483  0.00  0.00     0.115 C 
HETATM    8  C   UNK     0      -2.942   5.293  23.002  0.00  0.00     0.021 A 
HETATM    9  N   UNK     0      -1.816   5.380  22.277  0.00  0.00    -0.361 N 
HETATM   10  C   UNK     0      -1.491   6.685  22.163  0.00  0.00     0.022 A 
HETATM   11  C   UNK     0      -2.438   7.460  22.825  0.00  0.00    -0.027 A 
HETATM   12  C   UNK     0      -3.355   6.589  23.356  0.00  0.00    -0.031 A 
HETATM   13  C   UNK     0      -4.572   6.986  24.161  0.00  0.00     0.051 C 
HETATM   14  C   UNK     0      -0.251   7.247  21.473  0.00  0.00     0.115 C 
HETATM   15  C   UNK     0       1.059   6.782  22.087  0.00  0.00     0.021 A 
HETATM   16  N   UNK     0       1.496   5.516  22.229  0.00  0.00    -0.361 N 
HETATM   17  C   UNK     0       2.662   5.525  22.879  0.00  0.00     0.022 A 
HETATM   18  C   UNK     0       3.006   6.861  23.166  0.00  0.00    -0.027 A 
HETATM   19  C   UNK     0       1.995   7.638  22.663  0.00  0.00    -0.031 A 
HETATM   20  C   UNK     0       1.985   9.155  22.726  0.00  0.00     0.051 C 
HETATM   21  C   UNK     0       3.522   4.373  23.347  0.00  0.00     0.115 C 
HETATM   22  C   UNK     0       2.819   3.111  23.787  0.00  0.00     0.022 A 
HETATM   23  N   UNK     0       1.695   2.995  24.506  0.00  0.00    -0.361 N 
HETATM   24  C   UNK     0       1.348   1.692  24.541  0.00  0.00     0.021 A 
HETATM   25  C   UNK     0       2.276   0.951  23.835  0.00  0.00    -0.031 A 
HETATM   26  C   UNK     0       2.338  -0.548  23.625  0.00  0.00     0.051 C 
HETATM   27  C   UNK     0       3.227   1.837  23.343  0.00  0.00    -0.027 A 
HETATM   28  C   UNK     0       0.102   1.079  25.157  0.00  0.00     0.115 C 
HETATM   29  H   UNK     0      -1.188   3.727  25.098  0.00  0.00     0.165 HD
HETATM   30  H   UNK     0      -1.276   4.525  21.801  0.00  0.00     0.165 HD
HETATM   31  H   UNK     0       0.995   4.600  21.820  0.00  0.00     0.165 HD
HETATM   32  H   UNK     0       1.160   3.827  25.034  0.00  0.00     0.165 HD
ENDROOT
BRANCH   6  33
HETATM   33  C   UNK     0      -4.262   1.091  22.614  0.00  0.00     0.051 C 
BRANCH  33  34
HETATM   34  C   UNK     0      -4.500   1.975  21.413  0.00  0.00     0.114 C 
BRANCH  34  35
HETATM   35  C   UNK     0      -5.730   1.481  20.731  0.00  0.00     0.139 C 
HETATM   36  O   UNK     0      -5.668   1.039  19.547  0.00  0.00    -0.650 OA
BRANCH  35  37
HETATM   37  O   UNK     0      -6.977   1.476  21.345  0.00  0.00    -0.776 OA
HETATM   38  H   UNK     0      -7.770   1.006  20.940  0.00  0.00     0.167 HD
ENDBRANCH  35  37
ENDBRANCH  34  35
ENDBRANCH  33  34
ENDBRANCH   6  33
BRANCH  27  39
HETATM   39  C   UNK     0       4.431   1.396  22.587  0.00  0.00     0.051 C 
BRANCH  39  40
HETATM   40  C   UNK     0       5.731   1.456  23.255  0.00  0.00     0.114 C 
BRANCH  40  41
HETATM   41  C   UNK     0       6.506   2.674  23.325  0.00  0.00     0.139 C 
HETATM   42  O   UNK     0       6.769   3.257  24.385  0.00  0.00    -0.650 OA
BRANCH  41  43
HETATM   43  O   UNK     0       7.001   3.248  22.119  0.00  0.00    -0.776 OA
HETATM   44  H   UNK     0       7.943   2.967  21.877  0.00  0.00     0.167 HD
ENDBRANCH  41  43
ENDBRANCH  40  41
ENDBRANCH  39  40
ENDBRANCH  27  39
BRANCH  11  45
HETATM   45  C   UNK     0      -2.499   8.958  22.963  0.00  0.00     0.051 C 
BRANCH  45  46
HETATM   46  C   UNK     0      -1.272   9.564  23.541  0.00  0.00     0.114 C 
BRANCH  46  47
HETATM   47  C   UNK     0      -1.330   9.357  25.016  0.00  0.00     0.139 C 
HETATM   48  O   UNK     0      -0.825   8.330  25.491  0.00  0.00    -0.650 OA
BRANCH  47  49
HETATM   49  O   UNK     0      -1.929  10.283  25.833  0.00  0.00    -0.776 OA
HETATM   50  H   UNK     0      -1.390  10.865  26.484  0.00  0.00     0.167 HD
ENDBRANCH  47  49
ENDBRANCH  46  47
ENDBRANCH  45  46
ENDBRANCH  11  45
BRANCH  18  51
HETATM   51  C   UNK     0       4.242   7.370  23.862  0.00  0.00     0.051 C 
BRANCH  51  52
HETATM   52  C   UNK     0       5.297   7.550  22.780  0.00  0.00     0.114 C 
BRANCH  52  53
HETATM   53  C   UNK     0       6.431   6.623  22.960  0.00  0.00     0.139 C 
HETATM   54  O   UNK     0       7.077   6.233  21.974  0.00  0.00    -0.650 OA
BRANCH  53  55
HETATM   55  O   UNK     0       6.763   6.192  24.221  0.00  0.00    -0.776 OA
HETATM   56  H   UNK     0       6.720   6.733  25.053  0.00  0.00     0.167 HD
ENDBRANCH  53  55
ENDBRANCH  52  53
ENDBRANCH  51  52
ENDBRANCH  18  51
TORSDOF 16
ENDMDL
MODEL 11
REMARK VINA RESULT:      -9.3      2.467      8.073
REMARK  16 active torsions:
REMARK  status: ('A' for Active; 'I' for Inactive)
REMARK    1  A    between atoms: C_6  and  C_7 
REMARK    2  A    between atoms: C_7  and  C_8 
REMARK    3  A    between atoms: C_8  and  C_9 
REMARK    4  A    between atoms: C_9  and  O_11 
REMARK    5  A    between atoms: C_16  and  C_17 
REMARK    6  A    between atoms: C_17  and  C_18 
REMARK    7  A    between atoms: C_18  and  C_19 
REMARK    8  A    between atoms: C_19  and  O_21 
REMARK    9  A    between atoms: C_28  and  C_29 
REMARK   10  A    between atoms: C_29  and  C_30 
REMARK   11  A    between atoms: C_30  and  C_31 
REMARK   12  A    between atoms: C_31  and  O_33 
REMARK   13  A    between atoms: C_42  and  C_43 
REMARK   14  A    between atoms: C_43  and  C_44 
REMARK   15  A    between atoms: C_44  and  C_45 
REMARK   16  A    between atoms: C_45  and  O_47 
ROOT
HETATM    1  C   UNK     0       5.001  12.024  21.181  0.00  0.00     0.051 C 
HETATM    2  C   UNK     0       4.133  10.783  21.143  0.00  0.00    -0.031 A 
HETATM    3  C   UNK     0       4.438   9.509  20.691  0.00  0.00     0.021 A 
HETATM    4  N   UNK     0       3.345   8.720  20.819  0.00  0.00    -0.361 N 
HETATM    5  C   UNK     0       2.352   9.462  21.352  0.00  0.00     0.022 A 
HETATM    6  C   UNK     0       2.810  10.758  21.565  0.00  0.00    -0.027 A 
HETATM    7  C   UNK     0       0.978   9.047  21.779  0.00  0.00     0.115 C 
HETATM    8  C   UNK     0       0.866   7.731  22.528  0.00  0.00     0.021 A 
HETATM    9  N   UNK     0       1.724   7.193  23.408  0.00  0.00    -0.361 N 
HETATM   10  C   UNK     0       1.264   5.971  23.750  0.00  0.00     0.022 A 
HETATM   11  C   UNK     0       0.071   5.718  23.079  0.00  0.00    -0.027 A 
HETATM   12  C   UNK     0      -0.186   6.823  22.307  0.00  0.00    -0.031 A 
HETATM   13  C   UNK     0      -1.387   6.999  21.405  0.00  0.00     0.051 C 
HETATM   14  C   UNK     0       1.954   4.975  24.678  0.00  0.00     0.115 C 
HETATM   15  C   UNK     0       3.324   4.528  24.192  0.00  0.00     0.021 A 
HETATM   16  N   UNK     0       4.396   5.301  23.935  0.00  0.00    -0.361 N 
HETATM   17  C   UNK     0       5.383   4.537  23.461  0.00  0.00     0.022 A 
HETATM   18  C   UNK     0       4.935   3.201  23.417  0.00  0.00    -0.027 A 
HETATM   19  C   UNK     0       3.645   3.209  23.879  0.00  0.00    -0.031 A 
HETATM   20  C   UNK     0       2.795   1.961  24.031  0.00  0.00     0.051 C 
HETATM   21  C   UNK     0       6.755   4.924  22.958  0.00  0.00     0.115 C 
HETATM   22  C   UNK     0       6.890   6.251  22.250  0.00  0.00     0.022 A 
HETATM   23  N   UNK     0       6.049   6.813  21.372  0.00  0.00    -0.361 N 
HETATM   24  C   UNK     0       6.487   8.060  21.106  0.00  0.00     0.021 A 
HETATM   25  C   UNK     0       7.643   8.304  21.821  0.00  0.00    -0.031 A 
HETATM   26  C   UNK     0       8.521   9.538  21.823  0.00  0.00     0.051 C 
HETATM   27  C   UNK     0       7.922   7.160  22.561  0.00  0.00    -0.027 A 
HETATM   28  C   UNK     0       5.817   9.115  20.242  0.00  0.00     0.115 C 
HETATM   29  H   UNK     0       3.271   7.656  20.496  0.00  0.00     0.165 HD
HETATM   30  H   UNK     0       2.631   7.694  23.828  0.00  0.00     0.165 HD
HETATM   31  H   UNK     0       4.475   6.401  24.136  0.00  0.00     0.165 HD
HETATM   32  H   UNK     0       5.161   6.318  20.899  0.00  0.00     0.165 HD
ENDROOT
BRANCH   6  33
HETATM   33  C   UNK     0       2.094  11.959  22.129  0.00  0.00     0.051 C 
BRANCH  33  34
HETATM   34  C   UNK     0       1.461  12.772  21.024  0.00  0.00     0.114 C 
BRANCH  34  35
HETATM   35  C   UNK     0       2.145  14.096  20.996  0.00  0.00     0.139 C 
HETATM   36  O   UNK     0       2.719  14.539  22.033  0.00  0.00    -0.650 OA
BRANCH  35  37
HETATM   37  O   UNK     0       2.190  14.893  19.858  0.00  0.00    -0.776 OA
HETATM   38  H   UNK     0       2.982  15.477  19.645  0.00  0.00     0.167 HD
ENDBRANCH  35  37
ENDBRANCH  34  35
ENDBRANCH  33  34
ENDBRANCH   6  33
BRANCH  27  39
HETATM   39  C   UNK     0       9.138   7.018  23.407  0.00  0.00     0.051 C 
BRANCH  39  40
HETATM   40  C   UNK     0      10.303   6.339  22.840  0.00  0.00     0.114 C 
BRANCH  40  41
HETATM   41  C   UNK     0      10.940   6.789  21.623  0.00  0.00     0.139 C 
HETATM   42  O   UNK     0      10.821   6.211  20.534  0.00  0.00    -0.650 OA
BRANCH  41  43
HETATM   43  O   UNK     0      11.752   7.958  21.660  0.00  0.00    -0.776 OA
HETATM   44  H   UNK     0      12.473   7.990  20.948  0.00  0.00     0.167 HD
ENDBRANCH  41  43
ENDBRANCH  40  41
ENDBRANCH  39  40
ENDBRANCH  27  39
BRANCH  11  45
HETATM   45  C   UNK     0      -0.808   4.499  23.147  0.00  0.00     0.051 C 
BRANCH  45  46
HETATM   46  C   UNK     0      -1.741   4.488  24.303  0.00  0.00     0.114 C 
BRANCH  46  47
HETATM   47  C   UNK     0      -2.376   3.140  24.345  0.00  0.00     0.139 C 
HETATM   48  O   UNK     0      -1.656   2.151  24.541  0.00  0.00    -0.650 OA
BRANCH  47  49
HETATM   49  O   UNK     0      -3.729   2.995  24.169  0.00  0.00    -0.776 OA
HETATM   50  H   UNK     0      -4.289   2.355  24.746  0.00  0.00     0.167 HD
ENDBRANCH  47  49
ENDBRANCH  46  47
ENDBRANCH  45  46
ENDBRANCH  11  45
BRANCH  18  51
HETATM   51  C   UNK     0       5.703   1.981  22.978  0.00  0.00     0.051 C 
BRANCH  51  52
HETATM   52  C   UNK     0       6.494   1.516  24.192  0.00  0.00     0.114 C 
BRANCH  52  53
HETATM   53  C   UNK     0       6.260   0.089  24.487  0.00  0.00     0.139 C 
HETATM   54  O   UNK     0       7.076  -0.545  25.175  0.00  0.00    -0.650 OA
BRANCH  53  55
HETATM   55  O   UNK     0       5.140  -0.532  23.992  0.00  0.00    -0.776 OA
HETATM   56  H   UNK     0       4.523  -0.165  23.305  0.00  0.00     0.167 HD
ENDBRANCH  53  55
ENDBRANCH  52  53
ENDBRANCH  51  52
ENDBRANCH  18  51
TORSDOF 16
ENDMDL
MODEL 12
REMARK VINA RESULT:      -8.6      3.259      7.951
REMARK  16 active torsions:
REMARK  status: ('A' for Active; 'I' for Inactive)
REMARK    1  A    between atoms: C_6  and  C_7 
REMARK    2  A    between atoms: C_7  and  C_8 
REMARK    3  A    between atoms: C_8  and  C_9 
REMARK    4  A    between atoms: C_9  and  O_11 
REMARK    5  A    between atoms: C_16  and  C_17 
REMARK    6  A    between atoms: C_17  and  C_18 
REMARK    7  A    between atoms: C_18  and  C_19 
REMARK    8  A    between atoms: C_19  and  O_21 
REMARK    9  A    between atoms: C_28  and  C_29 
REMARK   10  A    between atoms: C_29  and  C_30 
REMARK   11  A    between atoms: C_30  and  C_31 
REMARK   12  A    between atoms: C_31  and  O_33 
REMARK   13  A    between atoms: C_42  and  C_43 
REMARK   14  A    between atoms: C_43  and  C_44 
REMARK   15  A    between atoms: C_44  and  C_45 
REMARK   16  A    between atoms: C_45  and  O_47 
ROOT
HETATM    1  C   UNK     0       6.803   2.343  24.748  0.00  0.00     0.051 C 
HETATM    2  C   UNK     0       6.450   3.549  23.902  0.00  0.00    -0.031 A 
HETATM    3  C   UNK     0       5.292   3.815  23.187  0.00  0.00     0.021 A 
HETATM    4  N   UNK     0       5.428   5.002  22.551  0.00  0.00    -0.361 N 
HETATM    5  C   UNK     0       6.644   5.504  22.852  0.00  0.00     0.022 A 
HETATM    6  C   UNK     0       7.311   4.619  23.692  0.00  0.00    -0.027 A 
HETATM    7  C   UNK     0       7.247   6.823  22.483  0.00  0.00     0.115 C 
HETATM    8  C   UNK     0       6.340   8.038  22.579  0.00  0.00     0.021 A 
HETATM    9  N   UNK     0       5.372   8.290  23.473  0.00  0.00    -0.361 N 
HETATM   10  C   UNK     0       4.764   9.442  23.120  0.00  0.00     0.022 A 
HETATM   11  C   UNK     0       5.364   9.952  21.972  0.00  0.00    -0.027 A 
HETATM   12  C   UNK     0       6.358   9.072  21.626  0.00  0.00    -0.031 A 
HETATM   13  C   UNK     0       7.283   9.221  20.439  0.00  0.00     0.051 C 
HETATM   14  C   UNK     0       3.565  10.079  23.816  0.00  0.00     0.115 C 
HETATM   15  C   UNK     0       2.320   9.207  23.820  0.00  0.00     0.021 A 
HETATM   16  N   UNK     0       2.186   7.970  24.334  0.00  0.00    -0.361 N 
HETATM   17  C   UNK     0       0.957   7.518  24.072  0.00  0.00     0.022 A 
HETATM   18  C   UNK     0       0.255   8.511  23.362  0.00  0.00    -0.027 A 
HETATM   19  C   UNK     0       1.119   9.565  23.212  0.00  0.00    -0.031 A 
HETATM   20  C   UNK     0       0.750  10.869  22.528  0.00  0.00     0.051 C 
HETATM   21  C   UNK     0       0.334   6.172  24.367  0.00  0.00     0.115 C 
HETATM   22  C   UNK     0       1.234   4.960  24.319  0.00  0.00     0.022 A 
HETATM   23  N   UNK     0       2.209   4.685  23.442  0.00  0.00    -0.361 N 
HETATM   24  C   UNK     0       2.851   3.575  23.858  0.00  0.00     0.021 A 
HETATM   25  C   UNK     0       2.268   3.118  25.024  0.00  0.00    -0.031 A 
HETATM   26  C   UNK     0       2.609   1.889  25.842  0.00  0.00     0.051 C 
HETATM   27  C   UNK     0       1.231   3.988  25.339  0.00  0.00    -0.027 A 
HETATM   28  C   UNK     0       4.081   2.927  23.244  0.00  0.00     0.115 C 
HETATM   29  H   UNK     0       4.680   5.459  21.862  0.00  0.00     0.165 HD
HETATM   30  H   UNK     0       5.147   7.682  24.384  0.00  0.00     0.165 HD
HETATM   31  H   UNK     0       2.957   7.423  24.936  0.00  0.00     0.165 HD
HETATM   32  H   UNK     0       2.426   5.249  22.498  0.00  0.00     0.165 HD
ENDROOT
BRANCH   6  33
HETATM   33  C   UNK     0       8.687   4.710  24.302  0.00  0.00     0.051 C 
BRANCH  33  34
HETATM   34  C   UNK     0       8.823   5.965  25.131  0.00  0.00     0.114 C 
BRANCH  34  35
HETATM   35  C   UNK     0      10.269   6.328  25.159  0.00  0.00     0.139 C 
HETATM   36  O   UNK     0      10.900   6.513  24.077  0.00  0.00    -0.650 OA
BRANCH  35  37
HETATM   37  O   UNK     0      10.981   6.480  26.342  0.00  0.00    -0.776 OA
HETATM   38  H   UNK     0      10.532   6.738  27.206  0.00  0.00     0.167 HD
ENDBRANCH  35  37
ENDBRANCH  34  35
ENDBRANCH  33  34
ENDBRANCH   6  33
BRANCH  27  39
HETATM   39  C   UNK     0       0.322   3.780  26.498  0.00  0.00     0.051 C 
BRANCH  39  40
HETATM   40  C   UNK     0       0.744   4.272  27.809  0.00  0.00     0.114 C 
BRANCH  40  41
HETATM   41  C   UNK     0       1.192   3.384  28.858  0.00  0.00     0.139 C 
HETATM   42  O   UNK     0       2.120   3.654  29.632  0.00  0.00    -0.650 OA
BRANCH  41  43
HETATM   43  O   UNK     0       0.542   2.128  29.025  0.00  0.00    -0.776 OA
HETATM   44  H   UNK     0       1.166   1.330  29.023  0.00  0.00     0.167 HD
ENDBRANCH  41  43
ENDBRANCH  40  41
ENDBRANCH  39  40
ENDBRANCH  27  39
BRANCH  11  45
HETATM   45  C   UNK     0       5.035  11.212  21.217  0.00  0.00     0.051 C 
BRANCH  45  46
HETATM   46  C   UNK     0       3.690  11.208  20.588  0.00  0.00     0.114 C 
BRANCH  46  47
HETATM   47  C   UNK     0       3.578   9.951  19.793  0.00  0.00     0.139 C 
HETATM   48  O   UNK     0       4.369   9.771  18.856  0.00  0.00    -0.650 OA
BRANCH  47  49
HETATM   49  O   UNK     0       2.620   9.015  20.089  0.00  0.00    -0.776 OA
HETATM   50  H   UNK     0       2.293   8.854  21.049  0.00  0.00     0.167 HD
ENDBRANCH  47  49
ENDBRANCH  46  47
ENDBRANCH  45  46
ENDBRANCH  11  45
BRANCH  18  51
HETATM   51  C   UNK     0      -1.169   8.468  22.871  0.00  0.00     0.051 C 
BRANCH  51  52
HETATM   52  C   UNK     0      -1.145   7.694  21.562  0.00  0.00     0.114 C 
BRANCH  52  53
HETATM   53  C   UNK     0      -2.397   7.865  20.799  0.00  0.00     0.139 C 
HETATM   54  O   UNK     0      -2.651   8.953  20.258  0.00  0.00    -0.650 OA
BRANCH  53  55
HETATM   55  O   UNK     0      -3.279   6.817  20.696  0.00  0.00    -0.776 OA
HETATM   56  H   UNK     0      -4.021   6.741  20.041  0.00  0.00     0.167 HD
ENDBRANCH  53  55
ENDBRANCH  52  53
ENDBRANCH  51  52
ENDBRANCH  18  51
TORSDOF 16
ENDMDL
MODEL 13
REMARK VINA RESULT:      -8.6      5.685     10.675
REMARK  16 active torsions:
REMARK  status: ('A' for Active; 'I' for Inactive)
REMARK    1  A    between atoms: C_6  and  C_7 
REMARK    2  A    between atoms: C_7  and  C_8 
REMARK    3  A    between atoms: C_8  and  C_9 
REMARK    4  A    between atoms: C_9  and  O_11 
REMARK    5  A    between atoms: C_16  and  C_17 
REMARK    6  A    between atoms: C_17  and  C_18 
REMARK    7  A    between atoms: C_18  and  C_19 
REMARK    8  A    between atoms: C_19  and  O_21 
REMARK    9  A    between atoms: C_28  and  C_29 
REMARK   10  A    between atoms: C_29  and  C_30 
REMARK   11  A    between atoms: C_30  and  C_31 
REMARK   12  A    between atoms: C_31  and  O_33 
REMARK   13  A    between atoms: C_42  and  C_43 
REMARK   14  A    between atoms: C_43  and  C_44 
REMARK   15  A    between atoms: C_44  and  C_45 
REMARK   16  A    between atoms: C_45  and  O_47 
ROOT
HETATM    1  C   UNK     0       3.063   7.531  24.550  0.00  0.00     0.051 C 
HETATM    2  C   UNK     0       1.883   6.668  24.152  0.00  0.00    -0.031 A 
HETATM    3  C   UNK     0       1.826   5.618  23.249  0.00  0.00     0.021 A 
HETATM    4  N   UNK     0       0.554   5.158  23.187  0.00  0.00    -0.361 N 
HETATM    5  C   UNK     0      -0.199   5.886  24.037  0.00  0.00     0.022 A 
HETATM    6  C   UNK     0       0.600   6.842  24.655  0.00  0.00    -0.027 A 
HETATM    7  C   UNK     0      -1.639   5.723  24.411  0.00  0.00     0.115 C 
HETATM    8  C   UNK     0      -2.126   4.304  24.648  0.00  0.00     0.021 A 
HETATM    9  N   UNK     0      -1.464   3.274  25.197  0.00  0.00    -0.361 N 
HETATM   10  C   UNK     0      -2.252   2.181  25.121  0.00  0.00     0.022 A 
HETATM   11  C   UNK     0      -3.459   2.519  24.515  0.00  0.00    -0.027 A 
HETATM   12  C   UNK     0      -3.386   3.855  24.215  0.00  0.00    -0.031 A 
HETATM   13  C   UNK     0      -4.477   4.662  23.548  0.00  0.00     0.051 C 
HETATM   14  C   UNK     0      -1.881   0.769  25.566  0.00  0.00     0.115 C 
HETATM   15  C   UNK     0      -0.685   0.187  24.831  0.00  0.00     0.021 A 
HETATM   16  N   UNK     0       0.564   0.686  24.769  0.00  0.00    -0.361 N 
HETATM   17  C   UNK     0       1.304  -0.083  23.967  0.00  0.00     0.022 A 
HETATM   18  C   UNK     0       0.502  -1.138  23.491  0.00  0.00    -0.027 A 
HETATM   19  C   UNK     0      -0.741  -0.959  24.040  0.00  0.00    -0.031 A 
HETATM   20  C   UNK     0      -1.908  -1.903  23.814  0.00  0.00     0.051 C 
HETATM   21  C   UNK     0       2.737   0.083  23.513  0.00  0.00     0.115 C 
HETATM   22  C   UNK     0       3.247   1.491  23.316  0.00  0.00     0.022 A 
HETATM   23  N   UNK     0       2.609   2.538  22.776  0.00  0.00    -0.361 N 
HETATM   24  C   UNK     0       3.382   3.631  22.933  0.00  0.00     0.021 A 
HETATM   25  C   UNK     0       4.550   3.279  23.580  0.00  0.00    -0.031 A 
HETATM   26  C   UNK     0       5.738   4.146  23.942  0.00  0.00     0.051 C 
HETATM   27  C   UNK     0       4.488   1.914  23.835  0.00  0.00    -0.027 A 
HETATM   28  C   UNK     0       3.046   5.067  22.566  0.00  0.00     0.115 C 
HETATM   29  H   UNK     0       0.190   4.348  22.514  0.00  0.00     0.165 HD
HETATM   30  H   UNK     0      -0.459   3.326  25.684  0.00  0.00     0.165 HD
HETATM   31  H   UNK     0       0.945   1.572  25.341  0.00  0.00     0.165 HD
HETATM   32  H   UNK     0       1.625   2.506  22.240  0.00  0.00     0.165 HD
ENDROOT
BRANCH   6  33
HETATM   33  C   UNK     0       0.242   7.895  25.672  0.00  0.00     0.051 C 
BRANCH  33  34
HETATM   34  C   UNK     0       0.001   9.227  25.002  0.00  0.00     0.114 C 
BRANCH  34  35
HETATM   35  C   UNK     0      -1.448   9.547  25.152  0.00  0.00     0.139 C 
HETATM   36  O   UNK     0      -2.312   8.918  24.475  0.00  0.00    -0.650 OA
BRANCH  35  37
HETATM   37  O   UNK     0      -1.913  10.525  26.022  0.00  0.00    -0.776 OA
HETATM   38  H   UNK     0      -2.873  10.558  26.325  0.00  0.00     0.167 HD
ENDBRANCH  35  37
ENDBRANCH  34  35
ENDBRANCH  33  34
ENDBRANCH   6  33
BRANCH  27  39
HETATM   39  C   UNK     0       5.604   1.154  24.461  0.00  0.00     0.051 C 
BRANCH  39  40
HETATM   40  C   UNK     0       6.372   0.232  23.624  0.00  0.00     0.114 C 
BRANCH  40  41
HETATM   41  C   UNK     0       6.058  -1.176  23.541  0.00  0.00     0.139 C 
HETATM   42  O   UNK     0       6.027  -1.808  22.476  0.00  0.00    -0.650 OA
BRANCH  41  43
HETATM   43  O   UNK     0       5.768  -1.891  24.738  0.00  0.00    -0.776 OA
HETATM   44  H   UNK     0       4.889  -1.640  25.173  0.00  0.00     0.167 HD
ENDBRANCH  41  43
ENDBRANCH  40  41
ENDBRANCH  39  40
ENDBRANCH  27  39
BRANCH  11  45
HETATM   45  C   UNK     0      -4.645   1.639  24.224  0.00  0.00     0.051 C 
BRANCH  45  46
HETATM   46  C   UNK     0      -4.527   0.861  22.964  0.00  0.00     0.114 C 
BRANCH  46  47
HETATM   47  C   UNK     0      -5.496   1.444  21.992  0.00  0.00     0.139 C 
HETATM   48  O   UNK     0      -6.420   2.147  22.425  0.00  0.00    -0.650 OA
BRANCH  47  49
HETATM   49  O   UNK     0      -5.368   1.209  20.646  0.00  0.00    -0.776 OA
HETATM   50  H   UNK     0      -5.638   1.906  19.943  0.00  0.00     0.167 HD
ENDBRANCH  47  49
ENDBRANCH  46  47
ENDBRANCH  45  46
ENDBRANCH  11  45
BRANCH  18  51
HETATM   51  C   UNK     0       0.903  -2.268  22.579  0.00  0.00     0.051 C 
BRANCH  51  52
HETATM   52  C   UNK     0       1.539  -3.327  23.467  0.00  0.00     0.114 C 
BRANCH  52  53
HETATM   53  C   UNK     0       2.972  -3.511  23.164  0.00  0.00     0.139 C 
HETATM   54  O   UNK     0       3.736  -3.968  24.028  0.00  0.00    -0.650 OA
BRANCH  53  55
HETATM   55  O   UNK     0       3.453  -3.170  21.923  0.00  0.00    -0.776 OA
HETATM   56  H   UNK     0       3.707  -2.257  21.626  0.00  0.00     0.167 HD
ENDBRANCH  53  55
ENDBRANCH  52  53
ENDBRANCH  51  52
ENDBRANCH  18  51
TORSDOF 16
ENDMDL
MODEL 14
REMARK VINA RESULT:      -8.6      3.755      8.987
REMARK  16 active torsions:
REMARK  status: ('A' for Active; 'I' for Inactive)
REMARK    1  A    between atoms: C_6  and  C_7 
REMARK    2  A    between atoms: C_7  and  C_8 
REMARK    3  A    between atoms: C_8  and  C_9 
REMARK    4  A    between atoms: C_9  and  O_11 
REMARK    5  A    between atoms: C_16  and  C_17 
REMARK    6  A    between atoms: C_17  and  C_18 
REMARK    7  A    between atoms: C_18  and  C_19 
REMARK    8  A    between atoms: C_19  and  O_21 
REMARK    9  A    between atoms: C_28  and  C_29 
REMARK   10  A    between atoms: C_29  and  C_30 
REMARK   11  A    between atoms: C_30  and  C_31 
REMARK   12  A    between atoms: C_31  and  O_33 
REMARK   13  A    between atoms: C_42  and  C_43 
REMARK   14  A    between atoms: C_43  and  C_44 
REMARK   15  A    between atoms: C_44  and  C_45 
REMARK   16  A    between atoms: C_45  and  O_47 
ROOT
HETATM    1  C   UNK     0      -3.738   1.507  24.253  0.00  0.00     0.051 C 
HETATM    2  C   UNK     0      -2.990   2.801  24.500  0.00  0.00    -0.031 A 
HETATM    3  C   UNK     0      -1.787   3.010  25.156  0.00  0.00     0.021 A 
HETATM    4  N   UNK     0      -1.515   4.337  25.166  0.00  0.00    -0.361 N 
HETATM    5  C   UNK     0      -2.513   4.976  24.523  0.00  0.00     0.022 A 
HETATM    6  C   UNK     0      -3.455   4.046  24.096  0.00  0.00    -0.027 A 
HETATM    7  C   UNK     0      -2.648   6.427  24.179  0.00  0.00     0.115 C 
HETATM    8  C   UNK     0      -1.403   7.123  23.660  0.00  0.00     0.021 A 
HETATM    9  N   UNK     0      -0.433   6.627  22.876  0.00  0.00    -0.361 N 
HETATM   10  C   UNK     0       0.523   7.571  22.744  0.00  0.00     0.022 A 
HETATM   11  C   UNK     0       0.155   8.709  23.455  0.00  0.00    -0.027 A 
HETATM   12  C   UNK     0      -1.058   8.434  24.034  0.00  0.00    -0.031 A 
HETATM   13  C   UNK     0      -1.849   9.388  24.901  0.00  0.00     0.051 C 
HETATM   14  C   UNK     0       1.841   7.419  21.990  0.00  0.00     0.115 C 
HETATM   15  C   UNK     0       2.739   6.320  22.535  0.00  0.00     0.021 A 
HETATM   16  N   UNK     0       2.453   5.010  22.655  0.00  0.00    -0.361 N 
HETATM   17  C   UNK     0       3.478   4.389  23.243  0.00  0.00     0.022 A 
HETATM   18  C   UNK     0       4.485   5.339  23.511  0.00  0.00    -0.027 A 
HETATM   19  C   UNK     0       4.010   6.544  23.061  0.00  0.00    -0.031 A 
HETATM   20  C   UNK     0       4.800   7.838  23.123  0.00  0.00     0.051 C 
HETATM   21  C   UNK     0       3.627   2.946  23.667  0.00  0.00     0.115 C 
HETATM   22  C   UNK     0       2.387   2.227  24.144  0.00  0.00     0.022 A 
HETATM   23  N   UNK     0       1.403   2.698  24.921  0.00  0.00    -0.361 N 
HETATM   24  C   UNK     0       0.426   1.770  24.975  0.00  0.00     0.021 A 
HETATM   25  C   UNK     0       0.794   0.672  24.223  0.00  0.00    -0.031 A 
HETATM   26  C   UNK     0       0.052  -0.631  24.011  0.00  0.00     0.051 C 
HETATM   27  C   UNK     0       2.046   0.940  23.681  0.00  0.00    -0.027 A 
HETATM   28  C   UNK     0      -0.927   1.884  25.656  0.00  0.00     0.115 C 
HETATM   29  H   UNK     0      -0.638   4.815  25.662  0.00  0.00     0.165 HD
HETATM   30  H   UNK     0      -0.444   5.629  22.373  0.00  0.00     0.165 HD
HETATM   31  H   UNK     0       1.529   4.503  22.274  0.00  0.00     0.165 HD
HETATM   32  H   UNK     0       1.408   3.672  25.475  0.00  0.00     0.165 HD
ENDROOT
BRANCH   6  33
HETATM   33  C   UNK     0      -4.746   4.247  23.345  0.00  0.00     0.051 C 
BRANCH  33  34
HETATM   34  C   UNK     0      -4.548   4.010  21.867  0.00  0.00     0.114 C 
BRANCH  34  35
HETATM   35  C   UNK     0      -4.246   5.329  21.240  0.00  0.00     0.139 C 
HETATM   36  O   UNK     0      -5.172   6.170  21.046  0.00  0.00    -0.650 OA
BRANCH  35  37
HETATM   37  O   UNK     0      -2.964   5.696  20.848  0.00  0.00    -0.776 OA
HETATM   38  H   UNK     0      -2.195   5.046  20.859  0.00  0.00     0.167 HD
ENDBRANCH  35  37
ENDBRANCH  34  35
ENDBRANCH  33  34
ENDBRANCH   6  33
BRANCH  27  39
HETATM   39  C   UNK     0       2.804  -0.045  22.863  0.00  0.00     0.051 C 
BRANCH  39  40
HETATM   40  C   UNK     0       3.833  -0.849  23.523  0.00  0.00     0.114 C 
BRANCH  40  41
HETATM   41  C   UNK     0       5.227  -0.773  23.149  0.00  0.00     0.139 C 
HETATM   42  O   UNK     0       6.000   0.100  23.565  0.00  0.00    -0.650 OA
BRANCH  41  43
HETATM   43  O   UNK     0       5.757  -1.746  22.254  0.00  0.00    -0.776 OA
HETATM   44  H   UNK     0       6.344  -2.444  22.695  0.00  0.00     0.167 HD
ENDBRANCH  41  43
ENDBRANCH  40  41
ENDBRANCH  39  40
ENDBRANCH  27  39
BRANCH  11  45
HETATM   45  C   UNK     0       0.894  10.013  23.594  0.00  0.00     0.051 C 
BRANCH  45  46
HETATM   46  C   UNK     0       0.836  10.875  22.387  0.00  0.00     0.114 C 
BRANCH  46  47
HETATM   47  C   UNK     0       2.088  11.684  22.361  0.00  0.00     0.139 C 
HETATM   48  O   UNK     0       2.685  11.818  21.284  0.00  0.00    -0.650 OA
BRANCH  47  49
HETATM   49  O   UNK     0       2.571  12.268  23.505  0.00  0.00    -0.776 OA
HETATM   50  H   UNK     0       2.087  13.048  23.965  0.00  0.00     0.167 HD
ENDBRANCH  47  49
ENDBRANCH  46  47
ENDBRANCH  45  46
ENDBRANCH  11  45
BRANCH  18  51
HETATM   51  C   UNK     0       5.833   5.107  24.141  0.00  0.00     0.051 C 
BRANCH  51  52
HETATM   52  C   UNK     0       6.821   4.963  22.992  0.00  0.00     0.114 C 
BRANCH  52  53
HETATM   53  C   UNK     0       8.120   5.590  23.303  0.00  0.00     0.139 C 
HETATM   54  O   UNK     0       9.150   5.205  22.726  0.00  0.00    -0.650 OA
BRANCH  53  55
HETATM   55  O   UNK     0       8.183   6.597  24.235  0.00  0.00    -0.776 OA
HETATM   56  H   UNK     0       8.726   6.590  25.067  0.00  0.00     0.167 HD
ENDBRANCH  53  55
ENDBRANCH  52  53
ENDBRANCH  51  52
ENDBRANCH  18  51
TORSDOF 16
ENDMDL
MODEL 15
REMARK VINA RESULT:      -8.6      4.856     10.175
REMARK  16 active torsions:
REMARK  status: ('A' for Active; 'I' for Inactive)
REMARK    1  A    between atoms: C_6  and  C_7 
REMARK    2  A    between atoms: C_7  and  C_8 
REMARK    3  A    between atoms: C_8  and  C_9 
REMARK    4  A    between atoms: C_9  and  O_11 
REMARK    5  A    between atoms: C_16  and  C_17 
REMARK    6  A    between atoms: C_17  and  C_18 
REMARK    7  A    between atoms: C_18  and  C_19 
REMARK    8  A    between atoms: C_19  and  O_21 
REMARK    9  A    between atoms: C_28  and  C_29 
REMARK   10  A    between atoms: C_29  and  C_30 
REMARK   11  A    between atoms: C_30  and  C_31 
REMARK   12  A    between atoms: C_31  and  O_33 
REMARK   13  A    between atoms: C_42  and  C_43 
REMARK   14  A    between atoms: C_43  and  C_44 
REMARK   15  A    between atoms: C_44  and  C_45 
REMARK   16  A    between atoms: C_45  and  O_47 
ROOT
HETATM    1  C   UNK     0       6.073   0.235  23.822  0.00  0.00     0.051 C 
HETATM    2  C   UNK     0       5.080   1.316  23.449  0.00  0.00    -0.031 A 
HETATM    3  C   UNK     0       3.829   1.198  22.865  0.00  0.00     0.021 A 
HETATM    4  N   UNK     0       3.307   2.435  22.685  0.00  0.00    -0.361 N 
HETATM    5  C   UNK     0       4.196   3.338  23.148  0.00  0.00     0.022 A 
HETATM    6  C   UNK     0       5.318   2.673  23.631  0.00  0.00    -0.027 A 
HETATM    7  C   UNK     0       4.068   4.825  23.267  0.00  0.00     0.115 C 
HETATM    8  C   UNK     0       2.740   5.356  23.776  0.00  0.00     0.021 A 
HETATM    9  N   UNK     0       1.923   4.822  24.697  0.00  0.00    -0.361 N 
HETATM   10  C   UNK     0       0.812   5.585  24.765  0.00  0.00     0.022 A 
HETATM   11  C   UNK     0       0.920   6.646  23.871  0.00  0.00    -0.027 A 
HETATM   12  C   UNK     0       2.132   6.508  23.244  0.00  0.00    -0.031 A 
HETATM   13  C   UNK     0       2.682   7.441  22.189  0.00  0.00     0.051 C 
HETATM   14  C   UNK     0      -0.414   5.317  25.634  0.00  0.00     0.115 C 
HETATM   15  C   UNK     0      -1.111   4.001  25.326  0.00  0.00     0.021 A 
HETATM   16  N   UNK     0      -0.586   2.763  25.375  0.00  0.00    -0.361 N 
HETATM   17  C   UNK     0      -1.502   1.882  24.964  0.00  0.00     0.022 A 
HETATM   18  C   UNK     0      -2.683   2.579  24.642  0.00  0.00    -0.027 A 
HETATM   19  C   UNK     0      -2.426   3.906  24.874  0.00  0.00    -0.031 A 
HETATM   20  C   UNK     0      -3.451   5.009  24.687  0.00  0.00     0.051 C 
HETATM   21  C   UNK     0      -1.392   0.387  24.767  0.00  0.00     0.115 C 
HETATM   22  C   UNK     0      -0.063  -0.160  24.304  0.00  0.00     0.022 A 
HETATM   23  N   UNK     0       0.773   0.353  23.392  0.00  0.00    -0.361 N 
HETATM   24  C   UNK     0       1.906  -0.379  23.397  0.00  0.00     0.021 A 
HETATM   25  C   UNK     0       1.792  -1.394  24.327  0.00  0.00    -0.031 A 
HETATM   26  C   UNK     0       2.780  -2.491  24.666  0.00  0.00     0.051 C 
HETATM   27  C   UNK     0       0.541  -1.275  24.920  0.00  0.00    -0.027 A 
HETATM   28  C   UNK     0       3.177  -0.130  22.603  0.00  0.00     0.115 C 
HETATM   29  H   UNK     0       2.332   2.663  22.195  0.00  0.00     0.165 HD
HETATM   30  H   UNK     0       2.149   3.934  25.336  0.00  0.00     0.165 HD
HETATM   31  H   UNK     0       0.436   2.498  25.752  0.00  0.00     0.165 HD
HETATM   32  H   UNK     0       0.555   1.212  22.705  0.00  0.00     0.165 HD
ENDROOT
BRANCH   6  33
HETATM   33  C   UNK     0       6.583   3.220  24.241  0.00  0.00     0.051 C 
BRANCH  33  34
HETATM   34  C   UNK     0       7.544   3.671  23.167  0.00  0.00     0.114 C 
BRANCH  34  35
HETATM   35  C   UNK     0       8.050   5.018  23.558  0.00  0.00     0.139 C 
HETATM   36  O   UNK     0       9.199   5.400  23.187  0.00  0.00    -0.650 OA
BRANCH  35  37
HETATM   37  O   UNK     0       7.306   5.904  24.327  0.00  0.00    -0.776 OA
HETATM   38  H   UNK     0       6.373   5.689  24.638  0.00  0.00     0.167 HD
ENDBRANCH  35  37
ENDBRANCH  34  35
ENDBRANCH  33  34
ENDBRANCH   6  33
BRANCH  27  39
HETATM   39  C   UNK     0       0.026  -2.241  25.929  0.00  0.00     0.051 C 
BRANCH  39  40
HETATM   40  C   UNK     0      -0.829  -3.335  25.469  0.00  0.00     0.114 C 
BRANCH  40  41
HETATM   41  C   UNK     0      -1.161  -3.519  24.074  0.00  0.00     0.139 C 
HETATM   42  O   UNK     0      -2.185  -3.060  23.549  0.00  0.00    -0.650 OA
BRANCH  41  43
HETATM   43  O   UNK     0      -0.276  -4.265  23.246  0.00  0.00    -0.776 OA
HETATM   44  H   UNK     0      -0.322  -5.268  23.380  0.00  0.00     0.167 HD
ENDBRANCH  41  43
ENDBRANCH  40  41
ENDBRANCH  39  40
ENDBRANCH  27  39
BRANCH  11  45
HETATM   45  C   UNK     0      -0.061   7.755  23.602  0.00  0.00     0.051 C 
BRANCH  45  46
HETATM   46  C   UNK     0      -0.977   7.491  22.463  0.00  0.00     0.114 C 
BRANCH  46  47
HETATM   47  C   UNK     0      -1.106   8.763  21.695  0.00  0.00     0.139 C 
HETATM   48  O   UNK     0      -0.074   9.322  21.297  0.00  0.00    -0.650 OA
BRANCH  47  49
HETATM   49  O   UNK     0      -2.339   9.306  21.436  0.00  0.00    -0.776 OA
HETATM   50  H   UNK     0      -3.099   8.757  21.019  0.00  0.00     0.167 HD
ENDBRANCH  47  49
ENDBRANCH  46  47
ENDBRANCH  45  46
ENDBRANCH  11  45
BRANCH  18  51
HETATM   51  C   UNK     0      -3.992   2.010  24.160  0.00  0.00     0.051 C 
BRANCH  51  52
HETATM   52  C   UNK     0      -3.884   1.917  22.645  0.00  0.00     0.114 C 
BRANCH  52  53
HETATM   53  C   UNK     0      -4.883   2.766  21.969  0.00  0.00     0.139 C 
HETATM   54  O   UNK     0      -5.779   3.317  22.628  0.00  0.00    -0.650 OA
BRANCH  53  55
HETATM   55  O   UNK     0      -4.818   2.939  20.607  0.00  0.00    -0.776 OA
HETATM   56  H   UNK     0      -4.013   2.815  20.041  0.00  0.00     0.167 HD
ENDBRANCH  53  55
ENDBRANCH  52  53
ENDBRANCH  51  52
ENDBRANCH  18  51
TORSDOF 16
ENDMDL
MODEL 16
REMARK VINA RESULT:      -8.5      3.065      8.251
REMARK  16 active torsions:
REMARK  status: ('A' for Active; 'I' for Inactive)
REMARK    1  A    between atoms: C_6  and  C_7 
REMARK    2  A    between atoms: C_7  and  C_8 
REMARK    3  A    between atoms: C_8  and  C_9 
REMARK    4  A    between atoms: C_9  and  O_11 
REMARK    5  A    between atoms: C_16  and  C_17 
REMARK    6  A    between atoms: C_17  and  C_18 
REMARK    7  A    between atoms: C_18  and  C_19 
REMARK    8  A    between atoms: C_19  and  O_21 
REMARK    9  A    between atoms: C_28  and  C_29 
REMARK   10  A    between atoms: C_29  and  C_30 
REMARK   11  A    between atoms: C_30  and  C_31 
REMARK   12  A    between atoms: C_31  and  O_33 
REMARK   13  A    between atoms: C_42  and  C_43 
REMARK   14  A    between atoms: C_43  and  C_44 
REMARK   15  A    between atoms: C_44  and  C_45 
REMARK   16  A    between atoms: C_45  and  O_47 
ROOT
HETATM    1  C   UNK     0       7.363   3.600  24.497  0.00  0.00     0.051 C 
HETATM    2  C   UNK     0       6.710   4.730  23.728  0.00  0.00    -0.031 A 
HETATM    3  C   UNK     0       5.547   4.723  22.973  0.00  0.00     0.021 A 
HETATM    4  N   UNK     0       5.361   5.953  22.438  0.00  0.00    -0.361 N 
HETATM    5  C   UNK     0       6.375   6.746  22.842  0.00  0.00     0.022 A 
HETATM    6  C   UNK     0       7.238   6.012  23.648  0.00  0.00    -0.027 A 
HETATM    7  C   UNK     0       6.590   8.209  22.610  0.00  0.00     0.115 C 
HETATM    8  C   UNK     0       5.374   9.108  22.748  0.00  0.00     0.021 A 
HETATM    9  N   UNK     0       4.347   8.998  23.604  0.00  0.00    -0.361 N 
HETATM   10  C   UNK     0       3.449   9.961  23.307  0.00  0.00     0.022 A 
HETATM   11  C   UNK     0       3.915  10.718  22.236  0.00  0.00    -0.027 A 
HETATM   12  C   UNK     0       5.128  10.186  21.879  0.00  0.00    -0.031 A 
HETATM   13  C   UNK     0       6.009  10.693  20.760  0.00  0.00     0.051 C 
HETATM   14  C   UNK     0       2.097  10.173  23.983  0.00  0.00     0.115 C 
HETATM   15  C   UNK     0       1.151   8.991  23.852  0.00  0.00     0.021 A 
HETATM   16  N   UNK     0       1.356   7.725  24.262  0.00  0.00    -0.361 N 
HETATM   17  C   UNK     0       0.315   6.972  23.899  0.00  0.00     0.022 A 
HETATM   18  C   UNK     0      -0.617   7.789  23.229  0.00  0.00    -0.027 A 
HETATM   19  C   UNK     0      -0.083   9.051  23.207  0.00  0.00    -0.031 A 
HETATM   20  C   UNK     0      -0.785  10.255  22.607  0.00  0.00     0.051 C 
HETATM   21  C   UNK     0       0.090   5.485  24.055  0.00  0.00     0.115 C 
HETATM   22  C   UNK     0       1.298   4.583  23.963  0.00  0.00     0.022 A 
HETATM   23  N   UNK     0       2.338   4.671  23.124  0.00  0.00    -0.361 N 
HETATM   24  C   UNK     0       3.255   3.751  23.488  0.00  0.00     0.021 A 
HETATM   25  C   UNK     0       2.789   3.048  24.582  0.00  0.00    -0.031 A 
HETATM   26  C   UNK     0       3.439   1.896  25.321  0.00  0.00     0.051 C 
HETATM   27  C   UNK     0       1.539   3.562  24.905  0.00  0.00    -0.027 A 
HETATM   28  C   UNK     0       4.636   3.531  22.895  0.00  0.00     0.115 C 
HETATM   29  H   UNK     0       4.536   6.242  21.746  0.00  0.00     0.165 HD
HETATM   30  H   UNK     0       4.275   8.273  24.452  0.00  0.00     0.165 HD
HETATM   31  H   UNK     0       2.232   7.364  24.861  0.00  0.00     0.165 HD
HETATM   32  H   UNK     0       2.416   5.354  22.238  0.00  0.00     0.165 HD
ENDROOT
BRANCH   6  33
HETATM   33  C   UNK     0       8.513   6.430  24.338  0.00  0.00     0.051 C 
BRANCH  33  34
HETATM   34  C   UNK     0       9.702   6.236  23.428  0.00  0.00     0.114 C 
BRANCH  34  35
HETATM   35  C   UNK     0      10.801   7.106  23.938  0.00  0.00     0.139 C 
HETATM   36  O   UNK     0      11.849   7.278  23.249  0.00  0.00    -0.650 OA
BRANCH  35  37
HETATM   37  O   UNK     0      10.733   7.758  25.162  0.00  0.00    -0.776 OA
HETATM   38  H   UNK     0       9.926   8.295  25.438  0.00  0.00     0.167 HD
ENDBRANCH  35  37
ENDBRANCH  34  35
ENDBRANCH  33  34
ENDBRANCH   6  33
BRANCH  27  39
HETATM   39  C   UNK     0       0.690   3.005  25.993  0.00  0.00     0.051 C 
BRANCH  39  40
HETATM   40  C   UNK     0       0.830   3.564  27.337  0.00  0.00     0.114 C 
BRANCH  40  41
HETATM   41  C   UNK     0       0.976   2.728  28.508  0.00  0.00     0.139 C 
HETATM   42  O   UNK     0       1.079   3.175  29.658  0.00  0.00    -0.650 OA
BRANCH  41  43
HETATM   43  O   UNK     0       1.006   1.314  28.348  0.00  0.00    -0.776 OA
HETATM   44  H   UNK     0       1.019   1.001  27.384  0.00  0.00     0.167 HD
ENDBRANCH  41  43
ENDBRANCH  40  41
ENDBRANCH  39  40
ENDBRANCH  27  39
BRANCH  11  45
HETATM   45  C   UNK     0       3.266  11.898  21.564  0.00  0.00     0.051 C 
BRANCH  45  46
HETATM   46  C   UNK     0       2.124  12.474  22.318  0.00  0.00     0.114 C 
BRANCH  46  47
HETATM   47  C   UNK     0       2.328  13.950  22.370  0.00  0.00     0.139 C 
HETATM   48  O   UNK     0       2.394  14.576  21.303  0.00  0.00    -0.650 OA
BRANCH  47  49
HETATM   49  O   UNK     0       2.442  14.602  23.572  0.00  0.00    -0.776 OA
HETATM   50  H   UNK     0       2.537  14.095  24.460  0.00  0.00     0.167 HD
ENDBRANCH  47  49
ENDBRANCH  46  47
ENDBRANCH  45  46
ENDBRANCH  11  45
BRANCH  18  51
HETATM   51  C   UNK     0      -1.955   7.392  22.659  0.00  0.00     0.051 C 
BRANCH  51  52
HETATM   52  C   UNK     0      -2.947   7.468  23.809  0.00  0.00     0.114 C 
BRANCH  52  53
HETATM   53  C   UNK     0      -3.907   6.347  23.782  0.00  0.00     0.139 C 
HETATM   54  O   UNK     0      -3.656   5.299  24.399  0.00  0.00    -0.650 OA
BRANCH  53  55
HETATM   55  O   UNK     0      -5.074   6.469  23.069  0.00  0.00    -0.776 OA
HETATM   56  H   UNK     0      -5.878   6.981  23.347  0.00  0.00     0.167 HD
ENDBRANCH  53  55
ENDBRANCH  52  53
ENDBRANCH  51  52
ENDBRANCH  18  51
TORSDOF 16
ENDMDL
MODEL 17
REMARK VINA RESULT:      -8.4      5.377     10.505
REMARK  16 active torsions:
REMARK  status: ('A' for Active; 'I' for Inactive)
REMARK    1  A    between atoms: C_6  and  C_7 
REMARK    2  A    between atoms: C_7  and  C_8 
REMARK    3  A    between atoms: C_8  and  C_9 
REMARK    4  A    between atoms: C_9  and  O_11 
REMARK    5  A    between atoms: C_16  and  C_17 
REMARK    6  A    between atoms: C_17  and  C_18 
REMARK    7  A    between atoms: C_18  and  C_19 
REMARK    8  A    between atoms: C_19  and  O_21 
REMARK    9  A    between atoms: C_28  and  C_29 
REMARK   10  A    between atoms: C_29  and  C_30 
REMARK   11  A    between atoms: C_30  and  C_31 
REMARK   12  A    between atoms: C_31  and  O_33 
REMARK   13  A    between atoms: C_42  and  C_43 
REMARK   14  A    between atoms: C_43  and  C_44 
REMARK   15  A    between atoms: C_44  and  C_45 
REMARK   16  A    between atoms: C_45  and  O_47 
ROOT
HETATM    1  C   UNK     0       4.353   5.980  23.837  0.00  0.00     0.051 C 
HETATM    2  C   UNK     0       2.969   5.994  23.221  0.00  0.00    -0.031 A 
HETATM    3  C   UNK     0       2.233   4.948  22.687  0.00  0.00     0.021 A 
HETATM    4  N   UNK     0       1.057   5.430  22.220  0.00  0.00    -0.361 N 
HETATM    5  C   UNK     0       1.024   6.758  22.451  0.00  0.00     0.022 A 
HETATM    6  C   UNK     0       2.206   7.145  23.074  0.00  0.00    -0.027 A 
HETATM    7  C   UNK     0      -0.082   7.739  22.214  0.00  0.00     0.115 C 
HETATM    8  C   UNK     0      -1.484   7.289  22.586  0.00  0.00     0.021 A 
HETATM    9  N   UNK     0      -1.868   6.512  23.611  0.00  0.00    -0.361 N 
HETATM   10  C   UNK     0      -3.196   6.298  23.500  0.00  0.00     0.022 A 
HETATM   11  C   UNK     0      -3.682   6.963  22.378  0.00  0.00    -0.027 A 
HETATM   12  C   UNK     0      -2.609   7.589  21.798  0.00  0.00    -0.031 A 
HETATM   13  C   UNK     0      -2.664   8.440  20.549  0.00  0.00     0.051 C 
HETATM   14  C   UNK     0      -4.046   5.418  24.412  0.00  0.00     0.115 C 
HETATM   15  C   UNK     0      -3.623   3.958  24.429  0.00  0.00     0.021 A 
HETATM   16  N   UNK     0      -2.422   3.455  24.769  0.00  0.00    -0.361 N 
HETATM   17  C   UNK     0      -2.432   2.133  24.583  0.00  0.00     0.022 A 
HETATM   18  C   UNK     0      -3.704   1.755  24.109  0.00  0.00    -0.027 A 
HETATM   19  C   UNK     0      -4.441   2.907  24.017  0.00  0.00    -0.031 A 
HETATM   20  C   UNK     0      -5.893   2.947  23.577  0.00  0.00     0.051 C 
HETATM   21  C   UNK     0      -1.322   1.120  24.747  0.00  0.00     0.115 C 
HETATM   22  C   UNK     0       0.084   1.567  24.422  0.00  0.00     0.022 A 
HETATM   23  N   UNK     0       0.495   2.344  23.411  0.00  0.00    -0.361 N 
HETATM   24  C   UNK     0       1.806   2.608  23.586  0.00  0.00     0.021 A 
HETATM   25  C   UNK     0       2.252   1.978  24.731  0.00  0.00    -0.031 A 
HETATM   26  C   UNK     0       3.648   1.943  25.318  0.00  0.00     0.051 C 
HETATM   27  C   UNK     0       1.168   1.305  25.284  0.00  0.00    -0.027 A 
HETATM   28  C   UNK     0       2.690   3.518  22.750  0.00  0.00     0.115 C 
HETATM   29  H   UNK     0       0.275   4.834  21.693  0.00  0.00     0.165 HD
HETATM   30  H   UNK     0      -1.213   6.154  24.443  0.00  0.00     0.165 HD
HETATM   31  H   UNK     0      -1.564   4.037  25.194  0.00  0.00     0.165 HD
HETATM   32  H   UNK     0      -0.127   2.678  22.541  0.00  0.00     0.165 HD
ENDROOT
BRANCH   6  33
HETATM   33  C   UNK     0       2.660   8.508  23.532  0.00  0.00     0.051 C 
BRANCH  33  34
HETATM   34  C   UNK     0       2.648   8.598  25.040  0.00  0.00     0.114 C 
BRANCH  34  35
HETATM   35  C   UNK     0       1.222   8.647  25.473  0.00  0.00     0.139 C 
HETATM   36  O   UNK     0       0.485   9.617  25.130  0.00  0.00    -0.650 OA
BRANCH  35  37
HETATM   37  O   UNK     0       0.641   7.655  26.253  0.00  0.00    -0.776 OA
HETATM   38  H   UNK     0       1.033   6.729  26.320  0.00  0.00     0.167 HD
ENDBRANCH  35  37
ENDBRANCH  34  35
ENDBRANCH  33  34
ENDBRANCH   6  33
BRANCH  27  39
HETATM   39  C   UNK     0       1.279   0.447  26.495  0.00  0.00     0.051 C 
BRANCH  39  40
HETATM   40  C   UNK     0       0.829   0.994  27.775  0.00  0.00     0.114 C 
BRANCH  40  41
HETATM   41  C   UNK     0       0.901   2.405  28.079  0.00  0.00     0.139 C 
HETATM   42  O   UNK     0      -0.036   3.193  27.891  0.00  0.00    -0.650 OA
BRANCH  41  43
HETATM   43  O   UNK     0       2.105   2.934  28.623  0.00  0.00    -0.776 OA
HETATM   44  H   UNK     0       2.070   3.925  28.834  0.00  0.00     0.167 HD
ENDBRANCH  41  43
ENDBRANCH  40  41
ENDBRANCH  39  40
ENDBRANCH  27  39
BRANCH  11  45
HETATM   45  C   UNK     0      -5.093   7.022  21.857  0.00  0.00     0.051 C 
BRANCH  45  46
HETATM   46  C   UNK     0      -5.607   5.725  21.348  0.00  0.00     0.114 C 
BRANCH  46  47
HETATM   47  C   UNK     0      -7.096   5.800  21.371  0.00  0.00     0.139 C 
HETATM   48  O   UNK     0      -7.744   4.752  21.237  0.00  0.00    -0.650 OA
BRANCH  47  49
HETATM   49  O   UNK     0      -7.736   7.002  21.534  0.00  0.00    -0.776 OA
HETATM   50  H   UNK     0      -8.693   7.161  21.197  0.00  0.00     0.167 HD
ENDBRANCH  47  49
ENDBRANCH  46  47
ENDBRANCH  45  46
ENDBRANCH  11  45
BRANCH  18  51
HETATM   51  C   UNK     0      -4.197   0.370  23.781  0.00  0.00     0.051 C 
BRANCH  51  52
HETATM   52  C   UNK     0      -3.502  -0.035  22.489  0.00  0.00     0.114 C 
BRANCH  52  53
HETATM   53  C   UNK     0      -2.955  -1.403  22.564  0.00  0.00     0.139 C 
HETATM   54  O   UNK     0      -2.212  -1.725  23.505  0.00  0.00    -0.650 OA
BRANCH  53  55
HETATM   55  O   UNK     0      -3.270  -2.316  21.587  0.00  0.00    -0.776 OA
HETATM   56  H   UNK     0      -3.817  -3.135  21.707  0.00  0.00     0.167 HD
ENDBRANCH  53  55
ENDBRANCH  52  53
ENDBRANCH  51  52
ENDBRANCH  18  51
TORSDOF 16
ENDMDL
MODEL 18
REMARK VINA RESULT:      -8.4      5.116     11.418
REMARK  16 active torsions:
REMARK  status: ('A' for Active; 'I' for Inactive)
REMARK    1  A    between atoms: C_6  and  C_7 
REMARK    2  A    between atoms: C_7  and  C_8 
REMARK    3  A    between atoms: C_8  and  C_9 
REMARK    4  A    between atoms: C_9  and  O_11 
REMARK    5  A    between atoms: C_16  and  C_17 
REMARK    6  A    between atoms: C_17  and  C_18 
REMARK    7  A    between atoms: C_18  and  C_19 
REMARK    8  A    between atoms: C_19  and  O_21 
REMARK    9  A    between atoms: C_28  and  C_29 
REMARK   10  A    between atoms: C_29  and  C_30 
REMARK   11  A    between atoms: C_30  and  C_31 
REMARK   12  A    between atoms: C_31  and  O_33 
REMARK   13  A    between atoms: C_42  and  C_43 
REMARK   14  A    between atoms: C_43  and  C_44 
REMARK   15  A    between atoms: C_44  and  C_45 
REMARK   16  A    between atoms: C_45  and  O_47 
ROOT
HETATM    1  C   UNK     0      -6.199   3.064  22.585  0.00  0.00     0.051 C 
HETATM    2  C   UNK     0      -5.067   3.948  23.068  0.00  0.00    -0.031 A 
HETATM    3  C   UNK     0      -4.100   3.694  24.027  0.00  0.00     0.021 A 
HETATM    4  N   UNK     0      -3.308   4.784  24.156  0.00  0.00    -0.361 N 
HETATM    5  C   UNK     0      -3.743   5.725  23.292  0.00  0.00     0.022 A 
HETATM    6  C   UNK     0      -4.845   5.236  22.598  0.00  0.00    -0.027 A 
HETATM    7  C   UNK     0      -3.163   7.068  22.975  0.00  0.00     0.115 C 
HETATM    8  C   UNK     0      -1.653   7.140  22.831  0.00  0.00     0.021 A 
HETATM    9  N   UNK     0      -0.817   6.225  22.317  0.00  0.00    -0.361 N 
HETATM   10  C   UNK     0       0.446   6.674  22.478  0.00  0.00     0.022 A 
HETATM   11  C   UNK     0       0.423   7.917  23.103  0.00  0.00    -0.027 A 
HETATM   12  C   UNK     0      -0.897   8.217  23.328  0.00  0.00    -0.031 A 
HETATM   13  C   UNK     0      -1.406   9.480  23.986  0.00  0.00     0.051 C 
HETATM   14  C   UNK     0       1.723   5.928  22.098  0.00  0.00     0.115 C 
HETATM   15  C   UNK     0       1.902   4.605  22.824  0.00  0.00     0.021 A 
HETATM   16  N   UNK     0       1.072   3.545  22.818  0.00  0.00    -0.361 N 
HETATM   17  C   UNK     0       1.552   2.607  23.636  0.00  0.00     0.022 A 
HETATM   18  C   UNK     0       2.759   3.073  24.195  0.00  0.00    -0.027 A 
HETATM   19  C   UNK     0       2.968   4.325  23.677  0.00  0.00    -0.031 A 
HETATM   20  C   UNK     0       4.184   5.176  23.992  0.00  0.00     0.051 C 
HETATM   21  C   UNK     0       0.966   1.271  24.034  0.00  0.00     0.115 C 
HETATM   22  C   UNK     0      -0.538   1.173  24.138  0.00  0.00     0.022 A 
HETATM   23  N   UNK     0      -1.396   2.070  24.641  0.00  0.00    -0.361 N 
HETATM   24  C   UNK     0      -2.650   1.638  24.400  0.00  0.00     0.021 A 
HETATM   25  C   UNK     0      -2.599   0.428  23.735  0.00  0.00    -0.031 A 
HETATM   26  C   UNK     0      -3.739  -0.463  23.288  0.00  0.00     0.051 C 
HETATM   27  C   UNK     0      -1.258   0.109  23.556  0.00  0.00    -0.027 A 
HETATM   28  C   UNK     0      -3.954   2.357  24.699  0.00  0.00     0.115 C 
HETATM   29  H   UNK     0      -2.471   4.896  24.883  0.00  0.00     0.165 HD
HETATM   30  H   UNK     0      -1.117   5.283  21.796  0.00  0.00     0.165 HD
HETATM   31  H   UNK     0       0.151   3.438  22.187  0.00  0.00     0.165 HD
HETATM   32  H   UNK     0      -1.123   2.997  25.209  0.00  0.00     0.165 HD
ENDROOT
BRANCH   6  33
HETATM   33  C   UNK     0      -5.692   5.892  21.537  0.00  0.00     0.051 C 
BRANCH  33  34
HETATM   34  C   UNK     0      -6.805   6.698  22.164  0.00  0.00     0.114 C 
BRANCH  34  35
HETATM   35  C   UNK     0      -8.060   6.376  21.426  0.00  0.00     0.139 C 
HETATM   36  O   UNK     0      -9.117   7.036  21.647  0.00  0.00    -0.650 OA
BRANCH  35  37
HETATM   37  O   UNK     0      -8.133   5.361  20.479  0.00  0.00    -0.776 OA
HETATM   38  H   UNK     0      -8.886   4.692  20.470  0.00  0.00     0.167 HD
ENDBRANCH  35  37
ENDBRANCH  34  35
ENDBRANCH  33  34
ENDBRANCH   6  33
BRANCH  27  39
HETATM   39  C   UNK     0      -0.803  -1.165  22.937  0.00  0.00     0.051 C 
BRANCH  39  40
HETATM   40  C   UNK     0      -0.102  -2.134  23.778  0.00  0.00     0.114 C 
BRANCH  40  41
HETATM   41  C   UNK     0      -0.782  -3.245  24.406  0.00  0.00     0.139 C 
HETATM   42  O   UNK     0      -0.429  -3.741  25.484  0.00  0.00    -0.650 OA
BRANCH  41  43
HETATM   43  O   UNK     0      -1.921  -3.809  23.765  0.00  0.00    -0.776 OA
HETATM   44  H   UNK     0      -2.779  -3.289  23.901  0.00  0.00     0.167 HD
ENDBRANCH  41  43
ENDBRANCH  40  41
ENDBRANCH  39  40
ENDBRANCH  27  39
BRANCH  11  45
HETATM   45  C   UNK     0       1.579   8.803  23.480  0.00  0.00     0.051 C 
BRANCH  45  46
HETATM   46  C   UNK     0       1.897   9.846  22.472  0.00  0.00     0.114 C 
BRANCH  46  47
HETATM   47  C   UNK     0       2.824  10.819  23.119  0.00  0.00     0.139 C 
HETATM   48  O   UNK     0       3.938  10.420  23.487  0.00  0.00    -0.650 OA
BRANCH  47  49
HETATM   49  O   UNK     0       2.452  12.126  23.305  0.00  0.00    -0.776 OA
HETATM   50  H   UNK     0       1.586  12.509  22.906  0.00  0.00     0.167 HD
ENDBRANCH  47  49
ENDBRANCH  46  47
ENDBRANCH  45  46
ENDBRANCH  11  45
BRANCH  18  51
HETATM   51  C   UNK     0       3.674   2.356  25.154  0.00  0.00     0.051 C 
BRANCH  51  52
HETATM   52  C   UNK     0       4.498   1.391  24.314  0.00  0.00     0.114 C 
BRANCH  52  53
HETATM   53  C   UNK     0       5.755   2.007  23.845  0.00  0.00     0.139 C 
HETATM   54  O   UNK     0       6.610   2.376  24.665  0.00  0.00    -0.650 OA
BRANCH  53  55
HETATM   55  O   UNK     0       5.970   2.171  22.498  0.00  0.00    -0.776 OA
HETATM   56  H   UNK     0       6.056   3.037  22.022  0.00  0.00     0.167 HD
ENDBRANCH  53  55
ENDBRANCH  52  53
ENDBRANCH  51  52
ENDBRANCH  18  51
TORSDOF 16
ENDMDL
MODEL 19
REMARK VINA RESULT:      -8.3      5.812     12.670
REMARK  16 active torsions:
REMARK  status: ('A' for Active; 'I' for Inactive)
REMARK    1  A    between atoms: C_6  and  C_7 
REMARK    2  A    between atoms: C_7  and  C_8 
REMARK    3  A    between atoms: C_8  and  C_9 
REMARK    4  A    between atoms: C_9  and  O_11 
REMARK    5  A    between atoms: C_16  and  C_17 
REMARK    6  A    between atoms: C_17  and  C_18 
REMARK    7  A    between atoms: C_18  and  C_19 
REMARK    8  A    between atoms: C_19  and  O_21 
REMARK    9  A    between atoms: C_28  and  C_29 
REMARK   10  A    between atoms: C_29  and  C_30 
REMARK   11  A    between atoms: C_30  and  C_31 
REMARK   12  A    between atoms: C_31  and  O_33 
REMARK   13  A    between atoms: C_42  and  C_43 
REMARK   14  A    between atoms: C_43  and  C_44 
REMARK   15  A    between atoms: C_44  and  C_45 
REMARK   16  A    between atoms: C_45  and  O_47 
ROOT
HETATM    1  C   UNK     0       3.740   5.053  23.980  0.00  0.00     0.051 C 
HETATM    2  C   UNK     0       4.026   3.583  24.213  0.00  0.00    -0.031 A 
HETATM    3  C   UNK     0       3.276   2.638  24.894  0.00  0.00     0.021 A 
HETATM    4  N   UNK     0       3.935   1.455  24.875  0.00  0.00    -0.361 N 
HETATM    5  C   UNK     0       5.084   1.623  24.190  0.00  0.00     0.022 A 
HETATM    6  C   UNK     0       5.175   2.944  23.763  0.00  0.00    -0.027 A 
HETATM    7  C   UNK     0       6.119   0.613  23.803  0.00  0.00     0.115 C 
HETATM    8  C   UNK     0       5.609  -0.725  23.298  0.00  0.00     0.021 A 
HETATM    9  N   UNK     0       4.522  -0.980  22.554  0.00  0.00    -0.361 N 
HETATM   10  C   UNK     0       4.408  -2.318  22.422  0.00  0.00     0.022 A 
HETATM   11  C   UNK     0       5.456  -2.943  23.092  0.00  0.00    -0.027 A 
HETATM   12  C   UNK     0       6.217  -1.945  23.646  0.00  0.00    -0.031 A 
HETATM   13  C   UNK     0       7.470  -2.155  24.466  0.00  0.00     0.051 C 
HETATM   14  C   UNK     0       3.282  -3.061  21.707  0.00  0.00     0.115 C 
HETATM   15  C   UNK     0       1.906  -2.815  22.305  0.00  0.00     0.021 A 
HETATM   16  N   UNK     0       1.274  -1.636  22.452  0.00  0.00    -0.361 N 
HETATM   17  C   UNK     0       0.115  -1.836  23.084  0.00  0.00     0.022 A 
HETATM   18  C   UNK     0      -0.019  -3.213  23.352  0.00  0.00    -0.027 A 
HETATM   19  C   UNK     0       1.109  -3.815  22.858  0.00  0.00    -0.031 A 
HETATM   20  C   UNK     0       1.357  -5.312  22.906  0.00  0.00     0.051 C 
HETATM   21  C   UNK     0      -0.923  -0.840  23.549  0.00  0.00     0.115 C 
HETATM   22  C   UNK     0      -0.434   0.512  24.013  0.00  0.00     0.022 A 
HETATM   23  N   UNK     0       0.647   0.795  24.751  0.00  0.00    -0.361 N 
HETATM   24  C   UNK     0       0.785   2.135  24.804  0.00  0.00     0.021 A 
HETATM   25  C   UNK     0      -0.238   2.730  24.092  0.00  0.00    -0.031 A 
HETATM   26  C   UNK     0      -0.533   4.203  23.895  0.00  0.00     0.051 C 
HETATM   27  C   UNK     0      -1.031   1.711  23.576  0.00  0.00    -0.027 A 
HETATM   28  C   UNK     0       1.909   2.929  25.446  0.00  0.00     0.115 C 
HETATM   29  H   UNK     0       3.602   0.519  25.381  0.00  0.00     0.165 HD
HETATM   30  H   UNK     0       3.861  -0.214  22.078  0.00  0.00     0.165 HD
HETATM   31  H   UNK     0       1.629  -0.647  22.061  0.00  0.00     0.165 HD
HETATM   32  H   UNK     0       1.300   0.051  25.279  0.00  0.00     0.165 HD
ENDROOT
BRANCH   6  33
HETATM   33  C   UNK     0       6.256   3.636  22.973  0.00  0.00     0.051 C 
BRANCH  33  34
HETATM   34  C   UNK     0       7.475   3.878  23.832  0.00  0.00     0.114 C 
BRANCH  34  35
HETATM   35  C   UNK     0       7.816   5.325  23.727  0.00  0.00     0.139 C 
HETATM   36  O   UNK     0       8.938   5.683  23.262  0.00  0.00    -0.650 OA
BRANCH  35  37
HETATM   37  O   UNK     0       6.943   6.332  24.120  0.00  0.00    -0.776 OA
HETATM   38  H   UNK     0       7.202   7.305  24.093  0.00  0.00     0.167 HD
ENDBRANCH  35  37
ENDBRANCH  34  35
ENDBRANCH  33  34
ENDBRANCH   6  33
BRANCH  27  39
HETATM   39  C   UNK     0      -2.279   1.967  22.805  0.00  0.00     0.051 C 
BRANCH  39  40
HETATM   40  C   UNK     0      -3.562   1.809  23.489  0.00  0.00     0.114 C 
BRANCH  40  41
HETATM   41  C   UNK     0      -4.478   2.912  23.672  0.00  0.00     0.139 C 
HETATM   42  O   UNK     0      -5.648   2.902  23.267  0.00  0.00    -0.650 OA
BRANCH  41  43
HETATM   43  O   UNK     0      -4.028   4.079  24.352  0.00  0.00    -0.776 OA
HETATM   44  H   UNK     0      -3.289   3.913  25.025  0.00  0.00     0.167 HD
ENDBRANCH  41  43
ENDBRANCH  40  41
ENDBRANCH  39  40
ENDBRANCH  27  39
BRANCH  11  45
HETATM   45  C   UNK     0       5.750  -4.414  23.216  0.00  0.00     0.051 C 
BRANCH  45  46
HETATM   46  C   UNK     0       5.156  -5.051  24.418  0.00  0.00     0.114 C 
BRANCH  46  47
HETATM   47  C   UNK     0       6.284  -5.524  25.271  0.00  0.00     0.139 C 
HETATM   48  O   UNK     0       7.357  -5.817  24.725  0.00  0.00    -0.650 OA
BRANCH  47  49
HETATM   49  O   UNK     0       6.139  -5.635  26.631  0.00  0.00    -0.776 OA
HETATM   50  H   UNK     0       5.765  -6.484  27.072  0.00  0.00     0.167 HD
ENDBRANCH  47  49
ENDBRANCH  46  47
ENDBRANCH  45  46
ENDBRANCH  11  45
BRANCH  18  51
HETATM   51  C   UNK     0      -1.168  -3.919  24.023  0.00  0.00     0.051 C 
BRANCH  51  52
HETATM   52  C   UNK     0      -0.727  -4.184  25.455  0.00  0.00     0.114 C 
BRANCH  52  53
HETATM   53  C   UNK     0      -0.557  -2.933  26.218  0.00  0.00     0.139 C 
HETATM   54  O   UNK     0      -1.551  -2.281  26.573  0.00  0.00    -0.650 OA
BRANCH  53  55
HETATM   55  O   UNK     0       0.707  -2.495  26.530  0.00  0.00    -0.776 OA
HETATM   56  H   UNK     0       1.234  -2.752  27.332  0.00  0.00     0.167 HD
ENDBRANCH  53  55
ENDBRANCH  52  53
ENDBRANCH  51  52
ENDBRANCH  18  51
TORSDOF 16
ENDMDL
MODEL 20
REMARK VINA RESULT:      -8.3      5.105     10.290
REMARK  16 active torsions:
REMARK  status: ('A' for Active; 'I' for Inactive)
REMARK    1  A    between atoms: C_6  and  C_7 
REMARK    2  A    between atoms: C_7  and  C_8 
REMARK    3  A    between atoms: C_8  and  C_9 
REMARK    4  A    between atoms: C_9  and  O_11 
REMARK    5  A    between atoms: C_16  and  C_17 
REMARK    6  A    between atoms: C_17  and  C_18 
REMARK    7  A    between atoms: C_18  and  C_19 
REMARK    8  A    between atoms: C_19  and  O_21 
REMARK    9  A    between atoms: C_28  and  C_29 
REMARK   10  A    between atoms: C_29  and  C_30 
REMARK   11  A    between atoms: C_30  and  C_31 
REMARK   12  A    between atoms: C_31  and  O_33 
REMARK   13  A    between atoms: C_42  and  C_43 
REMARK   14  A    between atoms: C_43  and  C_44 
REMARK   15  A    between atoms: C_44  and  C_45 
REMARK   16  A    between atoms: C_45  and  O_47 
ROOT
HETATM    1  C   UNK     0       1.829   8.929  23.613  0.00  0.00     0.051 C 
HETATM    2  C   UNK     0       0.679   8.046  23.172  0.00  0.00    -0.031 A 
HETATM    3  C   UNK     0       0.705   6.859  22.457  0.00  0.00     0.021 A 
HETATM    4  N   UNK     0      -0.565   6.433  22.262  0.00  0.00    -0.361 N 
HETATM    5  C   UNK     0      -1.400   7.318  22.845  0.00  0.00     0.022 A 
HETATM    6  C   UNK     0      -0.655   8.341  23.421  0.00  0.00    -0.027 A 
HETATM    7  C   UNK     0      -2.888   7.264  22.997  0.00  0.00     0.115 C 
HETATM    8  C   UNK     0      -3.487   5.922  23.380  0.00  0.00     0.021 A 
HETATM    9  N   UNK     0      -2.980   4.982  24.193  0.00  0.00    -0.361 N 
HETATM   10  C   UNK     0      -3.808   3.916  24.168  0.00  0.00     0.022 A 
HETATM   11  C   UNK     0      -4.882   4.181  23.324  0.00  0.00    -0.027 A 
HETATM   12  C   UNK     0      -4.686   5.443  22.824  0.00  0.00    -0.031 A 
HETATM   13  C   UNK     0      -5.611   6.156  21.863  0.00  0.00     0.051 C 
HETATM   14  C   UNK     0      -3.593   2.591  24.894  0.00  0.00     0.115 C 
HETATM   15  C   UNK     0      -2.331   1.856  24.474  0.00  0.00     0.021 A 
HETATM   16  N   UNK     0      -1.061   2.300  24.538  0.00  0.00    -0.361 N 
HETATM   17  C   UNK     0      -0.249   1.384  24.006  0.00  0.00     0.022 A 
HETATM   18  C   UNK     0      -1.025   0.286  23.584  0.00  0.00    -0.027 A 
HETATM   19  C   UNK     0      -2.327   0.594  23.883  0.00  0.00    -0.031 A 
HETATM   20  C   UNK     0      -3.496  -0.339  23.625  0.00  0.00     0.051 C 
HETATM   21  C   UNK     0       1.244   1.427  23.774  0.00  0.00     0.115 C 
HETATM   22  C   UNK     0       1.860   2.764  23.436  0.00  0.00     0.022 A 
HETATM   23  N   UNK     0       1.376   3.721  22.633  0.00  0.00    -0.361 N 
HETATM   24  C   UNK     0       2.175   4.802  22.734  0.00  0.00     0.021 A 
HETATM   25  C   UNK     0       3.205   4.531  23.614  0.00  0.00    -0.031 A 
HETATM   26  C   UNK     0       4.368   5.412  24.020  0.00  0.00     0.051 C 
HETATM   27  C   UNK     0       3.025   3.233  24.076  0.00  0.00    -0.027 A 
HETATM   28  C   UNK     0       1.984   6.163  22.085  0.00  0.00     0.115 C 
HETATM   29  H   UNK     0      -0.865   5.530  21.681  0.00  0.00     0.165 HD
HETATM   30  H   UNK     0      -2.064   5.087  24.824  0.00  0.00     0.165 HD
HETATM   31  H   UNK     0      -0.726   3.259  25.011  0.00  0.00     0.165 HD
HETATM   32  H   UNK     0       0.488   3.627  21.955  0.00  0.00     0.165 HD
ENDROOT
BRANCH   6  33
HETATM   33  C   UNK     0      -1.109   9.564  24.178  0.00  0.00     0.051 C 
BRANCH  33  34
HETATM   34  C   UNK     0      -1.592   9.189  25.559  0.00  0.00     0.114 C 
BRANCH  34  35
HETATM   35  C   UNK     0      -0.389   9.028  26.424  0.00  0.00     0.139 C 
HETATM   36  O   UNK     0      -0.115   7.901  26.932  0.00  0.00    -0.650 OA
BRANCH  35  37
HETATM   37  O   UNK     0       0.475  10.078  26.710  0.00  0.00    -0.776 OA
HETATM   38  H   UNK     0       1.224  10.339  26.088  0.00  0.00     0.167 HD
ENDBRANCH  35  37
ENDBRANCH  34  35
ENDBRANCH  33  34
ENDBRANCH   6  33
BRANCH  27  39
HETATM   39  C   UNK     0       3.983   2.559  24.994  0.00  0.00     0.051 C 
BRANCH  39  40
HETATM   40  C   UNK     0       5.016   1.703  24.412  0.00  0.00     0.114 C 
BRANCH  40  41
HETATM   41  C   UNK     0       5.983   2.201  23.460  0.00  0.00     0.139 C 
HETATM   42  O   UNK     0       5.951   1.935  22.251  0.00  0.00    -0.650 OA
BRANCH  41  43
HETATM   43  O   UNK     0       7.035   3.043  23.919  0.00  0.00    -0.776 OA
HETATM   44  H   UNK     0       6.967   3.304  24.896  0.00  0.00     0.167 HD
ENDBRANCH  41  43
ENDBRANCH  40  41
ENDBRANCH  39  40
ENDBRANCH  27  39
BRANCH  11  45
HETATM   45  C   UNK     0      -6.056   3.300  22.989  0.00  0.00     0.051 C 
BRANCH  45  46
HETATM   46  C   UNK     0      -5.826   2.398  21.831  0.00  0.00     0.114 C 
BRANCH  46  47
HETATM   47  C   UNK     0      -7.142   2.195  21.162  0.00  0.00     0.139 C 
HETATM   48  O   UNK     0      -7.156   1.777  19.996  0.00  0.00    -0.650 OA
BRANCH  47  49
HETATM   49  O   UNK     0      -8.315   2.465  21.821  0.00  0.00    -0.776 OA
HETATM   50  H   UNK     0      -9.223   2.468  21.340  0.00  0.00     0.167 HD
ENDBRANCH  47  49
ENDBRANCH  46  47
ENDBRANCH  45  46
ENDBRANCH  11  45
BRANCH  18  51
HETATM   51  C   UNK     0      -0.550  -0.995  22.949  0.00  0.00     0.051 C 
BRANCH  51  52
HETATM   52  C   UNK     0      -0.536  -2.039  24.056  0.00  0.00     0.114 C 
BRANCH  52  53
HETATM   53  C   UNK     0       0.810  -2.204  24.639  0.00  0.00     0.139 C 
HETATM   54  O   UNK     0       1.116  -1.596  25.677  0.00  0.00    -0.650 OA
BRANCH  53  55
HETATM   55  O   UNK     0       1.720  -3.029  24.025  0.00  0.00    -0.776 OA
HETATM   56  H   UNK     0       1.640  -4.013  23.922  0.00  0.00     0.167 HD
ENDBRANCH  53  55
ENDBRANCH  52  53
ENDBRANCH  51  52
ENDBRANCH  18  51
TORSDOF 16
ENDMDL
