MODEL 1
REMARK VINA RESULT:      -7.2      0.000      0.000
REMARK  28 active torsions:
REMARK  status: ('A' for Active; 'I' for Inactive)
REMARK    1  A    between atoms: C_2  and  O_3 
REMARK    2  A    between atoms: C_2  and  C_4 
REMARK    3  A    between atoms: C_4  and  C_5 
REMARK    4  A    between atoms: C_5  and  C_6 
REMARK    5  A    between atoms: C_7  and  C_8 
REMARK    6  A    between atoms: C_8  and  C_9 
REMARK    7  A    between atoms: C_9  and  O_11 
REMARK    8  A    between atoms: C_28  and  C_29 
REMARK    9  A    between atoms: C_29  and  C_30 
REMARK   10  A    between atoms: C_30  and  O_32 
REMARK   11  A    between atoms: C_33  and  C_34 
REMARK   12  A    between atoms: C_34  and  C_35 
REMARK   13  A    between atoms: C_35  and  C_36 
REMARK   14  A    between atoms: C_36  and  O_38 
REMARK   15  A    between atoms: C_39  and  C_40 
REMARK   16  A    between atoms: C_40  and  C_41 
REMARK   17  A    between atoms: C_41  and  C_42 
REMARK   18  A    between atoms: C_42  and  O_44 
REMARK   19  A    between atoms: C_45  and  C_46 
REMARK   20  A    between atoms: C_46  and  C_47 
REMARK   21  A    between atoms: C_47  and  O_49 
REMARK   22  A    between atoms: C_50  and  C_51 
REMARK   23  A    between atoms: C_51  and  C_52 
REMARK   24  A    between atoms: C_52  and  O_54 
REMARK   25  A    between atoms: C_55  and  C_56 
REMARK   26  A    between atoms: C_56  and  C_57 
REMARK   27  A    between atoms: C_57  and  C_58 
REMARK   28  A    between atoms: C_58  and  O_60 
ROOT
ATOM      1  O   UNK d   0     -43.431  19.230   4.770  0.00  0.00    -0.650 OA
ATOM      2  C   UNK d   0     -44.006  18.124   4.660  0.00  0.00     0.139 C 
ENDROOT
BRANCH   2   3
ATOM      3  O   UNK d   0     -44.441  17.476   5.791  0.00  0.00    -0.776 OA
ATOM      4  H   UNK d   0     -44.888  17.989   6.554  0.00  0.00     0.167 HD
ENDBRANCH   2   3
BRANCH   2   5
ATOM      5  C   UNK d   0     -44.213  17.519   3.314  0.00  0.00     0.115 C 
BRANCH   5   6
ATOM      6  C   UNK d   0     -43.186  16.448   3.064  0.00  0.00     0.052 C 
BRANCH   6   7
ATOM      7  C   UNK d   0     -41.911  16.995   2.467  0.00  0.00    -0.020 A 
ATOM      8  C   UNK d   0     -40.706  16.944   2.974  0.00  0.00    -0.011 A 
ATOM      9  C   UNK d   0     -39.805  17.607   2.047  0.00  0.00     0.067 A 
ATOM     10  C   UNK d   0     -38.427  17.869   1.987  0.00  0.00     0.062 C 
ATOM     11  N   UNK d   0     -40.547  18.037   1.005  0.00  0.00    -0.248 NA
ATOM     12  C   UNK d   0     -37.691  18.283   0.871  0.00  0.00     0.041 A 
ATOM     13  N   UNK d   0     -37.963  19.196  -0.081  0.00  0.00    -0.355 N 
ATOM     14  C   UNK d   0     -36.467  17.649   0.590  0.00  0.00    -0.022 A 
ATOM     15  C   UNK d   0     -36.946  19.152  -0.963  0.00  0.00     0.042 A 
ATOM     16  H   UNK d   0     -38.846  19.871  -0.119  0.00  0.00     0.166 HD
ATOM     17  C   UNK d   0     -36.727  19.894  -2.141  0.00  0.00     0.062 C 
ATOM     18  C   UNK d   0     -35.990  18.194  -0.576  0.00  0.00    -0.013 A 
ATOM     19  C   UNK d   0     -37.609  20.199  -3.146  0.00  0.00     0.067 A 
ATOM     20  N   UNK d   0     -38.899  19.942  -2.916  0.00  0.00    -0.248 NA
ATOM     21  C   UNK d   0     -37.515  20.749  -4.488  0.00  0.00    -0.011 A 
ATOM     22  C   UNK d   0     -39.656  20.283  -4.010  0.00  0.00     0.066 A 
ATOM     23  C   UNK d   0     -41.026  20.103  -3.893  0.00  0.00     0.062 C 
ATOM     24  C   UNK d   0     -38.715  20.792  -4.990  0.00  0.00    -0.020 A 
ATOM     25  C   UNK d   0     -41.747  19.698  -2.759  0.00  0.00     0.041 A 
ATOM     26  N   UNK d   0     -41.484  18.781  -1.821  0.00  0.00    -0.355 N 
ATOM     27  C   UNK d   0     -42.973  20.338  -2.475  0.00  0.00    -0.022 A 
ATOM     28  C   UNK d   0     -42.501  18.816  -0.945  0.00  0.00     0.042 A 
ATOM     29  H   UNK d   0     -40.602  18.095  -1.790  0.00  0.00     0.166 HD
ATOM     30  C   UNK d   0     -42.737  18.078   0.226  0.00  0.00     0.062 C 
ATOM     31  C   UNK d   0     -43.456  19.787  -1.328  0.00  0.00    -0.013 A 
ATOM     32  C   UNK d   0     -41.823  17.699   1.196  0.00  0.00     0.066 A 
BRANCH   8  33
ATOM     33  C   UNK d   0     -40.311  16.333   4.257  0.00  0.00     0.151 C 
BRANCH  33  34
ATOM     34  C   UNK d   0     -39.928  14.917   4.121  0.00  0.00     0.143 C 
ATOM     35  O   UNK d   0     -40.786  14.038   3.951  0.00  0.00    -0.650 OA
BRANCH  34  36
ATOM     36  O   UNK d   0     -38.598  14.568   4.184  0.00  0.00    -0.776 OA
ATOM     37  H   UNK d   0     -38.299  13.587   4.100  0.00  0.00     0.167 HD
ENDBRANCH  34  36
ENDBRANCH  33  34
ENDBRANCH   8  33
BRANCH  31  38
ATOM     38  C   UNK d   0     -44.741  20.165  -0.630  0.00  0.00     0.151 C 
BRANCH  38  39
ATOM     39  C   UNK d   0     -45.877  19.391  -1.084  0.00  0.00     0.143 C 
ATOM     40  O   UNK d   0     -46.970  19.914  -1.363  0.00  0.00    -0.650 OA
BRANCH  39  41
ATOM     41  O   UNK d   0     -45.755  18.008  -1.219  0.00  0.00    -0.776 OA
ATOM     42  H   UNK d   0     -45.199  17.669  -2.011  0.00  0.00     0.167 HD
ENDBRANCH  39  41
ENDBRANCH  38  39
ENDBRANCH  31  38
BRANCH  27  43
ATOM     43  C   UNK d   0     -43.685  21.427  -3.238  0.00  0.00     0.052 C 
BRANCH  43  44
ATOM     44  C   UNK d   0     -44.493  20.913  -4.385  0.00  0.00     0.115 C 
BRANCH  44  45
ATOM     45  C   UNK d   0     -43.945  21.552  -5.610  0.00  0.00     0.139 C 
ATOM     46  O   UNK d   0     -43.215  22.565  -5.473  0.00  0.00    -0.650 OA
BRANCH  45  47
ATOM     47  O   UNK d   0     -44.200  21.077  -6.878  0.00  0.00    -0.776 OA
ATOM     48  H   UNK d   0     -45.071  20.580  -7.126  0.00  0.00     0.167 HD
ENDBRANCH  45  47
ENDBRANCH  44  45
ENDBRANCH  43  44
ENDBRANCH  27  43
BRANCH  24  49
ATOM     49  C   UNK d   0     -39.084  21.316  -6.316  0.00  0.00     0.052 C 
BRANCH  49  50
ATOM     50  C   UNK d   0     -39.613  20.208  -7.190  0.00  0.00     0.115 C 
BRANCH  50  51
ATOM     51  C   UNK d   0     -40.320  20.597  -8.403  0.00  0.00     0.139 C 
ATOM     52  O   UNK d   0     -41.510  20.990  -8.395  0.00  0.00    -0.650 OA
BRANCH  51  53
ATOM     53  O   UNK d   0     -39.669  20.537  -9.625  0.00  0.00    -0.776 OA
ATOM     54  H   UNK d   0     -40.227  20.491 -10.459  0.00  0.00     0.167 HD
ENDBRANCH  51  53
ENDBRANCH  50  51
ENDBRANCH  49  50
ENDBRANCH  24  49
BRANCH  21  55
ATOM     55  C   UNK d   0     -36.236  21.178  -5.126  0.00  0.00     0.151 C 
BRANCH  55  56
ATOM     56  C   UNK d   0     -35.616  22.307  -4.415  0.00  0.00     0.143 C 
ATOM     57  O   UNK d   0     -34.548  22.201  -3.781  0.00  0.00    -0.650 OA
BRANCH  56  58
ATOM     58  O   UNK d   0     -36.265  23.540  -4.465  0.00  0.00    -0.776 OA
ATOM     59  H   UNK d   0     -35.829  24.237  -5.095  0.00  0.00     0.167 HD
ENDBRANCH  56  58
ENDBRANCH  55  56
ENDBRANCH  21  55
BRANCH  18  60
ATOM     60  C   UNK d   0     -34.699  17.798  -1.250  0.00  0.00     0.151 C 
BRANCH  60  61
ATOM     61  C   UNK d   0     -33.803  18.957  -1.120  0.00  0.00     0.143 C 
ATOM     62  O   UNK d   0     -33.294  19.389  -0.085  0.00  0.00    -0.650 OA
BRANCH  61  63
ATOM     63  O   UNK d   0     -33.510  19.630  -2.330  0.00  0.00    -0.776 OA
ATOM     64  H   UNK d   0     -33.918  19.336  -3.200  0.00  0.00     0.167 HD
ENDBRANCH  61  63
ENDBRANCH  60  61
ENDBRANCH  18  60
BRANCH  14  65
ATOM     65  C   UNK d   0     -35.676  16.649   1.383  0.00  0.00     0.052 C 
BRANCH  65  66
ATOM     66  C   UNK d   0     -35.306  17.142   2.737  0.00  0.00     0.115 C 
BRANCH  66  67
ATOM     67  C   UNK d   0     -35.028  16.201   3.786  0.00  0.00     0.139 C 
ATOM     68  O   UNK d   0     -34.077  16.464   4.610  0.00  0.00    -0.650 OA
BRANCH  67  69
ATOM     69  O   UNK d   0     -35.676  14.993   4.042  0.00  0.00    -0.776 OA
ATOM     70  H   UNK d   0     -35.641  14.297   3.283  0.00  0.00     0.167 HD
ENDBRANCH  67  69
ENDBRANCH  66  67
ENDBRANCH  65  66
ENDBRANCH  14  65
ENDBRANCH   6   7
ENDBRANCH   5   6
ENDBRANCH   2   5
TORSDOF 28
ENDMDL
MODEL 2
REMARK VINA RESULT:      -7.1      1.452      1.832
REMARK  28 active torsions:
REMARK  status: ('A' for Active; 'I' for Inactive)
REMARK    1  A    between atoms: C_2  and  O_3 
REMARK    2  A    between atoms: C_2  and  C_4 
REMARK    3  A    between atoms: C_4  and  C_5 
REMARK    4  A    between atoms: C_5  and  C_6 
REMARK    5  A    between atoms: C_7  and  C_8 
REMARK    6  A    between atoms: C_8  and  C_9 
REMARK    7  A    between atoms: C_9  and  O_11 
REMARK    8  A    between atoms: C_28  and  C_29 
REMARK    9  A    between atoms: C_29  and  C_30 
REMARK   10  A    between atoms: C_30  and  O_32 
REMARK   11  A    between atoms: C_33  and  C_34 
REMARK   12  A    between atoms: C_34  and  C_35 
REMARK   13  A    between atoms: C_35  and  C_36 
REMARK   14  A    between atoms: C_36  and  O_38 
REMARK   15  A    between atoms: C_39  and  C_40 
REMARK   16  A    between atoms: C_40  and  C_41 
REMARK   17  A    between atoms: C_41  and  C_42 
REMARK   18  A    between atoms: C_42  and  O_44 
REMARK   19  A    between atoms: C_45  and  C_46 
REMARK   20  A    between atoms: C_46  and  C_47 
REMARK   21  A    between atoms: C_47  and  O_49 
REMARK   22  A    between atoms: C_50  and  C_51 
REMARK   23  A    between atoms: C_51  and  C_52 
REMARK   24  A    between atoms: C_52  and  O_54 
REMARK   25  A    between atoms: C_55  and  C_56 
REMARK   26  A    between atoms: C_56  and  C_57 
REMARK   27  A    between atoms: C_57  and  C_58 
REMARK   28  A    between atoms: C_58  and  O_60 
ROOT
ATOM      1  O   UNK d   0     -43.343  19.112   4.374  0.00  0.00    -0.650 OA
ATOM      2  C   UNK d   0     -43.869  17.978   4.322  0.00  0.00     0.139 C 
ENDROOT
BRANCH   2   3
ATOM      3  O   UNK d   0     -44.430  17.443   5.457  0.00  0.00    -0.776 OA
ATOM      4  H   UNK d   0     -44.433  17.961   6.338  0.00  0.00     0.167 HD
ENDBRANCH   2   3
BRANCH   2   5
ATOM      5  C   UNK d   0     -43.886  17.218   3.040  0.00  0.00     0.115 C 
BRANCH   5   6
ATOM      6  C   UNK d   0     -42.656  16.357   2.933  0.00  0.00     0.052 C 
BRANCH   6   7
ATOM      7  C   UNK d   0     -41.466  17.109   2.389  0.00  0.00    -0.020 A 
ATOM      8  C   UNK d   0     -40.316  17.318   2.978  0.00  0.00    -0.011 A 
ATOM      9  C   UNK d   0     -39.487  18.096   2.072  0.00  0.00     0.067 A 
ATOM     10  C   UNK d   0     -38.184  18.617   2.087  0.00  0.00     0.062 C 
ATOM     11  N   UNK d   0     -40.213  18.320   0.957  0.00  0.00    -0.248 NA
ATOM     12  C   UNK d   0     -37.455  19.108   0.999  0.00  0.00     0.041 A 
ATOM     13  N   UNK d   0     -37.819  19.901  -0.027  0.00  0.00    -0.355 N 
ATOM     14  C   UNK d   0     -36.115  18.710   0.843  0.00  0.00    -0.022 A 
ATOM     15  C   UNK d   0     -36.747  20.010  -0.834  0.00  0.00     0.042 A 
ATOM     16  H   UNK d   0     -38.808  20.389  -0.167  0.00  0.00     0.166 HD
ATOM     17  C   UNK d   0     -36.580  20.719  -2.040  0.00  0.00     0.062 C 
ATOM     18  C   UNK d   0     -35.659  19.277  -0.322  0.00  0.00    -0.013 A 
ATOM     19  C   UNK d   0     -37.423  20.795  -3.119  0.00  0.00     0.067 A 
ATOM     20  N   UNK d   0     -38.655  20.305  -2.960  0.00  0.00    -0.248 NA
ATOM     21  C   UNK d   0     -37.330  21.284  -4.485  0.00  0.00    -0.011 A 
ATOM     22  C   UNK d   0     -39.374  20.437  -4.123  0.00  0.00     0.066 A 
ATOM     23  C   UNK d   0     -40.690  20.000  -4.087  0.00  0.00     0.062 C 
ATOM     24  C   UNK d   0     -38.473  21.067  -5.068  0.00  0.00    -0.020 A 
ATOM     25  C   UNK d   0     -41.407  19.522  -2.979  0.00  0.00     0.041 A 
ATOM     26  N   UNK d   0     -41.050  18.722  -1.968  0.00  0.00    -0.355 N 
ATOM     27  C   UNK d   0     -42.751  19.926  -2.821  0.00  0.00    -0.022 A 
ATOM     28  C   UNK d   0     -42.120  18.604  -1.166  0.00  0.00     0.042 A 
ATOM     29  H   UNK d   0     -40.059  18.223  -1.834  0.00  0.00     0.166 HD
ATOM     30  C   UNK d   0     -42.303  17.895   0.031  0.00  0.00     0.062 C 
ATOM     31  C   UNK d   0     -43.210  19.350  -1.676  0.00  0.00    -0.013 A 
ATOM     32  C   UNK d   0     -41.413  17.751   1.084  0.00  0.00     0.066 A 
BRANCH   8  33
ATOM     33  C   UNK d   0     -39.915  16.863   4.321  0.00  0.00     0.151 C 
BRANCH  33  34
ATOM     34  C   UNK d   0     -40.385  17.759   5.393  0.00  0.00     0.143 C 
ATOM     35  O   UNK d   0     -39.838  18.854   5.592  0.00  0.00    -0.650 OA
BRANCH  34  36
ATOM     36  O   UNK d   0     -41.444  17.373   6.181  0.00  0.00    -0.776 OA
ATOM     37  H   UNK d   0     -41.312  16.735   6.978  0.00  0.00     0.167 HD
ENDBRANCH  34  36
ENDBRANCH  33  34
ENDBRANCH   8  33
BRANCH  31  38
ATOM     38  C   UNK d   0     -44.594  19.507  -1.091  0.00  0.00     0.151 C 
BRANCH  38  39
ATOM     39  C   UNK d   0     -45.466  18.395  -1.404  0.00  0.00     0.143 C 
ATOM     40  O   UNK d   0     -46.154  17.825  -0.539  0.00  0.00    -0.650 OA
BRANCH  39  41
ATOM     41  O   UNK d   0     -45.547  17.935  -2.718  0.00  0.00    -0.776 OA
ATOM     42  H   UNK d   0     -44.667  17.872  -3.240  0.00  0.00     0.167 HD
ENDBRANCH  39  41
ENDBRANCH  38  39
ENDBRANCH  31  38
BRANCH  27  43
ATOM     43  C   UNK d   0     -43.595  20.815  -3.699  0.00  0.00     0.052 C 
BRANCH  43  44
ATOM     44  C   UNK d   0     -43.666  22.227  -3.215  0.00  0.00     0.115 C 
BRANCH  44  45
ATOM     45  C   UNK d   0     -42.749  23.018  -4.076  0.00  0.00     0.139 C 
ATOM     46  O   UNK d   0     -42.179  24.018  -3.572  0.00  0.00    -0.650 OA
BRANCH  45  47
ATOM     47  O   UNK d   0     -42.496  22.697  -5.392  0.00  0.00    -0.776 OA
ATOM     48  H   UNK d   0     -42.937  21.893  -5.867  0.00  0.00     0.167 HD
ENDBRANCH  45  47
ENDBRANCH  44  45
ENDBRANCH  43  44
ENDBRANCH  27  43
BRANCH  24  49
ATOM     49  C   UNK d   0     -38.829  21.442  -6.447  0.00  0.00     0.052 C 
BRANCH  49  50
ATOM     50  C   UNK d   0     -39.360  20.246  -7.195  0.00  0.00     0.115 C 
BRANCH  50  51
ATOM     51  C   UNK d   0     -40.579  20.433  -7.970  0.00  0.00     0.139 C 
ATOM     52  O   UNK d   0     -40.614  20.312  -9.217  0.00  0.00    -0.650 OA
BRANCH  51  53
ATOM     53  O   UNK d   0     -41.760  20.760  -7.321  0.00  0.00    -0.776 OA
ATOM     54  H   UNK d   0     -41.769  21.574  -6.731  0.00  0.00     0.167 HD
ENDBRANCH  51  53
ENDBRANCH  50  51
ENDBRANCH  49  50
ENDBRANCH  24  49
BRANCH  21  55
ATOM     55  C   UNK d   0     -36.109  21.920  -5.063  0.00  0.00     0.151 C 
BRANCH  55  56
ATOM     56  C   UNK d   0     -35.972  23.325  -4.650  0.00  0.00     0.143 C 
ATOM     57  O   UNK d   0     -36.733  24.225  -5.055  0.00  0.00    -0.650 OA
BRANCH  56  58
ATOM     58  O   UNK d   0     -34.940  23.645  -3.769  0.00  0.00    -0.776 OA
ATOM     59  H   UNK d   0     -34.156  24.175  -4.189  0.00  0.00     0.167 HD
ENDBRANCH  56  58
ENDBRANCH  55  56
ENDBRANCH  21  55
BRANCH  18  60
ATOM     60  C   UNK d   0     -34.268  19.104  -0.880  0.00  0.00     0.151 C 
BRANCH  60  61
ATOM     61  C   UNK d   0     -34.408  18.217  -2.045  0.00  0.00     0.143 C 
ATOM     62  O   UNK d   0     -34.012  18.429  -3.192  0.00  0.00    -0.650 OA
BRANCH  61  63
ATOM     63  O   UNK d   0     -35.072  16.992  -1.793  0.00  0.00    -0.776 OA
ATOM     64  H   UNK d   0     -35.908  16.961  -1.237  0.00  0.00     0.167 HD
ENDBRANCH  61  63
ENDBRANCH  60  61
ENDBRANCH  18  60
BRANCH  14  65
ATOM     65  C   UNK d   0     -35.212  17.924   1.751  0.00  0.00     0.052 C 
BRANCH  65  66
ATOM     66  C   UNK d   0     -35.347  16.453   1.574  0.00  0.00     0.115 C 
BRANCH  66  67
ATOM     67  C   UNK d   0     -34.214  15.680   1.152  0.00  0.00     0.139 C 
ATOM     68  O   UNK d   0     -34.220  14.413   1.369  0.00  0.00    -0.650 OA
BRANCH  67  69
ATOM     69  O   UNK d   0     -33.061  16.135   0.513  0.00  0.00    -0.776 OA
ATOM     70  H   UNK d   0     -33.095  17.103   0.163  0.00  0.00     0.167 HD
ENDBRANCH  67  69
ENDBRANCH  66  67
ENDBRANCH  65  66
ENDBRANCH  14  65
ENDBRANCH   6   7
ENDBRANCH   5   6
ENDBRANCH   2   5
TORSDOF 28
ENDMDL
MODEL 3
REMARK VINA RESULT:      -7.1      1.983      7.828
REMARK  28 active torsions:
REMARK  status: ('A' for Active; 'I' for Inactive)
REMARK    1  A    between atoms: C_2  and  O_3 
REMARK    2  A    between atoms: C_2  and  C_4 
REMARK    3  A    between atoms: C_4  and  C_5 
REMARK    4  A    between atoms: C_5  and  C_6 
REMARK    5  A    between atoms: C_7  and  C_8 
REMARK    6  A    between atoms: C_8  and  C_9 
REMARK    7  A    between atoms: C_9  and  O_11 
REMARK    8  A    between atoms: C_28  and  C_29 
REMARK    9  A    between atoms: C_29  and  C_30 
REMARK   10  A    between atoms: C_30  and  O_32 
REMARK   11  A    between atoms: C_33  and  C_34 
REMARK   12  A    between atoms: C_34  and  C_35 
REMARK   13  A    between atoms: C_35  and  C_36 
REMARK   14  A    between atoms: C_36  and  O_38 
REMARK   15  A    between atoms: C_39  and  C_40 
REMARK   16  A    between atoms: C_40  and  C_41 
REMARK   17  A    between atoms: C_41  and  C_42 
REMARK   18  A    between atoms: C_42  and  O_44 
REMARK   19  A    between atoms: C_45  and  C_46 
REMARK   20  A    between atoms: C_46  and  C_47 
REMARK   21  A    between atoms: C_47  and  O_49 
REMARK   22  A    between atoms: C_50  and  C_51 
REMARK   23  A    between atoms: C_51  and  C_52 
REMARK   24  A    between atoms: C_52  and  O_54 
REMARK   25  A    between atoms: C_55  and  C_56 
REMARK   26  A    between atoms: C_56  and  C_57 
REMARK   27  A    between atoms: C_57  and  C_58 
REMARK   28  A    between atoms: C_58  and  O_60 
ROOT
ATOM      1  O   UNK d   0     -43.989  19.197   4.615  0.00  0.00    -0.650 OA
ATOM      2  C   UNK d   0     -44.585  18.161   4.245  0.00  0.00     0.139 C 
ENDROOT
BRANCH   2   3
ATOM      3  O   UNK d   0     -44.855  17.175   5.163  0.00  0.00    -0.776 OA
ATOM      4  H   UNK d   0     -45.322  17.390   6.047  0.00  0.00     0.167 HD
ENDBRANCH   2   3
BRANCH   2   5
ATOM      5  C   UNK d   0     -44.995  18.002   2.821  0.00  0.00     0.115 C 
BRANCH   5   6
ATOM      6  C   UNK d   0     -44.831  19.304   2.087  0.00  0.00     0.052 C 
BRANCH   6   7
ATOM      7  C   UNK d   0     -43.847  19.208   0.946  0.00  0.00    -0.020 A 
ATOM      8  C   UNK d   0     -44.102  19.272  -0.336  0.00  0.00    -0.011 A 
ATOM      9  C   UNK d   0     -42.843  19.122  -1.048  0.00  0.00     0.067 A 
ATOM     10  C   UNK d   0     -42.434  19.120  -2.391  0.00  0.00     0.062 C 
ATOM     11  N   UNK d   0     -41.875  18.966  -0.121  0.00  0.00    -0.248 NA
ATOM     12  C   UNK d   0     -41.128  19.240  -2.878  0.00  0.00     0.041 A 
ATOM     13  N   UNK d   0     -39.973  18.681  -2.467  0.00  0.00    -0.355 N 
ATOM     14  C   UNK d   0     -40.879  20.118  -3.948  0.00  0.00    -0.022 A 
ATOM     15  C   UNK d   0     -38.997  19.188  -3.244  0.00  0.00     0.042 A 
ATOM     16  H   UNK d   0     -39.853  17.928  -1.657  0.00  0.00     0.166 HD
ATOM     17  C   UNK d   0     -37.610  18.943  -3.243  0.00  0.00     0.062 C 
ATOM     18  C   UNK d   0     -39.526  20.092  -4.184  0.00  0.00    -0.013 A 
ATOM     19  C   UNK d   0     -36.748  18.868  -2.179  0.00  0.00     0.067 A 
ATOM     20  N   UNK d   0     -37.294  18.820  -0.961  0.00  0.00    -0.248 NA
ATOM     21  C   UNK d   0     -35.306  18.837  -2.003  0.00  0.00    -0.011 A 
ATOM     22  C   UNK d   0     -36.313  18.762  -0.001  0.00  0.00     0.066 A 
ATOM     23  C   UNK d   0     -36.743  18.670   1.314  0.00  0.00     0.062 C 
ATOM     24  C   UNK d   0     -35.058  18.780  -0.726  0.00  0.00    -0.020 A 
ATOM     25  C   UNK d   0     -38.059  18.538   1.782  0.00  0.00     0.041 A 
ATOM     26  N   UNK d   0     -39.204  19.105   1.384  0.00  0.00    -0.355 N 
ATOM     27  C   UNK d   0     -38.309  17.653   2.854  0.00  0.00    -0.022 A 
ATOM     28  C   UNK d   0     -40.178  18.608   2.163  0.00  0.00     0.042 A 
ATOM     29  H   UNK d   0     -39.322  19.869   0.576  0.00  0.00     0.166 HD
ATOM     30  C   UNK d   0     -41.561  18.849   2.179  0.00  0.00     0.062 C 
ATOM     31  C   UNK d   0     -39.647  17.691   3.101  0.00  0.00    -0.013 A 
ATOM     32  C   UNK d   0     -42.413  19.009   1.098  0.00  0.00     0.066 A 
BRANCH   8  33
ATOM     33  C   UNK d   0     -45.421  19.457  -0.968  0.00  0.00     0.151 C 
BRANCH  33  34
ATOM     34  C   UNK d   0     -45.987  18.198  -1.485  0.00  0.00     0.143 C 
ATOM     35  O   UNK d   0     -46.761  17.517  -0.797  0.00  0.00    -0.650 OA
BRANCH  34  36
ATOM     36  O   UNK d   0     -45.648  17.774  -2.750  0.00  0.00    -0.776 OA
ATOM     37  H   UNK d   0     -44.708  17.940  -3.135  0.00  0.00     0.167 HD
ENDBRANCH  34  36
ENDBRANCH  33  34
ENDBRANCH   8  33
BRANCH  31  38
ATOM     38  C   UNK d   0     -40.382  16.895   4.154  0.00  0.00     0.151 C 
BRANCH  38  39
ATOM     39  C   UNK d   0     -40.735  17.687   5.312  0.00  0.00     0.143 C 
ATOM     40  O   UNK d   0     -40.039  18.641   5.703  0.00  0.00    -0.650 OA
BRANCH  39  41
ATOM     41  O   UNK d   0     -41.895  17.383   6.024  0.00  0.00    -0.776 OA
ATOM     42  H   UNK d   0     -42.453  16.594   5.682  0.00  0.00     0.167 HD
ENDBRANCH  39  41
ENDBRANCH  38  39
ENDBRANCH  31  38
BRANCH  27  43
ATOM     43  C   UNK d   0     -37.344  16.796   3.634  0.00  0.00     0.052 C 
BRANCH  43  44
ATOM     44  C   UNK d   0     -35.983  16.731   3.021  0.00  0.00     0.115 C 
BRANCH  44  45
ATOM     45  C   UNK d   0     -35.128  15.963   3.963  0.00  0.00     0.139 C 
ATOM     46  O   UNK d   0     -35.427  14.764   4.189  0.00  0.00    -0.650 OA
BRANCH  45  47
ATOM     47  O   UNK d   0     -34.029  16.509   4.589  0.00  0.00    -0.776 OA
ATOM     48  H   UNK d   0     -34.057  17.416   5.082  0.00  0.00     0.167 HD
ENDBRANCH  45  47
ENDBRANCH  44  45
ENDBRANCH  43  44
ENDBRANCH  27  43
BRANCH  24  49
ATOM     49  C   UNK d   0     -33.726  18.694  -0.103  0.00  0.00     0.052 C 
BRANCH  49  50
ATOM     50  C   UNK d   0     -33.372  20.000   0.562  0.00  0.00     0.115 C 
BRANCH  50  51
ATOM     51  C   UNK d   0     -33.612  20.102   1.995  0.00  0.00     0.139 C 
ATOM     52  O   UNK d   0     -34.146  21.107   2.521  0.00  0.00    -0.650 OA
BRANCH  51  53
ATOM     53  O   UNK d   0     -33.238  19.060   2.829  0.00  0.00    -0.776 OA
ATOM     54  H   UNK d   0     -33.316  19.194   3.822  0.00  0.00     0.167 HD
ENDBRANCH  51  53
ENDBRANCH  50  51
ENDBRANCH  49  50
ENDBRANCH  24  49
BRANCH  21  55
ATOM     55  C   UNK d   0     -34.326  18.864  -3.129  0.00  0.00     0.151 C 
BRANCH  55  56
ATOM     56  C   UNK d   0     -34.190  20.209  -3.709  0.00  0.00     0.143 C 
ATOM     57  O   UNK d   0     -33.561  21.126  -3.146  0.00  0.00    -0.650 OA
BRANCH  56  58
ATOM     58  O   UNK d   0     -34.796  20.449  -4.941  0.00  0.00    -0.776 OA
ATOM     59  H   UNK d   0     -34.644  21.399  -5.325  0.00  0.00     0.167 HD
ENDBRANCH  56  58
ENDBRANCH  55  56
ENDBRANCH  21  55
BRANCH  18  60
ATOM     60  C   UNK d   0     -38.819  20.897  -5.247  0.00  0.00     0.151 C 
BRANCH  60  61
ATOM     61  C   UNK d   0     -38.394  22.144  -4.593  0.00  0.00     0.143 C 
ATOM     62  O   UNK d   0     -39.080  23.145  -4.385  0.00  0.00    -0.650 OA
BRANCH  61  63
ATOM     63  O   UNK d   0     -37.045  22.169  -4.165  0.00  0.00    -0.776 OA
ATOM     64  H   UNK d   0     -36.707  22.895  -3.558  0.00  0.00     0.167 HD
ENDBRANCH  61  63
ENDBRANCH  60  61
ENDBRANCH  18  60
BRANCH  14  65
ATOM     65  C   UNK d   0     -41.824  20.895  -4.820  0.00  0.00     0.052 C 
BRANCH  65  66
ATOM     66  C   UNK d   0     -42.781  21.727  -4.042  0.00  0.00     0.115 C 
BRANCH  66  67
ATOM     67  C   UNK d   0     -42.287  22.780  -3.199  0.00  0.00     0.139 C 
ATOM     68  O   UNK d   0     -42.210  23.969  -3.683  0.00  0.00    -0.650 OA
BRANCH  67  69
ATOM     69  O   UNK d   0     -41.861  22.684  -1.875  0.00  0.00    -0.776 OA
ATOM     70  H   UNK d   0     -42.527  23.020  -1.165  0.00  0.00     0.167 HD
ENDBRANCH  67  69
ENDBRANCH  66  67
ENDBRANCH  65  66
ENDBRANCH  14  65
ENDBRANCH   6   7
ENDBRANCH   5   6
ENDBRANCH   2   5
TORSDOF 28
ENDMDL
MODEL 4
REMARK VINA RESULT:      -7.1      1.430      8.217
REMARK  28 active torsions:
REMARK  status: ('A' for Active; 'I' for Inactive)
REMARK    1  A    between atoms: C_2  and  O_3 
REMARK    2  A    between atoms: C_2  and  C_4 
REMARK    3  A    between atoms: C_4  and  C_5 
REMARK    4  A    between atoms: C_5  and  C_6 
REMARK    5  A    between atoms: C_7  and  C_8 
REMARK    6  A    between atoms: C_8  and  C_9 
REMARK    7  A    between atoms: C_9  and  O_11 
REMARK    8  A    between atoms: C_28  and  C_29 
REMARK    9  A    between atoms: C_29  and  C_30 
REMARK   10  A    between atoms: C_30  and  O_32 
REMARK   11  A    between atoms: C_33  and  C_34 
REMARK   12  A    between atoms: C_34  and  C_35 
REMARK   13  A    between atoms: C_35  and  C_36 
REMARK   14  A    between atoms: C_36  and  O_38 
REMARK   15  A    between atoms: C_39  and  C_40 
REMARK   16  A    between atoms: C_40  and  C_41 
REMARK   17  A    between atoms: C_41  and  C_42 
REMARK   18  A    between atoms: C_42  and  O_44 
REMARK   19  A    between atoms: C_45  and  C_46 
REMARK   20  A    between atoms: C_46  and  C_47 
REMARK   21  A    between atoms: C_47  and  O_49 
REMARK   22  A    between atoms: C_50  and  C_51 
REMARK   23  A    between atoms: C_51  and  C_52 
REMARK   24  A    between atoms: C_52  and  O_54 
REMARK   25  A    between atoms: C_55  and  C_56 
REMARK   26  A    between atoms: C_56  and  C_57 
REMARK   27  A    between atoms: C_57  and  C_58 
REMARK   28  A    between atoms: C_58  and  O_60 
ROOT
ATOM      1  O   UNK d   0     -46.148  19.971   2.918  0.00  0.00    -0.650 OA
ATOM      2  C   UNK d   0     -46.516  18.904   2.379  0.00  0.00     0.139 C 
ENDROOT
BRANCH   2   3
ATOM      3  O   UNK d   0     -46.974  17.875   3.166  0.00  0.00    -0.776 OA
ATOM      4  H   UNK d   0     -47.210  16.966   2.761  0.00  0.00     0.167 HD
ENDBRANCH   2   3
BRANCH   2   5
ATOM      5  C   UNK d   0     -46.456  18.755   0.897  0.00  0.00     0.115 C 
BRANCH   5   6
ATOM      6  C   UNK d   0     -45.916  20.012   0.271  0.00  0.00     0.052 C 
BRANCH   6   7
ATOM      7  C   UNK d   0     -44.618  19.783  -0.467  0.00  0.00    -0.020 A 
ATOM      8  C   UNK d   0     -44.392  19.931  -1.747  0.00  0.00    -0.011 A 
ATOM      9  C   UNK d   0     -43.001  19.588  -1.995  0.00  0.00     0.067 A 
ATOM     10  C   UNK d   0     -42.149  19.558  -3.110  0.00  0.00     0.062 C 
ATOM     11  N   UNK d   0     -42.458  19.237  -0.810  0.00  0.00    -0.248 NA
ATOM     12  C   UNK d   0     -40.753  19.465  -3.107  0.00  0.00     0.041 A 
ATOM     13  N   UNK d   0     -39.917  18.701  -2.378  0.00  0.00    -0.355 N 
ATOM     14  C   UNK d   0     -40.013  20.320  -3.943  0.00  0.00    -0.022 A 
ATOM     15  C   UNK d   0     -38.665  19.056  -2.724  0.00  0.00     0.042 A 
ATOM     16  H   UNK d   0     -40.206  17.914  -1.647  0.00  0.00     0.166 HD
ATOM     17  C   UNK d   0     -37.421  18.575  -2.270  0.00  0.00     0.062 C 
ATOM     18  C   UNK d   0     -38.685  20.068  -3.702  0.00  0.00    -0.013 A 
ATOM     19  C   UNK d   0     -37.012  18.317  -0.986  0.00  0.00     0.067 A 
ATOM     20  N   UNK d   0     -37.954  18.326  -0.038  0.00  0.00    -0.248 NA
ATOM     21  C   UNK d   0     -35.747  18.031  -0.330  0.00  0.00    -0.011 A 
ATOM     22  C   UNK d   0     -37.396  18.069   1.190  0.00  0.00     0.066 A 
ATOM     23  C   UNK d   0     -38.271  18.011   2.264  0.00  0.00     0.062 C 
ATOM     24  C   UNK d   0     -35.978  17.891   0.944  0.00  0.00    -0.020 A 
ATOM     25  C   UNK d   0     -39.672  18.094   2.239  0.00  0.00     0.041 A 
ATOM     26  N   UNK d   0     -40.502  18.863   1.525  0.00  0.00    -0.355 N 
ATOM     27  C   UNK d   0     -40.414  17.232   3.075  0.00  0.00    -0.022 A 
ATOM     28  C   UNK d   0     -41.752  18.517   1.875  0.00  0.00     0.042 A 
ATOM     29  H   UNK d   0     -40.210  19.661   0.799  0.00  0.00     0.166 HD
ATOM     30  C   UNK d   0     -42.998  18.994   1.438  0.00  0.00     0.062 C 
ATOM     31  C   UNK d   0     -41.731  17.493   2.850  0.00  0.00    -0.013 A 
ATOM     32  C   UNK d   0     -43.379  19.334   0.149  0.00  0.00     0.066 A 
BRANCH   8  33
ATOM     33  C   UNK d   0     -45.359  20.362  -2.773  0.00  0.00     0.151 C 
BRANCH  33  34
ATOM     34  C   UNK d   0     -45.258  21.799  -3.085  0.00  0.00     0.143 C 
ATOM     35  O   UNK d   0     -45.755  22.650  -2.333  0.00  0.00    -0.650 OA
BRANCH  34  36
ATOM     36  O   UNK d   0     -44.604  22.197  -4.228  0.00  0.00    -0.776 OA
ATOM     37  H   UNK d   0     -43.667  22.621  -4.187  0.00  0.00     0.167 HD
ENDBRANCH  34  36
ENDBRANCH  33  34
ENDBRANCH   8  33
BRANCH  31  38
ATOM     38  C   UNK d   0     -42.902  16.803   3.511  0.00  0.00     0.151 C 
BRANCH  38  39
ATOM     39  C   UNK d   0     -43.479  17.582   4.586  0.00  0.00     0.143 C 
ATOM     40  O   UNK d   0     -42.887  18.547   5.100  0.00  0.00    -0.650 OA
BRANCH  39  41
ATOM     41  O   UNK d   0     -44.743  17.250   5.071  0.00  0.00    -0.776 OA
ATOM     42  H   UNK d   0     -45.186  17.924   5.705  0.00  0.00     0.167 HD
ENDBRANCH  39  41
ENDBRANCH  38  39
ENDBRANCH  31  38
BRANCH  27  43
ATOM     43  C   UNK d   0     -39.928  16.196   4.057  0.00  0.00     0.052 C 
BRANCH  43  44
ATOM     44  C   UNK d   0     -40.323  14.802   3.690  0.00  0.00     0.115 C 
BRANCH  44  45
ATOM     45  C   UNK d   0     -39.607  13.898   4.627  0.00  0.00     0.139 C 
ATOM     46  O   UNK d   0     -40.272  13.335   5.532  0.00  0.00    -0.650 OA
BRANCH  45  47
ATOM     47  O   UNK d   0     -38.254  13.649   4.539  0.00  0.00    -0.776 OA
ATOM     48  H   UNK d   0     -37.778  13.452   3.644  0.00  0.00     0.167 HD
ENDBRANCH  45  47
ENDBRANCH  44  45
ENDBRANCH  43  44
ENDBRANCH  27  43
BRANCH  24  49
ATOM     49  C   UNK d   0     -34.981  17.556   1.975  0.00  0.00     0.052 C 
BRANCH  49  50
ATOM     50  C   UNK d   0     -35.071  16.095   2.336  0.00  0.00     0.115 C 
BRANCH  50  51
ATOM     51  C   UNK d   0     -35.002  15.755   3.751  0.00  0.00     0.139 C 
ATOM     52  O   UNK d   0     -34.377  16.452   4.585  0.00  0.00    -0.650 OA
BRANCH  51  53
ATOM     53  O   UNK d   0     -35.644  14.617   4.215  0.00  0.00    -0.776 OA
ATOM     54  H   UNK d   0     -35.785  13.856   3.574  0.00  0.00     0.167 HD
ENDBRANCH  51  53
ENDBRANCH  50  51
ENDBRANCH  49  50
ENDBRANCH  24  49
BRANCH  21  55
ATOM     55  C   UNK d   0     -34.441  17.924  -1.044  0.00  0.00     0.151 C 
BRANCH  55  56
ATOM     56  C   UNK d   0     -33.891  19.244  -1.388  0.00  0.00     0.143 C 
ATOM     57  O   UNK d   0     -33.488  20.052  -0.529  0.00  0.00    -0.650 OA
BRANCH  56  58
ATOM     58  O   UNK d   0     -33.825  19.588  -2.738  0.00  0.00    -0.776 OA
ATOM     59  H   UNK d   0     -34.549  19.151  -3.335  0.00  0.00     0.167 HD
ENDBRANCH  56  58
ENDBRANCH  55  56
ENDBRANCH  21  55
BRANCH  18  60
ATOM     60  C   UNK d   0     -37.535  20.772  -4.381  0.00  0.00     0.151 C 
BRANCH  60  61
ATOM     61  C   UNK d   0     -37.158  21.881  -3.491  0.00  0.00     0.143 C 
ATOM     62  O   UNK d   0     -37.784  22.924  -3.300  0.00  0.00    -0.650 OA
BRANCH  61  63
ATOM     63  O   UNK d   0     -35.942  21.703  -2.789  0.00  0.00    -0.776 OA
ATOM     64  H   UNK d   0     -35.169  21.217  -3.207  0.00  0.00     0.167 HD
ENDBRANCH  61  63
ENDBRANCH  60  61
ENDBRANCH  18  60
BRANCH  14  65
ATOM     65  C   UNK d   0     -40.460  21.277  -5.011  0.00  0.00     0.052 C 
BRANCH  65  66
ATOM     66  C   UNK d   0     -40.966  20.592  -6.231  0.00  0.00     0.115 C 
BRANCH  66  67
ATOM     67  C   UNK d   0     -40.079  20.356  -7.335  0.00  0.00     0.139 C 
ATOM     68  O   UNK d   0     -39.259  21.288  -7.673  0.00  0.00    -0.650 OA
BRANCH  67  69
ATOM     69  O   UNK d   0     -39.981  19.209  -8.122  0.00  0.00    -0.776 OA
ATOM     70  H   UNK d   0     -39.859  19.368  -9.132  0.00  0.00     0.167 HD
ENDBRANCH  67  69
ENDBRANCH  66  67
ENDBRANCH  65  66
ENDBRANCH  14  65
ENDBRANCH   6   7
ENDBRANCH   5   6
ENDBRANCH   2   5
TORSDOF 28
ENDMDL
MODEL 5
REMARK VINA RESULT:      -7.0      2.132     11.246
REMARK  28 active torsions:
REMARK  status: ('A' for Active; 'I' for Inactive)
REMARK    1  A    between atoms: C_2  and  O_3 
REMARK    2  A    between atoms: C_2  and  C_4 
REMARK    3  A    between atoms: C_4  and  C_5 
REMARK    4  A    between atoms: C_5  and  C_6 
REMARK    5  A    between atoms: C_7  and  C_8 
REMARK    6  A    between atoms: C_8  and  C_9 
REMARK    7  A    between atoms: C_9  and  O_11 
REMARK    8  A    between atoms: C_28  and  C_29 
REMARK    9  A    between atoms: C_29  and  C_30 
REMARK   10  A    between atoms: C_30  and  O_32 
REMARK   11  A    between atoms: C_33  and  C_34 
REMARK   12  A    between atoms: C_34  and  C_35 
REMARK   13  A    between atoms: C_35  and  C_36 
REMARK   14  A    between atoms: C_36  and  O_38 
REMARK   15  A    between atoms: C_39  and  C_40 
REMARK   16  A    between atoms: C_40  and  C_41 
REMARK   17  A    between atoms: C_41  and  C_42 
REMARK   18  A    between atoms: C_42  and  O_44 
REMARK   19  A    between atoms: C_45  and  C_46 
REMARK   20  A    between atoms: C_46  and  C_47 
REMARK   21  A    between atoms: C_47  and  O_49 
REMARK   22  A    between atoms: C_50  and  C_51 
REMARK   23  A    between atoms: C_51  and  C_52 
REMARK   24  A    between atoms: C_52  and  O_54 
REMARK   25  A    between atoms: C_55  and  C_56 
REMARK   26  A    between atoms: C_56  and  C_57 
REMARK   27  A    between atoms: C_57  and  C_58 
REMARK   28  A    between atoms: C_58  and  O_60 
ROOT
ATOM      1  O   UNK d   0     -39.299  20.550 -10.258  0.00  0.00    -0.650 OA
ATOM      2  C   UNK d   0     -40.260  20.787  -9.493  0.00  0.00     0.139 C 
ENDROOT
BRANCH   2   3
ATOM      3  O   UNK d   0     -41.285  21.591  -9.929  0.00  0.00    -0.776 OA
ATOM      4  H   UNK d   0     -41.140  22.272 -10.677  0.00  0.00     0.167 HD
ENDBRANCH   2   3
BRANCH   2   5
ATOM      5  C   UNK d   0     -40.287  20.203  -8.122  0.00  0.00     0.115 C 
BRANCH   5   6
ATOM      6  C   UNK d   0     -40.087  21.284  -7.094  0.00  0.00     0.052 C 
BRANCH   6   7
ATOM      7  C   UNK d   0     -41.063  21.182  -5.946  0.00  0.00    -0.020 A 
ATOM      8  C   UNK d   0     -42.253  21.718  -5.861  0.00  0.00    -0.011 A 
ATOM      9  C   UNK d   0     -42.814  21.354  -4.570  0.00  0.00     0.067 A 
ATOM     10  C   UNK d   0     -44.021  21.580  -3.890  0.00  0.00     0.062 C 
ATOM     11  N   UNK d   0     -41.894  20.600  -3.933  0.00  0.00    -0.248 NA
ATOM     12  C   UNK d   0     -44.492  20.910  -2.756  0.00  0.00     0.041 A 
ATOM     13  N   UNK d   0     -43.865  20.526  -1.628  0.00  0.00    -0.355 N 
ATOM     14  C   UNK d   0     -45.831  20.479  -2.728  0.00  0.00    -0.022 A 
ATOM     15  C   UNK d   0     -44.769  19.856  -0.889  0.00  0.00     0.042 A 
ATOM     16  H   UNK d   0     -42.809  20.742  -1.351  0.00  0.00     0.166 HD
ATOM     17  C   UNK d   0     -44.642  19.244   0.374  0.00  0.00     0.062 C 
ATOM     18  C   UNK d   0     -46.013  19.805  -1.546  0.00  0.00    -0.013 A 
ATOM     19  C   UNK d   0     -43.634  18.444   0.848  0.00  0.00     0.067 A 
ATOM     20  N   UNK d   0     -42.521  18.375   0.114  0.00  0.00    -0.248 NA
ATOM     21  C   UNK d   0     -43.440  17.582   2.002  0.00  0.00    -0.011 A 
ATOM     22  C   UNK d   0     -41.613  17.530   0.703  0.00  0.00     0.066 A 
ATOM     23  C   UNK d   0     -40.391  17.395   0.061  0.00  0.00     0.062 C 
ATOM     24  C   UNK d   0     -42.257  17.046   1.908  0.00  0.00    -0.020 A 
ATOM     25  C   UNK d   0     -39.931  18.086  -1.070  0.00  0.00     0.041 A 
ATOM     26  N   UNK d   0     -40.551  18.455  -2.198  0.00  0.00    -0.355 N 
ATOM     27  C   UNK d   0     -38.589  18.523  -1.095  0.00  0.00    -0.022 A 
ATOM     28  C   UNK d   0     -39.649  19.116  -2.941  0.00  0.00     0.042 A 
ATOM     29  H   UNK d   0     -41.609  18.228  -2.479  0.00  0.00     0.166 HD
ATOM     30  C   UNK d   0     -39.759  19.721  -4.202  0.00  0.00     0.062 C 
ATOM     31  C   UNK d   0     -38.402  19.176  -2.275  0.00  0.00    -0.013 A 
ATOM     32  C   UNK d   0     -40.818  20.459  -4.708  0.00  0.00     0.066 A 
BRANCH   8  33
ATOM     33  C   UNK d   0     -42.924  22.551  -6.876  0.00  0.00     0.151 C 
BRANCH  33  34
ATOM     34  C   UNK d   0     -43.981  21.825  -7.603  0.00  0.00     0.143 C 
ATOM     35  O   UNK d   0     -45.178  22.067  -7.393  0.00  0.00    -0.650 OA
BRANCH  34  36
ATOM     36  O   UNK d   0     -43.631  20.865  -8.524  0.00  0.00    -0.776 OA
ATOM     37  H   UNK d   0     -44.311  20.508  -9.208  0.00  0.00     0.167 HD
ENDBRANCH  34  36
ENDBRANCH  33  34
ENDBRANCH   8  33
BRANCH  31  38
ATOM     38  C   UNK d   0     -37.122  19.830  -2.739  0.00  0.00     0.151 C 
BRANCH  38  39
ATOM     39  C   UNK d   0     -36.210  18.897  -3.367  0.00  0.00     0.143 C 
ATOM     40  O   UNK d   0     -35.074  18.671  -2.916  0.00  0.00    -0.650 OA
BRANCH  39  41
ATOM     41  O   UNK d   0     -36.608  18.220  -4.520  0.00  0.00    -0.776 OA
ATOM     42  H   UNK d   0     -36.317  17.241  -4.603  0.00  0.00     0.167 HD
ENDBRANCH  39  41
ENDBRANCH  38  39
ENDBRANCH  31  38
BRANCH  27  43
ATOM     43  C   UNK d   0     -37.503  18.343  -0.064  0.00  0.00     0.052 C 
BRANCH  43  44
ATOM     44  C   UNK d   0     -37.530  19.383   1.009  0.00  0.00     0.115 C 
BRANCH  44  45
ATOM     45  C   UNK d   0     -37.247  18.681   2.288  0.00  0.00     0.139 C 
ATOM     46  O   UNK d   0     -37.397  19.319   3.359  0.00  0.00    -0.650 OA
BRANCH  45  47
ATOM     47  O   UNK d   0     -36.836  17.367   2.344  0.00  0.00    -0.776 OA
ATOM     48  H   UNK d   0     -36.460  16.862   1.525  0.00  0.00     0.167 HD
ENDBRANCH  45  47
ENDBRANCH  44  45
ENDBRANCH  43  44
ENDBRANCH  27  43
BRANCH  24  49
ATOM     49  C   UNK d   0     -41.636  16.136   2.886  0.00  0.00     0.052 C 
BRANCH  49  50
ATOM     50  C   UNK d   0     -40.447  16.795   3.535  0.00  0.00     0.115 C 
BRANCH  50  51
ATOM     51  C   UNK d   0     -40.680  17.503   4.787  0.00  0.00     0.139 C 
ATOM     52  O   UNK d   0     -40.195  18.635   5.024  0.00  0.00    -0.650 OA
BRANCH  51  53
ATOM     53  O   UNK d   0     -41.465  16.920   5.769  0.00  0.00    -0.776 OA
ATOM     54  H   UNK d   0     -41.144  16.064   6.188  0.00  0.00     0.167 HD
ENDBRANCH  51  53
ENDBRANCH  50  51
ENDBRANCH  49  50
ENDBRANCH  24  49
BRANCH  21  55
ATOM     55  C   UNK d   0     -44.455  17.386   3.079  0.00  0.00     0.151 C 
BRANCH  55  56
ATOM     56  C   UNK d   0     -44.160  18.200   4.268  0.00  0.00     0.143 C 
ATOM     57  O   UNK d   0     -43.709  19.360   4.198  0.00  0.00    -0.650 OA
BRANCH  56  58
ATOM     58  O   UNK d   0     -44.402  17.633   5.518  0.00  0.00    -0.776 OA
ATOM     59  H   UNK d   0     -43.678  16.968   5.844  0.00  0.00     0.167 HD
ENDBRANCH  56  58
ENDBRANCH  55  56
ENDBRANCH  21  55
BRANCH  18  60
ATOM     60  C   UNK d   0     -47.306  19.164  -1.107  0.00  0.00     0.151 C 
BRANCH  60  61
ATOM     61  C   UNK d   0     -47.274  17.790  -1.631  0.00  0.00     0.143 C 
ATOM     62  O   UNK d   0     -46.437  17.306  -2.393  0.00  0.00    -0.650 OA
BRANCH  61  63
ATOM     63  O   UNK d   0     -48.330  16.954  -1.195  0.00  0.00    -0.776 OA
ATOM     64  H   UNK d   0     -49.271  17.097  -1.516  0.00  0.00     0.167 HD
ENDBRANCH  61  63
ENDBRANCH  60  61
ENDBRANCH  18  60
BRANCH  14  65
ATOM     65  C   UNK d   0     -46.965  20.738  -3.679  0.00  0.00     0.052 C 
BRANCH  65  66
ATOM     66  C   UNK d   0     -46.970  19.812  -4.844  0.00  0.00     0.115 C 
BRANCH  66  67
ATOM     67  C   UNK d   0     -48.220  19.377  -5.401  0.00  0.00     0.139 C 
ATOM     68  O   UNK d   0     -49.076  18.815  -4.624  0.00  0.00    -0.650 OA
BRANCH  67  69
ATOM     69  O   UNK d   0     -48.647  19.484  -6.724  0.00  0.00    -0.776 OA
ATOM     70  H   UNK d   0     -48.510  18.647  -7.309  0.00  0.00     0.167 HD
ENDBRANCH  67  69
ENDBRANCH  66  67
ENDBRANCH  65  66
ENDBRANCH  14  65
ENDBRANCH   6   7
ENDBRANCH   5   6
ENDBRANCH   2   5
TORSDOF 28
ENDMDL
MODEL 6
REMARK VINA RESULT:      -7.0      1.469      7.443
REMARK  28 active torsions:
REMARK  status: ('A' for Active; 'I' for Inactive)
REMARK    1  A    between atoms: C_2  and  O_3 
REMARK    2  A    between atoms: C_2  and  C_4 
REMARK    3  A    between atoms: C_4  and  C_5 
REMARK    4  A    between atoms: C_5  and  C_6 
REMARK    5  A    between atoms: C_7  and  C_8 
REMARK    6  A    between atoms: C_8  and  C_9 
REMARK    7  A    between atoms: C_9  and  O_11 
REMARK    8  A    between atoms: C_28  and  C_29 
REMARK    9  A    between atoms: C_29  and  C_30 
REMARK   10  A    between atoms: C_30  and  O_32 
REMARK   11  A    between atoms: C_33  and  C_34 
REMARK   12  A    between atoms: C_34  and  C_35 
REMARK   13  A    between atoms: C_35  and  C_36 
REMARK   14  A    between atoms: C_36  and  O_38 
REMARK   15  A    between atoms: C_39  and  C_40 
REMARK   16  A    between atoms: C_40  and  C_41 
REMARK   17  A    between atoms: C_41  and  C_42 
REMARK   18  A    between atoms: C_42  and  O_44 
REMARK   19  A    between atoms: C_45  and  C_46 
REMARK   20  A    between atoms: C_46  and  C_47 
REMARK   21  A    between atoms: C_47  and  O_49 
REMARK   22  A    between atoms: C_50  and  C_51 
REMARK   23  A    between atoms: C_51  and  C_52 
REMARK   24  A    between atoms: C_52  and  O_54 
REMARK   25  A    between atoms: C_55  and  C_56 
REMARK   26  A    between atoms: C_56  and  C_57 
REMARK   27  A    between atoms: C_57  and  C_58 
REMARK   28  A    between atoms: C_58  and  O_60 
ROOT
ATOM      1  O   UNK d   0     -43.659  22.670  -5.318  0.00  0.00    -0.650 OA
ATOM      2  C   UNK d   0     -44.565  21.849  -5.057  0.00  0.00     0.139 C 
ENDROOT
BRANCH   2   3
ATOM      3  O   UNK d   0     -44.878  20.875  -5.975  0.00  0.00    -0.776 OA
ATOM      4  H   UNK d   0     -45.769  20.376  -5.932  0.00  0.00     0.167 HD
ENDBRANCH   2   3
BRANCH   2   5
ATOM      5  C   UNK d   0     -45.297  21.930  -3.760  0.00  0.00     0.115 C 
BRANCH   5   6
ATOM      6  C   UNK d   0     -45.409  20.562  -3.143  0.00  0.00     0.052 C 
BRANCH   6   7
ATOM      7  C   UNK d   0     -44.447  20.362  -1.996  0.00  0.00    -0.020 A 
ATOM      8  C   UNK d   0     -44.705  20.439  -0.716  0.00  0.00    -0.011 A 
ATOM      9  C   UNK d   0     -43.469  20.179   0.003  0.00  0.00     0.067 A 
ATOM     10  C   UNK d   0     -43.079  20.094   1.349  0.00  0.00     0.062 C 
ATOM     11  N   UNK d   0     -42.508  19.960  -0.918  0.00  0.00    -0.248 NA
ATOM     12  C   UNK d   0     -41.891  19.556   1.855  0.00  0.00     0.041 A 
ATOM     13  N   UNK d   0     -40.616  19.672   1.435  0.00  0.00    -0.355 N 
ATOM     14  C   UNK d   0     -41.953  18.688   2.960  0.00  0.00    -0.022 A 
ATOM     15  C   UNK d   0     -39.869  18.894   2.241  0.00  0.00     0.042 A 
ATOM     16  H   UNK d   0     -40.249  20.306   0.599  0.00  0.00     0.166 HD
ATOM     17  C   UNK d   0     -38.481  18.651   2.246  0.00  0.00     0.062 C 
ATOM     18  C   UNK d   0     -40.672  18.261   3.210  0.00  0.00    -0.013 A 
ATOM     19  C   UNK d   0     -37.648  18.387   1.189  0.00  0.00     0.067 A 
ATOM     20  N   UNK d   0     -38.149  18.569  -0.035  0.00  0.00    -0.248 NA
ATOM     21  C   UNK d   0     -36.282  17.917   1.028  0.00  0.00    -0.011 A 
ATOM     22  C   UNK d   0     -37.210  18.252  -0.986  0.00  0.00     0.066 A 
ATOM     23  C   UNK d   0     -37.586  18.433  -2.309  0.00  0.00     0.062 C 
ATOM     24  C   UNK d   0     -36.033  17.837  -0.248  0.00  0.00    -0.020 A 
ATOM     25  C   UNK d   0     -38.780  18.988  -2.795  0.00  0.00     0.041 A 
ATOM     26  N   UNK d   0     -40.048  18.861  -2.388  0.00  0.00    -0.355 N 
ATOM     27  C   UNK d   0     -38.716  19.862  -3.902  0.00  0.00    -0.022 A 
ATOM     28  C   UNK d   0     -40.796  19.629  -3.196  0.00  0.00     0.042 A 
ATOM     29  H   UNK d   0     -40.417  18.215  -1.553  0.00  0.00     0.166 HD
ATOM     30  C   UNK d   0     -42.179  19.872  -3.218  0.00  0.00     0.062 C 
ATOM     31  C   UNK d   0     -39.987  20.273  -4.162  0.00  0.00    -0.013 A 
ATOM     32  C   UNK d   0     -43.032  20.054  -2.141  0.00  0.00     0.066 A 
BRANCH   8  33
ATOM     33  C   UNK d   0     -46.007  20.739  -0.092  0.00  0.00     0.151 C 
BRANCH  33  34
ATOM     34  C   UNK d   0     -46.911  19.576  -0.069  0.00  0.00     0.143 C 
ATOM     35  O   UNK d   0     -48.109  19.695  -0.361  0.00  0.00    -0.650 OA
BRANCH  34  36
ATOM     36  O   UNK d   0     -46.415  18.342   0.284  0.00  0.00    -0.776 OA
ATOM     37  H   UNK d   0     -46.733  17.862   1.136  0.00  0.00     0.167 HD
ENDBRANCH  34  36
ENDBRANCH  33  34
ENDBRANCH   8  33
BRANCH  31  38
ATOM     38  C   UNK d   0     -40.410  21.230  -5.252  0.00  0.00     0.151 C 
BRANCH  38  39
ATOM     39  C   UNK d   0     -40.798  20.554  -6.472  0.00  0.00     0.143 C 
ATOM     40  O   UNK d   0     -40.057  19.736  -7.045  0.00  0.00    -0.650 OA
BRANCH  39  41
ATOM     41  O   UNK d   0     -42.045  20.821  -7.037  0.00  0.00    -0.776 OA
ATOM     42  H   UNK d   0     -42.481  20.063  -7.571  0.00  0.00     0.167 HD
ENDBRANCH  39  41
ENDBRANCH  38  39
ENDBRANCH  31  38
BRANCH  27  43
ATOM     43  C   UNK d   0     -37.519  20.308  -4.703  0.00  0.00     0.052 C 
BRANCH  43  44
ATOM     44  C   UNK d   0     -36.875  21.545  -4.166  0.00  0.00     0.115 C 
BRANCH  44  45
ATOM     45  C   UNK d   0     -36.578  22.411  -5.336  0.00  0.00     0.139 C 
ATOM     46  O   UNK d   0     -35.400  22.820  -5.485  0.00  0.00    -0.650 OA
BRANCH  45  47
ATOM     47  O   UNK d   0     -37.534  22.775  -6.259  0.00  0.00    -0.776 OA
ATOM     48  H   UNK d   0     -37.660  22.284  -7.159  0.00  0.00     0.167 HD
ENDBRANCH  45  47
ENDBRANCH  44  45
ENDBRANCH  43  44
ENDBRANCH  27  43
BRANCH  24  49
ATOM     49  C   UNK d   0     -34.753  17.439  -0.859  0.00  0.00     0.052 C 
BRANCH  49  50
ATOM     50  C   UNK d   0     -34.074  18.634  -1.478  0.00  0.00     0.115 C 
BRANCH  50  51
ATOM     51  C   UNK d   0     -34.073  18.719  -2.932  0.00  0.00     0.139 C 
ATOM     52  O   UNK d   0     -33.652  19.725  -3.550  0.00  0.00    -0.650 OA
BRANCH  51  53
ATOM     53  O   UNK d   0     -34.556  17.658  -3.682  0.00  0.00    -0.776 OA
ATOM     54  H   UNK d   0     -35.551  17.524  -3.731  0.00  0.00     0.167 HD
ENDBRANCH  51  53
ENDBRANCH  50  51
ENDBRANCH  49  50
ENDBRANCH  24  49
BRANCH  21  55
ATOM     55  C   UNK d   0     -35.367  17.602   2.164  0.00  0.00     0.151 C 
BRANCH  55  56
ATOM     56  C   UNK d   0     -35.475  16.197   2.586  0.00  0.00     0.143 C 
ATOM     57  O   UNK d   0     -36.238  15.822   3.498  0.00  0.00    -0.650 OA
BRANCH  56  58
ATOM     58  O   UNK d   0     -34.682  15.259   1.926  0.00  0.00    -0.776 OA
ATOM     59  H   UNK d   0     -35.079  14.898   1.040  0.00  0.00     0.167 HD
ENDBRANCH  56  58
ENDBRANCH  55  56
ENDBRANCH  21  55
BRANCH  18  60
ATOM     60  C   UNK d   0     -40.279  17.306   4.309  0.00  0.00     0.151 C 
BRANCH  60  61
ATOM     61  C   UNK d   0     -40.241  15.972   3.691  0.00  0.00     0.143 C 
ATOM     62  O   UNK d   0     -41.111  15.453   2.991  0.00  0.00    -0.650 OA
BRANCH  61  63
ATOM     63  O   UNK d   0     -39.066  15.223   3.944  0.00  0.00    -0.776 OA
ATOM     64  H   UNK d   0     -38.223  15.672   4.257  0.00  0.00     0.167 HD
ENDBRANCH  61  63
ENDBRANCH  60  61
ENDBRANCH  18  60
BRANCH  14  65
ATOM     65  C   UNK d   0     -43.104  18.314   3.850  0.00  0.00     0.052 C 
BRANCH  65  66
ATOM     66  C   UNK d   0     -43.346  19.303   4.935  0.00  0.00     0.115 C 
BRANCH  66  67
ATOM     67  C   UNK d   0     -43.523  18.849   6.285  0.00  0.00     0.139 C 
ATOM     68  O   UNK d   0     -42.503  18.383   6.915  0.00  0.00    -0.650 OA
BRANCH  67  69
ATOM     69  O   UNK d   0     -44.698  18.842   7.036  0.00  0.00    -0.776 OA
ATOM     70  H   UNK d   0     -45.388  18.121   6.783  0.00  0.00     0.167 HD
ENDBRANCH  67  69
ENDBRANCH  66  67
ENDBRANCH  65  66
ENDBRANCH  14  65
ENDBRANCH   6   7
ENDBRANCH   5   6
ENDBRANCH   2   5
TORSDOF 28
ENDMDL
MODEL 7
REMARK VINA RESULT:      -6.9      1.575      8.399
REMARK  28 active torsions:
REMARK  status: ('A' for Active; 'I' for Inactive)
REMARK    1  A    between atoms: C_2  and  O_3 
REMARK    2  A    between atoms: C_2  and  C_4 
REMARK    3  A    between atoms: C_4  and  C_5 
REMARK    4  A    between atoms: C_5  and  C_6 
REMARK    5  A    between atoms: C_7  and  C_8 
REMARK    6  A    between atoms: C_8  and  C_9 
REMARK    7  A    between atoms: C_9  and  O_11 
REMARK    8  A    between atoms: C_28  and  C_29 
REMARK    9  A    between atoms: C_29  and  C_30 
REMARK   10  A    between atoms: C_30  and  O_32 
REMARK   11  A    between atoms: C_33  and  C_34 
REMARK   12  A    between atoms: C_34  and  C_35 
REMARK   13  A    between atoms: C_35  and  C_36 
REMARK   14  A    between atoms: C_36  and  O_38 
REMARK   15  A    between atoms: C_39  and  C_40 
REMARK   16  A    between atoms: C_40  and  C_41 
REMARK   17  A    between atoms: C_41  and  C_42 
REMARK   18  A    between atoms: C_42  and  O_44 
REMARK   19  A    between atoms: C_45  and  C_46 
REMARK   20  A    between atoms: C_46  and  C_47 
REMARK   21  A    between atoms: C_47  and  O_49 
REMARK   22  A    between atoms: C_50  and  C_51 
REMARK   23  A    between atoms: C_51  and  C_52 
REMARK   24  A    between atoms: C_52  and  O_54 
REMARK   25  A    between atoms: C_55  and  C_56 
REMARK   26  A    between atoms: C_56  and  C_57 
REMARK   27  A    between atoms: C_57  and  C_58 
REMARK   28  A    between atoms: C_58  and  O_60 
ROOT
ATOM      1  O   UNK d   0     -44.770  23.309  -4.344  0.00  0.00    -0.650 OA
ATOM      2  C   UNK d   0     -44.119  22.342  -4.798  0.00  0.00     0.139 C 
ENDROOT
BRANCH   2   3
ATOM      3  O   UNK d   0     -44.664  21.082  -4.751  0.00  0.00    -0.776 OA
ATOM      4  H   UNK d   0     -44.770  20.586  -3.864  0.00  0.00     0.167 HD
ENDBRANCH   2   3
BRANCH   2   5
ATOM      5  C   UNK d   0     -42.765  22.560  -5.384  0.00  0.00     0.115 C 
BRANCH   5   6
ATOM      6  C   UNK d   0     -42.286  21.305  -6.061  0.00  0.00     0.052 C 
BRANCH   6   7
ATOM      7  C   UNK d   0     -40.993  20.788  -5.479  0.00  0.00    -0.020 A 
ATOM      8  C   UNK d   0     -39.822  20.728  -6.061  0.00  0.00    -0.011 A 
ATOM      9  C   UNK d   0     -38.883  20.150  -5.114  0.00  0.00     0.067 A 
ATOM     10  C   UNK d   0     -37.513  19.844  -5.106  0.00  0.00     0.062 C 
ATOM     11  N   UNK d   0     -39.568  19.882  -3.983  0.00  0.00    -0.248 NA
ATOM     12  C   UNK d   0     -36.719  19.544  -3.994  0.00  0.00     0.041 A 
ATOM     13  N   UNK d   0     -36.956  18.767  -2.919  0.00  0.00    -0.355 N 
ATOM     14  C   UNK d   0     -35.460  20.159  -3.870  0.00  0.00    -0.022 A 
ATOM     15  C   UNK d   0     -35.883  18.881  -2.114  0.00  0.00     0.042 A 
ATOM     16  H   UNK d   0     -37.855  18.137  -2.743  0.00  0.00     0.166 HD
ATOM     17  C   UNK d   0     -35.610  18.283  -0.867  0.00  0.00     0.062 C 
ATOM     18  C   UNK d   0     -34.924  19.745  -2.676  0.00  0.00    -0.013 A 
ATOM     19  C   UNK d   0     -36.433  18.139   0.220  0.00  0.00     0.067 A 
ATOM     20  N   UNK d   0     -37.727  18.416   0.039  0.00  0.00    -0.248 NA
ATOM     21  C   UNK d   0     -36.269  17.757   1.612  0.00  0.00    -0.011 A 
ATOM     22  C   UNK d   0     -38.420  18.243   1.212  0.00  0.00     0.066 A 
ATOM     23  C   UNK d   0     -39.789  18.460   1.157  0.00  0.00     0.062 C 
ATOM     24  C   UNK d   0     -37.434  17.823   2.188  0.00  0.00    -0.020 A 
ATOM     25  C   UNK d   0     -40.570  18.749   0.027  0.00  0.00     0.041 A 
ATOM     26  N   UNK d   0     -40.341  19.532  -1.034  0.00  0.00    -0.355 N 
ATOM     27  C   UNK d   0     -41.831  18.127  -0.099  0.00  0.00    -0.022 A 
ATOM     28  C   UNK d   0     -41.413  19.428  -1.835  0.00  0.00     0.042 A 
ATOM     29  H   UNK d   0     -39.442  20.174  -1.205  0.00  0.00     0.166 HD
ATOM     30  C   UNK d   0     -41.703  20.024  -3.072  0.00  0.00     0.062 C 
ATOM     31  C   UNK d   0     -42.372  18.551  -1.274  0.00  0.00    -0.013 A 
ATOM     32  C   UNK d   0     -40.843  20.243  -4.137  0.00  0.00     0.066 A 
BRANCH   8  33
ATOM     33  C   UNK d   0     -39.494  21.159  -7.432  0.00  0.00     0.151 C 
BRANCH  33  34
ATOM     34  C   UNK d   0     -39.863  20.158  -8.449  0.00  0.00     0.143 C 
ATOM     35  O   UNK d   0     -40.087  20.493  -9.621  0.00  0.00    -0.650 OA
BRANCH  34  36
ATOM     36  O   UNK d   0     -39.960  18.833  -8.089  0.00  0.00    -0.776 OA
ATOM     37  H   UNK d   0     -40.145  18.102  -8.788  0.00  0.00     0.167 HD
ENDBRANCH  34  36
ENDBRANCH  33  34
ENDBRANCH   8  33
BRANCH  31  38
ATOM     38  C   UNK d   0     -43.711  18.139  -1.839  0.00  0.00     0.151 C 
BRANCH  38  39
ATOM     39  C   UNK d   0     -44.717  19.171  -1.708  0.00  0.00     0.143 C 
ATOM     40  O   UNK d   0     -44.792  19.904  -0.706  0.00  0.00    -0.650 OA
BRANCH  39  41
ATOM     41  O   UNK d   0     -45.643  19.361  -2.733  0.00  0.00    -0.776 OA
ATOM     42  H   UNK d   0     -46.068  18.519  -3.134  0.00  0.00     0.167 HD
ENDBRANCH  39  41
ENDBRANCH  38  39
ENDBRANCH  31  38
BRANCH  27  43
ATOM     43  C   UNK d   0     -42.525  17.170   0.838  0.00  0.00     0.052 C 
BRANCH  43  44
ATOM     44  C   UNK d   0     -43.139  17.842   2.023  0.00  0.00     0.115 C 
BRANCH  44  45
ATOM     45  C   UNK d   0     -43.211  16.821   3.100  0.00  0.00     0.139 C 
ATOM     46  O   UNK d   0     -43.040  15.617   2.786  0.00  0.00    -0.650 OA
BRANCH  45  47
ATOM     47  O   UNK d   0     -43.451  17.142   4.419  0.00  0.00    -0.776 OA
ATOM     48  H   UNK d   0     -44.335  16.910   4.900  0.00  0.00     0.167 HD
ENDBRANCH  45  47
ENDBRANCH  44  45
ENDBRANCH  43  44
ENDBRANCH  27  43
BRANCH  24  49
ATOM     49  C   UNK d   0     -37.731  17.482   3.590  0.00  0.00     0.052 C 
BRANCH  49  50
ATOM     50  C   UNK d   0     -38.658  16.296   3.656  0.00  0.00     0.115 C 
BRANCH  50  51
ATOM     51  C   UNK d   0     -39.931  16.483   4.339  0.00  0.00     0.139 C 
ATOM     52  O   UNK d   0     -40.367  17.615   4.658  0.00  0.00    -0.650 OA
BRANCH  51  53
ATOM     53  O   UNK d   0     -40.706  15.380   4.661  0.00  0.00    -0.776 OA
ATOM     54  H   UNK d   0     -41.218  14.927   3.925  0.00  0.00     0.167 HD
ENDBRANCH  51  53
ENDBRANCH  50  51
ENDBRANCH  49  50
ENDBRANCH  24  49
BRANCH  21  55
ATOM     55  C   UNK d   0     -34.964  17.360   2.221  0.00  0.00     0.151 C 
BRANCH  55  56
ATOM     56  C   UNK d   0     -34.788  15.900   2.244  0.00  0.00     0.143 C 
ATOM     57  O   UNK d   0     -34.755  15.241   3.301  0.00  0.00    -0.650 OA
BRANCH  56  58
ATOM     58  O   UNK d   0     -34.653  15.243   1.022  0.00  0.00    -0.776 OA
ATOM     59  H   UNK d   0     -35.155  14.340   0.955  0.00  0.00     0.167 HD
ENDBRANCH  56  58
ENDBRANCH  55  56
ENDBRANCH  21  55
BRANCH  18  60
ATOM     60  C   UNK d   0     -33.581  20.171  -2.138  0.00  0.00     0.151 C 
BRANCH  60  61
ATOM     61  C   UNK d   0     -33.863  21.161  -1.086  0.00  0.00     0.143 C 
ATOM     62  O   UNK d   0     -34.628  22.123  -1.158  0.00  0.00    -0.650 OA
BRANCH  61  63
ATOM     63  O   UNK d   0     -33.166  20.962   0.130  0.00  0.00    -0.776 OA
ATOM     64  H   UNK d   0     -33.660  20.832   0.995  0.00  0.00     0.167 HD
ENDBRANCH  61  63
ENDBRANCH  60  61
ENDBRANCH  18  60
BRANCH  14  65
ATOM     65  C   UNK d   0     -34.692  21.022  -4.831  0.00  0.00     0.052 C 
BRANCH  65  66
ATOM     66  C   UNK d   0     -34.933  22.476  -4.628  0.00  0.00     0.115 C 
BRANCH  66  67
ATOM     67  C   UNK d   0     -36.214  23.037  -4.952  0.00  0.00     0.139 C 
ATOM     68  O   UNK d   0     -36.951  23.478  -3.995  0.00  0.00    -0.650 OA
BRANCH  67  69
ATOM     69  O   UNK d   0     -36.791  23.173  -6.214  0.00  0.00    -0.776 OA
ATOM     70  H   UNK d   0     -36.261  23.741  -6.891  0.00  0.00     0.167 HD
ENDBRANCH  67  69
ENDBRANCH  66  67
ENDBRANCH  65  66
ENDBRANCH  14  65
ENDBRANCH   6   7
ENDBRANCH   5   6
ENDBRANCH   2   5
TORSDOF 28
ENDMDL
MODEL 8
REMARK VINA RESULT:      -6.8      1.757      4.074
REMARK  28 active torsions:
REMARK  status: ('A' for Active; 'I' for Inactive)
REMARK    1  A    between atoms: C_2  and  O_3 
REMARK    2  A    between atoms: C_2  and  C_4 
REMARK    3  A    between atoms: C_4  and  C_5 
REMARK    4  A    between atoms: C_5  and  C_6 
REMARK    5  A    between atoms: C_7  and  C_8 
REMARK    6  A    between atoms: C_8  and  C_9 
REMARK    7  A    between atoms: C_9  and  O_11 
REMARK    8  A    between atoms: C_28  and  C_29 
REMARK    9  A    between atoms: C_29  and  C_30 
REMARK   10  A    between atoms: C_30  and  O_32 
REMARK   11  A    between atoms: C_33  and  C_34 
REMARK   12  A    between atoms: C_34  and  C_35 
REMARK   13  A    between atoms: C_35  and  C_36 
REMARK   14  A    between atoms: C_36  and  O_38 
REMARK   15  A    between atoms: C_39  and  C_40 
REMARK   16  A    between atoms: C_40  and  C_41 
REMARK   17  A    between atoms: C_41  and  C_42 
REMARK   18  A    between atoms: C_42  and  O_44 
REMARK   19  A    between atoms: C_45  and  C_46 
REMARK   20  A    between atoms: C_46  and  C_47 
REMARK   21  A    between atoms: C_47  and  O_49 
REMARK   22  A    between atoms: C_50  and  C_51 
REMARK   23  A    between atoms: C_51  and  C_52 
REMARK   24  A    between atoms: C_52  and  O_54 
REMARK   25  A    between atoms: C_55  and  C_56 
REMARK   26  A    between atoms: C_56  and  C_57 
REMARK   27  A    between atoms: C_57  and  C_58 
REMARK   28  A    between atoms: C_58  and  O_60 
ROOT
ATOM      1  O   UNK d   0     -38.665  13.750   4.341  0.00  0.00    -0.650 OA
ATOM      2  C   UNK d   0     -39.902  13.668   4.175  0.00  0.00     0.139 C 
ENDROOT
BRANCH   2   3
ATOM      3  O   UNK d   0     -40.562  12.531   4.577  0.00  0.00    -0.776 OA
ATOM      4  H   UNK d   0     -40.545  11.682   4.008  0.00  0.00     0.167 HD
ENDBRANCH   2   3
BRANCH   2   5
ATOM      5  C   UNK d   0     -40.649  14.794   3.546  0.00  0.00     0.115 C 
BRANCH   5   6
ATOM      6  C   UNK d   0     -40.239  16.100   4.171  0.00  0.00     0.052 C 
BRANCH   6   7
ATOM      7  C   UNK d   0     -39.718  17.090   3.157  0.00  0.00    -0.020 A 
ATOM      8  C   UNK d   0     -38.529  17.632   3.109  0.00  0.00    -0.011 A 
ATOM      9  C   UNK d   0     -38.494  18.528   1.964  0.00  0.00     0.067 A 
ATOM     10  C   UNK d   0     -37.542  19.367   1.364  0.00  0.00     0.062 C 
ATOM     11  N   UNK d   0     -39.707  18.474   1.376  0.00  0.00    -0.248 NA
ATOM     12  C   UNK d   0     -37.606  19.947   0.092  0.00  0.00     0.041 A 
ATOM     13  N   UNK d   0     -38.623  20.541  -0.561  0.00  0.00    -0.355 N 
ATOM     14  C   UNK d   0     -36.470  19.897  -0.737  0.00  0.00    -0.022 A 
ATOM     15  C   UNK d   0     -38.164  20.862  -1.785  0.00  0.00     0.042 A 
ATOM     16  H   UNK d   0     -39.639  20.746  -0.158  0.00  0.00     0.166 HD
ATOM     17  C   UNK d   0     -38.809  21.499  -2.864  0.00  0.00     0.062 C 
ATOM     18  C   UNK d   0     -36.818  20.474  -1.933  0.00  0.00    -0.013 A 
ATOM     19  C   UNK d   0     -40.063  21.275  -3.373  0.00  0.00     0.067 A 
ATOM     20  N   UNK d   0     -40.877  20.497  -2.655  0.00  0.00    -0.248 NA
ATOM     21  C   UNK d   0     -40.791  21.668  -4.568  0.00  0.00    -0.011 A 
ATOM     22  C   UNK d   0     -42.084  20.353  -3.294  0.00  0.00     0.066 A 
ATOM     23  C   UNK d   0     -43.043  19.596  -2.637  0.00  0.00     0.062 C 
ATOM     24  C   UNK d   0     -41.971  21.122  -4.518  0.00  0.00    -0.020 A 
ATOM     25  C   UNK d   0     -42.963  19.032  -1.354  0.00  0.00     0.041 A 
ATOM     26  N   UNK d   0     -41.957  18.429  -0.710  0.00  0.00    -0.355 N 
ATOM     27  C   UNK d   0     -44.102  19.086  -0.521  0.00  0.00    -0.022 A 
ATOM     28  C   UNK d   0     -42.415  18.099   0.508  0.00  0.00     0.042 A 
ATOM     29  H   UNK d   0     -40.940  18.213  -1.121  0.00  0.00     0.166 HD
ATOM     30  C   UNK d   0     -41.787  17.457   1.587  0.00  0.00     0.062 C 
ATOM     31  C   UNK d   0     -43.764  18.499   0.659  0.00  0.00    -0.013 A 
ATOM     32  C   UNK d   0     -40.490  17.626   2.045  0.00  0.00     0.066 A 
BRANCH   8  33
ATOM     33  C   UNK d   0     -37.410  17.397   4.040  0.00  0.00     0.151 C 
BRANCH  33  34
ATOM     34  C   UNK d   0     -36.363  16.532   3.467  0.00  0.00     0.143 C 
ATOM     35  O   UNK d   0     -35.547  16.979   2.648  0.00  0.00    -0.650 OA
BRANCH  34  36
ATOM     36  O   UNK d   0     -36.293  15.212   3.847  0.00  0.00    -0.776 OA
ATOM     37  H   UNK d   0     -37.089  14.745   4.302  0.00  0.00     0.167 HD
ENDBRANCH  34  36
ENDBRANCH  33  34
ENDBRANCH   8  33
BRANCH  31  38
ATOM     38  C   UNK d   0     -44.661  18.337   1.864  0.00  0.00     0.151 C 
BRANCH  38  39
ATOM     39  C   UNK d   0     -44.550  19.437   2.798  0.00  0.00     0.143 C 
ATOM     40  O   UNK d   0     -45.161  20.509   2.639  0.00  0.00    -0.650 OA
BRANCH  39  41
ATOM     41  O   UNK d   0     -43.734  19.305   3.921  0.00  0.00    -0.776 OA
ATOM     42  H   UNK d   0     -42.859  19.838   3.921  0.00  0.00     0.167 HD
ENDBRANCH  39  41
ENDBRANCH  38  39
ENDBRANCH  31  38
BRANCH  27  43
ATOM     43  C   UNK d   0     -45.468  19.661  -0.802  0.00  0.00     0.052 C 
BRANCH  43  44
ATOM     44  C   UNK d   0     -46.456  18.639  -1.263  0.00  0.00     0.115 C 
BRANCH  44  45
ATOM     45  C   UNK d   0     -47.007  19.133  -2.552  0.00  0.00     0.139 C 
ATOM     46  O   UNK d   0     -47.806  20.101  -2.521  0.00  0.00    -0.650 OA
BRANCH  45  47
ATOM     47  O   UNK d   0     -46.674  18.578  -3.768  0.00  0.00    -0.776 OA
ATOM     48  H   UNK d   0     -46.814  17.578  -3.985  0.00  0.00     0.167 HD
ENDBRANCH  45  47
ENDBRANCH  44  45
ENDBRANCH  43  44
ENDBRANCH  27  43
BRANCH  24  49
ATOM     49  C   UNK d   0     -43.049  21.289  -5.508  0.00  0.00     0.052 C 
BRANCH  49  50
ATOM     50  C   UNK d   0     -44.077  22.269  -5.005  0.00  0.00     0.115 C 
BRANCH  50  51
ATOM     51  C   UNK d   0     -45.422  21.761  -4.774  0.00  0.00     0.139 C 
ATOM     52  O   UNK d   0     -45.963  20.913  -5.522  0.00  0.00    -0.650 OA
BRANCH  51  53
ATOM     53  O   UNK d   0     -46.153  22.223  -3.689  0.00  0.00    -0.776 OA
ATOM     54  H   UNK d   0     -47.104  21.913  -3.590  0.00  0.00     0.167 HD
ENDBRANCH  51  53
ENDBRANCH  50  51
ENDBRANCH  49  50
ENDBRANCH  24  49
BRANCH  21  55
ATOM     55  C   UNK d   0     -40.232  22.553  -5.633  0.00  0.00     0.151 C 
BRANCH  55  56
ATOM     56  C   UNK d   0     -39.218  21.864  -6.446  0.00  0.00     0.143 C 
ATOM     57  O   UNK d   0     -39.512  21.067  -7.359  0.00  0.00    -0.650 OA
BRANCH  56  58
ATOM     58  O   UNK d   0     -37.877  22.127  -6.170  0.00  0.00    -0.776 OA
ATOM     59  H   UNK d   0     -37.271  21.288  -6.115  0.00  0.00     0.167 HD
ENDBRANCH  56  58
ENDBRANCH  55  56
ENDBRANCH  21  55
BRANCH  18  60
ATOM     60  C   UNK d   0     -35.899  20.625  -3.119  0.00  0.00     0.151 C 
BRANCH  60  61
ATOM     61  C   UNK d   0     -36.228  19.516  -4.028  0.00  0.00     0.143 C 
ATOM     62  O   UNK d   0     -37.045  19.529  -4.949  0.00  0.00    -0.650 OA
BRANCH  61  63
ATOM     63  O   UNK d   0     -35.512  18.317  -3.798  0.00  0.00    -0.776 OA
ATOM     64  H   UNK d   0     -35.909  17.574  -3.251  0.00  0.00     0.167 HD
ENDBRANCH  61  63
ENDBRANCH  60  61
ENDBRANCH  18  60
BRANCH  14  65
ATOM     65  C   UNK d   0     -35.068  19.440  -0.452  0.00  0.00     0.052 C 
BRANCH  65  66
ATOM     66  C   UNK d   0     -34.282  20.429   0.334  0.00  0.00     0.115 C 
BRANCH  66  67
ATOM     67  C   UNK d   0     -34.122  20.247   1.749  0.00  0.00     0.139 C 
ATOM     68  O   UNK d   0     -34.645  21.114   2.542  0.00  0.00    -0.650 OA
BRANCH  67  69
ATOM     69  O   UNK d   0     -33.449  19.218   2.407  0.00  0.00    -0.776 OA
ATOM     70  H   UNK d   0     -33.322  19.342   3.421  0.00  0.00     0.167 HD
ENDBRANCH  67  69
ENDBRANCH  66  67
ENDBRANCH  65  66
ENDBRANCH  14  65
ENDBRANCH   6   7
ENDBRANCH   5   6
ENDBRANCH   2   5
TORSDOF 28
ENDMDL
MODEL 9
REMARK VINA RESULT:      -6.8      1.743      8.036
REMARK  28 active torsions:
REMARK  status: ('A' for Active; 'I' for Inactive)
REMARK    1  A    between atoms: C_2  and  O_3 
REMARK    2  A    between atoms: C_2  and  C_4 
REMARK    3  A    between atoms: C_4  and  C_5 
REMARK    4  A    between atoms: C_5  and  C_6 
REMARK    5  A    between atoms: C_7  and  C_8 
REMARK    6  A    between atoms: C_8  and  C_9 
REMARK    7  A    between atoms: C_9  and  O_11 
REMARK    8  A    between atoms: C_28  and  C_29 
REMARK    9  A    between atoms: C_29  and  C_30 
REMARK   10  A    between atoms: C_30  and  O_32 
REMARK   11  A    between atoms: C_33  and  C_34 
REMARK   12  A    between atoms: C_34  and  C_35 
REMARK   13  A    between atoms: C_35  and  C_36 
REMARK   14  A    between atoms: C_36  and  O_38 
REMARK   15  A    between atoms: C_39  and  C_40 
REMARK   16  A    between atoms: C_40  and  C_41 
REMARK   17  A    between atoms: C_41  and  C_42 
REMARK   18  A    between atoms: C_42  and  O_44 
REMARK   19  A    between atoms: C_45  and  C_46 
REMARK   20  A    between atoms: C_46  and  C_47 
REMARK   21  A    between atoms: C_47  and  O_49 
REMARK   22  A    between atoms: C_50  and  C_51 
REMARK   23  A    between atoms: C_51  and  C_52 
REMARK   24  A    between atoms: C_52  and  O_54 
REMARK   25  A    between atoms: C_55  and  C_56 
REMARK   26  A    between atoms: C_56  and  C_57 
REMARK   27  A    between atoms: C_57  and  C_58 
REMARK   28  A    between atoms: C_58  and  O_60 
ROOT
ATOM      1  O   UNK d   0     -34.586  15.202   2.646  0.00  0.00    -0.650 OA
ATOM      2  C   UNK d   0     -34.262  15.865   1.635  0.00  0.00     0.139 C 
ENDROOT
BRANCH   2   3
ATOM      3  O   UNK d   0     -32.942  15.912   1.255  0.00  0.00    -0.776 OA
ATOM      4  H   UNK d   0     -32.650  15.606   0.325  0.00  0.00     0.167 HD
ENDBRANCH   2   3
BRANCH   2   5
ATOM      5  C   UNK d   0     -35.300  16.596   0.855  0.00  0.00     0.115 C 
BRANCH   5   6
ATOM      6  C   UNK d   0     -35.699  17.855   1.576  0.00  0.00     0.052 C 
BRANCH   6   7
ATOM      7  C   UNK d   0     -36.569  18.757   0.733  0.00  0.00    -0.020 A 
ATOM      8  C   UNK d   0     -36.189  19.764  -0.011  0.00  0.00    -0.011 A 
ATOM      9  C   UNK d   0     -37.375  20.335  -0.626  0.00  0.00     0.067 A 
ATOM     10  C   UNK d   0     -37.648  21.383  -1.519  0.00  0.00     0.062 C 
ATOM     11  N   UNK d   0     -38.434  19.618  -0.196  0.00  0.00    -0.248 NA
ATOM     12  C   UNK d   0     -38.837  21.611  -2.220  0.00  0.00     0.041 A 
ATOM     13  N   UNK d   0     -40.124  21.534  -1.831  0.00  0.00    -0.355 N 
ATOM     14  C   UNK d   0     -38.770  21.929  -3.589  0.00  0.00    -0.022 A 
ATOM     15  C   UNK d   0     -40.875  21.787  -2.919  0.00  0.00     0.042 A 
ATOM     16  H   UNK d   0     -40.494  21.324  -0.803  0.00  0.00     0.166 HD
ATOM     17  C   UNK d   0     -42.275  21.835  -3.072  0.00  0.00     0.062 C 
ATOM     18  C   UNK d   0     -40.061  22.039  -4.041  0.00  0.00    -0.013 A 
ATOM     19  C   UNK d   0     -43.225  20.967  -2.596  0.00  0.00     0.067 A 
ATOM     20  N   UNK d   0     -42.821  20.058  -1.705  0.00  0.00    -0.248 NA
ATOM     21  C   UNK d   0     -44.643  20.744  -2.823  0.00  0.00    -0.011 A 
ATOM     22  C   UNK d   0     -43.871  19.256  -1.334  0.00  0.00     0.066 A 
ATOM     23  C   UNK d   0     -43.599  18.286  -0.379  0.00  0.00     0.062 C 
ATOM     24  C   UNK d   0     -45.014  19.738  -2.084  0.00  0.00    -0.020 A 
ATOM     25  C   UNK d   0     -42.401  18.082   0.322  0.00  0.00     0.041 A 
ATOM     26  N   UNK d   0     -41.122  18.144  -0.068  0.00  0.00    -0.355 N 
ATOM     27  C   UNK d   0     -42.469  17.767   1.697  0.00  0.00    -0.022 A 
ATOM     28  C   UNK d   0     -40.371  17.884   1.014  0.00  0.00     0.042 A 
ATOM     29  H   UNK d   0     -40.753  18.345  -1.103  0.00  0.00     0.166 HD
ATOM     30  C   UNK d   0     -38.979  17.824   1.178  0.00  0.00     0.062 C 
ATOM     31  C   UNK d   0     -41.190  17.641   2.143  0.00  0.00    -0.013 A 
ATOM     32  C   UNK d   0     -38.016  18.653   0.625  0.00  0.00     0.066 A 
BRANCH   8  33
ATOM     33  C   UNK d   0     -34.810  20.252  -0.203  0.00  0.00     0.151 C 
BRANCH  33  34
ATOM     34  C   UNK d   0     -34.247  19.871  -1.510  0.00  0.00     0.143 C 
ATOM     35  O   UNK d   0     -34.350  18.711  -1.935  0.00  0.00    -0.650 OA
BRANCH  34  36
ATOM     36  O   UNK d   0     -33.596  20.818  -2.267  0.00  0.00    -0.776 OA
ATOM     37  H   UNK d   0     -33.556  21.803  -1.971  0.00  0.00     0.167 HD
ENDBRANCH  34  36
ENDBRANCH  33  34
ENDBRANCH   8  33
BRANCH  31  38
ATOM     38  C   UNK d   0     -40.766  17.322   3.557  0.00  0.00     0.151 C 
BRANCH  38  39
ATOM     39  C   UNK d   0     -40.529  15.909   3.768  0.00  0.00     0.143 C 
ATOM     40  O   UNK d   0     -39.410  15.461   4.075  0.00  0.00    -0.650 OA
BRANCH  39  41
ATOM     41  O   UNK d   0     -41.583  15.008   3.625  0.00  0.00    -0.776 OA
ATOM     42  H   UNK d   0     -42.484  15.284   4.028  0.00  0.00     0.167 HD
ENDBRANCH  39  41
ENDBRANCH  38  39
ENDBRANCH  31  38
BRANCH  27  43
ATOM     43  C   UNK d   0     -43.679  17.585   2.580  0.00  0.00     0.052 C 
BRANCH  43  44
ATOM     44  C   UNK d   0     -44.047  18.818   3.339  0.00  0.00     0.115 C 
BRANCH  44  45
ATOM     45  C   UNK d   0     -43.931  18.479   4.781  0.00  0.00     0.139 C 
ATOM     46  O   UNK d   0     -43.128  19.144   5.482  0.00  0.00    -0.650 OA
BRANCH  45  47
ATOM     47  O   UNK d   0     -44.667  17.477   5.375  0.00  0.00    -0.776 OA
ATOM     48  H   UNK d   0     -44.291  16.875   6.126  0.00  0.00     0.167 HD
ENDBRANCH  45  47
ENDBRANCH  44  45
ENDBRANCH  43  44
ENDBRANCH  27  43
BRANCH  24  49
ATOM     49  C   UNK d   0     -46.380  19.197  -1.977  0.00  0.00     0.052 C 
BRANCH  49  50
ATOM     50  C   UNK d   0     -46.378  17.712  -2.231  0.00  0.00     0.115 C 
BRANCH  50  51
ATOM     51  C   UNK d   0     -47.280  17.212  -3.260  0.00  0.00     0.139 C 
ATOM     52  O   UNK d   0     -48.225  16.429  -3.008  0.00  0.00    -0.650 OA
BRANCH  51  53
ATOM     53  O   UNK d   0     -47.103  17.604  -4.578  0.00  0.00    -0.776 OA
ATOM     54  H   UNK d   0     -46.164  17.681  -4.929  0.00  0.00     0.167 HD
ENDBRANCH  51  53
ENDBRANCH  50  51
ENDBRANCH  49  50
ENDBRANCH  24  49
BRANCH  21  55
ATOM     55  C   UNK d   0     -45.479  21.561  -3.750  0.00  0.00     0.151 C 
BRANCH  55  56
ATOM     56  C   UNK d   0     -45.638  20.917  -5.063  0.00  0.00     0.143 C 
ATOM     57  O   UNK d   0     -46.701  20.376  -5.425  0.00  0.00    -0.650 OA
BRANCH  56  58
ATOM     58  O   UNK d   0     -44.542  20.922  -5.925  0.00  0.00    -0.776 OA
ATOM     59  H   UNK d   0     -44.500  20.121  -6.580  0.00  0.00     0.167 HD
ENDBRANCH  56  58
ENDBRANCH  55  56
ENDBRANCH  21  55
BRANCH  18  60
ATOM     60  C   UNK d   0     -40.455  22.362  -5.461  0.00  0.00     0.151 C 
BRANCH  60  61
ATOM     61  C   UNK d   0     -40.936  21.101  -6.044  0.00  0.00     0.143 C 
ATOM     62  O   UNK d   0     -41.860  20.957  -6.845  0.00  0.00    -0.650 OA
BRANCH  61  63
ATOM     63  O   UNK d   0     -40.243  19.940  -5.623  0.00  0.00    -0.776 OA
ATOM     64  H   UNK d   0     -39.392  19.653  -6.072  0.00  0.00     0.167 HD
ENDBRANCH  61  63
ENDBRANCH  60  61
ENDBRANCH  18  60
BRANCH  14  65
ATOM     65  C   UNK d   0     -37.590  22.231  -4.469  0.00  0.00     0.052 C 
BRANCH  65  66
ATOM     66  C   UNK d   0     -37.166  21.067  -5.292  0.00  0.00     0.115 C 
BRANCH  66  67
ATOM     67  C   UNK d   0     -36.306  20.068  -4.723  0.00  0.00     0.139 C 
ATOM     68  O   UNK d   0     -36.842  19.071  -4.113  0.00  0.00    -0.650 OA
BRANCH  67  69
ATOM     69  O   UNK d   0     -34.912  20.032  -4.742  0.00  0.00    -0.776 OA
ATOM     70  H   UNK d   0     -34.448  20.163  -3.832  0.00  0.00     0.167 HD
ENDBRANCH  67  69
ENDBRANCH  66  67
ENDBRANCH  65  66
ENDBRANCH  14  65
ENDBRANCH   6   7
ENDBRANCH   5   6
ENDBRANCH   2   5
TORSDOF 28
ENDMDL
MODEL 10
REMARK VINA RESULT:      -6.7      1.671      7.438
REMARK  28 active torsions:
REMARK  status: ('A' for Active; 'I' for Inactive)
REMARK    1  A    between atoms: C_2  and  O_3 
REMARK    2  A    between atoms: C_2  and  C_4 
REMARK    3  A    between atoms: C_4  and  C_5 
REMARK    4  A    between atoms: C_5  and  C_6 
REMARK    5  A    between atoms: C_7  and  C_8 
REMARK    6  A    between atoms: C_8  and  C_9 
REMARK    7  A    between atoms: C_9  and  O_11 
REMARK    8  A    between atoms: C_28  and  C_29 
REMARK    9  A    between atoms: C_29  and  C_30 
REMARK   10  A    between atoms: C_30  and  O_32 
REMARK   11  A    between atoms: C_33  and  C_34 
REMARK   12  A    between atoms: C_34  and  C_35 
REMARK   13  A    between atoms: C_35  and  C_36 
REMARK   14  A    between atoms: C_36  and  O_38 
REMARK   15  A    between atoms: C_39  and  C_40 
REMARK   16  A    between atoms: C_40  and  C_41 
REMARK   17  A    between atoms: C_41  and  C_42 
REMARK   18  A    between atoms: C_42  and  O_44 
REMARK   19  A    between atoms: C_45  and  C_46 
REMARK   20  A    between atoms: C_46  and  C_47 
REMARK   21  A    between atoms: C_47  and  O_49 
REMARK   22  A    between atoms: C_50  and  C_51 
REMARK   23  A    between atoms: C_51  and  C_52 
REMARK   24  A    between atoms: C_52  and  O_54 
REMARK   25  A    between atoms: C_55  and  C_56 
REMARK   26  A    between atoms: C_56  and  C_57 
REMARK   27  A    between atoms: C_57  and  C_58 
REMARK   28  A    between atoms: C_58  and  O_60 
ROOT
ATOM      1  O   UNK d   0     -41.312  19.283   6.888  0.00  0.00    -0.650 OA
ATOM      2  C   UNK d   0     -41.080  18.249   6.223  0.00  0.00     0.139 C 
ENDROOT
BRANCH   2   3
ATOM      3  O   UNK d   0     -41.829  17.119   6.452  0.00  0.00    -0.776 OA
ATOM      4  H   UNK d   0     -42.784  17.038   6.096  0.00  0.00     0.167 HD
ENDBRANCH   2   3
BRANCH   2   5
ATOM      5  C   UNK d   0     -40.002  18.245   5.195  0.00  0.00     0.115 C 
BRANCH   5   6
ATOM      6  C   UNK d   0     -40.128  17.031   4.315  0.00  0.00     0.052 C 
BRANCH   6   7
ATOM      7  C   UNK d   0     -40.486  17.380   2.890  0.00  0.00    -0.020 A 
ATOM      8  C   UNK d   0     -41.642  17.226   2.297  0.00  0.00    -0.011 A 
ATOM      9  C   UNK d   0     -41.506  17.695   0.928  0.00  0.00     0.067 A 
ATOM     10  C   UNK d   0     -42.348  17.819  -0.188  0.00  0.00     0.062 C 
ATOM     11  N   UNK d   0     -40.232  18.112   0.772  0.00  0.00    -0.248 NA
ATOM     12  C   UNK d   0     -42.108  18.558  -1.352  0.00  0.00     0.041 A 
ATOM     13  N   UNK d   0     -40.999  18.692  -2.104  0.00  0.00    -0.355 N 
ATOM     14  C   UNK d   0     -43.134  19.372  -1.865  0.00  0.00    -0.022 A 
ATOM     15  C   UNK d   0     -41.292  19.576  -3.076  0.00  0.00     0.042 A 
ATOM     16  H   UNK d   0     -40.034  18.157  -1.962  0.00  0.00     0.166 HD
ATOM     17  C   UNK d   0     -40.498  20.074  -4.128  0.00  0.00     0.062 C 
ATOM     18  C   UNK d   0     -42.622  20.025  -2.959  0.00  0.00    -0.013 A 
ATOM     19  C   UNK d   0     -39.199  20.514  -4.095  0.00  0.00     0.067 A 
ATOM     20  N   UNK d   0     -38.507  20.270  -2.980  0.00  0.00    -0.248 NA
ATOM     21  C   UNK d   0     -38.317  21.234  -4.998  0.00  0.00    -0.011 A 
ATOM     22  C   UNK d   0     -37.236  20.779  -3.087  0.00  0.00     0.066 A 
ATOM     23  C   UNK d   0     -36.391  20.562  -2.008  0.00  0.00     0.062 C 
ATOM     24  C   UNK d   0     -37.171  21.389  -4.401  0.00  0.00    -0.020 A 
ATOM     25  C   UNK d   0     -36.647  19.806  -0.854  0.00  0.00     0.041 A 
ATOM     26  N   UNK d   0     -37.745  19.685  -0.098  0.00  0.00    -0.355 N 
ATOM     27  C   UNK d   0     -35.618  18.986  -0.343  0.00  0.00    -0.022 A 
ATOM     28  C   UNK d   0     -37.452  18.810   0.877  0.00  0.00     0.042 A 
ATOM     29  H   UNK d   0     -38.711  20.231  -0.235  0.00  0.00     0.166 HD
ATOM     30  C   UNK d   0     -38.229  18.313   1.936  0.00  0.00     0.062 C 
ATOM     31  C   UNK d   0     -36.119  18.351   0.752  0.00  0.00    -0.013 A 
ATOM     32  C   UNK d   0     -39.566  17.950   1.917  0.00  0.00     0.066 A 
BRANCH   8  33
ATOM     33  C   UNK d   0     -42.874  16.673   2.889  0.00  0.00     0.151 C 
BRANCH  33  34
ATOM     34  C   UNK d   0     -43.833  17.718   3.291  0.00  0.00     0.143 C 
ATOM     35  O   UNK d   0     -43.870  18.134   4.458  0.00  0.00    -0.650 OA
BRANCH  34  36
ATOM     36  O   UNK d   0     -44.699  18.235   2.356  0.00  0.00    -0.776 OA
ATOM     37  H   UNK d   0     -45.710  18.296   2.539  0.00  0.00     0.167 HD
ENDBRANCH  34  36
ENDBRANCH  33  34
ENDBRANCH   8  33
BRANCH  31  38
ATOM     38  C   UNK d   0     -35.383  17.358   1.622  0.00  0.00     0.151 C 
BRANCH  38  39
ATOM     39  C   UNK d   0     -34.369  17.979   2.447  0.00  0.00     0.143 C 
ATOM     40  O   UNK d   0     -34.181  19.208   2.460  0.00  0.00    -0.650 OA
BRANCH  39  41
ATOM     41  O   UNK d   0     -33.566  17.182   3.263  0.00  0.00    -0.776 OA
ATOM     42  H   UNK d   0     -33.808  17.148   4.258  0.00  0.00     0.167 HD
ENDBRANCH  39  41
ENDBRANCH  38  39
ENDBRANCH  31  38
BRANCH  27  43
ATOM     43  C   UNK d   0     -34.210  18.790  -0.845  0.00  0.00     0.052 C 
BRANCH  43  44
ATOM     44  C   UNK d   0     -34.086  17.683  -1.840  0.00  0.00     0.115 C 
BRANCH  44  45
ATOM     45  C   UNK d   0     -34.312  18.288  -3.179  0.00  0.00     0.139 C 
ATOM     46  O   UNK d   0     -33.528  19.192  -3.560  0.00  0.00    -0.650 OA
BRANCH  45  47
ATOM     47  O   UNK d   0     -35.337  17.896  -4.012  0.00  0.00    -0.776 OA
ATOM     48  H   UNK d   0     -35.820  18.548  -4.651  0.00  0.00     0.167 HD
ENDBRANCH  45  47
ENDBRANCH  44  45
ENDBRANCH  43  44
ENDBRANCH  27  43
BRANCH  24  49
ATOM     49  C   UNK d   0     -35.975  22.033  -4.971  0.00  0.00     0.052 C 
BRANCH  49  50
ATOM     50  C   UNK d   0     -36.142  23.531  -4.987  0.00  0.00     0.115 C 
BRANCH  50  51
ATOM     51  C   UNK d   0     -36.519  24.171  -3.734  0.00  0.00     0.139 C 
ATOM     52  O   UNK d   0     -37.616  24.757  -3.578  0.00  0.00    -0.650 OA
BRANCH  51  53
ATOM     53  O   UNK d   0     -35.644  24.144  -2.659  0.00  0.00    -0.776 OA
ATOM     54  H   UNK d   0     -34.884  23.488  -2.681  0.00  0.00     0.167 HD
ENDBRANCH  51  53
ENDBRANCH  50  51
ENDBRANCH  49  50
ENDBRANCH  24  49
BRANCH  21  55
ATOM     55  C   UNK d   0     -38.710  21.687  -6.365  0.00  0.00     0.151 C 
BRANCH  55  56
ATOM     56  C   UNK d   0     -39.806  22.667  -6.327  0.00  0.00     0.143 C 
ATOM     57  O   UNK d   0     -40.833  22.558  -7.025  0.00  0.00    -0.650 OA
BRANCH  56  58
ATOM     58  O   UNK d   0     -39.672  23.757  -5.469  0.00  0.00    -0.776 OA
ATOM     59  H   UNK d   0     -40.564  24.204  -5.190  0.00  0.00     0.167 HD
ENDBRANCH  56  58
ENDBRANCH  55  56
ENDBRANCH  21  55
BRANCH  18  60
ATOM     60  C   UNK d   0     -43.382  21.011  -3.811  0.00  0.00     0.151 C 
BRANCH  60  61
ATOM     61  C   UNK d   0     -43.023  22.344  -3.305  0.00  0.00     0.143 C 
ATOM     62  O   UNK d   0     -42.099  23.060  -3.690  0.00  0.00    -0.650 OA
BRANCH  61  63
ATOM     63  O   UNK d   0     -43.846  22.834  -2.262  0.00  0.00    -0.776 OA
ATOM     64  H   UNK d   0     -43.697  23.747  -1.870  0.00  0.00     0.167 HD
ENDBRANCH  61  63
ENDBRANCH  60  61
ENDBRANCH  18  60
BRANCH  14  65
ATOM     65  C   UNK d   0     -44.575  19.504  -1.463  0.00  0.00     0.052 C 
BRANCH  65  66
ATOM     66  C   UNK d   0     -45.319  18.218  -1.536  0.00  0.00     0.115 C 
BRANCH  66  67
ATOM     67  C   UNK d   0     -46.371  18.058  -2.501  0.00  0.00     0.139 C 
ATOM     68  O   UNK d   0     -47.196  17.083  -2.354  0.00  0.00    -0.650 OA
BRANCH  67  69
ATOM     69  O   UNK d   0     -46.628  18.848  -3.621  0.00  0.00    -0.776 OA
ATOM     70  H   UNK d   0     -46.593  19.867  -3.468  0.00  0.00     0.167 HD
ENDBRANCH  67  69
ENDBRANCH  66  67
ENDBRANCH  65  66
ENDBRANCH  14  65
ENDBRANCH   6   7
ENDBRANCH   5   6
ENDBRANCH   2   5
TORSDOF 28
ENDMDL
MODEL 11
REMARK VINA RESULT:      -6.7      1.899      8.839
REMARK  28 active torsions:
REMARK  status: ('A' for Active; 'I' for Inactive)
REMARK    1  A    between atoms: C_2  and  O_3 
REMARK    2  A    between atoms: C_2  and  C_4 
REMARK    3  A    between atoms: C_4  and  C_5 
REMARK    4  A    between atoms: C_5  and  C_6 
REMARK    5  A    between atoms: C_7  and  C_8 
REMARK    6  A    between atoms: C_8  and  C_9 
REMARK    7  A    between atoms: C_9  and  O_11 
REMARK    8  A    between atoms: C_28  and  C_29 
REMARK    9  A    between atoms: C_29  and  C_30 
REMARK   10  A    between atoms: C_30  and  O_32 
REMARK   11  A    between atoms: C_33  and  C_34 
REMARK   12  A    between atoms: C_34  and  C_35 
REMARK   13  A    between atoms: C_35  and  C_36 
REMARK   14  A    between atoms: C_36  and  O_38 
REMARK   15  A    between atoms: C_39  and  C_40 
REMARK   16  A    between atoms: C_40  and  C_41 
REMARK   17  A    between atoms: C_41  and  C_42 
REMARK   18  A    between atoms: C_42  and  O_44 
REMARK   19  A    between atoms: C_45  and  C_46 
REMARK   20  A    between atoms: C_46  and  C_47 
REMARK   21  A    between atoms: C_47  and  O_49 
REMARK   22  A    between atoms: C_50  and  C_51 
REMARK   23  A    between atoms: C_51  and  C_52 
REMARK   24  A    between atoms: C_52  and  O_54 
REMARK   25  A    between atoms: C_55  and  C_56 
REMARK   26  A    between atoms: C_56  and  C_57 
REMARK   27  A    between atoms: C_57  and  C_58 
REMARK   28  A    between atoms: C_58  and  O_60 
ROOT
ATOM      1  O   UNK d   0     -34.702  15.301   1.699  0.00  0.00    -0.650 OA
ATOM      2  C   UNK d   0     -34.374  15.947   0.679  0.00  0.00     0.139 C 
ENDROOT
BRANCH   2   3
ATOM      3  O   UNK d   0     -33.047  16.032   0.333  0.00  0.00    -0.776 OA
ATOM      4  H   UNK d   0     -32.536  15.213  -0.003  0.00  0.00     0.167 HD
ENDBRANCH   2   3
BRANCH   2   5
ATOM      5  C   UNK d   0     -35.416  16.617  -0.149  0.00  0.00     0.115 C 
BRANCH   5   6
ATOM      6  C   UNK d   0     -35.727  17.979   0.412  0.00  0.00     0.052 C 
BRANCH   6   7
ATOM      7  C   UNK d   0     -36.737  18.733  -0.419  0.00  0.00    -0.020 A 
ATOM      8  C   UNK d   0     -36.503  19.536  -1.425  0.00  0.00    -0.011 A 
ATOM      9  C   UNK d   0     -37.781  20.035  -1.904  0.00  0.00     0.067 A 
ATOM     10  C   UNK d   0     -38.215  20.886  -2.932  0.00  0.00     0.062 C 
ATOM     11  N   UNK d   0     -38.740  19.488  -1.128  0.00  0.00    -0.248 NA
ATOM     12  C   UNK d   0     -39.520  21.031  -3.418  0.00  0.00     0.041 A 
ATOM     13  N   UNK d   0     -40.701  21.113  -2.776  0.00  0.00    -0.355 N 
ATOM     14  C   UNK d   0     -39.730  21.050  -4.809  0.00  0.00    -0.022 A 
ATOM     15  C   UNK d   0     -41.655  21.175  -3.724  0.00  0.00     0.042 A 
ATOM     16  H   UNK d   0     -40.855  21.146  -1.675  0.00  0.00     0.166 HD
ATOM     17  C   UNK d   0     -43.056  21.272  -3.604  0.00  0.00     0.062 C 
ATOM     18  C   UNK d   0     -41.084  21.137  -5.011  0.00  0.00    -0.013 A 
ATOM     19  C   UNK d   0     -43.900  20.581  -2.774  0.00  0.00     0.067 A 
ATOM     20  N   UNK d   0     -43.336  19.857  -1.803  0.00  0.00    -0.248 NA
ATOM     21  C   UNK d   0     -45.338  20.399  -2.662  0.00  0.00    -0.011 A 
ATOM     22  C   UNK d   0     -44.300  19.214  -1.067  0.00  0.00     0.066 A 
ATOM     23  C   UNK d   0     -43.853  18.453   0.003  0.00  0.00     0.062 C 
ATOM     24  C   UNK d   0     -45.565  19.594  -1.664  0.00  0.00    -0.020 A 
ATOM     25  C   UNK d   0     -42.539  18.331   0.482  0.00  0.00     0.041 A 
ATOM     26  N   UNK d   0     -41.367  18.234  -0.156  0.00  0.00    -0.355 N 
ATOM     27  C   UNK d   0     -42.329  18.316   1.878  0.00  0.00    -0.022 A 
ATOM     28  C   UNK d   0     -40.414  18.163   0.787  0.00  0.00     0.042 A 
ATOM     29  H   UNK d   0     -41.214  18.190  -1.262  0.00  0.00     0.166 HD
ATOM     30  C   UNK d   0     -39.018  18.057   0.683  0.00  0.00     0.062 C 
ATOM     31  C   UNK d   0     -40.987  18.211   2.080  0.00  0.00    -0.013 A 
ATOM     32  C   UNK d   0     -38.177  18.694  -0.216  0.00  0.00     0.066 A 
BRANCH   8  33
ATOM     33  C   UNK d   0     -35.186  19.892  -1.986  0.00  0.00     0.151 C 
BRANCH  33  34
ATOM     34  C   UNK d   0     -34.764  18.986  -3.070  0.00  0.00     0.143 C 
ATOM     35  O   UNK d   0     -33.836  18.183  -2.903  0.00  0.00    -0.650 OA
BRANCH  34  36
ATOM     36  O   UNK d   0     -35.411  19.038  -4.283  0.00  0.00    -0.776 OA
ATOM     37  H   UNK d   0     -34.966  19.463  -5.108  0.00  0.00     0.167 HD
ENDBRANCH  34  36
ENDBRANCH  33  34
ENDBRANCH   8  33
BRANCH  31  38
ATOM     38  C   UNK d   0     -40.287  18.172   3.419  0.00  0.00     0.151 C 
BRANCH  38  39
ATOM     39  C   UNK d   0     -40.368  16.876   4.057  0.00  0.00     0.143 C 
ATOM     40  O   UNK d   0     -39.782  15.875   3.607  0.00  0.00    -0.650 OA
BRANCH  39  41
ATOM     41  O   UNK d   0     -41.124  16.729   5.219  0.00  0.00    -0.776 OA
ATOM     42  H   UNK d   0     -40.882  17.336   6.008  0.00  0.00     0.167 HD
ENDBRANCH  39  41
ENDBRANCH  38  39
ENDBRANCH  31  38
BRANCH  27  43
ATOM     43  C   UNK d   0     -43.335  18.395   3.000  0.00  0.00     0.052 C 
BRANCH  43  44
ATOM     44  C   UNK d   0     -43.997  17.088   3.293  0.00  0.00     0.115 C 
BRANCH  44  45
ATOM     45  C   UNK d   0     -45.032  17.358   4.324  0.00  0.00     0.139 C 
ATOM     46  O   UNK d   0     -46.221  17.502   3.946  0.00  0.00    -0.650 OA
BRANCH  45  47
ATOM     47  O   UNK d   0     -44.741  17.450   5.668  0.00  0.00    -0.776 OA
ATOM     48  H   UNK d   0     -44.007  16.884   6.123  0.00  0.00     0.167 HD
ENDBRANCH  45  47
ENDBRANCH  44  45
ENDBRANCH  43  44
ENDBRANCH  27  43
BRANCH  24  49
ATOM     49  C   UNK d   0     -46.888  19.169  -1.175  0.00  0.00     0.052 C 
BRANCH  49  50
ATOM     50  C   UNK d   0     -47.090  17.696  -1.422  0.00  0.00     0.115 C 
BRANCH  50  51
ATOM     51  C   UNK d   0     -47.346  17.281  -2.795  0.00  0.00     0.139 C 
ATOM     52  O   UNK d   0     -48.504  17.146  -3.256  0.00  0.00    -0.650 OA
BRANCH  51  53
ATOM     53  O   UNK d   0     -46.280  17.018  -3.642  0.00  0.00    -0.776 OA
ATOM     54  H   UNK d   0     -46.393  17.211  -4.622  0.00  0.00     0.167 HD
ENDBRANCH  51  53
ENDBRANCH  50  51
ENDBRANCH  49  50
ENDBRANCH  24  49
BRANCH  21  55
ATOM     55  C   UNK d   0     -46.335  21.051  -3.562  0.00  0.00     0.151 C 
BRANCH  55  56
ATOM     56  C   UNK d   0     -46.288  20.502  -4.926  0.00  0.00     0.143 C 
ATOM     57  O   UNK d   0     -45.631  21.031  -5.844  0.00  0.00    -0.650 OA
BRANCH  56  58
ATOM     58  O   UNK d   0     -47.015  19.341  -5.184  0.00  0.00    -0.776 OA
ATOM     59  H   UNK d   0     -47.858  19.476  -5.771  0.00  0.00     0.167 HD
ENDBRANCH  56  58
ENDBRANCH  55  56
ENDBRANCH  21  55
BRANCH  18  60
ATOM     60  C   UNK d   0     -41.756  21.178  -6.361  0.00  0.00     0.151 C 
BRANCH  60  61
ATOM     61  C   UNK d   0     -42.234  22.558  -6.534  0.00  0.00     0.143 C 
ATOM     62  O   UNK d   0     -41.627  23.593  -6.257  0.00  0.00    -0.650 OA
BRANCH  61  63
ATOM     63  O   UNK d   0     -43.534  22.682  -7.079  0.00  0.00    -0.776 OA
ATOM     64  H   UNK d   0     -43.854  22.063  -7.803  0.00  0.00     0.167 HD
ENDBRANCH  61  63
ENDBRANCH  60  61
ENDBRANCH  18  60
BRANCH  14  65
ATOM     65  C   UNK d   0     -38.751  21.090  -5.948  0.00  0.00     0.052 C 
BRANCH  65  66
ATOM     66  C   UNK d   0     -38.206  22.451  -6.199  0.00  0.00     0.115 C 
BRANCH  66  67
ATOM     67  C   UNK d   0     -38.427  23.083  -7.469  0.00  0.00     0.139 C 
ATOM     68  O   UNK d   0     -39.165  22.481  -8.334  0.00  0.00    -0.650 OA
BRANCH  67  69
ATOM     69  O   UNK d   0     -37.931  24.309  -7.909  0.00  0.00    -0.776 OA
ATOM     70  H   UNK d   0     -38.517  24.811  -8.592  0.00  0.00     0.167 HD
ENDBRANCH  67  69
ENDBRANCH  66  67
ENDBRANCH  65  66
ENDBRANCH  14  65
ENDBRANCH   6   7
ENDBRANCH   5   6
ENDBRANCH   2   5
TORSDOF 28
ENDMDL
MODEL 12
REMARK VINA RESULT:      -6.7      1.960      8.812
REMARK  28 active torsions:
REMARK  status: ('A' for Active; 'I' for Inactive)
REMARK    1  A    between atoms: C_2  and  O_3 
REMARK    2  A    between atoms: C_2  and  C_4 
REMARK    3  A    between atoms: C_4  and  C_5 
REMARK    4  A    between atoms: C_5  and  C_6 
REMARK    5  A    between atoms: C_7  and  C_8 
REMARK    6  A    between atoms: C_8  and  C_9 
REMARK    7  A    between atoms: C_9  and  O_11 
REMARK    8  A    between atoms: C_28  and  C_29 
REMARK    9  A    between atoms: C_29  and  C_30 
REMARK   10  A    between atoms: C_30  and  O_32 
REMARK   11  A    between atoms: C_33  and  C_34 
REMARK   12  A    between atoms: C_34  and  C_35 
REMARK   13  A    between atoms: C_35  and  C_36 
REMARK   14  A    between atoms: C_36  and  O_38 
REMARK   15  A    between atoms: C_39  and  C_40 
REMARK   16  A    between atoms: C_40  and  C_41 
REMARK   17  A    between atoms: C_41  and  C_42 
REMARK   18  A    between atoms: C_42  and  O_44 
REMARK   19  A    between atoms: C_45  and  C_46 
REMARK   20  A    between atoms: C_46  and  C_47 
REMARK   21  A    between atoms: C_47  and  O_49 
REMARK   22  A    between atoms: C_50  and  C_51 
REMARK   23  A    between atoms: C_51  and  C_52 
REMARK   24  A    between atoms: C_52  and  O_54 
REMARK   25  A    between atoms: C_55  and  C_56 
REMARK   26  A    between atoms: C_56  and  C_57 
REMARK   27  A    between atoms: C_57  and  C_58 
REMARK   28  A    between atoms: C_58  and  O_60 
ROOT
ATOM      1  O   UNK d   0     -44.184  23.314  -5.064  0.00  0.00    -0.650 OA
ATOM      2  C   UNK d   0     -43.681  22.169  -5.034  0.00  0.00     0.139 C 
ENDROOT
BRANCH   2   3
ATOM      3  O   UNK d   0     -44.252  21.162  -5.774  0.00  0.00    -0.776 OA
ATOM      4  H   UNK d   0     -44.874  21.371  -6.558  0.00  0.00     0.167 HD
ENDBRANCH   2   3
BRANCH   2   5
ATOM      5  C   UNK d   0     -42.474  21.903  -4.201  0.00  0.00     0.115 C 
BRANCH   5   6
ATOM      6  C   UNK d   0     -42.318  20.425  -3.971  0.00  0.00     0.052 C 
BRANCH   6   7
ATOM      7  C   UNK d   0     -41.763  20.104  -2.604  0.00  0.00    -0.020 A 
ATOM      8  C   UNK d   0     -42.359  20.243  -1.447  0.00  0.00    -0.011 A 
ATOM      9  C   UNK d   0     -41.430  19.815  -0.414  0.00  0.00     0.067 A 
ATOM     10  C   UNK d   0     -41.456  19.698   0.985  0.00  0.00     0.062 C 
ATOM     11  N   UNK d   0     -40.291  19.438  -1.030  0.00  0.00    -0.248 NA
ATOM     12  C   UNK d   0     -40.553  18.998   1.793  0.00  0.00     0.041 A 
ATOM     13  N   UNK d   0     -39.210  18.915   1.755  0.00  0.00    -0.355 N 
ATOM     14  C   UNK d   0     -41.054  18.170   2.813  0.00  0.00    -0.022 A 
ATOM     15  C   UNK d   0     -38.846  18.049   2.720  0.00  0.00     0.042 A 
ATOM     16  H   UNK d   0     -38.531  19.472   1.072  0.00  0.00     0.166 HD
ATOM     17  C   UNK d   0     -37.569  17.602   3.112  0.00  0.00     0.062 C 
ATOM     18  C   UNK d   0     -39.976  17.561   3.405  0.00  0.00    -0.013 A 
ATOM     19  C   UNK d   0     -36.519  17.197   2.328  0.00  0.00     0.067 A 
ATOM     20  N   UNK d   0     -36.618  17.430   1.017  0.00  0.00    -0.248 NA
ATOM     21  C   UNK d   0     -35.248  16.526   2.548  0.00  0.00    -0.011 A 
ATOM     22  C   UNK d   0     -35.506  16.958   0.364  0.00  0.00     0.066 A 
ATOM     23  C   UNK d   0     -35.460  17.169  -1.007  0.00  0.00     0.062 C 
ATOM     24  C   UNK d   0     -34.662  16.386   1.394  0.00  0.00    -0.020 A 
ATOM     25  C   UNK d   0     -36.371  17.886  -1.798  0.00  0.00     0.041 A 
ATOM     26  N   UNK d   0     -37.707  17.957  -1.770  0.00  0.00    -0.355 N 
ATOM     27  C   UNK d   0     -35.866  18.720  -2.819  0.00  0.00    -0.022 A 
ATOM     28  C   UNK d   0     -38.072  18.813  -2.737  0.00  0.00     0.042 A 
ATOM     29  H   UNK d   0     -38.389  17.389  -1.090  0.00  0.00     0.166 HD
ATOM     30  C   UNK d   0     -39.339  19.260  -3.144  0.00  0.00     0.062 C 
ATOM     31  C   UNK d   0     -36.936  19.311  -3.418  0.00  0.00    -0.013 A 
ATOM     32  C   UNK d   0     -40.426  19.587  -2.349  0.00  0.00     0.066 A 
BRANCH   8  33
ATOM     33  C   UNK d   0     -43.725  20.746  -1.210  0.00  0.00     0.151 C 
BRANCH  33  34
ATOM     34  C   UNK d   0     -44.751  19.698  -1.354  0.00  0.00     0.143 C 
ATOM     35  O   UNK d   0     -45.130  19.040  -0.375  0.00  0.00    -0.650 OA
BRANCH  34  36
ATOM     36  O   UNK d   0     -45.294  19.449  -2.593  0.00  0.00    -0.776 OA
ATOM     37  H   UNK d   0     -46.266  19.128  -2.697  0.00  0.00     0.167 HD
ENDBRANCH  34  36
ENDBRANCH  33  34
ENDBRANCH   8  33
BRANCH  31  38
ATOM     38  C   UNK d   0     -36.885  20.300  -4.559  0.00  0.00     0.151 C 
BRANCH  38  39
ATOM     39  C   UNK d   0     -36.700  21.664  -4.113  0.00  0.00     0.143 C 
ATOM     40  O   UNK d   0     -37.408  22.177  -3.228  0.00  0.00    -0.650 OA
BRANCH  39  41
ATOM     41  O   UNK d   0     -35.696  22.444  -4.686  0.00  0.00    -0.776 OA
ATOM     42  H   UNK d   0     -35.033  21.963  -5.301  0.00  0.00     0.167 HD
ENDBRANCH  39  41
ENDBRANCH  38  39
ENDBRANCH  31  38
BRANCH  27  43
ATOM     43  C   UNK d   0     -34.439  18.968  -3.237  0.00  0.00     0.052 C 
BRANCH  43  44
ATOM     44  C   UNK d   0     -33.623  19.643  -2.183  0.00  0.00     0.115 C 
BRANCH  44  45
ATOM     45  C   UNK d   0     -33.793  21.105  -2.386  0.00  0.00     0.139 C 
ATOM     46  O   UNK d   0     -33.090  21.666  -3.263  0.00  0.00    -0.650 OA
BRANCH  45  47
ATOM     47  O   UNK d   0     -34.687  21.862  -1.660  0.00  0.00    -0.776 OA
ATOM     48  H   UNK d   0     -35.611  21.507  -1.365  0.00  0.00     0.167 HD
ENDBRANCH  45  47
ENDBRANCH  44  45
ENDBRANCH  43  44
ENDBRANCH  27  43
BRANCH  24  49
ATOM     49  C   UNK d   0     -33.335  15.791   1.161  0.00  0.00     0.052 C 
BRANCH  49  50
ATOM     50  C   UNK d   0     -33.432  14.287   1.136  0.00  0.00     0.115 C 
BRANCH  50  51
ATOM     51  C   UNK d   0     -32.368  13.541   1.796  0.00  0.00     0.139 C 
ATOM     52  O   UNK d   0     -31.295  13.243   1.221  0.00  0.00    -0.650 OA
BRANCH  51  53
ATOM     53  O   UNK d   0     -32.529  13.134   3.111  0.00  0.00    -0.776 OA
ATOM     54  H   UNK d   0     -32.396  12.162   3.328  0.00  0.00     0.167 HD
ENDBRANCH  51  53
ENDBRANCH  50  51
ENDBRANCH  49  50
ENDBRANCH  24  49
BRANCH  21  55
ATOM     55  C   UNK d   0     -34.751  16.099   3.890  0.00  0.00     0.151 C 
BRANCH  55  56
ATOM     56  C   UNK d   0     -33.357  16.511   4.118  0.00  0.00     0.143 C 
ATOM     57  O   UNK d   0     -32.490  15.737   4.568  0.00  0.00    -0.650 OA
BRANCH  56  58
ATOM     58  O   UNK d   0     -33.011  17.826   3.811  0.00  0.00    -0.776 OA
ATOM     59  H   UNK d   0     -33.146  18.093   2.819  0.00  0.00     0.167 HD
ENDBRANCH  56  58
ENDBRANCH  55  56
ENDBRANCH  21  55
BRANCH  18  60
ATOM     60  C   UNK d   0     -40.057  16.578   4.547  0.00  0.00     0.151 C 
BRANCH  60  61
ATOM     61  C   UNK d   0     -40.082  15.243   3.930  0.00  0.00     0.143 C 
ATOM     62  O   UNK d   0     -40.983  14.760   3.245  0.00  0.00    -0.650 OA
BRANCH  61  63
ATOM     63  O   UNK d   0     -38.934  14.449   4.165  0.00  0.00    -0.776 OA
ATOM     64  H   UNK d   0     -38.459  13.988   3.409  0.00  0.00     0.167 HD
ENDBRANCH  61  63
ENDBRANCH  60  61
ENDBRANCH  18  60
BRANCH  14  65
ATOM     65  C   UNK d   0     -42.453  17.988   3.331  0.00  0.00     0.052 C 
BRANCH  65  66
ATOM     66  C   UNK d   0     -42.881  19.080   4.247  0.00  0.00     0.115 C 
BRANCH  66  67
ATOM     67  C   UNK d   0     -42.388  19.112   5.595  0.00  0.00     0.139 C 
ATOM     68  O   UNK d   0     -42.790  18.209   6.417  0.00  0.00    -0.650 OA
BRANCH  67  69
ATOM     69  O   UNK d   0     -41.498  20.027   6.156  0.00  0.00    -0.776 OA
ATOM     70  H   UNK d   0     -41.594  20.181   7.170  0.00  0.00     0.167 HD
ENDBRANCH  67  69
ENDBRANCH  66  67
ENDBRANCH  65  66
ENDBRANCH  14  65
ENDBRANCH   6   7
ENDBRANCH   5   6
ENDBRANCH   2   5
TORSDOF 28
ENDMDL
MODEL 13
REMARK VINA RESULT:      -6.6      1.558      8.329
REMARK  28 active torsions:
REMARK  status: ('A' for Active; 'I' for Inactive)
REMARK    1  A    between atoms: C_2  and  O_3 
REMARK    2  A    between atoms: C_2  and  C_4 
REMARK    3  A    between atoms: C_4  and  C_5 
REMARK    4  A    between atoms: C_5  and  C_6 
REMARK    5  A    between atoms: C_7  and  C_8 
REMARK    6  A    between atoms: C_8  and  C_9 
REMARK    7  A    between atoms: C_9  and  O_11 
REMARK    8  A    between atoms: C_28  and  C_29 
REMARK    9  A    between atoms: C_29  and  C_30 
REMARK   10  A    between atoms: C_30  and  O_32 
REMARK   11  A    between atoms: C_33  and  C_34 
REMARK   12  A    between atoms: C_34  and  C_35 
REMARK   13  A    between atoms: C_35  and  C_36 
REMARK   14  A    between atoms: C_36  and  O_38 
REMARK   15  A    between atoms: C_39  and  C_40 
REMARK   16  A    between atoms: C_40  and  C_41 
REMARK   17  A    between atoms: C_41  and  C_42 
REMARK   18  A    between atoms: C_42  and  O_44 
REMARK   19  A    between atoms: C_45  and  C_46 
REMARK   20  A    between atoms: C_46  and  C_47 
REMARK   21  A    between atoms: C_47  and  O_49 
REMARK   22  A    between atoms: C_50  and  C_51 
REMARK   23  A    between atoms: C_51  and  C_52 
REMARK   24  A    between atoms: C_52  and  O_54 
REMARK   25  A    between atoms: C_55  and  C_56 
REMARK   26  A    between atoms: C_56  and  C_57 
REMARK   27  A    between atoms: C_57  and  C_58 
REMARK   28  A    between atoms: C_58  and  O_60 
ROOT
ATOM      1  O   UNK d   0     -47.155  19.663  -1.726  0.00  0.00    -0.650 OA
ATOM      2  C   UNK d   0     -46.384  19.608  -0.743  0.00  0.00     0.139 C 
ENDROOT
BRANCH   2   3
ATOM      3  O   UNK d   0     -45.780  18.415  -0.426  0.00  0.00    -0.776 OA
ATOM      4  H   UNK d   0     -45.245  17.893  -1.124  0.00  0.00     0.167 HD
ENDBRANCH   2   3
BRANCH   2   5
ATOM      5  C   UNK d   0     -46.126  20.827   0.075  0.00  0.00     0.115 C 
BRANCH   5   6
ATOM      6  C   UNK d   0     -45.317  21.819  -0.715  0.00  0.00     0.052 C 
BRANCH   6   7
ATOM      7  C   UNK d   0     -44.065  21.211  -1.302  0.00  0.00    -0.020 A 
ATOM      8  C   UNK d   0     -43.773  21.052  -2.568  0.00  0.00    -0.011 A 
ATOM      9  C   UNK d   0     -42.468  20.416  -2.646  0.00  0.00     0.067 A 
ATOM     10  C   UNK d   0     -41.603  20.004  -3.672  0.00  0.00     0.062 C 
ATOM     11  N   UNK d   0     -42.041  20.220  -1.381  0.00  0.00    -0.248 NA
ATOM     12  C   UNK d   0     -40.252  19.660  -3.553  0.00  0.00     0.041 A 
ATOM     13  N   UNK d   0     -39.603  18.920  -2.633  0.00  0.00    -0.355 N 
ATOM     14  C   UNK d   0     -39.333  20.177  -4.485  0.00  0.00    -0.022 A 
ATOM     15  C   UNK d   0     -38.296  18.962  -2.953  0.00  0.00     0.042 A 
ATOM     16  H   UNK d   0     -40.063  18.364  -1.787  0.00  0.00     0.166 HD
ATOM     17  C   UNK d   0     -37.184  18.363  -2.328  0.00  0.00     0.062 C 
ATOM     18  C   UNK d   0     -38.088  19.740  -4.108  0.00  0.00    -0.013 A 
ATOM     19  C   UNK d   0     -36.874  18.301  -0.993  0.00  0.00     0.067 A 
ATOM     20  N   UNK d   0     -37.826  18.674  -0.134  0.00  0.00    -0.248 NA
ATOM     21  C   UNK d   0     -35.710  17.927  -0.207  0.00  0.00    -0.011 A 
ATOM     22  C   UNK d   0     -37.368  18.574   1.157  0.00  0.00     0.066 A 
ATOM     23  C   UNK d   0     -38.272  18.897   2.158  0.00  0.00     0.062 C 
ATOM     24  C   UNK d   0     -36.004  18.094   1.050  0.00  0.00    -0.020 A 
ATOM     25  C   UNK d   0     -39.629  19.228   2.019  0.00  0.00     0.041 A 
ATOM     26  N   UNK d   0     -40.271  19.976   1.113  0.00  0.00    -0.355 N 
ATOM     27  C   UNK d   0     -40.551  18.705   2.952  0.00  0.00    -0.022 A 
ATOM     28  C   UNK d   0     -41.574  19.943   1.435  0.00  0.00     0.042 A 
ATOM     29  H   UNK d   0     -39.807  20.542   0.269  0.00  0.00     0.166 HD
ATOM     30  C   UNK d   0     -42.690  20.541   0.828  0.00  0.00     0.062 C 
ATOM     31  C   UNK d   0     -41.784  19.152   2.589  0.00  0.00    -0.013 A 
ATOM     32  C   UNK d   0     -42.957  20.677  -0.526  0.00  0.00     0.066 A 
BRANCH   8  33
ATOM     33  C   UNK d   0     -44.605  21.435  -3.723  0.00  0.00     0.151 C 
BRANCH  33  34
ATOM     34  C   UNK d   0     -44.038  22.561  -4.487  0.00  0.00     0.143 C 
ATOM     35  O   UNK d   0     -43.867  23.668  -3.956  0.00  0.00    -0.650 OA
BRANCH  34  36
ATOM     36  O   UNK d   0     -43.696  22.377  -5.807  0.00  0.00    -0.776 OA
ATOM     37  H   UNK d   0     -43.535  21.436  -6.191  0.00  0.00     0.167 HD
ENDBRANCH  34  36
ENDBRANCH  33  34
ENDBRANCH   8  33
BRANCH  31  38
ATOM     38  C   UNK d   0     -43.087  18.838   3.287  0.00  0.00     0.151 C 
BRANCH  38  39
ATOM     39  C   UNK d   0     -43.878  17.852   2.582  0.00  0.00     0.143 C 
ATOM     40  O   UNK d   0     -45.106  17.971   2.428  0.00  0.00    -0.650 OA
BRANCH  39  41
ATOM     41  O   UNK d   0     -43.254  16.724   2.049  0.00  0.00    -0.776 OA
ATOM     42  H   UNK d   0     -42.839  16.823   1.118  0.00  0.00     0.167 HD
ENDBRANCH  39  41
ENDBRANCH  38  39
ENDBRANCH  31  38
BRANCH  27  43
ATOM     43  C   UNK d   0     -40.306  17.819   4.147  0.00  0.00     0.052 C 
BRANCH  43  44
ATOM     44  C   UNK d   0     -39.811  18.565   5.344  0.00  0.00     0.115 C 
BRANCH  44  45
ATOM     45  C   UNK d   0     -40.991  18.800   6.216  0.00  0.00     0.139 C 
ATOM     46  O   UNK d   0     -41.537  17.805   6.753  0.00  0.00    -0.650 OA
BRANCH  45  47
ATOM     47  O   UNK d   0     -41.501  20.056   6.461  0.00  0.00    -0.776 OA
ATOM     48  H   UNK d   0     -41.216  20.629   7.272  0.00  0.00     0.167 HD
ENDBRANCH  45  47
ENDBRANCH  44  45
ENDBRANCH  43  44
ENDBRANCH  27  43
BRANCH  24  49
ATOM     49  C   UNK d   0     -35.125  17.798   2.194  0.00  0.00     0.052 C 
BRANCH  49  50
ATOM     50  C   UNK d   0     -35.664  16.631   2.982  0.00  0.00     0.115 C 
BRANCH  50  51
ATOM     51  C   UNK d   0     -34.725  15.914   3.834  0.00  0.00     0.139 C 
ATOM     52  O   UNK d   0     -34.045  16.484   4.720  0.00  0.00    -0.650 OA
BRANCH  51  53
ATOM     53  O   UNK d   0     -34.560  14.547   3.675  0.00  0.00    -0.776 OA
ATOM     54  H   UNK d   0     -34.478  14.184   2.741  0.00  0.00     0.167 HD
ENDBRANCH  51  53
ENDBRANCH  50  51
ENDBRANCH  49  50
ENDBRANCH  24  49
BRANCH  21  55
ATOM     55  C   UNK d   0     -34.428  17.440  -0.794  0.00  0.00     0.151 C 
BRANCH  55  56
ATOM     56  C   UNK d   0     -33.877  18.384  -1.778  0.00  0.00     0.143 C 
ATOM     57  O   UNK d   0     -33.737  18.099  -2.983  0.00  0.00    -0.650 OA
BRANCH  56  58
ATOM     58  O   UNK d   0     -33.501  19.648  -1.324  0.00  0.00    -0.776 OA
ATOM     59  H   UNK d   0     -34.051  20.005  -0.522  0.00  0.00     0.167 HD
ENDBRANCH  56  58
ENDBRANCH  55  56
ENDBRANCH  21  55
BRANCH  18  60
ATOM     60  C   UNK d   0     -36.803  20.068  -4.827  0.00  0.00     0.151 C 
BRANCH  60  61
ATOM     61  C   UNK d   0     -36.158  21.129  -4.038  0.00  0.00     0.143 C 
ATOM     62  O   UNK d   0     -36.686  22.148  -3.592  0.00  0.00    -0.650 OA
BRANCH  61  63
ATOM     63  O   UNK d   0     -34.781  20.932  -3.776  0.00  0.00    -0.776 OA
ATOM     64  H   UNK d   0     -34.387  21.149  -2.878  0.00  0.00     0.167 HD
ENDBRANCH  61  63
ENDBRANCH  60  61
ENDBRANCH  18  60
BRANCH  14  65
ATOM     65  C   UNK d   0     -39.553  20.962  -5.747  0.00  0.00     0.052 C 
BRANCH  65  66
ATOM     66  C   UNK d   0     -39.709  20.100  -6.949  0.00  0.00     0.115 C 
BRANCH  66  67
ATOM     67  C   UNK d   0     -40.865  20.250  -7.787  0.00  0.00     0.139 C 
ATOM     68  O   UNK d   0     -41.651  21.246  -7.576  0.00  0.00    -0.650 OA
BRANCH  67  69
ATOM     69  O   UNK d   0     -41.267  19.431  -8.841  0.00  0.00    -0.776 OA
ATOM     70  H   UNK d   0     -42.087  19.755  -9.374  0.00  0.00     0.167 HD
ENDBRANCH  67  69
ENDBRANCH  66  67
ENDBRANCH  65  66
ENDBRANCH  14  65
ENDBRANCH   6   7
ENDBRANCH   5   6
ENDBRANCH   2   5
TORSDOF 28
ENDMDL
MODEL 14
REMARK VINA RESULT:      -6.6      1.683      7.422
REMARK  28 active torsions:
REMARK  status: ('A' for Active; 'I' for Inactive)
REMARK    1  A    between atoms: C_2  and  O_3 
REMARK    2  A    between atoms: C_2  and  C_4 
REMARK    3  A    between atoms: C_4  and  C_5 
REMARK    4  A    between atoms: C_5  and  C_6 
REMARK    5  A    between atoms: C_7  and  C_8 
REMARK    6  A    between atoms: C_8  and  C_9 
REMARK    7  A    between atoms: C_9  and  O_11 
REMARK    8  A    between atoms: C_28  and  C_29 
REMARK    9  A    between atoms: C_29  and  C_30 
REMARK   10  A    between atoms: C_30  and  O_32 
REMARK   11  A    between atoms: C_33  and  C_34 
REMARK   12  A    between atoms: C_34  and  C_35 
REMARK   13  A    between atoms: C_35  and  C_36 
REMARK   14  A    between atoms: C_36  and  O_38 
REMARK   15  A    between atoms: C_39  and  C_40 
REMARK   16  A    between atoms: C_40  and  C_41 
REMARK   17  A    between atoms: C_41  and  C_42 
REMARK   18  A    between atoms: C_42  and  O_44 
REMARK   19  A    between atoms: C_45  and  C_46 
REMARK   20  A    between atoms: C_46  and  C_47 
REMARK   21  A    between atoms: C_47  and  O_49 
REMARK   22  A    between atoms: C_50  and  C_51 
REMARK   23  A    between atoms: C_51  and  C_52 
REMARK   24  A    between atoms: C_52  and  O_54 
REMARK   25  A    between atoms: C_55  and  C_56 
REMARK   26  A    between atoms: C_56  and  C_57 
REMARK   27  A    between atoms: C_57  and  C_58 
REMARK   28  A    between atoms: C_58  and  O_60 
ROOT
ATOM      1  O   UNK d   0     -39.655  13.062   5.539  0.00  0.00    -0.650 OA
ATOM      2  C   UNK d   0     -40.172  13.794   4.667  0.00  0.00     0.139 C 
ENDROOT
BRANCH   2   3
ATOM      3  O   UNK d   0     -41.453  13.534   4.242  0.00  0.00    -0.776 OA
ATOM      4  H   UNK d   0     -41.631  12.893   3.466  0.00  0.00     0.167 HD
ENDBRANCH   2   3
BRANCH   2   5
ATOM      5  C   UNK d   0     -39.403  14.936   4.096  0.00  0.00     0.115 C 
BRANCH   5   6
ATOM      6  C   UNK d   0     -40.194  16.209   4.225  0.00  0.00     0.052 C 
BRANCH   6   7
ATOM      7  C   UNK d   0     -40.529  16.824   2.887  0.00  0.00    -0.020 A 
ATOM      8  C   UNK d   0     -41.692  16.845   2.288  0.00  0.00    -0.011 A 
ATOM      9  C   UNK d   0     -41.526  17.538   1.021  0.00  0.00     0.067 A 
ATOM     10  C   UNK d   0     -42.358  17.906  -0.048  0.00  0.00     0.062 C 
ATOM     11  N   UNK d   0     -40.229  17.898   0.928  0.00  0.00    -0.248 NA
ATOM     12  C   UNK d   0     -42.073  18.821  -1.067  0.00  0.00     0.041 A 
ATOM     13  N   UNK d   0     -40.958  19.018  -1.795  0.00  0.00    -0.355 N 
ATOM     14  C   UNK d   0     -43.048  19.773  -1.419  0.00  0.00    -0.022 A 
ATOM     15  C   UNK d   0     -41.196  20.076  -2.594  0.00  0.00     0.042 A 
ATOM     16  H   UNK d   0     -40.027  18.410  -1.759  0.00  0.00     0.166 HD
ATOM     17  C   UNK d   0     -40.373  20.701  -3.551  0.00  0.00     0.062 C 
ATOM     18  C   UNK d   0     -42.496  20.576  -2.387  0.00  0.00    -0.013 A 
ATOM     19  C   UNK d   0     -39.050  21.050  -3.455  0.00  0.00     0.067 A 
ATOM     20  N   UNK d   0     -38.374  20.574  -2.406  0.00  0.00    -0.248 NA
ATOM     21  C   UNK d   0     -38.125  21.863  -4.226  0.00  0.00    -0.011 A 
ATOM     22  C   UNK d   0     -37.074  21.017  -2.436  0.00  0.00     0.066 A 
ATOM     23  C   UNK d   0     -36.245  20.564  -1.420  0.00  0.00     0.062 C 
ATOM     24  C   UNK d   0     -36.972  21.843  -3.622  0.00  0.00    -0.020 A 
ATOM     25  C   UNK d   0     -36.548  19.634  -0.413  0.00  0.00     0.041 A 
ATOM     26  N   UNK d   0     -37.651  19.448   0.321  0.00  0.00    -0.355 N 
ATOM     27  C   UNK d   0     -35.571  18.677  -0.063  0.00  0.00    -0.022 A 
ATOM     28  C   UNK d   0     -37.413  18.400   1.125  0.00  0.00     0.042 A 
ATOM     29  H   UNK d   0     -38.582  20.066   0.291  0.00  0.00     0.166 HD
ATOM     30  C   UNK d   0     -38.219  17.772   2.088  0.00  0.00     0.062 C 
ATOM     31  C   UNK d   0     -36.110  17.891   0.909  0.00  0.00    -0.013 A 
ATOM     32  C   UNK d   0     -39.576  17.498   2.019  0.00  0.00     0.066 A 
BRANCH   8  33
ATOM     33  C   UNK d   0     -42.956  16.272   2.786  0.00  0.00     0.151 C 
BRANCH  33  34
ATOM     34  C   UNK d   0     -43.785  17.256   3.505  0.00  0.00     0.143 C 
ATOM     35  O   UNK d   0     -44.689  17.872   2.923  0.00  0.00    -0.650 OA
BRANCH  34  36
ATOM     36  O   UNK d   0     -43.548  17.493   4.839  0.00  0.00    -0.776 OA
ATOM     37  H   UNK d   0     -42.962  18.281   5.147  0.00  0.00     0.167 HD
ENDBRANCH  34  36
ENDBRANCH  33  34
ENDBRANCH   8  33
BRANCH  31  38
ATOM     38  C   UNK d   0     -35.436  16.719   1.583  0.00  0.00     0.151 C 
BRANCH  38  39
ATOM     39  C   UNK d   0     -34.785  17.083   2.824  0.00  0.00     0.143 C 
ATOM     40  O   UNK d   0     -35.229  16.743   3.934  0.00  0.00    -0.650 OA
BRANCH  39  41
ATOM     41  O   UNK d   0     -33.616  17.843   2.787  0.00  0.00    -0.776 OA
ATOM     42  H   UNK d   0     -33.695  18.794   2.413  0.00  0.00     0.167 HD
ENDBRANCH  39  41
ENDBRANCH  38  39
ENDBRANCH  31  38
BRANCH  27  43
ATOM     43  C   UNK d   0     -34.176  18.488  -0.606  0.00  0.00     0.052 C 
BRANCH  43  44
ATOM     44  C   UNK d   0     -34.104  17.492  -1.718  0.00  0.00     0.115 C 
BRANCH  44  45
ATOM     45  C   UNK d   0     -34.306  18.251  -2.980  0.00  0.00     0.139 C 
ATOM     46  O   UNK d   0     -33.581  19.254  -3.190  0.00  0.00    -0.650 OA
BRANCH  45  47
ATOM     47  O   UNK d   0     -35.247  17.895  -3.923  0.00  0.00    -0.776 OA
ATOM     48  H   UNK d   0     -34.996  17.492  -4.840  0.00  0.00     0.167 HD
ENDBRANCH  45  47
ENDBRANCH  44  45
ENDBRANCH  43  44
ENDBRANCH  27  43
BRANCH  24  49
ATOM     49  C   UNK d   0     -35.738  22.504  -4.083  0.00  0.00     0.052 C 
BRANCH  49  50
ATOM     50  C   UNK d   0     -35.272  23.513  -3.065  0.00  0.00     0.115 C 
BRANCH  50  51
ATOM     51  C   UNK d   0     -33.996  23.257  -2.412  0.00  0.00     0.139 C 
ATOM     52  O   UNK d   0     -33.552  23.980  -1.489  0.00  0.00    -0.650 OA
BRANCH  51  53
ATOM     53  O   UNK d   0     -33.223  22.178  -2.813  0.00  0.00    -0.776 OA
ATOM     54  H   UNK d   0     -32.788  22.216  -3.718  0.00  0.00     0.167 HD
ENDBRANCH  51  53
ENDBRANCH  50  51
ENDBRANCH  49  50
ENDBRANCH  24  49
BRANCH  21  55
ATOM     55  C   UNK d   0     -38.489  22.572  -5.489  0.00  0.00     0.151 C 
BRANCH  55  56
ATOM     56  C   UNK d   0     -39.100  23.884  -5.228  0.00  0.00     0.143 C 
ATOM     57  O   UNK d   0     -38.432  24.931  -5.123  0.00  0.00    -0.650 OA
BRANCH  56  58
ATOM     58  O   UNK d   0     -40.487  23.939  -5.097  0.00  0.00    -0.776 OA
ATOM     59  H   UNK d   0     -40.968  24.533  -5.797  0.00  0.00     0.167 HD
ENDBRANCH  56  58
ENDBRANCH  55  56
ENDBRANCH  21  55
BRANCH  18  60
ATOM     60  C   UNK d   0     -43.195  21.739  -3.046  0.00  0.00     0.151 C 
BRANCH  60  61
ATOM     61  C   UNK d   0     -43.692  21.234  -4.335  0.00  0.00     0.143 C 
ATOM     62  O   UNK d   0     -43.099  21.242  -5.414  0.00  0.00    -0.650 OA
BRANCH  61  63
ATOM     63  O   UNK d   0     -44.996  20.682  -4.303  0.00  0.00    -0.776 OA
ATOM     64  H   UNK d   0     -45.229  19.872  -4.849  0.00  0.00     0.167 HD
ENDBRANCH  61  63
ENDBRANCH  60  61
ENDBRANCH  18  60
BRANCH  14  65
ATOM     65  C   UNK d   0     -44.479  19.918  -0.986  0.00  0.00     0.052 C 
BRANCH  65  66
ATOM     66  C   UNK d   0     -44.686  21.039  -0.030  0.00  0.00     0.115 C 
BRANCH  66  67
ATOM     67  C   UNK d   0     -43.743  21.253   1.032  0.00  0.00     0.139 C 
ATOM     68  O   UNK d   0     -43.022  22.317   1.006  0.00  0.00    -0.650 OA
BRANCH  67  69
ATOM     69  O   UNK d   0     -43.493  20.430   2.129  0.00  0.00    -0.776 OA
ATOM     70  H   UNK d   0     -43.374  20.911   3.032  0.00  0.00     0.167 HD
ENDBRANCH  67  69
ENDBRANCH  66  67
ENDBRANCH  65  66
ENDBRANCH  14  65
ENDBRANCH   6   7
ENDBRANCH   5   6
ENDBRANCH   2   5
TORSDOF 28
ENDMDL
MODEL 15
REMARK VINA RESULT:      -6.6      1.249      7.471
REMARK  28 active torsions:
REMARK  status: ('A' for Active; 'I' for Inactive)
REMARK    1  A    between atoms: C_2  and  O_3 
REMARK    2  A    between atoms: C_2  and  C_4 
REMARK    3  A    between atoms: C_4  and  C_5 
REMARK    4  A    between atoms: C_5  and  C_6 
REMARK    5  A    between atoms: C_7  and  C_8 
REMARK    6  A    between atoms: C_8  and  C_9 
REMARK    7  A    between atoms: C_9  and  O_11 
REMARK    8  A    between atoms: C_28  and  C_29 
REMARK    9  A    between atoms: C_29  and  C_30 
REMARK   10  A    between atoms: C_30  and  O_32 
REMARK   11  A    between atoms: C_33  and  C_34 
REMARK   12  A    between atoms: C_34  and  C_35 
REMARK   13  A    between atoms: C_35  and  C_36 
REMARK   14  A    between atoms: C_36  and  O_38 
REMARK   15  A    between atoms: C_39  and  C_40 
REMARK   16  A    between atoms: C_40  and  C_41 
REMARK   17  A    between atoms: C_41  and  C_42 
REMARK   18  A    between atoms: C_42  and  O_44 
REMARK   19  A    between atoms: C_45  and  C_46 
REMARK   20  A    between atoms: C_46  and  C_47 
REMARK   21  A    between atoms: C_47  and  O_49 
REMARK   22  A    between atoms: C_50  and  C_51 
REMARK   23  A    between atoms: C_51  and  C_52 
REMARK   24  A    between atoms: C_52  and  O_54 
REMARK   25  A    between atoms: C_55  and  C_56 
REMARK   26  A    between atoms: C_56  and  C_57 
REMARK   27  A    between atoms: C_57  and  C_58 
REMARK   28  A    between atoms: C_58  and  O_60 
ROOT
ATOM      1  O   UNK d   0     -34.618  14.675   3.548  0.00  0.00    -0.650 OA
ATOM      2  C   UNK d   0     -34.872  15.873   3.806  0.00  0.00     0.139 C 
ENDROOT
BRANCH   2   3
ATOM      3  O   UNK d   0     -34.260  16.475   4.879  0.00  0.00    -0.776 OA
ATOM      4  H   UNK d   0     -34.023  15.942   5.719  0.00  0.00     0.167 HD
ENDBRANCH   2   3
BRANCH   2   5
ATOM      5  C   UNK d   0     -35.830  16.635   2.956  0.00  0.00     0.115 C 
BRANCH   5   6
ATOM      6  C   UNK d   0     -37.022  17.058   3.771  0.00  0.00     0.052 C 
BRANCH   6   7
ATOM      7  C   UNK d   0     -38.262  17.251   2.931  0.00  0.00    -0.020 A 
ATOM      8  C   UNK d   0     -39.478  16.851   3.201  0.00  0.00    -0.011 A 
ATOM      9  C   UNK d   0     -40.334  17.255   2.098  0.00  0.00     0.067 A 
ATOM     10  C   UNK d   0     -41.699  17.156   1.786  0.00  0.00     0.062 C 
ATOM     11  N   UNK d   0     -39.554  17.891   1.198  0.00  0.00    -0.248 NA
ATOM     12  C   UNK d   0     -42.395  17.857   0.794  0.00  0.00     0.041 A 
ATOM     13  N   UNK d   0     -42.068  18.149  -0.479  0.00  0.00    -0.355 N 
ATOM     14  C   UNK d   0     -43.636  18.436   1.114  0.00  0.00    -0.022 A 
ATOM     15  C   UNK d   0     -43.067  18.905  -0.973  0.00  0.00     0.042 A 
ATOM     16  H   UNK d   0     -41.160  17.811  -1.024  0.00  0.00     0.166 HD
ATOM     17  C   UNK d   0     -43.233  19.478  -2.249  0.00  0.00     0.062 C 
ATOM     18  C   UNK d   0     -44.068  19.107  -0.003  0.00  0.00    -0.013 A 
ATOM     19  C   UNK d   0     -42.319  20.152  -3.018  0.00  0.00     0.067 A 
ATOM     20  N   UNK d   0     -41.044  20.106  -2.621  0.00  0.00    -0.248 NA
ATOM     21  C   UNK d   0     -42.363  20.968  -4.220  0.00  0.00    -0.011 A 
ATOM     22  C   UNK d   0     -40.253  20.834  -3.475  0.00  0.00     0.066 A 
ATOM     23  C   UNK d   0     -38.893  20.841  -3.201  0.00  0.00     0.062 C 
ATOM     24  C   UNK d   0     -41.152  21.368  -4.480  0.00  0.00    -0.020 A 
ATOM     25  C   UNK d   0     -38.212  20.120  -2.207  0.00  0.00     0.041 A 
ATOM     26  N   UNK d   0     -38.530  19.842  -0.937  0.00  0.00    -0.355 N 
ATOM     27  C   UNK d   0     -36.969  19.535  -2.531  0.00  0.00    -0.022 A 
ATOM     28  C   UNK d   0     -37.531  19.095  -0.440  0.00  0.00     0.042 A 
ATOM     29  H   UNK d   0     -39.438  20.191  -0.388  0.00  0.00     0.166 HD
ATOM     30  C   UNK d   0     -37.349  18.526   0.830  0.00  0.00     0.062 C 
ATOM     31  C   UNK d   0     -36.531  18.884  -1.418  0.00  0.00    -0.013 A 
ATOM     32  C   UNK d   0     -38.296  17.922   1.641  0.00  0.00     0.066 A 
BRANCH   8  33
ATOM     33  C   UNK d   0     -39.924  16.116   4.399  0.00  0.00     0.151 C 
BRANCH  33  34
ATOM     34  C   UNK d   0     -39.928  14.655   4.203  0.00  0.00     0.143 C 
ATOM     35  O   UNK d   0     -40.972  14.055   3.909  0.00  0.00    -0.650 OA
BRANCH  34  36
ATOM     36  O   UNK d   0     -38.756  13.950   4.350  0.00  0.00    -0.776 OA
ATOM     37  H   UNK d   0     -37.895  14.407   4.682  0.00  0.00     0.167 HD
ENDBRANCH  34  36
ENDBRANCH  33  34
ENDBRANCH   8  33
BRANCH  31  38
ATOM     38  C   UNK d   0     -35.247  18.097  -1.293  0.00  0.00     0.151 C 
BRANCH  38  39
ATOM     39  C   UNK d   0     -34.236  18.791  -0.524  0.00  0.00     0.143 C 
ATOM     40  O   UNK d   0     -33.870  19.947  -0.796  0.00  0.00    -0.650 OA
BRANCH  39  41
ATOM     41  O   UNK d   0     -33.644  18.152   0.565  0.00  0.00    -0.776 OA
ATOM     42  H   UNK d   0     -33.904  17.173   0.723  0.00  0.00     0.167 HD
ENDBRANCH  39  41
ENDBRANCH  38  39
ENDBRANCH  31  38
BRANCH  27  43
ATOM     43  C   UNK d   0     -36.199  19.574  -3.828  0.00  0.00     0.052 C 
BRANCH  43  44
ATOM     44  C   UNK d   0     -35.529  20.886  -4.078  0.00  0.00     0.115 C 
BRANCH  44  45
ATOM     45  C   UNK d   0     -34.070  20.653  -3.921  0.00  0.00     0.139 C 
ATOM     46  O   UNK d   0     -33.327  21.651  -3.749  0.00  0.00    -0.650 OA
BRANCH  45  47
ATOM     47  O   UNK d   0     -33.506  19.397  -3.951  0.00  0.00    -0.776 OA
ATOM     48  H   UNK d   0     -32.979  19.000  -3.156  0.00  0.00     0.167 HD
ENDBRANCH  45  47
ENDBRANCH  44  45
ENDBRANCH  43  44
ENDBRANCH  27  43
BRANCH  24  49
ATOM     49  C   UNK d   0     -40.736  22.186  -5.631  0.00  0.00     0.052 C 
BRANCH  49  50
ATOM     50  C   UNK d   0     -39.913  21.364  -6.590  0.00  0.00     0.115 C 
BRANCH  50  51
ATOM     51  C   UNK d   0     -40.630  20.645  -7.634  0.00  0.00     0.139 C 
ATOM     52  O   UNK d   0     -41.785  20.963  -8.003  0.00  0.00    -0.650 OA
BRANCH  51  53
ATOM     53  O   UNK d   0     -40.030  19.562  -8.258  0.00  0.00    -0.776 OA
ATOM     54  H   UNK d   0     -40.330  18.639  -7.999  0.00  0.00     0.167 HD
ENDBRANCH  51  53
ENDBRANCH  50  51
ENDBRANCH  49  50
ENDBRANCH  24  49
BRANCH  21  55
ATOM     55  C   UNK d   0     -43.611  21.260  -4.986  0.00  0.00     0.151 C 
BRANCH  55  56
ATOM     56  C   UNK d   0     -44.456  22.252  -4.305  0.00  0.00     0.143 C 
ATOM     57  O   UNK d   0     -45.702  22.189  -4.301  0.00  0.00    -0.650 OA
BRANCH  56  58
ATOM     58  O   UNK d   0     -43.821  23.300  -3.641  0.00  0.00    -0.776 OA
ATOM     59  H   UNK d   0     -43.990  24.239  -4.045  0.00  0.00     0.167 HD
ENDBRANCH  56  58
ENDBRANCH  55  56
ENDBRANCH  21  55
BRANCH  18  60
ATOM     60  C   UNK d   0     -45.358  19.883  -0.100  0.00  0.00     0.151 C 
BRANCH  60  61
ATOM     61  C   UNK d   0     -46.424  18.879  -0.230  0.00  0.00     0.143 C 
ATOM     62  O   UNK d   0     -47.505  18.863   0.360  0.00  0.00    -0.650 OA
BRANCH  61  63
ATOM     63  O   UNK d   0     -46.154  17.827  -1.139  0.00  0.00    -0.776 OA
ATOM     64  H   UNK d   0     -46.051  18.006  -2.122  0.00  0.00     0.167 HD
ENDBRANCH  61  63
ENDBRANCH  60  61
ENDBRANCH  18  60
BRANCH  14  65
ATOM     65  C   UNK d   0     -44.482  18.323   2.351  0.00  0.00     0.052 C 
BRANCH  65  66
ATOM     66  C   UNK d   0     -43.976  19.148   3.480  0.00  0.00     0.115 C 
BRANCH  66  67
ATOM     67  C   UNK d   0     -44.132  18.682   4.828  0.00  0.00     0.139 C 
ATOM     68  O   UNK d   0     -43.926  19.509   5.792  0.00  0.00    -0.650 OA
BRANCH  67  69
ATOM     69  O   UNK d   0     -44.490  17.403   5.253  0.00  0.00    -0.776 OA
ATOM     70  H   UNK d   0     -45.147  16.896   4.643  0.00  0.00     0.167 HD
ENDBRANCH  67  69
ENDBRANCH  66  67
ENDBRANCH  65  66
ENDBRANCH  14  65
ENDBRANCH   6   7
ENDBRANCH   5   6
ENDBRANCH   2   5
TORSDOF 28
ENDMDL
MODEL 16
REMARK VINA RESULT:      -6.5      1.592      8.249
REMARK  28 active torsions:
REMARK  status: ('A' for Active; 'I' for Inactive)
REMARK    1  A    between atoms: C_2  and  O_3 
REMARK    2  A    between atoms: C_2  and  C_4 
REMARK    3  A    between atoms: C_4  and  C_5 
REMARK    4  A    between atoms: C_5  and  C_6 
REMARK    5  A    between atoms: C_7  and  C_8 
REMARK    6  A    between atoms: C_8  and  C_9 
REMARK    7  A    between atoms: C_9  and  O_11 
REMARK    8  A    between atoms: C_28  and  C_29 
REMARK    9  A    between atoms: C_29  and  C_30 
REMARK   10  A    between atoms: C_30  and  O_32 
REMARK   11  A    between atoms: C_33  and  C_34 
REMARK   12  A    between atoms: C_34  and  C_35 
REMARK   13  A    between atoms: C_35  and  C_36 
REMARK   14  A    between atoms: C_36  and  O_38 
REMARK   15  A    between atoms: C_39  and  C_40 
REMARK   16  A    between atoms: C_40  and  C_41 
REMARK   17  A    between atoms: C_41  and  C_42 
REMARK   18  A    between atoms: C_42  and  O_44 
REMARK   19  A    between atoms: C_45  and  C_46 
REMARK   20  A    between atoms: C_46  and  C_47 
REMARK   21  A    between atoms: C_47  and  O_49 
REMARK   22  A    between atoms: C_50  and  C_51 
REMARK   23  A    between atoms: C_51  and  C_52 
REMARK   24  A    between atoms: C_52  and  O_54 
REMARK   25  A    between atoms: C_55  and  C_56 
REMARK   26  A    between atoms: C_56  and  C_57 
REMARK   27  A    between atoms: C_57  and  C_58 
REMARK   28  A    between atoms: C_58  and  O_60 
ROOT
ATOM      1  O   UNK d   0     -33.592  16.139   2.027  0.00  0.00    -0.650 OA
ATOM      2  C   UNK d   0     -34.231  15.599   1.097  0.00  0.00     0.139 C 
ENDROOT
BRANCH   2   3
ATOM      3  O   UNK d   0     -34.132  14.241   0.912  0.00  0.00    -0.776 OA
ATOM      4  H   UNK d   0     -34.402  13.587   1.649  0.00  0.00     0.167 HD
ENDBRANCH   2   3
BRANCH   2   5
ATOM      5  C   UNK d   0     -35.089  16.424   0.201  0.00  0.00     0.115 C 
BRANCH   5   6
ATOM      6  C   UNK d   0     -35.374  17.757   0.839  0.00  0.00     0.052 C 
BRANCH   6   7
ATOM      7  C   UNK d   0     -36.194  18.663  -0.047  0.00  0.00    -0.020 A 
ATOM      8  C   UNK d   0     -35.759  19.512  -0.942  0.00  0.00    -0.011 A 
ATOM      9  C   UNK d   0     -36.914  20.164  -1.537  0.00  0.00     0.067 A 
ATOM     10  C   UNK d   0     -37.131  21.125  -2.536  0.00  0.00     0.062 C 
ATOM     11  N   UNK d   0     -38.012  19.655  -0.940  0.00  0.00    -0.248 NA
ATOM     12  C   UNK d   0     -38.340  21.429  -3.170  0.00  0.00     0.041 A 
ATOM     13  N   UNK d   0     -39.586  21.576  -2.681  0.00  0.00    -0.355 N 
ATOM     14  C   UNK d   0     -38.358  21.570  -4.570  0.00  0.00    -0.022 A 
ATOM     15  C   UNK d   0     -40.395  21.798  -3.735  0.00  0.00     0.042 A 
ATOM     16  H   UNK d   0     -39.885  21.542  -1.610  0.00  0.00     0.166 HD
ATOM     17  C   UNK d   0     -41.785  22.019  -3.788  0.00  0.00     0.062 C 
ATOM     18  C   UNK d   0     -39.660  21.801  -4.936  0.00  0.00    -0.013 A 
ATOM     19  C   UNK d   0     -42.790  21.352  -3.135  0.00  0.00     0.067 A 
ATOM     20  N   UNK d   0     -42.426  20.509  -2.166  0.00  0.00    -0.248 NA
ATOM     21  C   UNK d   0     -44.240  21.299  -3.225  0.00  0.00    -0.011 A 
ATOM     22  C   UNK d   0     -43.532  19.907  -1.617  0.00  0.00     0.066 A 
ATOM     23  C   UNK d   0     -43.300  19.030  -0.567  0.00  0.00     0.062 C 
ATOM     24  C   UNK d   0     -44.668  20.449  -2.337  0.00  0.00    -0.020 A 
ATOM     25  C   UNK d   0     -42.079  18.749   0.065  0.00  0.00     0.041 A 
ATOM     26  N   UNK d   0     -40.843  18.588  -0.424  0.00  0.00    -0.355 N 
ATOM     27  C   UNK d   0     -42.061  18.612   1.470  0.00  0.00    -0.022 A 
ATOM     28  C   UNK d   0     -40.036  18.358   0.624  0.00  0.00     0.042 A 
ATOM     29  H   UNK d   0     -40.546  18.612  -1.501  0.00  0.00     0.166 HD
ATOM     30  C   UNK d   0     -38.653  18.128   0.691  0.00  0.00     0.062 C 
ATOM     31  C   UNK d   0     -40.773  18.365   1.832  0.00  0.00    -0.013 A 
ATOM     32  C   UNK d   0     -37.647  18.746  -0.034  0.00  0.00     0.066 A 
BRANCH   8  33
ATOM     33  C   UNK d   0     -34.353  19.781  -1.297  0.00  0.00     0.151 C 
BRANCH  33  34
ATOM     34  C   UNK d   0     -33.999  19.287  -2.640  0.00  0.00     0.143 C 
ATOM     35  O   UNK d   0     -33.709  20.075  -3.551  0.00  0.00    -0.650 OA
BRANCH  34  36
ATOM     36  O   UNK d   0     -33.992  17.933  -2.882  0.00  0.00    -0.776 OA
ATOM     37  H   UNK d   0     -33.930  17.253  -2.112  0.00  0.00     0.167 HD
ENDBRANCH  34  36
ENDBRANCH  33  34
ENDBRANCH   8  33
BRANCH  31  38
ATOM     38  C   UNK d   0     -40.267  18.162   3.241  0.00  0.00     0.151 C 
BRANCH  38  39
ATOM     39  C   UNK d   0     -40.590  16.854   3.771  0.00  0.00     0.143 C 
ATOM     40  O   UNK d   0     -40.391  15.808   3.127  0.00  0.00    -0.650 OA
BRANCH  39  41
ATOM     41  O   UNK d   0     -41.143  16.747   5.046  0.00  0.00    -0.776 OA
ATOM     42  H   UNK d   0     -40.557  17.051   5.830  0.00  0.00     0.167 HD
ENDBRANCH  39  41
ENDBRANCH  38  39
ENDBRANCH  31  38
BRANCH  27  43
ATOM     43  C   UNK d   0     -43.199  18.703   2.455  0.00  0.00     0.052 C 
BRANCH  43  44
ATOM     44  C   UNK d   0     -43.872  17.393   2.704  0.00  0.00     0.115 C 
BRANCH  44  45
ATOM     45  C   UNK d   0     -44.502  17.486   4.047  0.00  0.00     0.139 C 
ATOM     46  O   UNK d   0     -43.807  17.927   4.996  0.00  0.00    -0.650 OA
BRANCH  45  47
ATOM     47  O   UNK d   0     -45.807  17.117   4.288  0.00  0.00    -0.776 OA
ATOM     48  H   UNK d   0     -46.463  16.854   3.535  0.00  0.00     0.167 HD
ENDBRANCH  45  47
ENDBRANCH  44  45
ENDBRANCH  43  44
ENDBRANCH  27  43
BRANCH  24  49
ATOM     49  C   UNK d   0     -46.075  20.117  -2.060  0.00  0.00     0.052 C 
BRANCH  49  50
ATOM     50  C   UNK d   0     -46.504  18.925  -2.877  0.00  0.00     0.115 C 
BRANCH  50  51
ATOM     51  C   UNK d   0     -46.835  17.706  -2.152  0.00  0.00     0.139 C 
ATOM     52  O   UNK d   0     -46.485  17.510  -0.964  0.00  0.00    -0.650 OA
BRANCH  51  53
ATOM     53  O   UNK d   0     -47.563  16.709  -2.782  0.00  0.00    -0.776 OA
ATOM     54  H   UNK d   0     -47.282  16.426  -3.705  0.00  0.00     0.167 HD
ENDBRANCH  51  53
ENDBRANCH  50  51
ENDBRANCH  49  50
ENDBRANCH  24  49
BRANCH  21  55
ATOM     55  C   UNK d   0     -45.047  22.108  -4.186  0.00  0.00     0.151 C 
BRANCH  55  56
ATOM     56  C   UNK d   0     -45.413  21.336  -5.384  0.00  0.00     0.143 C 
ATOM     57  O   UNK d   0     -46.595  21.092  -5.694  0.00  0.00    -0.650 OA
BRANCH  56  58
ATOM     58  O   UNK d   0     -44.380  20.867  -6.195  0.00  0.00    -0.776 OA
ATOM     59  H   UNK d   0     -43.640  20.341  -5.698  0.00  0.00     0.167 HD
ENDBRANCH  56  58
ENDBRANCH  55  56
ENDBRANCH  21  55
BRANCH  18  60
ATOM     60  C   UNK d   0     -40.137  22.004  -6.353  0.00  0.00     0.151 C 
BRANCH  60  61
ATOM     61  C   UNK d   0     -40.479  20.666  -6.860  0.00  0.00     0.143 C 
ATOM     62  O   UNK d   0     -39.721  19.704  -6.984  0.00  0.00    -0.650 OA
BRANCH  61  63
ATOM     63  O   UNK d   0     -41.832  20.493  -7.238  0.00  0.00    -0.776 OA
ATOM     64  H   UNK d   0     -42.549  20.352  -6.549  0.00  0.00     0.167 HD
ENDBRANCH  61  63
ENDBRANCH  60  61
ENDBRANCH  18  60
BRANCH  14  65
ATOM     65  C   UNK d   0     -37.234  21.600  -5.567  0.00  0.00     0.052 C 
BRANCH  65  66
ATOM     66  C   UNK d   0     -36.718  22.972  -5.819  0.00  0.00     0.115 C 
BRANCH  66  67
ATOM     67  C   UNK d   0     -35.434  23.356  -5.303  0.00  0.00     0.139 C 
ATOM     68  O   UNK d   0     -34.865  24.402  -5.788  0.00  0.00    -0.650 OA
BRANCH  67  69
ATOM     69  O   UNK d   0     -34.690  22.722  -4.309  0.00  0.00    -0.776 OA
ATOM     70  H   UNK d   0     -35.231  22.171  -3.627  0.00  0.00     0.167 HD
ENDBRANCH  67  69
ENDBRANCH  66  67
ENDBRANCH  65  66
ENDBRANCH  14  65
ENDBRANCH   6   7
ENDBRANCH   5   6
ENDBRANCH   2   5
TORSDOF 28
ENDMDL
MODEL 17
REMARK VINA RESULT:      -6.5      2.301      7.901
REMARK  28 active torsions:
REMARK  status: ('A' for Active; 'I' for Inactive)
REMARK    1  A    between atoms: C_2  and  O_3 
REMARK    2  A    between atoms: C_2  and  C_4 
REMARK    3  A    between atoms: C_4  and  C_5 
REMARK    4  A    between atoms: C_5  and  C_6 
REMARK    5  A    between atoms: C_7  and  C_8 
REMARK    6  A    between atoms: C_8  and  C_9 
REMARK    7  A    between atoms: C_9  and  O_11 
REMARK    8  A    between atoms: C_28  and  C_29 
REMARK    9  A    between atoms: C_29  and  C_30 
REMARK   10  A    between atoms: C_30  and  O_32 
REMARK   11  A    between atoms: C_33  and  C_34 
REMARK   12  A    between atoms: C_34  and  C_35 
REMARK   13  A    between atoms: C_35  and  C_36 
REMARK   14  A    between atoms: C_36  and  O_38 
REMARK   15  A    between atoms: C_39  and  C_40 
REMARK   16  A    between atoms: C_40  and  C_41 
REMARK   17  A    between atoms: C_41  and  C_42 
REMARK   18  A    between atoms: C_42  and  O_44 
REMARK   19  A    between atoms: C_45  and  C_46 
REMARK   20  A    between atoms: C_46  and  C_47 
REMARK   21  A    between atoms: C_47  and  O_49 
REMARK   22  A    between atoms: C_50  and  C_51 
REMARK   23  A    between atoms: C_51  and  C_52 
REMARK   24  A    between atoms: C_52  and  O_54 
REMARK   25  A    between atoms: C_55  and  C_56 
REMARK   26  A    between atoms: C_56  and  C_57 
REMARK   27  A    between atoms: C_57  and  C_58 
REMARK   28  A    between atoms: C_58  and  O_60 
ROOT
ATOM      1  O   UNK d   0     -33.416  22.275  -3.034  0.00  0.00    -0.650 OA
ATOM      2  C   UNK d   0     -34.606  22.585  -3.262  0.00  0.00     0.139 C 
ENDROOT
BRANCH   2   3
ATOM      3  O   UNK d   0     -35.374  23.101  -2.247  0.00  0.00    -0.776 OA
ATOM      4  H   UNK d   0     -36.201  22.606  -1.906  0.00  0.00     0.167 HD
ENDBRANCH   2   3
BRANCH   2   5
ATOM      5  C   UNK d   0     -35.182  22.393  -4.624  0.00  0.00     0.115 C 
BRANCH   5   6
ATOM      6  C   UNK d   0     -35.325  20.926  -4.924  0.00  0.00     0.052 C 
BRANCH   6   7
ATOM      7  C   UNK d   0     -36.415  20.270  -4.111  0.00  0.00    -0.020 A 
ATOM      8  C   UNK d   0     -36.277  19.393  -3.150  0.00  0.00    -0.011 A 
ATOM      9  C   UNK d   0     -37.605  19.043  -2.672  0.00  0.00     0.067 A 
ATOM     10  C   UNK d   0     -38.135  18.206  -1.679  0.00  0.00     0.062 C 
ATOM     11  N   UNK d   0     -38.492  19.751  -3.403  0.00  0.00    -0.248 NA
ATOM     12  C   UNK d   0     -39.441  18.210  -1.176  0.00  0.00     0.041 A 
ATOM     13  N   UNK d   0     -40.630  18.317  -1.799  0.00  0.00    -0.355 N 
ATOM     14  C   UNK d   0     -39.635  18.149   0.216  0.00  0.00    -0.022 A 
ATOM     15  C   UNK d   0     -41.573  18.333  -0.837  0.00  0.00     0.042 A 
ATOM     16  H   UNK d   0     -40.801  18.360  -2.897  0.00  0.00     0.166 HD
ATOM     17  C   UNK d   0     -42.975  18.428  -0.935  0.00  0.00     0.062 C 
ATOM     18  C   UNK d   0     -40.987  18.230   0.439  0.00  0.00    -0.013 A 
ATOM     19  C   UNK d   0     -43.731  19.265  -1.715  0.00  0.00     0.067 A 
ATOM     20  N   UNK d   0     -43.088  19.956  -2.659  0.00  0.00    -0.248 NA
ATOM     21  C   UNK d   0     -45.133  19.641  -1.790  0.00  0.00    -0.011 A 
ATOM     22  C   UNK d   0     -43.967  20.758  -3.345  0.00  0.00     0.066 A 
ATOM     23  C   UNK d   0     -43.436  21.506  -4.385  0.00  0.00     0.062 C 
ATOM     24  C   UNK d   0     -45.264  20.517  -2.743  0.00  0.00    -0.020 A 
ATOM     25  C   UNK d   0     -42.124  21.478  -4.883  0.00  0.00     0.041 A 
ATOM     26  N   UNK d   0     -40.941  21.387  -4.263  0.00  0.00    -0.355 N 
ATOM     27  C   UNK d   0     -41.931  21.535  -6.280  0.00  0.00    -0.022 A 
ATOM     28  C   UNK d   0     -39.999  21.380  -5.219  0.00  0.00     0.042 A 
ATOM     29  H   UNK d   0     -40.770  21.354  -3.159  0.00  0.00     0.166 HD
ATOM     30  C   UNK d   0     -38.600  21.296  -5.136  0.00  0.00     0.062 C 
ATOM     31  C   UNK d   0     -40.589  21.473  -6.502  0.00  0.00    -0.013 A 
ATOM     32  C   UNK d   0     -37.840  20.509  -4.285  0.00  0.00     0.066 A 
BRANCH   8  33
ATOM     33  C   UNK d   0     -35.012  18.839  -2.633  0.00  0.00     0.151 C 
BRANCH  33  34
ATOM     34  C   UNK d   0     -34.777  19.179  -1.218  0.00  0.00     0.143 C 
ATOM     35  O   UNK d   0     -34.610  18.292  -0.369  0.00  0.00    -0.650 OA
BRANCH  34  36
ATOM     36  O   UNK d   0     -34.746  20.501  -0.837  0.00  0.00    -0.776 OA
ATOM     37  H   UNK d   0     -34.981  20.786   0.123  0.00  0.00     0.167 HD
ENDBRANCH  34  36
ENDBRANCH  33  34
ENDBRANCH   8  33
BRANCH  31  38
ATOM     38  C   UNK d   0     -39.907  21.487  -7.850  0.00  0.00     0.151 C 
BRANCH  38  39
ATOM     39  C   UNK d   0     -40.095  20.256  -8.587  0.00  0.00     0.143 C 
ATOM     40  O   UNK d   0     -40.564  20.235  -9.739  0.00  0.00    -0.650 OA
BRANCH  39  41
ATOM     41  O   UNK d   0     -39.741  19.042  -7.998  0.00  0.00    -0.776 OA
ATOM     42  H   UNK d   0     -40.487  18.527  -7.519  0.00  0.00     0.167 HD
ENDBRANCH  39  41
ENDBRANCH  38  39
ENDBRANCH  31  38
BRANCH  27  43
ATOM     43  C   UNK d   0     -42.952  21.647  -7.385  0.00  0.00     0.052 C 
BRANCH  43  44
ATOM     44  C   UNK d   0     -43.277  23.059  -7.749  0.00  0.00     0.115 C 
BRANCH  44  45
ATOM     45  C   UNK d   0     -43.362  23.106  -9.232  0.00  0.00     0.139 C 
ATOM     46  O   UNK d   0     -44.104  23.975  -9.754  0.00  0.00    -0.650 OA
BRANCH  45  47
ATOM     47  O   UNK d   0     -42.662  22.245 -10.049  0.00  0.00    -0.776 OA
ATOM     48  H   UNK d   0     -41.783  22.512 -10.522  0.00  0.00     0.167 HD
ENDBRANCH  45  47
ENDBRANCH  44  45
ENDBRANCH  43  44
ENDBRANCH  27  43
BRANCH  24  49
ATOM     49  C   UNK d   0     -46.525  21.137  -3.186  0.00  0.00     0.052 C 
BRANCH  49  50
ATOM     50  C   UNK d   0     -46.861  20.698  -4.588  0.00  0.00     0.115 C 
BRANCH  50  51
ATOM     51  C   UNK d   0     -47.653  19.484  -4.733  0.00  0.00     0.139 C 
ATOM     52  O   UNK d   0     -48.844  19.404  -4.352  0.00  0.00    -0.650 OA
BRANCH  51  53
ATOM     53  O   UNK d   0     -47.085  18.358  -5.309  0.00  0.00    -0.776 OA
ATOM     54  H   UNK d   0     -46.315  18.486  -5.943  0.00  0.00     0.167 HD
ENDBRANCH  51  53
ENDBRANCH  50  51
ENDBRANCH  49  50
ENDBRANCH  24  49
BRANCH  21  55
ATOM     55  C   UNK d   0     -46.196  19.081  -0.904  0.00  0.00     0.151 C 
BRANCH  55  56
ATOM     56  C   UNK d   0     -46.781  17.848  -1.455  0.00  0.00     0.143 C 
ATOM     57  O   UNK d   0     -46.394  17.337  -2.524  0.00  0.00    -0.650 OA
BRANCH  56  58
ATOM     58  O   UNK d   0     -47.809  17.240  -0.737  0.00  0.00    -0.776 OA
ATOM     59  H   UNK d   0     -48.025  16.268  -1.022  0.00  0.00     0.167 HD
ENDBRANCH  56  58
ENDBRANCH  55  56
ENDBRANCH  21  55
BRANCH  18  60
ATOM     60  C   UNK d   0     -41.641  18.210   1.798  0.00  0.00     0.151 C 
BRANCH  60  61
ATOM     61  C   UNK d   0     -41.577  16.814   2.257  0.00  0.00     0.143 C 
ATOM     62  O   UNK d   0     -41.117  16.404   3.324  0.00  0.00    -0.650 OA
BRANCH  61  63
ATOM     63  O   UNK d   0     -42.108  15.859   1.358  0.00  0.00    -0.776 OA
ATOM     64  H   UNK d   0     -42.878  15.271   1.622  0.00  0.00     0.167 HD
ENDBRANCH  61  63
ENDBRANCH  60  61
ENDBRANCH  18  60
BRANCH  14  65
ATOM     65  C   UNK d   0     -38.656  17.922   1.333  0.00  0.00     0.052 C 
BRANCH  65  66
ATOM     66  C   UNK d   0     -38.273  19.178   2.034  0.00  0.00     0.115 C 
BRANCH  66  67
ATOM     67  C   UNK d   0     -37.095  19.890   1.625  0.00  0.00     0.139 C 
ATOM     68  O   UNK d   0     -37.215  20.818   0.743  0.00  0.00    -0.650 OA
BRANCH  67  69
ATOM     69  O   UNK d   0     -35.787  19.703   2.070  0.00  0.00    -0.776 OA
ATOM     70  H   UNK d   0     -35.288  18.897   1.668  0.00  0.00     0.167 HD
ENDBRANCH  67  69
ENDBRANCH  66  67
ENDBRANCH  65  66
ENDBRANCH  14  65
ENDBRANCH   6   7
ENDBRANCH   5   6
ENDBRANCH   2   5
TORSDOF 28
ENDMDL
MODEL 18
REMARK VINA RESULT:      -6.5      1.711      8.102
REMARK  28 active torsions:
REMARK  status: ('A' for Active; 'I' for Inactive)
REMARK    1  A    between atoms: C_2  and  O_3 
REMARK    2  A    between atoms: C_2  and  C_4 
REMARK    3  A    between atoms: C_4  and  C_5 
REMARK    4  A    between atoms: C_5  and  C_6 
REMARK    5  A    between atoms: C_7  and  C_8 
REMARK    6  A    between atoms: C_8  and  C_9 
REMARK    7  A    between atoms: C_9  and  O_11 
REMARK    8  A    between atoms: C_28  and  C_29 
REMARK    9  A    between atoms: C_29  and  C_30 
REMARK   10  A    between atoms: C_30  and  O_32 
REMARK   11  A    between atoms: C_33  and  C_34 
REMARK   12  A    between atoms: C_34  and  C_35 
REMARK   13  A    between atoms: C_35  and  C_36 
REMARK   14  A    between atoms: C_36  and  O_38 
REMARK   15  A    between atoms: C_39  and  C_40 
REMARK   16  A    between atoms: C_40  and  C_41 
REMARK   17  A    between atoms: C_41  and  C_42 
REMARK   18  A    between atoms: C_42  and  O_44 
REMARK   19  A    between atoms: C_45  and  C_46 
REMARK   20  A    between atoms: C_46  and  C_47 
REMARK   21  A    between atoms: C_47  and  O_49 
REMARK   22  A    between atoms: C_50  and  C_51 
REMARK   23  A    between atoms: C_51  and  C_52 
REMARK   24  A    between atoms: C_52  and  O_54 
REMARK   25  A    between atoms: C_55  and  C_56 
REMARK   26  A    between atoms: C_56  and  C_57 
REMARK   27  A    between atoms: C_57  and  C_58 
REMARK   28  A    between atoms: C_58  and  O_60 
ROOT
ATOM      1  O   UNK d   0     -47.564  19.818  -3.384  0.00  0.00    -0.650 OA
ATOM      2  C   UNK d   0     -46.788  19.286  -2.560  0.00  0.00     0.139 C 
ENDROOT
BRANCH   2   3
ATOM      3  O   UNK d   0     -46.258  18.048  -2.837  0.00  0.00    -0.776 OA
ATOM      4  H   UNK d   0     -46.404  17.258  -2.205  0.00  0.00     0.167 HD
ENDBRANCH   2   3
BRANCH   2   5
ATOM      5  C   UNK d   0     -46.444  19.990  -1.292  0.00  0.00     0.115 C 
BRANCH   5   6
ATOM      6  C   UNK d   0     -45.613  21.209  -1.586  0.00  0.00     0.052 C 
BRANCH   6   7
ATOM      7  C   UNK d   0     -44.277  20.868  -2.201  0.00  0.00    -0.020 A 
ATOM      8  C   UNK d   0     -43.907  21.028  -3.446  0.00  0.00    -0.011 A 
ATOM      9  C   UNK d   0     -42.540  20.549  -3.568  0.00  0.00     0.067 A 
ATOM     10  C   UNK d   0     -41.586  20.462  -4.594  0.00  0.00     0.062 C 
ATOM     11  N   UNK d   0     -42.158  20.111  -2.350  0.00  0.00    -0.248 NA
ATOM     12  C   UNK d   0     -40.214  20.225  -4.457  0.00  0.00     0.041 A 
ATOM     13  N   UNK d   0     -39.537  19.359  -3.679  0.00  0.00    -0.355 N 
ATOM     14  C   UNK d   0     -39.310  21.022  -5.182  0.00  0.00    -0.022 A 
ATOM     15  C   UNK d   0     -38.227  19.592  -3.886  0.00  0.00     0.042 A 
ATOM     16  H   UNK d   0     -39.977  18.586  -3.011  0.00  0.00     0.166 HD
ATOM     17  C   UNK d   0     -37.090  18.972  -3.330  0.00  0.00     0.062 C 
ATOM     18  C   UNK d   0     -38.045  20.628  -4.822  0.00  0.00    -0.013 A 
ATOM     19  C   UNK d   0     -36.843  18.637  -2.023  0.00  0.00     0.067 A 
ATOM     20  N   UNK d   0     -37.870  18.717  -1.173  0.00  0.00    -0.248 NA
ATOM     21  C   UNK d   0     -35.687  18.204  -1.256  0.00  0.00    -0.011 A 
ATOM     22  C   UNK d   0     -37.469  18.369   0.093  0.00  0.00     0.066 A 
ATOM     23  C   UNK d   0     -38.451  18.372   1.073  0.00  0.00     0.062 C 
ATOM     24  C   UNK d   0     -36.059  18.053  -0.018  0.00  0.00    -0.020 A 
ATOM     25  C   UNK d   0     -39.827  18.600   0.912  0.00  0.00     0.041 A 
ATOM     26  N   UNK d   0     -40.499  19.471   0.150  0.00  0.00    -0.355 N 
ATOM     27  C   UNK d   0     -40.733  17.797   1.638  0.00  0.00    -0.022 A 
ATOM     28  C   UNK d   0     -41.806  19.247   0.361  0.00  0.00     0.042 A 
ATOM     29  H   UNK d   0     -40.056  20.255  -0.512  0.00  0.00     0.166 HD
ATOM     30  C   UNK d   0     -42.946  19.862  -0.178  0.00  0.00     0.062 C 
ATOM     31  C   UNK d   0     -41.988  18.199   1.294  0.00  0.00    -0.013 A 
ATOM     32  C   UNK d   0     -43.158  20.276  -1.483  0.00  0.00     0.066 A 
BRANCH   8  33
ATOM     33  C   UNK d   0     -44.716  21.585  -4.545  0.00  0.00     0.151 C 
BRANCH  33  34
ATOM     34  C   UNK d   0     -44.328  22.962  -4.899  0.00  0.00     0.143 C 
ATOM     35  O   UNK d   0     -44.073  23.270  -6.071  0.00  0.00    -0.650 OA
BRANCH  34  36
ATOM     36  O   UNK d   0     -44.247  23.916  -3.910  0.00  0.00    -0.776 OA
ATOM     37  H   UNK d   0     -44.869  24.736  -3.907  0.00  0.00     0.167 HD
ENDBRANCH  34  36
ENDBRANCH  33  34
ENDBRANCH   8  33
BRANCH  31  38
ATOM     38  C   UNK d   0     -43.283  17.615   1.809  0.00  0.00     0.151 C 
BRANCH  38  39
ATOM     39  C   UNK d   0     -43.624  18.089   3.134  0.00  0.00     0.143 C 
ATOM     40  O   UNK d   0     -43.561  19.291   3.448  0.00  0.00    -0.650 OA
BRANCH  39  41
ATOM     41  O   UNK d   0     -44.041  17.176   4.103  0.00  0.00    -0.776 OA
ATOM     42  H   UNK d   0     -45.037  17.181   4.343  0.00  0.00     0.167 HD
ENDBRANCH  39  41
ENDBRANCH  38  39
ENDBRANCH  31  38
BRANCH  27  43
ATOM     43  C   UNK d   0     -40.456  16.689   2.623  0.00  0.00     0.052 C 
BRANCH  43  44
ATOM     44  C   UNK d   0     -39.637  17.129   3.792  0.00  0.00     0.115 C 
BRANCH  44  45
ATOM     45  C   UNK d   0     -40.553  17.872   4.697  0.00  0.00     0.139 C 
ATOM     46  O   UNK d   0     -41.262  17.209   5.494  0.00  0.00    -0.650 OA
BRANCH  45  47
ATOM     47  O   UNK d   0     -40.649  19.246   4.699  0.00  0.00    -0.776 OA
ATOM     48  H   UNK d   0     -40.019  19.851   5.249  0.00  0.00     0.167 HD
ENDBRANCH  45  47
ENDBRANCH  44  45
ENDBRANCH  43  44
ENDBRANCH  27  43
BRANCH  24  49
ATOM     49  C   UNK d   0     -35.211  17.587   1.093  0.00  0.00     0.052 C 
BRANCH  49  50
ATOM     50  C   UNK d   0     -34.281  18.686   1.539  0.00  0.00     0.115 C 
BRANCH  50  51
ATOM     51  C   UNK d   0     -34.841  20.026   1.654  0.00  0.00     0.139 C 
ATOM     52  O   UNK d   0     -35.714  20.323   2.503  0.00  0.00    -0.650 OA
BRANCH  51  53
ATOM     53  O   UNK d   0     -34.407  21.027   0.799  0.00  0.00    -0.776 OA
ATOM     54  H   UNK d   0     -33.545  21.496   1.015  0.00  0.00     0.167 HD
ENDBRANCH  51  53
ENDBRANCH  50  51
ENDBRANCH  49  50
ENDBRANCH  24  49
BRANCH  21  55
ATOM     55  C   UNK d   0     -34.332  17.982  -1.842  0.00  0.00     0.151 C 
BRANCH  55  56
ATOM     56  C   UNK d   0     -33.788  19.205  -2.453  0.00  0.00     0.143 C 
ATOM     57  O   UNK d   0     -33.549  20.238  -1.798  0.00  0.00    -0.650 OA
BRANCH  56  58
ATOM     58  O   UNK d   0     -33.536  19.189  -3.824  0.00  0.00    -0.776 OA
ATOM     59  H   UNK d   0     -32.884  19.922  -4.156  0.00  0.00     0.167 HD
ENDBRANCH  56  58
ENDBRANCH  55  56
ENDBRANCH  21  55
BRANCH  18  60
ATOM     60  C   UNK d   0     -36.768  21.227  -5.356  0.00  0.00     0.151 C 
BRANCH  60  61
ATOM     61  C   UNK d   0     -36.324  22.199  -4.345  0.00  0.00     0.143 C 
ATOM     62  O   UNK d   0     -36.938  23.189  -3.947  0.00  0.00    -0.650 OA
BRANCH  61  63
ATOM     63  O   UNK d   0     -35.050  21.945  -3.783  0.00  0.00    -0.776 OA
ATOM     64  H   UNK d   0     -34.869  21.101  -3.268  0.00  0.00     0.167 HD
ENDBRANCH  61  63
ENDBRANCH  60  61
ENDBRANCH  18  60
BRANCH  14  65
ATOM     65  C   UNK d   0     -39.548  22.050  -6.252  0.00  0.00     0.052 C 
BRANCH  65  66
ATOM     66  C   UNK d   0     -39.492  21.483  -7.626  0.00  0.00     0.115 C 
BRANCH  66  67
ATOM     67  C   UNK d   0     -40.360  20.395  -7.983  0.00  0.00     0.139 C 
ATOM     68  O   UNK d   0     -39.842  19.233  -8.168  0.00  0.00    -0.650 OA
BRANCH  67  69
ATOM     69  O   UNK d   0     -41.742  20.430  -8.163  0.00  0.00    -0.776 OA
ATOM     70  H   UNK d   0     -42.071  20.909  -9.014  0.00  0.00     0.167 HD
ENDBRANCH  67  69
ENDBRANCH  66  67
ENDBRANCH  65  66
ENDBRANCH  14  65
ENDBRANCH   6   7
ENDBRANCH   5   6
ENDBRANCH   2   5
TORSDOF 28
ENDMDL
MODEL 19
REMARK VINA RESULT:      -6.5      1.786      7.633
REMARK  28 active torsions:
REMARK  status: ('A' for Active; 'I' for Inactive)
REMARK    1  A    between atoms: C_2  and  O_3 
REMARK    2  A    between atoms: C_2  and  C_4 
REMARK    3  A    between atoms: C_4  and  C_5 
REMARK    4  A    between atoms: C_5  and  C_6 
REMARK    5  A    between atoms: C_7  and  C_8 
REMARK    6  A    between atoms: C_8  and  C_9 
REMARK    7  A    between atoms: C_9  and  O_11 
REMARK    8  A    between atoms: C_28  and  C_29 
REMARK    9  A    between atoms: C_29  and  C_30 
REMARK   10  A    between atoms: C_30  and  O_32 
REMARK   11  A    between atoms: C_33  and  C_34 
REMARK   12  A    between atoms: C_34  and  C_35 
REMARK   13  A    between atoms: C_35  and  C_36 
REMARK   14  A    between atoms: C_36  and  O_38 
REMARK   15  A    between atoms: C_39  and  C_40 
REMARK   16  A    between atoms: C_40  and  C_41 
REMARK   17  A    between atoms: C_41  and  C_42 
REMARK   18  A    between atoms: C_42  and  O_44 
REMARK   19  A    between atoms: C_45  and  C_46 
REMARK   20  A    between atoms: C_46  and  C_47 
REMARK   21  A    between atoms: C_47  and  O_49 
REMARK   22  A    between atoms: C_50  and  C_51 
REMARK   23  A    between atoms: C_51  and  C_52 
REMARK   24  A    between atoms: C_52  and  O_54 
REMARK   25  A    between atoms: C_55  and  C_56 
REMARK   26  A    between atoms: C_56  and  C_57 
REMARK   27  A    between atoms: C_57  and  C_58 
REMARK   28  A    between atoms: C_58  and  O_60 
ROOT
ATOM      1  O   UNK d   0     -33.577  19.691  -3.021  0.00  0.00    -0.650 OA
ATOM      2  C   UNK d   0     -34.086  18.617  -2.633  0.00  0.00     0.139 C 
ENDROOT
BRANCH   2   3
ATOM      3  O   UNK d   0     -34.752  17.822  -3.535  0.00  0.00    -0.776 OA
ATOM      4  H   UNK d   0     -35.372  18.229  -4.238  0.00  0.00     0.167 HD
ENDBRANCH   2   3
BRANCH   2   5
ATOM      5  C   UNK d   0     -33.971  18.207  -1.204  0.00  0.00     0.115 C 
BRANCH   5   6
ATOM      6  C   UNK d   0     -34.542  19.275  -0.312  0.00  0.00     0.052 C 
BRANCH   6   7
ATOM      7  C   UNK d   0     -35.954  18.970   0.129  0.00  0.00    -0.020 A 
ATOM      8  C   UNK d   0     -36.335  18.360   1.222  0.00  0.00    -0.011 A 
ATOM      9  C   UNK d   0     -37.786  18.289   1.209  0.00  0.00     0.067 A 
ATOM     10  C   UNK d   0     -38.783  17.796   2.065  0.00  0.00     0.062 C 
ATOM     11  N   UNK d   0     -38.206  18.876   0.069  0.00  0.00    -0.248 NA
ATOM     12  C   UNK d   0     -40.155  18.068   2.013  0.00  0.00     0.041 A 
ATOM     13  N   UNK d   0     -41.006  18.138   0.972  0.00  0.00    -0.355 N 
ATOM     14  C   UNK d   0     -40.831  18.387   3.205  0.00  0.00    -0.022 A 
ATOM     15  C   UNK d   0     -42.202  18.501   1.471  0.00  0.00     0.042 A 
ATOM     16  H   UNK d   0     -40.770  17.917  -0.092  0.00  0.00     0.166 HD
ATOM     17  C   UNK d   0     -43.435  18.717   0.823  0.00  0.00     0.062 C 
ATOM     18  C   UNK d   0     -42.132  18.667   2.868  0.00  0.00    -0.013 A 
ATOM     19  C   UNK d   0     -43.691  19.402  -0.337  0.00  0.00     0.067 A 
ATOM     20  N   UNK d   0     -42.637  19.755  -1.076  0.00  0.00    -0.248 NA
ATOM     21  C   UNK d   0     -44.876  19.894  -1.020  0.00  0.00    -0.011 A 
ATOM     22  C   UNK d   0     -43.046  20.443  -2.192  0.00  0.00     0.066 A 
ATOM     23  C   UNK d   0     -42.049  20.839  -3.072  0.00  0.00     0.062 C 
ATOM     24  C   UNK d   0     -44.491  20.505  -2.103  0.00  0.00    -0.020 A 
ATOM     25  C   UNK d   0     -40.678  20.544  -3.009  0.00  0.00     0.041 A 
ATOM     26  N   UNK d   0     -39.829  20.489  -1.976  0.00  0.00    -0.355 N 
ATOM     27  C   UNK d   0     -40.002  20.219  -4.205  0.00  0.00    -0.022 A 
ATOM     28  C   UNK d   0     -38.633  20.135  -2.472  0.00  0.00     0.042 A 
ATOM     29  H   UNK d   0     -40.065  20.722  -0.908  0.00  0.00     0.166 HD
ATOM     30  C   UNK d   0     -37.397  19.926  -1.841  0.00  0.00     0.062 C 
ATOM     31  C   UNK d   0     -38.707  19.959  -3.874  0.00  0.00    -0.013 A 
ATOM     32  C   UNK d   0     -37.152  19.308  -0.625  0.00  0.00     0.066 A 
BRANCH   8  33
ATOM     33  C   UNK d   0     -35.465  17.825   2.286  0.00  0.00     0.151 C 
BRANCH  33  34
ATOM     34  C   UNK d   0     -35.361  16.355   2.254  0.00  0.00     0.143 C 
ATOM     35  O   UNK d   0     -34.928  15.770   1.251  0.00  0.00    -0.650 OA
BRANCH  34  36
ATOM     36  O   UNK d   0     -35.752  15.626   3.353  0.00  0.00    -0.776 OA
ATOM     37  H   UNK d   0     -36.716  15.279   3.448  0.00  0.00     0.167 HD
ENDBRANCH  34  36
ENDBRANCH  33  34
ENDBRANCH   8  33
BRANCH  31  38
ATOM     38  C   UNK d   0     -37.608  19.554  -4.828  0.00  0.00     0.151 C 
BRANCH  38  39
ATOM     39  C   UNK d   0     -36.647  20.611  -5.060  0.00  0.00     0.143 C 
ATOM     40  O   UNK d   0     -36.975  21.810  -5.102  0.00  0.00    -0.650 OA
BRANCH  39  41
ATOM     41  O   UNK d   0     -35.303  20.289  -5.244  0.00  0.00    -0.776 OA
ATOM     42  H   UNK d   0     -34.777  20.011  -4.409  0.00  0.00     0.167 HD
ENDBRANCH  39  41
ENDBRANCH  38  39
ENDBRANCH  31  38
BRANCH  27  43
ATOM     43  C   UNK d   0     -40.529  20.152  -5.616  0.00  0.00     0.052 C 
BRANCH  43  44
ATOM     44  C   UNK d   0     -40.664  21.493  -6.261  0.00  0.00     0.115 C 
BRANCH  44  45
ATOM     45  C   UNK d   0     -39.618  21.566  -7.314  0.00  0.00     0.139 C 
ATOM     46  O   UNK d   0     -39.594  20.663  -8.187  0.00  0.00    -0.650 OA
BRANCH  45  47
ATOM     47  O   UNK d   0     -38.686  22.579  -7.373  0.00  0.00    -0.776 OA
ATOM     48  H   UNK d   0     -37.685  22.431  -7.168  0.00  0.00     0.167 HD
ENDBRANCH  45  47
ENDBRANCH  44  45
ENDBRANCH  43  44
ENDBRANCH  27  43
BRANCH  24  49
ATOM     49  C   UNK d   0     -45.370  21.122  -3.111  0.00  0.00     0.052 C 
BRANCH  49  50
ATOM     50  C   UNK d   0     -44.562  21.597  -4.291  0.00  0.00     0.115 C 
BRANCH  50  51
ATOM     51  C   UNK d   0     -45.063  21.263  -5.618  0.00  0.00     0.139 C 
ATOM     52  O   UNK d   0     -46.265  20.979  -5.835  0.00  0.00    -0.650 OA
BRANCH  51  53
ATOM     53  O   UNK d   0     -44.193  21.251  -6.697  0.00  0.00    -0.776 OA
ATOM     54  H   UNK d   0     -43.213  21.382  -6.519  0.00  0.00     0.167 HD
ENDBRANCH  51  53
ENDBRANCH  50  51
ENDBRANCH  49  50
ENDBRANCH  24  49
BRANCH  21  55
ATOM     55  C   UNK d   0     -46.269  19.697  -0.521  0.00  0.00     0.151 C 
BRANCH  55  56
ATOM     56  C   UNK d   0     -46.750  18.326  -0.754  0.00  0.00     0.143 C 
ATOM     57  O   UNK d   0     -46.274  17.584  -1.635  0.00  0.00    -0.650 OA
BRANCH  56  58
ATOM     58  O   UNK d   0     -47.782  17.854   0.056  0.00  0.00    -0.776 OA
ATOM     59  H   UNK d   0     -47.539  17.755   1.058  0.00  0.00     0.167 HD
ENDBRANCH  56  58
ENDBRANCH  55  56
ENDBRANCH  21  55
BRANCH  18  60
ATOM     60  C   UNK d   0     -43.211  19.067   3.844  0.00  0.00     0.151 C 
BRANCH  60  61
ATOM     61  C   UNK d   0     -43.798  17.811   4.334  0.00  0.00     0.143 C 
ATOM     62  O   UNK d   0     -44.516  17.032   3.705  0.00  0.00    -0.650 OA
BRANCH  61  63
ATOM     63  O   UNK d   0     -43.488  17.484   5.676  0.00  0.00    -0.776 OA
ATOM     64  H   UNK d   0     -42.736  17.941   6.161  0.00  0.00     0.167 HD
ENDBRANCH  61  63
ENDBRANCH  60  61
ENDBRANCH  18  60
BRANCH  14  65
ATOM     65  C   UNK d   0     -40.369  18.352   4.634  0.00  0.00     0.052 C 
BRANCH  65  66
ATOM     66  C   UNK d   0     -40.346  19.696   5.271  0.00  0.00     0.115 C 
BRANCH  66  67
ATOM     67  C   UNK d   0     -39.346  20.650   4.884  0.00  0.00     0.139 C 
ATOM     68  O   UNK d   0     -38.281  20.222   4.305  0.00  0.00    -0.650 OA
BRANCH  67  69
ATOM     69  O   UNK d   0     -39.373  22.034   5.057  0.00  0.00    -0.776 OA
ATOM     70  H   UNK d   0     -39.703  22.363   5.976  0.00  0.00     0.167 HD
ENDBRANCH  67  69
ENDBRANCH  66  67
ENDBRANCH  65  66
ENDBRANCH  14  65
ENDBRANCH   6   7
ENDBRANCH   5   6
ENDBRANCH   2   5
TORSDOF 28
ENDMDL
MODEL 20
REMARK VINA RESULT:      -6.4      1.935     10.811
REMARK  28 active torsions:
REMARK  status: ('A' for Active; 'I' for Inactive)
REMARK    1  A    between atoms: C_2  and  O_3 
REMARK    2  A    between atoms: C_2  and  C_4 
REMARK    3  A    between atoms: C_4  and  C_5 
REMARK    4  A    between atoms: C_5  and  C_6 
REMARK    5  A    between atoms: C_7  and  C_8 
REMARK    6  A    between atoms: C_8  and  C_9 
REMARK    7  A    between atoms: C_9  and  O_11 
REMARK    8  A    between atoms: C_28  and  C_29 
REMARK    9  A    between atoms: C_29  and  C_30 
REMARK   10  A    between atoms: C_30  and  O_32 
REMARK   11  A    between atoms: C_33  and  C_34 
REMARK   12  A    between atoms: C_34  and  C_35 
REMARK   13  A    between atoms: C_35  and  C_36 
REMARK   14  A    between atoms: C_36  and  O_38 
REMARK   15  A    between atoms: C_39  and  C_40 
REMARK   16  A    between atoms: C_40  and  C_41 
REMARK   17  A    between atoms: C_41  and  C_42 
REMARK   18  A    between atoms: C_42  and  O_44 
REMARK   19  A    between atoms: C_45  and  C_46 
REMARK   20  A    between atoms: C_46  and  C_47 
REMARK   21  A    between atoms: C_47  and  O_49 
REMARK   22  A    between atoms: C_50  and  C_51 
REMARK   23  A    between atoms: C_51  and  C_52 
REMARK   24  A    between atoms: C_52  and  O_54 
REMARK   25  A    between atoms: C_55  and  C_56 
REMARK   26  A    between atoms: C_56  and  C_57 
REMARK   27  A    between atoms: C_57  and  C_58 
REMARK   28  A    between atoms: C_58  and  O_60 
ROOT
ATOM      1  O   UNK d   0     -33.989  19.739  -2.531  0.00  0.00    -0.650 OA
ATOM      2  C   UNK d   0     -34.711  19.257  -3.433  0.00  0.00     0.139 C 
ENDROOT
BRANCH   2   3
ATOM      3  O   UNK d   0     -34.768  17.894  -3.593  0.00  0.00    -0.776 OA
ATOM      4  H   UNK d   0     -34.344  17.264  -2.908  0.00  0.00     0.167 HD
ENDBRANCH   2   3
BRANCH   2   5
ATOM      5  C   UNK d   0     -35.498  20.158  -4.322  0.00  0.00     0.115 C 
BRANCH   5   6
ATOM      6  C   UNK d   0     -36.722  19.444  -4.828  0.00  0.00     0.052 C 
BRANCH   6   7
ATOM      7  C   UNK d   0     -37.974  19.834  -4.079  0.00  0.00    -0.020 A 
ATOM      8  C   UNK d   0     -38.953  20.592  -4.501  0.00  0.00    -0.011 A 
ATOM      9  C   UNK d   0     -39.932  20.691  -3.432  0.00  0.00     0.067 A 
ATOM     10  C   UNK d   0     -41.178  21.313  -3.253  0.00  0.00     0.062 C 
ATOM     11  N   UNK d   0     -39.465  19.967  -2.393  0.00  0.00    -0.248 NA
ATOM     12  C   UNK d   0     -42.111  21.066  -2.241  0.00  0.00     0.041 A 
ATOM     13  N   UNK d   0     -41.954  20.877  -0.917  0.00  0.00    -0.355 N 
ATOM     14  C   UNK d   0     -43.467  20.921  -2.587  0.00  0.00    -0.022 A 
ATOM     15  C   UNK d   0     -43.174  20.608  -0.415  0.00  0.00     0.042 A 
ATOM     16  H   UNK d   0     -41.003  20.951  -0.346  0.00  0.00     0.166 HD
ATOM     17  C   UNK d   0     -43.578  20.335   0.907  0.00  0.00     0.062 C 
ATOM     18  C   UNK d   0     -44.149  20.627  -1.432  0.00  0.00    -0.013 A 
ATOM     19  C   UNK d   0     -42.995  19.508   1.833  0.00  0.00     0.067 A 
ATOM     20  N   UNK d   0     -41.779  19.038   1.544  0.00  0.00    -0.248 NA
ATOM     21  C   UNK d   0     -43.371  18.955   3.124  0.00  0.00    -0.011 A 
ATOM     22  C   UNK d   0     -41.333  18.217   2.551  0.00  0.00     0.066 A 
ATOM     23  C   UNK d   0     -40.060  17.688   2.397  0.00  0.00     0.062 C 
ATOM     24  C   UNK d   0     -42.396  18.198   3.536  0.00  0.00    -0.020 A 
ATOM     25  C   UNK d   0     -39.133  17.960   1.379  0.00  0.00     0.041 A 
ATOM     26  N   UNK d   0     -39.287  18.133   0.061  0.00  0.00    -0.355 N 
ATOM     27  C   UNK d   0     -37.773  18.109   1.727  0.00  0.00    -0.022 A 
ATOM     28  C   UNK d   0     -38.070  18.392  -0.444  0.00  0.00     0.042 A 
ATOM     29  H   UNK d   0     -40.242  18.047  -0.514  0.00  0.00     0.166 HD
ATOM     30  C   UNK d   0     -37.653  18.657  -1.758  0.00  0.00     0.062 C 
ATOM     31  C   UNK d   0     -37.094  18.383   0.580  0.00  0.00    -0.013 A 
ATOM     32  C   UNK d   0     -38.291  19.425  -2.719  0.00  0.00     0.066 A 
BRANCH   8  33
ATOM     33  C   UNK d   0     -39.063  21.243  -5.820  0.00  0.00     0.151 C 
BRANCH  33  34
ATOM     34  C   UNK d   0     -40.026  20.571  -6.710  0.00  0.00     0.143 C 
ATOM     35  O   UNK d   0     -41.174  21.013  -6.856  0.00  0.00    -0.650 OA
BRANCH  34  36
ATOM     36  O   UNK d   0     -39.641  19.437  -7.387  0.00  0.00    -0.776 OA
ATOM     37  H   UNK d   0     -38.895  18.826  -7.026  0.00  0.00     0.167 HD
ENDBRANCH  34  36
ENDBRANCH  33  34
ENDBRANCH   8  33
BRANCH  31  38
ATOM     38  C   UNK d   0     -35.609  18.636   0.462  0.00  0.00     0.151 C 
BRANCH  38  39
ATOM     39  C   UNK d   0     -34.858  17.437   0.155  0.00  0.00     0.143 C 
ATOM     40  O   UNK d   0     -33.830  17.118   0.777  0.00  0.00    -0.650 OA
BRANCH  39  41
ATOM     41  O   UNK d   0     -35.292  16.600  -0.873  0.00  0.00    -0.776 OA
ATOM     42  H   UNK d   0     -34.773  16.645  -1.755  0.00  0.00     0.167 HD
ENDBRANCH  39  41
ENDBRANCH  38  39
ENDBRANCH  31  38
BRANCH  27  43
ATOM     43  C   UNK d   0     -37.112  18.000   3.078  0.00  0.00     0.052 C 
BRANCH  43  44
ATOM     44  C   UNK d   0     -37.098  16.607   3.619  0.00  0.00     0.115 C 
BRANCH  44  45
ATOM     45  C   UNK d   0     -35.671  16.199   3.705  0.00  0.00     0.139 C 
ATOM     46  O   UNK d   0     -34.985  16.644   4.658  0.00  0.00    -0.650 OA
BRANCH  45  47
ATOM     47  O   UNK d   0     -35.079  15.356   2.790  0.00  0.00    -0.776 OA
ATOM     48  H   UNK d   0     -35.620  14.796   2.112  0.00  0.00     0.167 HD
ENDBRANCH  45  47
ENDBRANCH  44  45
ENDBRANCH  43  44
ENDBRANCH  27  43
BRANCH  24  49
ATOM     49  C   UNK d   0     -42.342  17.472   4.817  0.00  0.00     0.052 C 
BRANCH  49  50
ATOM     50  C   UNK d   0     -42.074  18.428   5.951  0.00  0.00     0.115 C 
BRANCH  50  51
ATOM     51  C   UNK d   0     -40.845  19.207   5.886  0.00  0.00     0.139 C 
ATOM     52  O   UNK d   0     -39.708  18.684   5.958  0.00  0.00    -0.650 OA
BRANCH  51  53
ATOM     53  O   UNK d   0     -40.912  20.585   5.743  0.00  0.00    -0.776 OA
ATOM     54  H   UNK d   0     -41.145  20.958   4.839  0.00  0.00     0.167 HD
ENDBRANCH  51  53
ENDBRANCH  50  51
ENDBRANCH  49  50
ENDBRANCH  24  49
BRANCH  21  55
ATOM     55  C   UNK d   0     -44.664  19.246   3.812  0.00  0.00     0.151 C 
BRANCH  55  56
ATOM     56  C   UNK d   0     -45.737  18.339   3.375  0.00  0.00     0.143 C 
ATOM     57  O   UNK d   0     -46.029  17.294   3.989  0.00  0.00    -0.650 OA
BRANCH  56  58
ATOM     58  O   UNK d   0     -46.446  18.680   2.224  0.00  0.00    -0.776 OA
ATOM     59  H   UNK d   0     -46.120  19.542   1.750  0.00  0.00     0.167 HD
ENDBRANCH  56  58
ENDBRANCH  55  56
ENDBRANCH  21  55
BRANCH  18  60
ATOM     60  C   UNK d   0     -45.635  20.382  -1.343  0.00  0.00     0.151 C 
BRANCH  60  61
ATOM     61  C   UNK d   0     -45.818  18.935  -1.530  0.00  0.00     0.143 C 
ATOM     62  O   UNK d   0     -45.685  18.054  -0.680  0.00  0.00    -0.650 OA
BRANCH  61  63
ATOM     63  O   UNK d   0     -46.187  18.538  -2.838  0.00  0.00    -0.776 OA
ATOM     64  H   UNK d   0     -45.587  18.719  -3.623  0.00  0.00     0.167 HD
ENDBRANCH  61  63
ENDBRANCH  60  61
ENDBRANCH  18  60
BRANCH  14  65
ATOM     65  C   UNK d   0     -44.174  21.135  -3.895  0.00  0.00     0.052 C 
BRANCH  65  66
ATOM     66  C   UNK d   0     -44.298  22.572  -4.261  0.00  0.00     0.115 C 
BRANCH  66  67
ATOM     67  C   UNK d   0     -44.631  23.538  -3.252  0.00  0.00     0.139 C 
ATOM     68  O   UNK d   0     -45.855  23.628  -2.869  0.00  0.00    -0.650 OA
BRANCH  67  69
ATOM     69  O   UNK d   0     -43.772  24.426  -2.605  0.00  0.00    -0.776 OA
ATOM     70  H   UNK d   0     -44.059  25.416  -2.619  0.00  0.00     0.167 HD
ENDBRANCH  67  69
ENDBRANCH  66  67
ENDBRANCH  65  66
ENDBRANCH  14  65
ENDBRANCH   6   7
ENDBRANCH   5   6
ENDBRANCH   2   5
TORSDOF 28
ENDMDL
