MODEL 1
REMARK VINA RESULT:      -7.4      0.000      0.000
REMARK  16 active torsions:
REMARK  status: ('A' for Active; 'I' for Inactive)
REMARK    1  A    between atoms: C_6  and  C_7 
REMARK    2  A    between atoms: C_7  and  C_8 
REMARK    3  A    between atoms: C_8  and  C_9 
REMARK    4  A    between atoms: C_9  and  O_11 
REMARK    5  A    between atoms: C_16  and  C_17 
REMARK    6  A    between atoms: C_17  and  C_18 
REMARK    7  A    between atoms: C_18  and  C_19 
REMARK    8  A    between atoms: C_19  and  O_21 
REMARK    9  A    between atoms: C_28  and  C_29 
REMARK   10  A    between atoms: C_29  and  C_30 
REMARK   11  A    between atoms: C_30  and  C_31 
REMARK   12  A    between atoms: C_31  and  O_33 
REMARK   13  A    between atoms: C_42  and  C_43 
REMARK   14  A    between atoms: C_43  and  C_44 
REMARK   15  A    between atoms: C_44  and  C_45 
REMARK   16  A    between atoms: C_45  and  O_47 
ROOT
HETATM    1  C   UNK     0     -14.885 -23.299  64.693  0.00  0.00     0.051 C 
HETATM    2  C   UNK     0     -15.611 -23.325  63.363  0.00  0.00    -0.031 A 
HETATM    3  C   UNK     0     -16.904 -22.931  63.059  0.00  0.00     0.021 A 
HETATM    4  N   UNK     0     -17.139 -23.163  61.745  0.00  0.00    -0.361 N 
HETATM    5  C   UNK     0     -16.020 -23.688  61.204  0.00  0.00     0.022 A 
HETATM    6  C   UNK     0     -15.045 -23.806  62.189  0.00  0.00    -0.027 A 
HETATM    7  C   UNK     0     -15.724 -24.033  59.778  0.00  0.00     0.115 C 
HETATM    8  C   UNK     0     -16.181 -23.038  58.727  0.00  0.00     0.021 A 
HETATM    9  N   UNK     0     -16.215 -21.698  58.802  0.00  0.00    -0.361 N 
HETATM   10  C   UNK     0     -16.781 -21.229  57.670  0.00  0.00     0.022 A 
HETATM   11  C   UNK     0     -17.112 -22.294  56.838  0.00  0.00    -0.027 A 
HETATM   12  C   UNK     0     -16.737 -23.437  57.498  0.00  0.00    -0.031 A 
HETATM   13  C   UNK     0     -16.899 -24.845  56.970  0.00  0.00     0.051 C 
HETATM   14  C   UNK     0     -17.079 -19.766  57.351  0.00  0.00     0.115 C 
HETATM   15  C   UNK     0     -18.041 -19.107  58.326  0.00  0.00     0.021 A 
HETATM   16  N   UNK     0     -17.896 -18.971  59.658  0.00  0.00    -0.361 N 
HETATM   17  C   UNK     0     -18.992 -18.399  60.162  0.00  0.00     0.022 A 
HETATM   18  C   UNK     0     -19.890 -18.142  59.108  0.00  0.00    -0.027 A 
HETATM   19  C   UNK     0     -19.283 -18.589  57.963  0.00  0.00    -0.031 A 
HETATM   20  C   UNK     0     -19.897 -18.470  56.580  0.00  0.00     0.051 C 
HETATM   21  C   UNK     0     -19.356 -18.095  61.598  0.00  0.00     0.115 C 
HETATM   22  C   UNK     0     -18.870 -19.054  62.659  0.00  0.00     0.022 A 
HETATM   23  N   UNK     0     -18.821 -20.392  62.609  0.00  0.00    -0.361 N 
HETATM   24  C   UNK     0     -18.184 -20.833  63.712  0.00  0.00     0.021 A 
HETATM   25  C   UNK     0     -17.823 -19.754  64.496  0.00  0.00    -0.031 A 
HETATM   26  C   UNK     0     -17.127 -19.744  65.842  0.00  0.00     0.051 C 
HETATM   27  C   UNK     0     -18.251 -18.605  63.843  0.00  0.00    -0.027 A 
HETATM   28  C   UNK     0     -17.806 -22.263  64.058  0.00  0.00     0.115 C 
HETATM   29  H   UNK     0     -18.106 -22.991  61.219  0.00  0.00     0.165 HD
HETATM   30  H   UNK     0     -15.795 -21.078  59.632  0.00  0.00     0.165 HD
HETATM   31  H   UNK     0     -16.982 -19.240  60.248  0.00  0.00     0.165 HD
HETATM   32  H   UNK     0     -19.275 -21.040  61.815  0.00  0.00     0.165 HD
ENDROOT
BRANCH   6  33
HETATM   33  C   UNK     0     -13.636 -24.336  62.101  0.00  0.00     0.051 C 
BRANCH  33  34
HETATM   34  C   UNK     0     -12.664 -23.222  61.791  0.00  0.00     0.114 C 
BRANCH  34  35
HETATM   35  C   UNK     0     -11.697 -23.742  60.782  0.00  0.00     0.139 C 
HETATM   36  O   UNK     0     -10.465 -23.469  60.881  0.00  0.00    -0.650 OA
BRANCH  35  37
HETATM   37  O   UNK     0     -12.086 -24.535  59.710  0.00  0.00    -0.776 OA
HETATM   38  H   UNK     0     -12.376 -24.140  58.830  0.00  0.00     0.167 HD
ENDBRANCH  35  37
ENDBRANCH  34  35
ENDBRANCH  33  34
ENDBRANCH   6  33
BRANCH  27  39
HETATM   39  C   UNK     0     -18.103 -17.241  64.420  0.00  0.00     0.051 C 
BRANCH  39  40
HETATM   40  C   UNK     0     -19.309 -16.531  64.844  0.00  0.00     0.114 C 
BRANCH  40  41
HETATM   41  C   UNK     0     -19.784 -15.346  64.166  0.00  0.00     0.139 C 
HETATM   42  O   UNK     0     -20.867 -15.289  63.568  0.00  0.00    -0.650 OA
BRANCH  41  43
HETATM   43  O   UNK     0     -18.977 -14.173  64.177  0.00  0.00    -0.776 OA
HETATM   44  H   UNK     0     -18.687 -13.856  63.260  0.00  0.00     0.167 HD
ENDBRANCH  41  43
ENDBRANCH  40  41
ENDBRANCH  39  40
ENDBRANCH  27  39
BRANCH  11  45
HETATM   45  C   UNK     0     -17.751 -22.263  55.476  0.00  0.00     0.051 C 
BRANCH  45  46
HETATM   46  C   UNK     0     -19.236 -22.220  55.504  0.00  0.00     0.114 C 
BRANCH  46  47
HETATM   47  C   UNK     0     -19.723 -23.092  54.398  0.00  0.00     0.139 C 
HETATM   48  O   UNK     0     -20.471 -24.040  54.676  0.00  0.00    -0.650 OA
BRANCH  47  49
HETATM   49  O   UNK     0     -19.352 -22.853  53.099  0.00  0.00    -0.776 OA
HETATM   50  H   UNK     0     -18.382 -22.967  52.779  0.00  0.00     0.167 HD
ENDBRANCH  47  49
ENDBRANCH  46  47
ENDBRANCH  45  46
ENDBRANCH  11  45
BRANCH  18  51
HETATM   51  C   UNK     0     -21.245 -17.487  59.184  0.00  0.00     0.051 C 
BRANCH  51  52
HETATM   52  C   UNK     0     -21.000 -15.989  59.080  0.00  0.00     0.114 C 
BRANCH  52  53
HETATM   53  C   UNK     0     -22.260 -15.234  58.938  0.00  0.00     0.139 C 
HETATM   54  O   UNK     0     -22.685 -14.551  59.883  0.00  0.00    -0.650 OA
BRANCH  53  55
HETATM   55  O   UNK     0     -22.960 -15.296  57.758  0.00  0.00    -0.776 OA
HETATM   56  H   UNK     0     -23.087 -14.551  57.115  0.00  0.00     0.167 HD
ENDBRANCH  53  55
ENDBRANCH  52  53
ENDBRANCH  51  52
ENDBRANCH  18  51
TORSDOF 16
ENDMDL
MODEL 2
REMARK VINA RESULT:      -7.4     22.286     28.097
REMARK  16 active torsions:
REMARK  status: ('A' for Active; 'I' for Inactive)
REMARK    1  A    between atoms: C_6  and  C_7 
REMARK    2  A    between atoms: C_7  and  C_8 
REMARK    3  A    between atoms: C_8  and  C_9 
REMARK    4  A    between atoms: C_9  and  O_11 
REMARK    5  A    between atoms: C_16  and  C_17 
REMARK    6  A    between atoms: C_17  and  C_18 
REMARK    7  A    between atoms: C_18  and  C_19 
REMARK    8  A    between atoms: C_19  and  O_21 
REMARK    9  A    between atoms: C_28  and  C_29 
REMARK   10  A    between atoms: C_29  and  C_30 
REMARK   11  A    between atoms: C_30  and  C_31 
REMARK   12  A    between atoms: C_31  and  O_33 
REMARK   13  A    between atoms: C_42  and  C_43 
REMARK   14  A    between atoms: C_43  and  C_44 
REMARK   15  A    between atoms: C_44  and  C_45 
REMARK   16  A    between atoms: C_45  and  O_47 
ROOT
HETATM    1  C   UNK     0      -4.430 -41.134  41.332  0.00  0.00     0.051 C 
HETATM    2  C   UNK     0      -5.093 -40.370  42.460  0.00  0.00    -0.031 A 
HETATM    3  C   UNK     0      -5.898 -40.839  43.486  0.00  0.00     0.021 A 
HETATM    4  N   UNK     0      -6.294 -39.793  44.249  0.00  0.00    -0.361 N 
HETATM    5  C   UNK     0      -5.752 -38.669  43.738  0.00  0.00     0.022 A 
HETATM    6  C   UNK     0      -4.996 -38.994  42.616  0.00  0.00    -0.027 A 
HETATM    7  C   UNK     0      -5.801 -37.266  44.257  0.00  0.00     0.115 C 
HETATM    8  C   UNK     0      -5.618 -37.087  45.754  0.00  0.00     0.021 A 
HETATM    9  N   UNK     0      -4.830 -37.783  46.589  0.00  0.00    -0.361 N 
HETATM   10  C   UNK     0      -5.056 -37.340  47.844  0.00  0.00     0.022 A 
HETATM   11  C   UNK     0      -6.007 -36.324  47.816  0.00  0.00    -0.027 A 
HETATM   12  C   UNK     0      -6.365 -36.160  46.502  0.00  0.00    -0.031 A 
HETATM   13  C   UNK     0      -7.374 -35.156  45.990  0.00  0.00     0.051 C 
HETATM   14  C   UNK     0      -4.425 -37.889  49.121  0.00  0.00     0.115 C 
HETATM   15  C   UNK     0      -4.740 -39.353  49.382  0.00  0.00     0.021 A 
HETATM   16  N   UNK     0      -4.471 -40.406  48.586  0.00  0.00    -0.361 N 
HETATM   17  C   UNK     0      -4.969 -41.513  49.140  0.00  0.00     0.022 A 
HETATM   18  C   UNK     0      -5.584 -41.167  50.360  0.00  0.00    -0.027 A 
HETATM   19  C   UNK     0      -5.432 -39.812  50.501  0.00  0.00    -0.031 A 
HETATM   20  C   UNK     0      -5.921 -39.029  51.705  0.00  0.00     0.051 C 
HETATM   21  C   UNK     0      -4.999 -42.932  48.619  0.00  0.00     0.115 C 
HETATM   22  C   UNK     0      -5.137 -43.124  47.127  0.00  0.00     0.022 A 
HETATM   23  N   UNK     0      -5.910 -42.444  46.270  0.00  0.00    -0.361 N 
HETATM   24  C   UNK     0      -5.612 -42.848  45.019  0.00  0.00     0.021 A 
HETATM   25  C   UNK     0      -4.631 -43.819  45.071  0.00  0.00    -0.031 A 
HETATM   26  C   UNK     0      -4.001 -44.601  43.937  0.00  0.00     0.051 C 
HETATM   27  C   UNK     0      -4.311 -44.014  46.410  0.00  0.00    -0.027 A 
HETATM   28  C   UNK     0      -6.159 -42.302  43.711  0.00  0.00     0.115 C 
HETATM   29  H   UNK     0      -6.987 -39.851  45.121  0.00  0.00     0.165 HD
HETATM   30  H   UNK     0      -4.078 -38.553  46.291  0.00  0.00     0.165 HD
HETATM   31  H   UNK     0      -3.876 -40.374  47.636  0.00  0.00     0.165 HD
HETATM   32  H   UNK     0      -6.704 -41.702  46.544  0.00  0.00     0.165 HD
ENDROOT
BRANCH   6  33
HETATM   33  C   UNK     0      -4.202 -38.106  41.691  0.00  0.00     0.051 C 
BRANCH  33  34
HETATM   34  C   UNK     0      -2.821 -37.853  42.248  0.00  0.00     0.114 C 
BRANCH  34  35
HETATM   35  C   UNK     0      -2.580 -36.382  42.192  0.00  0.00     0.139 C 
HETATM   36  O   UNK     0      -3.425 -35.618  41.641  0.00  0.00    -0.650 OA
BRANCH  35  37
HETATM   37  O   UNK     0      -1.445 -35.788  42.731  0.00  0.00    -0.776 OA
HETATM   38  H   UNK     0      -1.501 -35.065  43.430  0.00  0.00     0.167 HD
ENDBRANCH  35  37
ENDBRANCH  34  35
ENDBRANCH  33  34
ENDBRANCH   6  33
BRANCH  27  39
HETATM   39  C   UNK     0      -3.337 -45.041  46.870  0.00  0.00     0.051 C 
BRANCH  39  40
HETATM   40  C   UNK     0      -2.034 -44.593  47.358  0.00  0.00     0.114 C 
BRANCH  40  41
HETATM   41  C   UNK     0      -1.566 -44.893  48.693  0.00  0.00     0.139 C 
HETATM   42  O   UNK     0      -2.310 -44.954  49.681  0.00  0.00    -0.650 OA
BRANCH  41  43
HETATM   43  O   UNK     0      -0.178 -45.133  48.901  0.00  0.00    -0.776 OA
HETATM   44  H   UNK     0       0.126 -45.027  49.861  0.00  0.00     0.167 HD
ENDBRANCH  41  43
ENDBRANCH  40  41
ENDBRANCH  39  40
ENDBRANCH  27  39
BRANCH  11  45
HETATM   45  C   UNK     0      -6.568 -35.527  48.962  0.00  0.00     0.051 C 
BRANCH  45  46
HETATM   46  C   UNK     0      -5.607 -34.564  49.558  0.00  0.00     0.114 C 
BRANCH  46  47
HETATM   47  C   UNK     0      -5.469 -33.428  48.602  0.00  0.00     0.139 C 
HETATM   48  O   UNK     0      -6.378 -32.588  48.544  0.00  0.00    -0.650 OA
BRANCH  47  49
HETATM   49  O   UNK     0      -4.361 -33.315  47.800  0.00  0.00    -0.776 OA
HETATM   50  H   UNK     0      -4.287 -32.597  47.070  0.00  0.00     0.167 HD
ENDBRANCH  47  49
ENDBRANCH  46  47
ENDBRANCH  45  46
ENDBRANCH  11  45
BRANCH  18  51
HETATM   51  C   UNK     0      -6.260 -42.082  51.349  0.00  0.00     0.051 C 
BRANCH  51  52
HETATM   52  C   UNK     0      -7.751 -41.993  51.061  0.00  0.00     0.114 C 
BRANCH  52  53
HETATM   53  C   UNK     0      -8.560 -42.439  52.211  0.00  0.00     0.139 C 
HETATM   54  O   UNK     0      -8.114 -43.296  52.990  0.00  0.00    -0.650 OA
BRANCH  53  55
HETATM   55  O   UNK     0      -9.809 -41.903  52.412  0.00  0.00    -0.776 OA
HETATM   56  H   UNK     0     -10.651 -42.208  51.983  0.00  0.00     0.167 HD
ENDBRANCH  53  55
ENDBRANCH  52  53
ENDBRANCH  51  52
ENDBRANCH  18  51
TORSDOF 16
ENDMDL
MODEL 3
REMARK VINA RESULT:      -7.4      1.940      2.473
REMARK  16 active torsions:
REMARK  status: ('A' for Active; 'I' for Inactive)
REMARK    1  A    between atoms: C_6  and  C_7 
REMARK    2  A    between atoms: C_7  and  C_8 
REMARK    3  A    between atoms: C_8  and  C_9 
REMARK    4  A    between atoms: C_9  and  O_11 
REMARK    5  A    between atoms: C_16  and  C_17 
REMARK    6  A    between atoms: C_17  and  C_18 
REMARK    7  A    between atoms: C_18  and  C_19 
REMARK    8  A    between atoms: C_19  and  O_21 
REMARK    9  A    between atoms: C_28  and  C_29 
REMARK   10  A    between atoms: C_29  and  C_30 
REMARK   11  A    between atoms: C_30  and  C_31 
REMARK   12  A    between atoms: C_31  and  O_33 
REMARK   13  A    between atoms: C_42  and  C_43 
REMARK   14  A    between atoms: C_43  and  C_44 
REMARK   15  A    between atoms: C_44  and  C_45 
REMARK   16  A    between atoms: C_45  and  O_47 
ROOT
HETATM    1  C   UNK     0     -14.638 -23.044  65.030  0.00  0.00     0.051 C 
HETATM    2  C   UNK     0     -15.070 -23.472  63.642  0.00  0.00    -0.031 A 
HETATM    3  C   UNK     0     -16.324 -23.415  63.054  0.00  0.00     0.021 A 
HETATM    4  N   UNK     0     -16.251 -23.936  61.807  0.00  0.00    -0.361 N 
HETATM    5  C   UNK     0     -14.976 -24.317  61.584  0.00  0.00     0.022 A 
HETATM    6  C   UNK     0     -14.211 -24.043  62.712  0.00  0.00    -0.027 A 
HETATM    7  C   UNK     0     -14.349 -24.861  60.338  0.00  0.00     0.115 C 
HETATM    8  C   UNK     0     -14.746 -24.200  59.030  0.00  0.00     0.021 A 
HETATM    9  N   UNK     0     -15.015 -22.906  58.795  0.00  0.00    -0.361 N 
HETATM   10  C   UNK     0     -15.413 -22.787  57.511  0.00  0.00     0.022 A 
HETATM   11  C   UNK     0     -15.391 -24.037  56.899  0.00  0.00    -0.027 A 
HETATM   12  C   UNK     0     -14.972 -24.931  57.850  0.00  0.00    -0.031 A 
HETATM   13  C   UNK     0     -14.792 -26.417  57.634  0.00  0.00     0.051 C 
HETATM   14  C   UNK     0     -15.879 -21.505  56.827  0.00  0.00     0.115 C 
HETATM   15  C   UNK     0     -17.111 -20.881  57.462  0.00  0.00     0.021 A 
HETATM   16  N   UNK     0     -17.258 -20.465  58.734  0.00  0.00    -0.361 N 
HETATM   17  C   UNK     0     -18.511 -20.043  58.916  0.00  0.00     0.022 A 
HETATM   18  C   UNK     0     -19.212 -20.180  57.701  0.00  0.00    -0.027 A 
HETATM   19  C   UNK     0     -18.323 -20.705  56.798  0.00  0.00    -0.031 A 
HETATM   20  C   UNK     0     -18.661 -20.981  55.345  0.00  0.00     0.051 C 
HETATM   21  C   UNK     0     -19.199 -19.550  60.169  0.00  0.00     0.115 C 
HETATM   22  C   UNK     0     -18.783 -20.168  61.482  0.00  0.00     0.022 A 
HETATM   23  N   UNK     0     -18.505 -21.452  61.744  0.00  0.00    -0.361 N 
HETATM   24  C   UNK     0     -18.036 -21.535  63.005  0.00  0.00     0.021 A 
HETATM   25  C   UNK     0     -18.021 -20.276  63.573  0.00  0.00    -0.031 A 
HETATM   26  C   UNK     0     -17.619 -19.867  64.975  0.00  0.00     0.051 C 
HETATM   27  C   UNK     0     -18.495 -19.384  62.618  0.00  0.00    -0.027 A 
HETATM   28  C   UNK     0     -17.504 -22.766  63.720  0.00  0.00     0.115 C 
HETATM   29  H   UNK     0     -17.109 -24.069  61.108  0.00  0.00     0.165 HD
HETATM   30  H   UNK     0     -14.876 -22.066  59.520  0.00  0.00     0.165 HD
HETATM   31  H   UNK     0     -16.448 -20.425  59.509  0.00  0.00     0.165 HD
HETATM   32  H   UNK     0     -18.678 -22.319  61.054  0.00  0.00     0.165 HD
ENDROOT
BRANCH   6  33
HETATM   33  C   UNK     0     -12.745 -24.282  62.972  0.00  0.00     0.051 C 
BRANCH  33  34
HETATM   34  C   UNK     0     -11.958 -23.003  62.814  0.00  0.00     0.114 C 
BRANCH  34  35
HETATM   35  C   UNK     0     -10.914 -23.246  61.777  0.00  0.00     0.139 C 
HETATM   36  O   UNK     0     -10.992 -24.256  61.019  0.00  0.00    -0.650 OA
BRANCH  35  37
HETATM   37  O   UNK     0      -9.830 -22.396  61.592  0.00  0.00    -0.776 OA
HETATM   38  H   UNK     0      -9.946 -21.408  61.435  0.00  0.00     0.167 HD
ENDBRANCH  35  37
ENDBRANCH  34  35
ENDBRANCH  33  34
ENDBRANCH   6  33
BRANCH  27  39
HETATM   39  C   UNK     0     -18.691 -17.934  62.889  0.00  0.00     0.051 C 
BRANCH  39  40
HETATM   40  C   UNK     0     -17.659 -16.999  62.442  0.00  0.00     0.114 C 
BRANCH  40  41
HETATM   41  C   UNK     0     -17.277 -16.878  61.053  0.00  0.00     0.139 C 
HETATM   42  O   UNK     0     -16.348 -17.518  60.542  0.00  0.00    -0.650 OA
BRANCH  41  43
HETATM   43  O   UNK     0     -17.996 -15.980  60.215  0.00  0.00    -0.776 OA
HETATM   44  H   UNK     0     -17.756 -16.040  59.233  0.00  0.00     0.167 HD
ENDBRANCH  41  43
ENDBRANCH  40  41
ENDBRANCH  39  40
ENDBRANCH  27  39
BRANCH  11  45
HETATM   45  C   UNK     0     -15.743 -24.397  55.481  0.00  0.00     0.051 C 
BRANCH  45  46
HETATM   46  C   UNK     0     -17.199 -24.568  55.242  0.00  0.00     0.114 C 
BRANCH  46  47
HETATM   47  C   UNK     0     -17.352 -25.315  53.961  0.00  0.00     0.139 C 
HETATM   48  O   UNK     0     -16.777 -26.405  53.838  0.00  0.00    -0.650 OA
BRANCH  47  49
HETATM   49  O   UNK     0     -18.112 -24.806  52.938  0.00  0.00    -0.776 OA
HETATM   50  H   UNK     0     -18.204 -25.288  52.036  0.00  0.00     0.167 HD
ENDBRANCH  47  49
ENDBRANCH  46  47
ENDBRANCH  45  46
ENDBRANCH  11  45
BRANCH  18  51
HETATM   51  C   UNK     0     -20.644 -19.812  57.410  0.00  0.00     0.051 C 
BRANCH  51  52
HETATM   52  C   UNK     0     -20.617 -18.388  56.875  0.00  0.00     0.114 C 
BRANCH  52  53
HETATM   53  C   UNK     0     -21.165 -17.424  57.849  0.00  0.00     0.139 C 
HETATM   54  O   UNK     0     -20.398 -16.764  58.568  0.00  0.00    -0.650 OA
BRANCH  53  55
HETATM   55  O   UNK     0     -22.525 -17.265  57.956  0.00  0.00    -0.776 OA
HETATM   56  H   UNK     0     -23.214 -17.925  57.679  0.00  0.00     0.167 HD
ENDBRANCH  53  55
ENDBRANCH  52  53
ENDBRANCH  51  52
ENDBRANCH  18  51
TORSDOF 16
ENDMDL
MODEL 4
REMARK VINA RESULT:      -7.3     29.050     32.598
REMARK  16 active torsions:
REMARK  status: ('A' for Active; 'I' for Inactive)
REMARK    1  A    between atoms: C_6  and  C_7 
REMARK    2  A    between atoms: C_7  and  C_8 
REMARK    3  A    between atoms: C_8  and  C_9 
REMARK    4  A    between atoms: C_9  and  O_11 
REMARK    5  A    between atoms: C_16  and  C_17 
REMARK    6  A    between atoms: C_17  and  C_18 
REMARK    7  A    between atoms: C_18  and  C_19 
REMARK    8  A    between atoms: C_19  and  O_21 
REMARK    9  A    between atoms: C_28  and  C_29 
REMARK   10  A    between atoms: C_29  and  C_30 
REMARK   11  A    between atoms: C_30  and  C_31 
REMARK   12  A    between atoms: C_31  and  O_33 
REMARK   13  A    between atoms: C_42  and  C_43 
REMARK   14  A    between atoms: C_43  and  C_44 
REMARK   15  A    between atoms: C_44  and  C_45 
REMARK   16  A    between atoms: C_45  and  O_47 
ROOT
HETATM    1  C   UNK     0      14.502  -8.741  57.997  0.00  0.00     0.051 C 
HETATM    2  C   UNK     0      13.586  -7.945  57.090  0.00  0.00    -0.031 A 
HETATM    3  C   UNK     0      13.670  -7.732  55.723  0.00  0.00     0.021 A 
HETATM    4  N   UNK     0      12.650  -6.928  55.339  0.00  0.00    -0.361 N 
HETATM    5  C   UNK     0      11.913  -6.632  56.429  0.00  0.00     0.022 A 
HETATM    6  C   UNK     0      12.472  -7.250  57.543  0.00  0.00    -0.027 A 
HETATM    7  C   UNK     0      10.634  -5.862  56.533  0.00  0.00     0.115 C 
HETATM    8  C   UNK     0       9.583  -6.139  55.472  0.00  0.00     0.021 A 
HETATM    9  N   UNK     0       9.288  -7.302  54.871  0.00  0.00    -0.361 N 
HETATM   10  C   UNK     0       8.352  -7.061  53.929  0.00  0.00     0.022 A 
HETATM   11  C   UNK     0       8.028  -5.707  53.929  0.00  0.00    -0.027 A 
HETATM   12  C   UNK     0       8.800  -5.120  54.900  0.00  0.00    -0.031 A 
HETATM   13  C   UNK     0       8.783  -3.652  55.262  0.00  0.00     0.051 C 
HETATM   14  C   UNK     0       7.766  -8.082  52.958  0.00  0.00     0.115 C 
HETATM   15  C   UNK     0       8.796  -8.719  52.039  0.00  0.00     0.021 A 
HETATM   16  N   UNK     0       9.891  -9.418  52.391  0.00  0.00    -0.361 N 
HETATM   17  C   UNK     0      10.574  -9.747  51.292  0.00  0.00     0.022 A 
HETATM   18  C   UNK     0       9.886  -9.246  50.169  0.00  0.00    -0.027 A 
HETATM   19  C   UNK     0       8.773  -8.605  50.650  0.00  0.00    -0.031 A 
HETATM   20  C   UNK     0       7.729  -7.948  49.766  0.00  0.00     0.051 C 
HETATM   21  C   UNK     0      11.897 -10.463  51.148  0.00  0.00     0.115 C 
HETATM   22  C   UNK     0      12.936 -10.231  52.221  0.00  0.00     0.022 A 
HETATM   23  N   UNK     0      13.248  -9.085  52.840  0.00  0.00    -0.361 N 
HETATM   24  C   UNK     0      14.125  -9.362  53.826  0.00  0.00     0.021 A 
HETATM   25  C   UNK     0      14.391 -10.718  53.836  0.00  0.00    -0.031 A 
HETATM   26  C   UNK     0      15.336 -11.498  54.726  0.00  0.00     0.051 C 
HETATM   27  C   UNK     0      13.642 -11.296  52.817  0.00  0.00    -0.027 A 
HETATM   28  C   UNK     0      14.697  -8.405  54.857  0.00  0.00     0.115 C 
HETATM   29  H   UNK     0      12.480  -6.544  54.306  0.00  0.00     0.165 HD
HETATM   30  H   UNK     0       9.702  -8.303  55.143  0.00  0.00     0.165 HD
HETATM   31  H   UNK     0      10.163  -9.728  53.433  0.00  0.00     0.165 HD
HETATM   32  H   UNK     0      12.886  -8.063  52.558  0.00  0.00     0.165 HD
ENDROOT
BRANCH   6  33
HETATM   33  C   UNK     0      12.036  -7.228  58.986  0.00  0.00     0.051 C 
BRANCH  33  34
HETATM   34  C   UNK     0      12.502  -5.963  59.666  0.00  0.00     0.114 C 
BRANCH  34  35
HETATM   35  C   UNK     0      11.358  -5.439  60.467  0.00  0.00     0.139 C 
HETATM   36  O   UNK     0      10.772  -4.373  60.119  0.00  0.00    -0.650 OA
BRANCH  35  37
HETATM   37  O   UNK     0      10.886  -6.080  61.606  0.00  0.00    -0.776 OA
HETATM   38  H   UNK     0      11.452  -6.728  62.129  0.00  0.00     0.167 HD
ENDBRANCH  35  37
ENDBRANCH  34  35
ENDBRANCH  33  34
ENDBRANCH   6  33
BRANCH  27  39
HETATM   39  C   UNK     0      13.721 -12.741  52.472  0.00  0.00     0.051 C 
BRANCH  39  40
HETATM   40  C   UNK     0      12.626 -13.332  51.703  0.00  0.00     0.114 C 
BRANCH  40  41
HETATM   41  C   UNK     0      12.292 -14.736  51.792  0.00  0.00     0.139 C 
HETATM   42  O   UNK     0      11.158 -15.183  51.574  0.00  0.00    -0.650 OA
BRANCH  41  43
HETATM   43  O   UNK     0      13.309 -15.667  52.147  0.00  0.00    -0.776 OA
HETATM   44  H   UNK     0      13.122 -16.621  51.861  0.00  0.00     0.167 HD
ENDBRANCH  41  43
ENDBRANCH  40  41
ENDBRANCH  39  40
ENDBRANCH  27  39
BRANCH  11  45
HETATM   45  C   UNK     0       7.037  -4.975  53.065  0.00  0.00     0.051 C 
BRANCH  45  46
HETATM   46  C   UNK     0       5.622  -5.355  53.312  0.00  0.00     0.114 C 
BRANCH  46  47
HETATM   47  C   UNK     0       4.891  -5.193  52.023  0.00  0.00     0.139 C 
HETATM   48  O   UNK     0       5.407  -5.638  50.988  0.00  0.00    -0.650 OA
BRANCH  47  49
HETATM   49  O   UNK     0       3.672  -4.564  51.981  0.00  0.00    -0.776 OA
HETATM   50  H   UNK     0       3.467  -3.817  51.306  0.00  0.00     0.167 HD
ENDBRANCH  47  49
ENDBRANCH  46  47
ENDBRANCH  45  46
ENDBRANCH  11  45
BRANCH  18  51
HETATM   51  C   UNK     0      10.257  -9.388  48.716  0.00  0.00     0.051 C 
BRANCH  51  52
HETATM   52  C   UNK     0       9.690 -10.725  48.260  0.00  0.00     0.114 C 
BRANCH  52  53
HETATM   53  C   UNK     0      10.704 -11.543  47.567  0.00  0.00     0.139 C 
HETATM   54  O   UNK     0      11.204 -11.144  46.504  0.00  0.00    -0.650 OA
BRANCH  53  55
HETATM   55  O   UNK     0      11.086 -12.749  48.103  0.00  0.00    -0.776 OA
HETATM   56  H   UNK     0      11.368 -12.908  49.041  0.00  0.00     0.167 HD
ENDBRANCH  53  55
ENDBRANCH  52  53
ENDBRANCH  51  52
ENDBRANCH  18  51
TORSDOF 16
ENDMDL
MODEL 5
REMARK VINA RESULT:      -7.3     13.552     19.917
REMARK  16 active torsions:
REMARK  status: ('A' for Active; 'I' for Inactive)
REMARK    1  A    between atoms: C_6  and  C_7 
REMARK    2  A    between atoms: C_7  and  C_8 
REMARK    3  A    between atoms: C_8  and  C_9 
REMARK    4  A    between atoms: C_9  and  O_11 
REMARK    5  A    between atoms: C_16  and  C_17 
REMARK    6  A    between atoms: C_17  and  C_18 
REMARK    7  A    between atoms: C_18  and  C_19 
REMARK    8  A    between atoms: C_19  and  O_21 
REMARK    9  A    between atoms: C_28  and  C_29 
REMARK   10  A    between atoms: C_29  and  C_30 
REMARK   11  A    between atoms: C_30  and  C_31 
REMARK   12  A    between atoms: C_31  and  O_33 
REMARK   13  A    between atoms: C_42  and  C_43 
REMARK   14  A    between atoms: C_43  and  C_44 
REMARK   15  A    between atoms: C_44  and  C_45 
REMARK   16  A    between atoms: C_45  and  O_47 
ROOT
HETATM    1  C   UNK     0     -11.708 -30.124  43.992  0.00  0.00     0.051 C 
HETATM    2  C   UNK     0     -11.947 -30.299  45.478  0.00  0.00    -0.031 A 
HETATM    3  C   UNK     0     -12.029 -31.463  46.225  0.00  0.00     0.021 A 
HETATM    4  N   UNK     0     -12.285 -31.143  47.515  0.00  0.00    -0.361 N 
HETATM    5  C   UNK     0     -12.360 -29.799  47.608  0.00  0.00     0.022 A 
HETATM    6  C   UNK     0     -12.156 -29.239  46.352  0.00  0.00    -0.027 A 
HETATM    7  C   UNK     0     -12.531 -28.937  48.820  0.00  0.00     0.115 C 
HETATM    8  C   UNK     0     -11.729 -29.324  50.050  0.00  0.00     0.021 A 
HETATM    9  N   UNK     0     -10.492 -29.841  50.114  0.00  0.00    -0.361 N 
HETATM   10  C   UNK     0     -10.218 -30.114  51.407  0.00  0.00     0.022 A 
HETATM   11  C   UNK     0     -11.303 -29.754  52.199  0.00  0.00    -0.027 A 
HETATM   12  C   UNK     0     -12.259 -29.255  51.351  0.00  0.00    -0.031 A 
HETATM   13  C   UNK     0     -13.614 -28.732  51.772  0.00  0.00     0.051 C 
HETATM   14  C   UNK     0      -8.948 -30.772  51.939  0.00  0.00     0.115 C 
HETATM   15  C   UNK     0      -8.706 -32.172  51.398  0.00  0.00     0.021 A 
HETATM   16  N   UNK     0      -8.571 -32.544  50.112  0.00  0.00    -0.361 N 
HETATM   17  C   UNK     0      -8.443 -33.871  50.050  0.00  0.00     0.022 A 
HETATM   18  C   UNK     0      -8.488 -34.388  51.360  0.00  0.00    -0.027 A 
HETATM   19  C   UNK     0      -8.651 -33.314  52.195  0.00  0.00    -0.031 A 
HETATM   20  C   UNK     0      -8.713 -33.423  53.708  0.00  0.00     0.051 C 
HETATM   21  C   UNK     0      -8.336 -34.782  48.848  0.00  0.00     0.115 C 
HETATM   22  C   UNK     0      -9.093 -34.386  47.603  0.00  0.00     0.022 A 
HETATM   23  N   UNK     0     -10.324 -33.865  47.510  0.00  0.00    -0.361 N 
HETATM   24  C   UNK     0     -10.546 -33.529  46.223  0.00  0.00     0.021 A 
HETATM   25  C   UNK     0      -9.435 -33.851  45.467  0.00  0.00    -0.031 A 
HETATM   26  C   UNK     0      -9.223 -33.703  43.975  0.00  0.00     0.051 C 
HETATM   27  C   UNK     0      -8.493 -34.402  46.328  0.00  0.00    -0.027 A 
HETATM   28  C   UNK     0     -11.759 -32.822  45.643  0.00  0.00     0.115 C 
HETATM   29  H   UNK     0     -12.451 -31.870  48.344  0.00  0.00     0.165 HD
HETATM   30  H   UNK     0      -9.791 -29.969  49.253  0.00  0.00     0.165 HD
HETATM   31  H   UNK     0      -8.516 -31.851  49.232  0.00  0.00     0.165 HD
HETATM   32  H   UNK     0     -11.064 -33.768  48.346  0.00  0.00     0.165 HD
ENDROOT
BRANCH   6  33
HETATM   33  C   UNK     0     -12.147 -27.794  45.923  0.00  0.00     0.051 C 
BRANCH  33  34
HETATM   34  C   UNK     0     -10.734 -27.266  45.850  0.00  0.00     0.114 C 
BRANCH  34  35
HETATM   35  C   UNK     0     -10.686 -26.007  46.647  0.00  0.00     0.139 C 
HETATM   36  O   UNK     0     -11.635 -25.711  47.430  0.00  0.00    -0.650 OA
BRANCH  35  37
HETATM   37  O   UNK     0      -9.622 -25.116  46.577  0.00  0.00    -0.776 OA
HETATM   38  H   UNK     0      -9.669 -24.194  46.980  0.00  0.00     0.167 HD
ENDBRANCH  35  37
ENDBRANCH  34  35
ENDBRANCH  33  34
ENDBRANCH   6  33
BRANCH  27  39
HETATM   39  C   UNK     0      -7.185 -34.938  45.861  0.00  0.00     0.051 C 
BRANCH  39  40
HETATM   40  C   UNK     0      -6.006 -34.078  45.964  0.00  0.00     0.114 C 
BRANCH  40  41
HETATM   41  C   UNK     0      -5.598 -33.476  47.213  0.00  0.00     0.139 C 
HETATM   42  O   UNK     0      -5.021 -34.097  48.115  0.00  0.00    -0.650 OA
BRANCH  41  43
HETATM   43  O   UNK     0      -5.866 -32.095  47.434  0.00  0.00    -0.776 OA
HETATM   44  H   UNK     0      -5.532 -31.740  48.322  0.00  0.00     0.167 HD
ENDBRANCH  41  43
ENDBRANCH  40  41
ENDBRANCH  39  40
ENDBRANCH  27  39
BRANCH  11  45
HETATM   45  C   UNK     0     -11.456 -29.862  53.693  0.00  0.00     0.051 C 
BRANCH  45  46
HETATM   46  C   UNK     0     -11.897 -31.201  54.161  0.00  0.00     0.114 C 
BRANCH  46  47
HETATM   47  C   UNK     0     -12.164 -31.091  55.624  0.00  0.00     0.139 C 
HETATM   48  O   UNK     0     -13.164 -30.463  55.998  0.00  0.00    -0.650 OA
BRANCH  47  49
HETATM   49  O   UNK     0     -11.320 -31.670  56.538  0.00  0.00    -0.776 OA
HETATM   50  H   UNK     0     -10.889 -32.588  56.376  0.00  0.00     0.167 HD
ENDBRANCH  47  49
ENDBRANCH  46  47
ENDBRANCH  45  46
ENDBRANCH  11  45
BRANCH  18  51
HETATM   51  C   UNK     0      -8.360 -35.826  51.793  0.00  0.00     0.051 C 
BRANCH  51  52
HETATM   52  C   UNK     0      -9.774 -36.316  52.065  0.00  0.00     0.114 C 
BRANCH  52  53
HETATM   53  C   UNK     0      -9.907 -36.888  53.419  0.00  0.00     0.139 C 
HETATM   54  O   UNK     0     -10.986 -36.800  54.027  0.00  0.00    -0.650 OA
BRANCH  53  55
HETATM   55  O   UNK     0      -8.831 -37.513  54.001  0.00  0.00    -0.776 OA
HETATM   56  H   UNK     0      -8.278 -38.227  53.589  0.00  0.00     0.167 HD
ENDBRANCH  53  55
ENDBRANCH  52  53
ENDBRANCH  51  52
ENDBRANCH  18  51
TORSDOF 16
ENDMDL
MODEL 6
REMARK VINA RESULT:      -7.3     21.479     27.253
REMARK  16 active torsions:
REMARK  status: ('A' for Active; 'I' for Inactive)
REMARK    1  A    between atoms: C_6  and  C_7 
REMARK    2  A    between atoms: C_7  and  C_8 
REMARK    3  A    between atoms: C_8  and  C_9 
REMARK    4  A    between atoms: C_9  and  O_11 
REMARK    5  A    between atoms: C_16  and  C_17 
REMARK    6  A    between atoms: C_17  and  C_18 
REMARK    7  A    between atoms: C_18  and  C_19 
REMARK    8  A    between atoms: C_19  and  O_21 
REMARK    9  A    between atoms: C_28  and  C_29 
REMARK   10  A    between atoms: C_29  and  C_30 
REMARK   11  A    between atoms: C_30  and  C_31 
REMARK   12  A    between atoms: C_31  and  O_33 
REMARK   13  A    between atoms: C_42  and  C_43 
REMARK   14  A    between atoms: C_43  and  C_44 
REMARK   15  A    between atoms: C_44  and  C_45 
REMARK   16  A    between atoms: C_45  and  O_47 
ROOT
HETATM    1  C   UNK     0      -4.234 -40.591  41.824  0.00  0.00     0.051 C 
HETATM    2  C   UNK     0      -4.972 -39.724  42.824  0.00  0.00    -0.031 A 
HETATM    3  C   UNK     0      -5.922 -40.082  43.767  0.00  0.00     0.021 A 
HETATM    4  N   UNK     0      -6.334 -38.971  44.423  0.00  0.00    -0.361 N 
HETATM    5  C   UNK     0      -5.660 -37.914  43.924  0.00  0.00     0.022 A 
HETATM    6  C   UNK     0      -4.802 -38.349  42.920  0.00  0.00    -0.027 A 
HETATM    7  C   UNK     0      -5.676 -36.483  44.362  0.00  0.00     0.115 C 
HETATM    8  C   UNK     0      -5.658 -36.228  45.859  0.00  0.00     0.021 A 
HETATM    9  N   UNK     0      -5.023 -36.920  46.818  0.00  0.00    -0.361 N 
HETATM   10  C   UNK     0      -5.364 -36.391  48.012  0.00  0.00     0.022 A 
HETATM   11  C   UNK     0      -6.235 -35.323  47.817  0.00  0.00    -0.027 A 
HETATM   12  C   UNK     0      -6.424 -35.215  46.463  0.00  0.00    -0.031 A 
HETATM   13  C   UNK     0      -7.296 -34.183  45.782  0.00  0.00     0.051 C 
HETATM   14  C   UNK     0      -4.927 -36.902  49.382  0.00  0.00     0.115 C 
HETATM   15  C   UNK     0      -5.367 -38.327  49.676  0.00  0.00     0.021 A 
HETATM   16  N   UNK     0      -5.079 -39.438  48.973  0.00  0.00    -0.361 N 
HETATM   17  C   UNK     0      -5.712 -40.479  49.519  0.00  0.00     0.022 A 
HETATM   18  C   UNK     0      -6.441 -40.026  50.636  0.00  0.00    -0.027 A 
HETATM   19  C   UNK     0      -6.215 -38.677  50.725  0.00  0.00    -0.031 A 
HETATM   20  C   UNK     0      -6.789 -37.796  51.820  0.00  0.00     0.051 C 
HETATM   21  C   UNK     0      -5.776 -41.922  49.071  0.00  0.00     0.115 C 
HETATM   22  C   UNK     0      -5.750 -42.192  47.585  0.00  0.00     0.022 A 
HETATM   23  N   UNK     0      -6.369 -41.517  46.607  0.00  0.00    -0.361 N 
HETATM   24  C   UNK     0      -5.954 -42.011  45.423  0.00  0.00     0.021 A 
HETATM   25  C   UNK     0      -5.054 -43.036  45.644  0.00  0.00    -0.031 A 
HETATM   26  C   UNK     0      -4.348 -43.919  44.635  0.00  0.00     0.051 C 
HETATM   27  C   UNK     0      -4.907 -43.171  47.019  0.00  0.00    -0.027 A 
HETATM   28  C   UNK     0      -6.305 -41.511  44.033  0.00  0.00     0.115 C 
HETATM   29  H   UNK     0      -7.126 -38.936  45.206  0.00  0.00     0.165 HD
HETATM   30  H   UNK     0      -4.294 -37.751  46.652  0.00  0.00     0.165 HD
HETATM   31  H   UNK     0      -4.375 -39.499  48.102  0.00  0.00     0.165 HD
HETATM   32  H   UNK     0      -7.138 -40.714  46.745  0.00  0.00     0.165 HD
ENDROOT
BRANCH   6  33
HETATM   33  C   UNK     0      -3.846 -37.567  42.054  0.00  0.00     0.051 C 
BRANCH  33  34
HETATM   34  C   UNK     0      -2.958 -36.685  42.900  0.00  0.00     0.114 C 
BRANCH  34  35
HETATM   35  C   UNK     0      -1.599 -36.700  42.285  0.00  0.00     0.139 C 
HETATM   36  O   UNK     0      -1.169 -37.745  41.716  0.00  0.00    -0.650 OA
BRANCH  35  37
HETATM   37  O   UNK     0      -0.757 -35.595  42.303  0.00  0.00    -0.776 OA
HETATM   38  H   UNK     0       0.176 -35.640  42.680  0.00  0.00     0.167 HD
ENDBRANCH  35  37
ENDBRANCH  34  35
ENDBRANCH  33  34
ENDBRANCH   6  33
BRANCH  27  39
HETATM   39  C   UNK     0      -4.066 -44.227  47.645  0.00  0.00     0.051 C 
BRANCH  39  40
HETATM   40  C   UNK     0      -2.900 -43.814  48.426  0.00  0.00     0.114 C 
BRANCH  40  41
HETATM   41  C   UNK     0      -1.560 -44.248  48.099  0.00  0.00     0.139 C 
HETATM   42  O   UNK     0      -0.941 -45.102  48.749  0.00  0.00    -0.650 OA
BRANCH  41  43
HETATM   43  O   UNK     0      -0.902 -43.675  46.975  0.00  0.00    -0.776 OA
HETATM   44  H   UNK     0      -1.440 -42.965  46.491  0.00  0.00     0.167 HD
ENDBRANCH  41  43
ENDBRANCH  40  41
ENDBRANCH  39  40
ENDBRANCH  27  39
BRANCH  11  45
HETATM   45  C   UNK     0      -6.872 -34.428  48.845  0.00  0.00     0.051 C 
BRANCH  45  46
HETATM   46  C   UNK     0      -6.046 -33.251  49.219  0.00  0.00     0.114 C 
BRANCH  46  47
HETATM   47  C   UNK     0      -5.629 -33.438  50.638  0.00  0.00     0.139 C 
HETATM   48  O   UNK     0      -6.255 -34.245  51.338  0.00  0.00    -0.650 OA
BRANCH  47  49
HETATM   49  O   UNK     0      -4.575 -32.730  51.160  0.00  0.00    -0.776 OA
HETATM   50  H   UNK     0      -3.832 -32.343  50.566  0.00  0.00     0.167 HD
ENDBRANCH  47  49
ENDBRANCH  46  47
ENDBRANCH  45  46
ENDBRANCH  11  45
BRANCH  18  51
HETATM   51  C   UNK     0      -7.288 -40.839  51.581  0.00  0.00     0.051 C 
BRANCH  51  52
HETATM   52  C   UNK     0      -8.594 -41.116  50.850  0.00  0.00     0.114 C 
BRANCH  52  53
HETATM   53  C   UNK     0      -9.752 -40.531  51.552  0.00  0.00     0.139 C 
HETATM   54  O   UNK     0      -9.978 -39.313  51.470  0.00  0.00    -0.650 OA
BRANCH  53  55
HETATM   55  O   UNK     0     -10.574 -41.339  52.299  0.00  0.00    -0.776 OA
HETATM   56  H   UNK     0     -11.032 -42.161  51.979  0.00  0.00     0.167 HD
ENDBRANCH  53  55
ENDBRANCH  52  53
ENDBRANCH  51  52
ENDBRANCH  18  51
TORSDOF 16
ENDMDL
MODEL 7
REMARK VINA RESULT:      -7.2     17.608     23.914
REMARK  16 active torsions:
REMARK  status: ('A' for Active; 'I' for Inactive)
REMARK    1  A    between atoms: C_6  and  C_7 
REMARK    2  A    between atoms: C_7  and  C_8 
REMARK    3  A    between atoms: C_8  and  C_9 
REMARK    4  A    between atoms: C_9  and  O_11 
REMARK    5  A    between atoms: C_16  and  C_17 
REMARK    6  A    between atoms: C_17  and  C_18 
REMARK    7  A    between atoms: C_18  and  C_19 
REMARK    8  A    between atoms: C_19  and  O_21 
REMARK    9  A    between atoms: C_28  and  C_29 
REMARK   10  A    between atoms: C_29  and  C_30 
REMARK   11  A    between atoms: C_30  and  C_31 
REMARK   12  A    between atoms: C_31  and  O_33 
REMARK   13  A    between atoms: C_42  and  C_43 
REMARK   14  A    between atoms: C_43  and  C_44 
REMARK   15  A    between atoms: C_44  and  C_45 
REMARK   16  A    between atoms: C_45  and  O_47 
ROOT
HETATM    1  C   UNK     0     -12.603 -29.414  42.929  0.00  0.00     0.051 C 
HETATM    2  C   UNK     0     -12.155 -30.347  44.036  0.00  0.00    -0.031 A 
HETATM    3  C   UNK     0     -11.906 -31.710  43.991  0.00  0.00     0.021 A 
HETATM    4  N   UNK     0     -11.557 -32.135  45.228  0.00  0.00    -0.361 N 
HETATM    5  C   UNK     0     -11.569 -31.072  46.058  0.00  0.00     0.022 A 
HETATM    6  C   UNK     0     -11.942 -29.937  45.346  0.00  0.00    -0.027 A 
HETATM    7  C   UNK     0     -11.173 -30.985  47.499  0.00  0.00     0.115 C 
HETATM    8  C   UNK     0      -9.910 -31.724  47.905  0.00  0.00     0.021 A 
HETATM    9  N   UNK     0      -8.780 -31.898  47.201  0.00  0.00    -0.361 N 
HETATM   10  C   UNK     0      -7.960 -32.697  47.916  0.00  0.00     0.022 A 
HETATM   11  C   UNK     0      -8.574 -33.040  49.117  0.00  0.00    -0.027 A 
HETATM   12  C   UNK     0      -9.803 -32.430  49.116  0.00  0.00    -0.031 A 
HETATM   13  C   UNK     0     -10.823 -32.519  50.229  0.00  0.00     0.051 C 
HETATM   14  C   UNK     0      -6.592 -33.210  47.474  0.00  0.00     0.115 C 
HETATM   15  C   UNK     0      -6.631 -34.062  46.216  0.00  0.00     0.021 A 
HETATM   16  N   UNK     0      -7.088 -33.709  44.999  0.00  0.00    -0.361 N 
HETATM   17  C   UNK     0      -7.014 -34.762  44.181  0.00  0.00     0.022 A 
HETATM   18  C   UNK     0      -6.475 -35.849  44.896  0.00  0.00    -0.027 A 
HETATM   19  C   UNK     0      -6.238 -35.398  46.169  0.00  0.00    -0.031 A 
HETATM   20  C   UNK     0      -5.619 -36.247  47.264  0.00  0.00     0.051 C 
HETATM   21  C   UNK     0      -7.463 -34.910  42.745  0.00  0.00     0.115 C 
HETATM   22  C   UNK     0      -8.693 -34.145  42.317  0.00  0.00     0.022 A 
HETATM   23  N   UNK     0      -9.830 -33.952  42.998  0.00  0.00    -0.361 N 
HETATM   24  C   UNK     0     -10.600 -33.091  42.303  0.00  0.00     0.021 A 
HETATM   25  C   UNK     0      -9.947 -32.728  41.140  0.00  0.00    -0.031 A 
HETATM   26  C   UNK     0     -10.421 -31.820  40.024  0.00  0.00     0.051 C 
HETATM   27  C   UNK     0      -8.725 -33.390  41.127  0.00  0.00    -0.027 A 
HETATM   28  C   UNK     0     -11.938 -32.500  42.713  0.00  0.00     0.115 C 
HETATM   29  H   UNK     0     -11.343 -33.191  45.515  0.00  0.00     0.165 HD
HETATM   30  H   UNK     0      -8.538 -31.417  46.222  0.00  0.00     0.165 HD
HETATM   31  H   UNK     0      -7.425 -32.684  44.698  0.00  0.00     0.165 HD
HETATM   32  H   UNK     0     -10.119 -34.457  43.956  0.00  0.00     0.165 HD
ENDROOT
BRANCH   6  33
HETATM   33  C   UNK     0     -12.111 -28.513  45.810  0.00  0.00     0.051 C 
BRANCH  33  34
HETATM   34  C   UNK     0     -10.827 -27.737  45.636  0.00  0.00     0.114 C 
BRANCH  34  35
HETATM   35  C   UNK     0     -10.832 -26.633  46.638  0.00  0.00     0.139 C 
HETATM   36  O   UNK     0     -11.578 -26.703  47.658  0.00  0.00    -0.650 OA
BRANCH  35  37
HETATM   37  O   UNK     0     -10.039 -25.500  46.509  0.00  0.00    -0.776 OA
HETATM   38  H   UNK     0      -9.758 -25.144  45.610  0.00  0.00     0.167 HD
ENDBRANCH  35  37
ENDBRANCH  34  35
ENDBRANCH  33  34
ENDBRANCH   6  33
BRANCH  27  39
HETATM   39  C   UNK     0      -7.768 -33.302  39.990  0.00  0.00     0.051 C 
BRANCH  39  40
HETATM   40  C   UNK     0      -7.595 -34.477  39.136  0.00  0.00     0.114 C 
BRANCH  40  41
HETATM   41  C   UNK     0      -6.501 -35.405  39.315  0.00  0.00     0.139 C 
HETATM   42  O   UNK     0      -6.656 -36.627  39.442  0.00  0.00    -0.650 OA
BRANCH  41  43
HETATM   43  O   UNK     0      -5.169 -34.905  39.349  0.00  0.00    -0.776 OA
HETATM   44  H   UNK     0      -4.776 -34.822  40.279  0.00  0.00     0.167 HD
ENDBRANCH  41  43
ENDBRANCH  40  41
ENDBRANCH  39  40
ENDBRANCH  27  39
BRANCH  11  45
HETATM   45  C   UNK     0      -8.046 -33.900  50.233  0.00  0.00     0.051 C 
BRANCH  45  46
HETATM   46  C   UNK     0      -7.161 -33.182  51.185  0.00  0.00     0.114 C 
BRANCH  46  47
HETATM   47  C   UNK     0      -5.766 -33.638  50.923  0.00  0.00     0.139 C 
HETATM   48  O   UNK     0      -5.585 -34.806  50.552  0.00  0.00    -0.650 OA
BRANCH  47  49
HETATM   49  O   UNK     0      -4.705 -32.785  51.091  0.00  0.00    -0.776 OA
HETATM   50  H   UNK     0      -4.586 -32.223  51.942  0.00  0.00     0.167 HD
ENDBRANCH  47  49
ENDBRANCH  46  47
ENDBRANCH  45  46
ENDBRANCH  11  45
BRANCH  18  51
HETATM   51  C   UNK     0      -6.181 -37.237  44.389  0.00  0.00     0.051 C 
BRANCH  51  52
HETATM   52  C   UNK     0      -4.734 -37.221  43.917  0.00  0.00     0.114 C 
BRANCH  52  53
HETATM   53  C   UNK     0      -4.634 -37.002  42.461  0.00  0.00     0.139 C 
HETATM   54  O   UNK     0      -4.137 -35.952  42.024  0.00  0.00    -0.650 OA
BRANCH  53  55
HETATM   55  O   UNK     0      -5.095 -37.964  41.596  0.00  0.00    -0.776 OA
HETATM   56  H   UNK     0      -5.771 -37.830  40.881  0.00  0.00     0.167 HD
ENDBRANCH  53  55
ENDBRANCH  52  53
ENDBRANCH  51  52
ENDBRANCH  18  51
TORSDOF 16
ENDMDL
MODEL 8
REMARK VINA RESULT:      -7.2     13.069     18.800
REMARK  16 active torsions:
REMARK  status: ('A' for Active; 'I' for Inactive)
REMARK    1  A    between atoms: C_6  and  C_7 
REMARK    2  A    between atoms: C_7  and  C_8 
REMARK    3  A    between atoms: C_8  and  C_9 
REMARK    4  A    between atoms: C_9  and  O_11 
REMARK    5  A    between atoms: C_16  and  C_17 
REMARK    6  A    between atoms: C_17  and  C_18 
REMARK    7  A    between atoms: C_18  and  C_19 
REMARK    8  A    between atoms: C_19  and  O_21 
REMARK    9  A    between atoms: C_28  and  C_29 
REMARK   10  A    between atoms: C_29  and  C_30 
REMARK   11  A    between atoms: C_30  and  C_31 
REMARK   12  A    between atoms: C_31  and  O_33 
REMARK   13  A    between atoms: C_42  and  C_43 
REMARK   14  A    between atoms: C_43  and  C_44 
REMARK   15  A    between atoms: C_44  and  C_45 
REMARK   16  A    between atoms: C_45  and  O_47 
ROOT
HETATM    1  C   UNK     0     -11.568 -29.544  54.631  0.00  0.00     0.051 C 
HETATM    2  C   UNK     0     -11.190 -29.319  53.181  0.00  0.00    -0.031 A 
HETATM    3  C   UNK     0     -10.135 -29.848  52.455  0.00  0.00     0.021 A 
HETATM    4  N   UNK     0     -10.168 -29.344  51.198  0.00  0.00    -0.361 N 
HETATM    5  C   UNK     0     -11.225 -28.511  51.106  0.00  0.00     0.022 A 
HETATM    6  C   UNK     0     -11.885 -28.470  52.329  0.00  0.00    -0.027 A 
HETATM    7  C   UNK     0     -11.757 -27.777  49.915  0.00  0.00     0.115 C 
HETATM    8  C   UNK     0     -11.809 -28.546  48.607  0.00  0.00     0.021 A 
HETATM    9  N   UNK     0     -12.076 -29.847  48.412  0.00  0.00    -0.361 N 
HETATM   10  C   UNK     0     -11.920 -30.114  47.098  0.00  0.00     0.022 A 
HETATM   11  C   UNK     0     -11.551 -28.952  46.427  0.00  0.00    -0.027 A 
HETATM   12  C   UNK     0     -11.480 -27.960  47.371  0.00  0.00    -0.031 A 
HETATM   13  C   UNK     0     -11.117 -26.518  47.099  0.00  0.00     0.051 C 
HETATM   14  C   UNK     0     -12.059 -31.481  46.433  0.00  0.00     0.115 C 
HETATM   15  C   UNK     0     -11.079 -32.521  46.952  0.00  0.00     0.021 A 
HETATM   16  N   UNK     0     -10.935 -32.954  48.219  0.00  0.00    -0.361 N 
HETATM   17  C   UNK     0      -9.919 -33.818  48.274  0.00  0.00     0.022 A 
HETATM   18  C   UNK     0      -9.380 -33.961  46.980  0.00  0.00    -0.027 A 
HETATM   19  C   UNK     0     -10.116 -33.145  46.161  0.00  0.00    -0.031 A 
HETATM   20  C   UNK     0      -9.890 -33.024  44.665  0.00  0.00     0.051 C 
HETATM   21  C   UNK     0      -9.310 -34.527  49.462  0.00  0.00     0.115 C 
HETATM   22  C   UNK     0      -9.293 -33.791  50.781  0.00  0.00     0.022 A 
HETATM   23  N   UNK     0      -9.034 -32.496  51.004  0.00  0.00    -0.361 N 
HETATM   24  C   UNK     0      -9.272 -32.235  52.306  0.00  0.00     0.021 A 
HETATM   25  C   UNK     0      -9.683 -33.393  52.938  0.00  0.00    -0.031 A 
HETATM   26  C   UNK     0     -10.025 -33.612  54.397  0.00  0.00     0.051 C 
HETATM   27  C   UNK     0      -9.704 -34.402  51.982  0.00  0.00    -0.027 A 
HETATM   28  C   UNK     0      -9.208 -30.891  53.011  0.00  0.00     0.115 C 
HETATM   29  H   UNK     0      -9.420 -29.549  50.397  0.00  0.00     0.165 HD
HETATM   30  H   UNK     0     -12.424 -30.568  49.191  0.00  0.00     0.165 HD
HETATM   31  H   UNK     0     -11.595 -32.682  49.083  0.00  0.00     0.165 HD
HETATM   32  H   UNK     0      -8.639 -31.762  50.254  0.00  0.00     0.165 HD
ENDROOT
BRANCH   6  33
HETATM   33  C   UNK     0     -13.109 -27.694  52.746  0.00  0.00     0.051 C 
BRANCH  33  34
HETATM   34  C   UNK     0     -12.745 -26.608  53.730  0.00  0.00     0.114 C 
BRANCH  34  35
HETATM   35  C   UNK     0     -11.807 -25.676  53.040  0.00  0.00     0.139 C 
HETATM   36  O   UNK     0     -12.218 -24.944  52.092  0.00  0.00    -0.650 OA
BRANCH  35  37
HETATM   37  O   UNK     0     -10.468 -25.563  53.393  0.00  0.00    -0.776 OA
HETATM   38  H   UNK     0     -10.049 -26.151  54.095  0.00  0.00     0.167 HD
ENDBRANCH  35  37
ENDBRANCH  34  35
ENDBRANCH  33  34
ENDBRANCH   6  33
BRANCH  27  39
HETATM   39  C   UNK     0     -10.031 -35.817  52.306  0.00  0.00     0.051 C 
BRANCH  39  40
HETATM   40  C   UNK     0      -8.945 -36.703  52.725  0.00  0.00     0.114 C 
BRANCH  40  41
HETATM   41  C   UNK     0      -7.645 -36.680  52.093  0.00  0.00     0.139 C 
HETATM   42  O   UNK     0      -7.379 -37.301  51.055  0.00  0.00    -0.650 OA
BRANCH  41  43
HETATM   43  O   UNK     0      -6.604 -35.908  52.681  0.00  0.00    -0.776 OA
HETATM   44  H   UNK     0      -6.182 -36.328  53.501  0.00  0.00     0.167 HD
ENDBRANCH  41  43
ENDBRANCH  40  41
ENDBRANCH  39  40
ENDBRANCH  27  39
BRANCH  11  45
HETATM   45  C   UNK     0     -11.275 -28.758  44.960  0.00  0.00     0.051 C 
BRANCH  45  46
HETATM   46  C   UNK     0     -12.491 -28.519  44.141  0.00  0.00     0.114 C 
BRANCH  46  47
HETATM   47  C   UNK     0     -12.152 -28.872  42.733  0.00  0.00     0.139 C 
HETATM   48  O   UNK     0     -12.029 -30.069  42.435  0.00  0.00    -0.650 OA
BRANCH  47  49
HETATM   49  O   UNK     0     -11.978 -27.895  41.786  0.00  0.00    -0.776 OA
HETATM   50  H   UNK     0     -12.106 -26.899  42.000  0.00  0.00     0.167 HD
ENDBRANCH  47  49
ENDBRANCH  46  47
ENDBRANCH  45  46
ENDBRANCH  11  45
BRANCH  18  51
HETATM   51  C   UNK     0      -8.240 -34.844  46.544  0.00  0.00     0.051 C 
BRANCH  51  52
HETATM   52  C   UNK     0      -6.970 -34.033  46.749  0.00  0.00     0.114 C 
BRANCH  52  53
HETATM   53  C   UNK     0      -5.931 -34.808  47.455  0.00  0.00     0.139 C 
HETATM   54  O   UNK     0      -6.078 -36.028  47.632  0.00  0.00    -0.650 OA
BRANCH  53  55
HETATM   55  O   UNK     0      -4.804 -34.171  47.916  0.00  0.00    -0.776 OA
HETATM   56  H   UNK     0      -4.337 -33.416  47.472  0.00  0.00     0.167 HD
ENDBRANCH  53  55
ENDBRANCH  52  53
ENDBRANCH  51  52
ENDBRANCH  18  51
TORSDOF 16
ENDMDL
MODEL 9
REMARK VINA RESULT:      -7.1      4.623      9.538
REMARK  16 active torsions:
REMARK  status: ('A' for Active; 'I' for Inactive)
REMARK    1  A    between atoms: C_6  and  C_7 
REMARK    2  A    between atoms: C_7  and  C_8 
REMARK    3  A    between atoms: C_8  and  C_9 
REMARK    4  A    between atoms: C_9  and  O_11 
REMARK    5  A    between atoms: C_16  and  C_17 
REMARK    6  A    between atoms: C_17  and  C_18 
REMARK    7  A    between atoms: C_18  and  C_19 
REMARK    8  A    between atoms: C_19  and  O_21 
REMARK    9  A    between atoms: C_28  and  C_29 
REMARK   10  A    between atoms: C_29  and  C_30 
REMARK   11  A    between atoms: C_30  and  C_31 
REMARK   12  A    between atoms: C_31  and  O_33 
REMARK   13  A    between atoms: C_42  and  C_43 
REMARK   14  A    between atoms: C_43  and  C_44 
REMARK   15  A    between atoms: C_44  and  C_45 
REMARK   16  A    between atoms: C_45  and  O_47 
ROOT
HETATM    1  C   UNK     0     -16.721 -20.685  57.004  0.00  0.00     0.051 C 
HETATM    2  C   UNK     0     -18.029 -19.921  57.044  0.00  0.00    -0.031 A 
HETATM    3  C   UNK     0     -19.208 -20.161  56.357  0.00  0.00     0.021 A 
HETATM    4  N   UNK     0     -20.109 -19.202  56.678  0.00  0.00    -0.361 N 
HETATM    5  C   UNK     0     -19.532 -18.361  57.561  0.00  0.00     0.022 A 
HETATM    6  C   UNK     0     -18.229 -18.780  57.810  0.00  0.00    -0.027 A 
HETATM    7  C   UNK     0     -20.123 -17.198  58.294  0.00  0.00     0.115 C 
HETATM    8  C   UNK     0     -21.519 -17.387  58.860  0.00  0.00     0.021 A 
HETATM    9  N   UNK     0     -22.065 -18.495  59.386  0.00  0.00    -0.361 N 
HETATM   10  C   UNK     0     -23.357 -18.229  59.675  0.00  0.00     0.022 A 
HETATM   11  C   UNK     0     -23.648 -16.911  59.335  0.00  0.00    -0.027 A 
HETATM   12  C   UNK     0     -22.495 -16.375  58.821  0.00  0.00    -0.031 A 
HETATM   13  C   UNK     0     -22.337 -14.956  58.322  0.00  0.00     0.051 C 
HETATM   14  C   UNK     0     -24.378 -19.217  60.231  0.00  0.00     0.115 C 
HETATM   15  C   UNK     0     -24.632 -20.414  59.328  0.00  0.00     0.021 A 
HETATM   16  N   UNK     0     -23.735 -21.316  58.888  0.00  0.00    -0.361 N 
HETATM   17  C   UNK     0     -24.342 -22.169  58.060  0.00  0.00     0.022 A 
HETATM   18  C   UNK     0     -25.701 -21.812  57.964  0.00  0.00    -0.027 A 
HETATM   19  C   UNK     0     -25.870 -20.711  58.763  0.00  0.00    -0.031 A 
HETATM   20  C   UNK     0     -27.205 -20.020  58.977  0.00  0.00     0.051 C 
HETATM   21  C   UNK     0     -23.770 -23.312  57.252  0.00  0.00     0.115 C 
HETATM   22  C   UNK     0     -22.365 -23.155  56.720  0.00  0.00     0.022 A 
HETATM   23  N   UNK     0     -21.793 -22.063  56.195  0.00  0.00    -0.361 N 
HETATM   24  C   UNK     0     -20.488 -22.328  55.986  0.00  0.00     0.021 A 
HETATM   25  C   UNK     0     -20.214 -23.624  56.378  0.00  0.00    -0.031 A 
HETATM   26  C   UNK     0     -18.908 -24.387  56.301  0.00  0.00     0.051 C 
HETATM   27  C   UNK     0     -21.400 -24.174  56.850  0.00  0.00    -0.027 A 
HETATM   28  C   UNK     0     -19.413 -21.374  55.493  0.00  0.00     0.115 C 
HETATM   29  H   UNK     0     -21.133 -19.104  56.248  0.00  0.00     0.165 HD
HETATM   30  H   UNK     0     -21.528 -19.451  59.600  0.00  0.00     0.165 HD
HETATM   31  H   UNK     0     -22.662 -21.382  59.205  0.00  0.00     0.165 HD
HETATM   32  H   UNK     0     -22.316 -21.109  55.925  0.00  0.00     0.165 HD
ENDROOT
BRANCH   6  33
HETATM   33  C   UNK     0     -17.173 -18.185  58.706  0.00  0.00     0.051 C 
BRANCH  33  34
HETATM   34  C   UNK     0     -17.478 -18.474  60.157  0.00  0.00     0.114 C 
BRANCH  34  35
HETATM   35  C   UNK     0     -17.430 -17.177  60.891  0.00  0.00     0.139 C 
HETATM   36  O   UNK     0     -17.716 -17.130  62.123  0.00  0.00    -0.650 OA
BRANCH  35  37
HETATM   37  O   UNK     0     -17.077 -15.981  60.276  0.00  0.00    -0.776 OA
HETATM   38  H   UNK     0     -17.325 -15.777  59.322  0.00  0.00     0.167 HD
ENDBRANCH  35  37
ENDBRANCH  34  35
ENDBRANCH  33  34
ENDBRANCH   6  33
BRANCH  27  39
HETATM   39  C   UNK     0     -21.516 -25.589  57.297  0.00  0.00     0.051 C 
BRANCH  39  40
HETATM   40  C   UNK     0     -22.330 -26.505  56.498  0.00  0.00     0.114 C 
BRANCH  40  41
HETATM   41  C   UNK     0     -23.558 -27.079  56.998  0.00  0.00     0.139 C 
HETATM   42  O   UNK     0     -23.829 -27.173  58.203  0.00  0.00    -0.650 OA
BRANCH  41  43
HETATM   43  O   UNK     0     -24.520 -27.569  56.069  0.00  0.00    -0.776 OA
HETATM   44  H   UNK     0     -25.129 -28.290  56.437  0.00  0.00     0.167 HD
ENDBRANCH  41  43
ENDBRANCH  40  41
ENDBRANCH  39  40
ENDBRANCH  27  39
BRANCH  11  45
HETATM   45  C   UNK     0     -24.948 -16.166  59.481  0.00  0.00     0.051 C 
BRANCH  45  46
HETATM   46  C   UNK     0     -25.928 -16.439  58.399  0.00  0.00     0.114 C 
BRANCH  46  47
HETATM   47  C   UNK     0     -27.220 -15.817  58.806  0.00  0.00     0.139 C 
HETATM   48  O   UNK     0     -28.273 -16.419  58.554  0.00  0.00    -0.650 OA
BRANCH  47  49
HETATM   49  O   UNK     0     -27.245 -14.603  59.445  0.00  0.00    -0.776 OA
HETATM   50  H   UNK     0     -26.533 -13.883  59.274  0.00  0.00     0.167 HD
ENDBRANCH  47  49
ENDBRANCH  46  47
ENDBRANCH  45  46
ENDBRANCH  11  45
BRANCH  18  51
HETATM   51  C   UNK     0     -26.784 -22.494  57.169  0.00  0.00     0.051 C 
BRANCH  51  52
HETATM   52  C   UNK     0     -27.022 -23.839  57.840  0.00  0.00     0.114 C 
BRANCH  52  53
HETATM   53  C   UNK     0     -27.276 -24.908  56.855  0.00  0.00     0.139 C 
HETATM   54  O   UNK     0     -26.869 -26.061  57.070  0.00  0.00    -0.650 OA
BRANCH  53  55
HETATM   55  O   UNK     0     -27.960 -24.618  55.699  0.00  0.00    -0.776 OA
HETATM   56  H   UNK     0     -27.644 -24.027  54.966  0.00  0.00     0.167 HD
ENDBRANCH  53  55
ENDBRANCH  52  53
ENDBRANCH  51  52
ENDBRANCH  18  51
TORSDOF 16
ENDMDL
MODEL 10
REMARK VINA RESULT:      -7.0      4.562      9.720
REMARK  16 active torsions:
REMARK  status: ('A' for Active; 'I' for Inactive)
REMARK    1  A    between atoms: C_6  and  C_7 
REMARK    2  A    between atoms: C_7  and  C_8 
REMARK    3  A    between atoms: C_8  and  C_9 
REMARK    4  A    between atoms: C_9  and  O_11 
REMARK    5  A    between atoms: C_16  and  C_17 
REMARK    6  A    between atoms: C_17  and  C_18 
REMARK    7  A    between atoms: C_18  and  C_19 
REMARK    8  A    between atoms: C_19  and  O_21 
REMARK    9  A    between atoms: C_28  and  C_29 
REMARK   10  A    between atoms: C_29  and  C_30 
REMARK   11  A    between atoms: C_30  and  C_31 
REMARK   12  A    between atoms: C_31  and  O_33 
REMARK   13  A    between atoms: C_42  and  C_43 
REMARK   14  A    between atoms: C_43  and  C_44 
REMARK   15  A    between atoms: C_44  and  C_45 
REMARK   16  A    between atoms: C_45  and  O_47 
ROOT
HETATM    1  C   UNK     0     -22.689 -15.312  59.031  0.00  0.00     0.051 C 
HETATM    2  C   UNK     0     -23.305 -16.633  58.617  0.00  0.00    -0.031 A 
HETATM    3  C   UNK     0     -22.902 -17.521  57.632  0.00  0.00     0.021 A 
HETATM    4  N   UNK     0     -23.772 -18.558  57.591  0.00  0.00    -0.361 N 
HETATM    5  C   UNK     0     -24.715 -18.355  58.534  0.00  0.00     0.022 A 
HETATM    6  C   UNK     0     -24.455 -17.157  59.193  0.00  0.00    -0.027 A 
HETATM    7  C   UNK     0     -25.843 -19.242  58.960  0.00  0.00     0.115 C 
HETATM    8  C   UNK     0     -25.530 -20.722  59.099  0.00  0.00     0.021 A 
HETATM    9  N   UNK     0     -24.398 -21.301  59.528  0.00  0.00    -0.361 N 
HETATM   10  C   UNK     0     -24.535 -22.637  59.397  0.00  0.00     0.022 A 
HETATM   11  C   UNK     0     -25.794 -22.928  58.879  0.00  0.00    -0.027 A 
HETATM   12  C   UNK     0     -26.426 -21.725  58.690  0.00  0.00    -0.031 A 
HETATM   13  C   UNK     0     -27.826 -21.550  58.145  0.00  0.00     0.051 C 
HETATM   14  C   UNK     0     -23.470 -23.687  59.704  0.00  0.00     0.115 C 
HETATM   15  C   UNK     0     -22.209 -23.546  58.867  0.00  0.00     0.021 A 
HETATM   16  N   UNK     0     -21.389 -22.481  58.789  0.00  0.00    -0.361 N 
HETATM   17  C   UNK     0     -20.433 -22.729  57.891  0.00  0.00     0.022 A 
HETATM   18  C   UNK     0     -20.634 -24.021  57.365  0.00  0.00    -0.027 A 
HETATM   19  C   UNK     0     -21.748 -24.523  57.986  0.00  0.00    -0.031 A 
HETATM   20  C   UNK     0     -22.299 -25.915  57.735  0.00  0.00     0.051 C 
HETATM   21  C   UNK     0     -19.320 -21.839  57.385  0.00  0.00     0.115 C 
HETATM   22  C   UNK     0     -19.603 -20.358  57.284  0.00  0.00     0.022 A 
HETATM   23  N   UNK     0     -20.722 -19.754  56.865  0.00  0.00    -0.361 N 
HETATM   24  C   UNK     0     -20.593 -18.429  57.077  0.00  0.00     0.021 A 
HETATM   25  C   UNK     0     -19.356 -18.172  57.636  0.00  0.00    -0.031 A 
HETATM   26  C   UNK     0     -18.738 -16.842  58.014  0.00  0.00     0.051 C 
HETATM   27  C   UNK     0     -18.704 -19.392  57.778  0.00  0.00    -0.027 A 
HETATM   28  C   UNK     0     -21.632 -17.345  56.849  0.00  0.00     0.115 C 
HETATM   29  H   UNK     0     -23.736 -19.407  56.870  0.00  0.00     0.165 HD
HETATM   30  H   UNK     0     -23.519 -20.771  59.970  0.00  0.00     0.165 HD
HETATM   31  H   UNK     0     -21.458 -21.554  59.415  0.00  0.00     0.165 HD
HETATM   32  H   UNK     0     -21.599 -20.253  56.375  0.00  0.00     0.165 HD
ENDROOT
BRANCH   6  33
HETATM   33  C   UNK     0     -25.207 -16.482  60.311  0.00  0.00     0.051 C 
BRANCH  33  34
HETATM   34  C   UNK     0     -26.340 -15.645  59.765  0.00  0.00     0.114 C 
BRANCH  34  35
HETATM   35  C   UNK     0     -26.537 -14.498  60.698  0.00  0.00     0.139 C 
HETATM   36  O   UNK     0     -26.357 -14.650  61.941  0.00  0.00    -0.650 OA
BRANCH  35  37
HETATM   37  O   UNK     0     -26.918 -13.235  60.262  0.00  0.00    -0.776 OA
HETATM   38  H   UNK     0     -26.821 -12.417  60.843  0.00  0.00     0.167 HD
ENDBRANCH  35  37
ENDBRANCH  34  35
ENDBRANCH  33  34
ENDBRANCH   6  33
BRANCH  27  39
HETATM   39  C   UNK     0     -17.309 -19.511  58.284  0.00  0.00     0.051 C 
BRANCH  39  40
HETATM   40  C   UNK     0     -17.107 -19.715  59.719  0.00  0.00     0.114 C 
BRANCH  40  41
HETATM   41  C   UNK     0     -17.133 -18.621  60.663  0.00  0.00     0.139 C 
HETATM   42  O   UNK     0     -18.024 -18.471  61.511  0.00  0.00    -0.650 OA
BRANCH  41  43
HETATM   43  O   UNK     0     -16.088 -17.655  60.631  0.00  0.00    -0.776 OA
HETATM   44  H   UNK     0     -15.489 -17.712  59.816  0.00  0.00     0.167 HD
ENDBRANCH  41  43
ENDBRANCH  40  41
ENDBRANCH  39  40
ENDBRANCH  27  39
BRANCH  11  45
HETATM   45  C   UNK     0     -26.398 -24.271  58.571  0.00  0.00     0.051 C 
BRANCH  45  46
HETATM   46  C   UNK     0     -25.982 -24.837  57.262  0.00  0.00     0.114 C 
BRANCH  46  47
HETATM   47  C   UNK     0     -27.223 -25.231  56.536  0.00  0.00     0.139 C 
HETATM   48  O   UNK     0     -27.648 -26.387  56.675  0.00  0.00    -0.650 OA
BRANCH  47  49
HETATM   49  O   UNK     0     -27.880 -24.336  55.731  0.00  0.00    -0.776 OA
HETATM   50  H   UNK     0     -28.259 -23.453  56.092  0.00  0.00     0.167 HD
ENDBRANCH  47  49
ENDBRANCH  46  47
ENDBRANCH  45  46
ENDBRANCH  11  45
BRANCH  18  51
HETATM   51  C   UNK     0     -19.797 -24.745  56.343  0.00  0.00     0.051 C 
BRANCH  51  52
HETATM   52  C   UNK     0     -20.395 -24.407  54.985  0.00  0.00     0.114 C 
BRANCH  52  53
HETATM   53  C   UNK     0     -19.364 -23.970  54.024  0.00  0.00     0.139 C 
HETATM   54  O   UNK     0     -18.394 -24.704  53.777  0.00  0.00    -0.650 OA
BRANCH  53  55
HETATM   55  O   UNK     0     -19.482 -22.747  53.410  0.00  0.00    -0.776 OA
HETATM   56  H   UNK     0     -19.473 -22.581  52.432  0.00  0.00     0.167 HD
ENDBRANCH  53  55
ENDBRANCH  52  53
ENDBRANCH  51  52
ENDBRANCH  18  51
TORSDOF 16
ENDMDL
MODEL 11
REMARK VINA RESULT:      -6.9     17.167     22.578
REMARK  16 active torsions:
REMARK  status: ('A' for Active; 'I' for Inactive)
REMARK    1  A    between atoms: C_6  and  C_7 
REMARK    2  A    between atoms: C_7  and  C_8 
REMARK    3  A    between atoms: C_8  and  C_9 
REMARK    4  A    between atoms: C_9  and  O_11 
REMARK    5  A    between atoms: C_16  and  C_17 
REMARK    6  A    between atoms: C_17  and  C_18 
REMARK    7  A    between atoms: C_18  and  C_19 
REMARK    8  A    between atoms: C_19  and  O_21 
REMARK    9  A    between atoms: C_28  and  C_29 
REMARK   10  A    between atoms: C_29  and  C_30 
REMARK   11  A    between atoms: C_30  and  C_31 
REMARK   12  A    between atoms: C_31  and  O_33 
REMARK   13  A    between atoms: C_42  and  C_43 
REMARK   14  A    between atoms: C_43  and  C_44 
REMARK   15  A    between atoms: C_44  and  C_45 
REMARK   16  A    between atoms: C_45  and  O_47 
ROOT
HETATM    1  C   UNK     0      -6.815 -34.652  49.995  0.00  0.00     0.051 C 
HETATM    2  C   UNK     0      -7.503 -33.621  49.124  0.00  0.00    -0.031 A 
HETATM    3  C   UNK     0      -7.130 -33.125  47.885  0.00  0.00     0.021 A 
HETATM    4  N   UNK     0      -8.030 -32.193  47.493  0.00  0.00    -0.361 N 
HETATM    5  C   UNK     0      -8.973 -32.089  48.451  0.00  0.00     0.022 A 
HETATM    6  C   UNK     0      -8.673 -32.966  49.488  0.00  0.00    -0.027 A 
HETATM    7  C   UNK     0     -10.230 -31.275  48.466  0.00  0.00     0.115 C 
HETATM    8  C   UNK     0     -11.039 -31.248  47.182  0.00  0.00     0.021 A 
HETATM    9  N   UNK     0     -11.225 -32.233  46.290  0.00  0.00    -0.361 N 
HETATM   10  C   UNK     0     -11.937 -31.734  45.257  0.00  0.00     0.022 A 
HETATM   11  C   UNK     0     -12.226 -30.394  45.495  0.00  0.00    -0.027 A 
HETATM   12  C   UNK     0     -11.663 -30.081  46.706  0.00  0.00    -0.031 A 
HETATM   13  C   UNK     0     -11.727 -28.727  47.376  0.00  0.00     0.051 C 
HETATM   14  C   UNK     0     -12.327 -32.483  43.986  0.00  0.00     0.115 C 
HETATM   15  C   UNK     0     -11.140 -32.975  43.173  0.00  0.00     0.021 A 
HETATM   16  N   UNK     0     -10.158 -33.805  43.572  0.00  0.00    -0.361 N 
HETATM   17  C   UNK     0      -9.267 -33.935  42.587  0.00  0.00     0.022 A 
HETATM   18  C   UNK     0      -9.693 -33.161  41.490  0.00  0.00    -0.027 A 
HETATM   19  C   UNK     0     -10.868 -32.565  41.869  0.00  0.00    -0.031 A 
HETATM   20  C   UNK     0     -11.689 -31.666  40.963  0.00  0.00     0.051 C 
HETATM   21  C   UNK     0      -7.957 -34.690  42.555  0.00  0.00     0.115 C 
HETATM   22  C   UNK     0      -7.163 -34.763  43.838  0.00  0.00     0.022 A 
HETATM   23  N   UNK     0      -6.964 -33.799  44.747  0.00  0.00    -0.361 N 
HETATM   24  C   UNK     0      -6.320 -34.339  45.802  0.00  0.00     0.021 A 
HETATM   25  C   UNK     0      -6.089 -35.680  45.562  0.00  0.00    -0.031 A 
HETATM   26  C   UNK     0      -5.369 -36.693  46.427  0.00  0.00     0.051 C 
HETATM   27  C   UNK     0      -6.619 -35.975  44.311  0.00  0.00    -0.027 A 
HETATM   28  C   UNK     0      -5.958 -33.664  47.114  0.00  0.00     0.115 C 
HETATM   29  H   UNK     0      -7.971 -31.586  46.560  0.00  0.00     0.165 HD
HETATM   30  H   UNK     0     -10.898 -33.295  46.409  0.00  0.00     0.165 HD
HETATM   31  H   UNK     0     -10.117 -34.348  44.552  0.00  0.00     0.165 HD
HETATM   32  H   UNK     0      -7.238 -32.718  44.634  0.00  0.00     0.165 HD
ENDROOT
BRANCH   6  33
HETATM   33  C   UNK     0      -9.402 -33.225  50.782  0.00  0.00     0.051 C 
BRANCH  33  34
HETATM   34  C   UNK     0      -8.949 -32.261  51.853  0.00  0.00     0.114 C 
BRANCH  34  35
HETATM   35  C   UNK     0      -8.863 -33.024  53.132  0.00  0.00     0.139 C 
HETATM   36  O   UNK     0      -8.415 -34.207  53.139  0.00  0.00    -0.650 OA
BRANCH  35  37
HETATM   37  O   UNK     0      -9.258 -32.488  54.352  0.00  0.00    -0.776 OA
HETATM   38  H   UNK     0     -10.228 -32.364  54.592  0.00  0.00     0.167 HD
ENDBRANCH  35  37
ENDBRANCH  34  35
ENDBRANCH  33  34
ENDBRANCH   6  33
BRANCH  27  39
HETATM   39  C   UNK     0      -6.499 -37.315  43.675  0.00  0.00     0.051 C 
BRANCH  39  40
HETATM   40  C   UNK     0      -5.346 -37.574  42.814  0.00  0.00     0.114 C 
BRANCH  40  41
HETATM   41  C   UNK     0      -4.421 -36.530  42.430  0.00  0.00     0.139 C 
HETATM   42  O   UNK     0      -4.553 -35.843  41.408  0.00  0.00    -0.650 OA
BRANCH  41  43
HETATM   43  O   UNK     0      -3.294 -36.266  43.258  0.00  0.00    -0.776 OA
HETATM   44  H   UNK     0      -2.641 -37.037  43.336  0.00  0.00     0.167 HD
ENDBRANCH  41  43
ENDBRANCH  40  41
ENDBRANCH  39  40
ENDBRANCH  27  39
BRANCH  11  45
HETATM   45  C   UNK     0     -12.999 -29.430  44.636  0.00  0.00     0.051 C 
BRANCH  45  46
HETATM   46  C   UNK     0     -14.473 -29.597  44.712  0.00  0.00     0.114 C 
BRANCH  46  47
HETATM   47  C   UNK     0     -15.030 -29.218  43.382  0.00  0.00     0.139 C 
HETATM   48  O   UNK     0     -14.246 -28.855  42.493  0.00  0.00    -0.650 OA
BRANCH  47  49
HETATM   49  O   UNK     0     -16.380 -29.269  43.145  0.00  0.00    -0.776 OA
HETATM   50  H   UNK     0     -17.034 -28.603  43.574  0.00  0.00     0.167 HD
ENDBRANCH  47  49
ENDBRANCH  46  47
ENDBRANCH  45  46
ENDBRANCH  11  45
BRANCH  18  51
HETATM   51  C   UNK     0      -9.028 -33.013  40.146  0.00  0.00     0.051 C 
BRANCH  51  52
HETATM   52  C   UNK     0      -8.122 -31.795  40.251  0.00  0.00     0.114 C 
BRANCH  52  53
HETATM   53  C   UNK     0      -8.534 -30.722  39.326  0.00  0.00     0.139 C 
HETATM   54  O   UNK     0      -9.214 -30.993  38.324  0.00  0.00    -0.650 OA
BRANCH  53  55
HETATM   55  O   UNK     0      -8.158 -29.425  39.579  0.00  0.00    -0.776 OA
HETATM   56  H   UNK     0      -8.398 -28.893  40.382  0.00  0.00     0.167 HD
ENDBRANCH  53  55
ENDBRANCH  52  53
ENDBRANCH  51  52
ENDBRANCH  18  51
TORSDOF 16
ENDMDL
MODEL 12
REMARK VINA RESULT:      -6.9     30.004     33.259
REMARK  16 active torsions:
REMARK  status: ('A' for Active; 'I' for Inactive)
REMARK    1  A    between atoms: C_6  and  C_7 
REMARK    2  A    between atoms: C_7  and  C_8 
REMARK    3  A    between atoms: C_8  and  C_9 
REMARK    4  A    between atoms: C_9  and  O_11 
REMARK    5  A    between atoms: C_16  and  C_17 
REMARK    6  A    between atoms: C_17  and  C_18 
REMARK    7  A    between atoms: C_18  and  C_19 
REMARK    8  A    between atoms: C_19  and  O_21 
REMARK    9  A    between atoms: C_28  and  C_29 
REMARK   10  A    between atoms: C_29  and  C_30 
REMARK   11  A    between atoms: C_30  and  C_31 
REMARK   12  A    between atoms: C_31  and  O_33 
REMARK   13  A    between atoms: C_42  and  C_43 
REMARK   14  A    between atoms: C_43  and  C_44 
REMARK   15  A    between atoms: C_44  and  C_45 
REMARK   16  A    between atoms: C_45  and  O_47 
ROOT
HETATM    1  C   UNK     0      10.281  -2.225  53.540  0.00  0.00     0.051 C 
HETATM    2  C   UNK     0      10.837  -3.126  52.456  0.00  0.00    -0.031 A 
HETATM    3  C   UNK     0      10.988  -4.504  52.448  0.00  0.00     0.021 A 
HETATM    4  N   UNK     0      11.558  -4.879  51.279  0.00  0.00    -0.361 N 
HETATM    5  C   UNK     0      11.767  -3.771  50.538  0.00  0.00     0.022 A 
HETATM    6  C   UNK     0      11.330  -2.656  51.246  0.00  0.00    -0.027 A 
HETATM    7  C   UNK     0      12.283  -3.645  49.138  0.00  0.00     0.115 C 
HETATM    8  C   UNK     0      11.753  -4.644  48.124  0.00  0.00     0.021 A 
HETATM    9  N   UNK     0      10.524  -5.176  48.039  0.00  0.00    -0.361 N 
HETATM   10  C   UNK     0      10.529  -6.085  47.041  0.00  0.00     0.022 A 
HETATM   11  C   UNK     0      11.794  -6.133  46.462  0.00  0.00    -0.027 A 
HETATM   12  C   UNK     0      12.570  -5.227  47.140  0.00  0.00    -0.031 A 
HETATM   13  C   UNK     0      14.025  -4.934  46.851  0.00  0.00     0.051 C 
HETATM   14  C   UNK     0       9.363  -6.979  46.629  0.00  0.00     0.115 C 
HETATM   15  C   UNK     0       8.886  -7.913  47.730  0.00  0.00     0.021 A 
HETATM   16  N   UNK     0       8.429  -7.579  48.951  0.00  0.00    -0.361 N 
HETATM   17  C   UNK     0       8.178  -8.691  49.645  0.00  0.00     0.022 A 
HETATM   18  C   UNK     0       8.476  -9.804  48.834  0.00  0.00    -0.027 A 
HETATM   19  C   UNK     0       8.917  -9.303  47.636  0.00  0.00    -0.031 A 
HETATM   20  C   UNK     0       9.313 -10.169  46.454  0.00  0.00     0.051 C 
HETATM   21  C   UNK     0       7.721  -8.861  51.076  0.00  0.00     0.115 C 
HETATM   22  C   UNK     0       8.206  -7.849  52.088  0.00  0.00     0.022 A 
HETATM   23  N   UNK     0       9.422  -7.299  52.194  0.00  0.00    -0.361 N 
HETATM   24  C   UNK     0       9.373  -6.341  53.142  0.00  0.00     0.021 A 
HETATM   25  C   UNK     0       8.096  -6.280  53.666  0.00  0.00    -0.031 A 
HETATM   26  C   UNK     0       7.561  -5.398  54.775  0.00  0.00     0.051 C 
HETATM   27  C   UNK     0       7.331  -7.236  53.007  0.00  0.00    -0.027 A 
HETATM   28  C   UNK     0      10.477  -5.383  53.555  0.00  0.00     0.115 C 
HETATM   29  H   UNK     0      11.846  -5.919  51.002  0.00  0.00     0.165 HD
HETATM   30  H   UNK     0       9.636  -4.876  48.648  0.00  0.00     0.165 HD
HETATM   31  H   UNK     0       8.235  -6.536  49.315  0.00  0.00     0.165 HD
HETATM   32  H   UNK     0      10.340  -7.611  51.631  0.00  0.00     0.165 HD
ENDROOT
BRANCH   6  33
HETATM   33  C   UNK     0      11.347  -1.198  50.865  0.00  0.00     0.051 C 
BRANCH  33  34
HETATM   34  C   UNK     0      10.178  -0.865  49.968  0.00  0.00     0.114 C 
BRANCH  34  35
HETATM   35  C   UNK     0       9.429   0.255  50.606  0.00  0.00     0.139 C 
HETATM   36  O   UNK     0       8.477   0.817  49.991  0.00  0.00    -0.650 OA
BRANCH  35  37
HETATM   37  O   UNK     0       9.728   0.726  51.879  0.00  0.00    -0.776 OA
HETATM   38  H   UNK     0       9.488   1.659  52.173  0.00  0.00     0.167 HD
ENDBRANCH  35  37
ENDBRANCH  34  35
ENDBRANCH  33  34
ENDBRANCH   6  33
BRANCH  27  39
HETATM   39  C   UNK     0       5.910  -7.516  53.352  0.00  0.00     0.051 C 
BRANCH  39  40
HETATM   40  C   UNK     0       4.864  -6.940  52.507  0.00  0.00     0.114 C 
BRANCH  40  41
HETATM   41  C   UNK     0       4.642  -5.514  52.420  0.00  0.00     0.139 C 
HETATM   42  O   UNK     0       5.294  -4.764  51.682  0.00  0.00    -0.650 OA
BRANCH  41  43
HETATM   43  O   UNK     0       3.621  -4.924  53.219  0.00  0.00    -0.776 OA
HETATM   44  H   UNK     0       3.961  -4.440  54.042  0.00  0.00     0.167 HD
ENDBRANCH  41  43
ENDBRANCH  40  41
ENDBRANCH  39  40
ENDBRANCH  27  39
BRANCH  11  45
HETATM   45  C   UNK     0      12.274  -6.984  45.317  0.00  0.00     0.051 C 
BRANCH  45  46
HETATM   46  C   UNK     0      13.275  -8.011  45.704  0.00  0.00     0.114 C 
BRANCH  46  47
HETATM   47  C   UNK     0      12.563  -9.320  45.767  0.00  0.00     0.139 C 
HETATM   48  O   UNK     0      12.480  -9.897  46.860  0.00  0.00    -0.650 OA
BRANCH  47  49
HETATM   49  O   UNK     0      12.014  -9.876  44.639  0.00  0.00    -0.776 OA
HETATM   50  H   UNK     0      11.225  -9.441  44.146  0.00  0.00     0.167 HD
ENDBRANCH  47  49
ENDBRANCH  46  47
ENDBRANCH  45  46
ENDBRANCH  11  45
BRANCH  18  51
HETATM   51  C   UNK     0       8.328 -11.264  49.174  0.00  0.00     0.051 C 
BRANCH  51  52
HETATM   52  C   UNK     0       9.594 -11.658  49.919  0.00  0.00     0.114 C 
BRANCH  52  53
HETATM   53  C   UNK     0      10.319 -12.746  49.235  0.00  0.00     0.139 C 
HETATM   54  O   UNK     0      10.260 -13.905  49.674  0.00  0.00    -0.650 OA
BRANCH  53  55
HETATM   55  O   UNK     0      11.061 -12.467  48.112  0.00  0.00    -0.776 OA
HETATM   56  H   UNK     0      10.700 -12.243  47.215  0.00  0.00     0.167 HD
ENDBRANCH  53  55
ENDBRANCH  52  53
ENDBRANCH  51  52
ENDBRANCH  18  51
TORSDOF 16
ENDMDL
MODEL 13
REMARK VINA RESULT:      -6.9     30.209     33.967
REMARK  16 active torsions:
REMARK  status: ('A' for Active; 'I' for Inactive)
REMARK    1  A    between atoms: C_6  and  C_7 
REMARK    2  A    between atoms: C_7  and  C_8 
REMARK    3  A    between atoms: C_8  and  C_9 
REMARK    4  A    between atoms: C_9  and  O_11 
REMARK    5  A    between atoms: C_16  and  C_17 
REMARK    6  A    between atoms: C_17  and  C_18 
REMARK    7  A    between atoms: C_18  and  C_19 
REMARK    8  A    between atoms: C_19  and  O_21 
REMARK    9  A    between atoms: C_28  and  C_29 
REMARK   10  A    between atoms: C_29  and  C_30 
REMARK   11  A    between atoms: C_30  and  C_31 
REMARK   12  A    between atoms: C_31  and  O_33 
REMARK   13  A    between atoms: C_42  and  C_43 
REMARK   14  A    between atoms: C_43  and  C_44 
REMARK   15  A    between atoms: C_44  and  C_45 
REMARK   16  A    between atoms: C_45  and  O_47 
ROOT
HETATM    1  C   UNK     0       6.061  -9.476  52.100  0.00  0.00     0.051 C 
HETATM    2  C   UNK     0       7.116  -8.405  52.287  0.00  0.00    -0.031 A 
HETATM    3  C   UNK     0       8.487  -8.476  52.096  0.00  0.00     0.021 A 
HETATM    4  N   UNK     0       9.040  -7.282  52.416  0.00  0.00    -0.361 N 
HETATM    5  C   UNK     0       8.050  -6.449  52.798  0.00  0.00     0.022 A 
HETATM    6  C   UNK     0       6.834  -7.120  52.732  0.00  0.00    -0.027 A 
HETATM    7  C   UNK     0       8.115  -4.998  53.159  0.00  0.00     0.115 C 
HETATM    8  C   UNK     0       8.990  -4.116  52.286  0.00  0.00     0.021 A 
HETATM    9  N   UNK     0       9.202  -4.196  50.963  0.00  0.00    -0.361 N 
HETATM   10  C   UNK     0      10.124  -3.269  50.629  0.00  0.00     0.022 A 
HETATM   11  C   UNK     0      10.509  -2.565  51.766  0.00  0.00    -0.027 A 
HETATM   12  C   UNK     0       9.799  -3.094  52.814  0.00  0.00    -0.031 A 
HETATM   13  C   UNK     0       9.889  -2.634  54.252  0.00  0.00     0.051 C 
HETATM   14  C   UNK     0      10.715  -3.045  49.240  0.00  0.00     0.115 C 
HETATM   15  C   UNK     0      11.455  -4.251  48.684  0.00  0.00     0.021 A 
HETATM   16  N   UNK     0      10.967  -5.487  48.471  0.00  0.00    -0.361 N 
HETATM   17  C   UNK     0      11.952  -6.279  48.041  0.00  0.00     0.022 A 
HETATM   18  C   UNK     0      13.136  -5.519  47.961  0.00  0.00    -0.027 A 
HETATM   19  C   UNK     0      12.811  -4.251  48.365  0.00  0.00    -0.031 A 
HETATM   20  C   UNK     0      13.796  -3.096  48.396  0.00  0.00     0.051 C 
HETATM   21  C   UNK     0      11.944  -7.758  47.730  0.00  0.00     0.115 C 
HETATM   22  C   UNK     0      11.044  -8.641  48.562  0.00  0.00     0.022 A 
HETATM   23  N   UNK     0      10.811  -8.581  49.880  0.00  0.00    -0.361 N 
HETATM   24  C   UNK     0       9.833  -9.461  50.177  0.00  0.00     0.021 A 
HETATM   25  C   UNK     0       9.434 -10.110  49.025  0.00  0.00    -0.031 A 
HETATM   26  C   UNK     0       8.402 -11.205  48.856  0.00  0.00     0.051 C 
HETATM   27  C   UNK     0      10.195  -9.603  47.978  0.00  0.00    -0.027 A 
HETATM   28  C   UNK     0       9.165  -9.688  51.522  0.00  0.00     0.115 C 
HETATM   29  H   UNK     0      10.130  -7.049  52.407  0.00  0.00     0.165 HD
HETATM   30  H   UNK     0       8.665  -4.873  50.254  0.00  0.00     0.165 HD
HETATM   31  H   UNK     0       9.895  -5.797  48.580  0.00  0.00     0.165 HD
HETATM   32  H   UNK     0      11.365  -7.948  50.620  0.00  0.00     0.165 HD
ENDROOT
BRANCH   6  33
HETATM   33  C   UNK     0       5.442  -6.639  53.058  0.00  0.00     0.051 C 
BRANCH  33  34
HETATM   34  C   UNK     0       4.835  -5.918  51.878  0.00  0.00     0.114 C 
BRANCH  34  35
HETATM   35  C   UNK     0       3.446  -5.533  52.257  0.00  0.00     0.139 C 
HETATM   36  O   UNK     0       2.478  -5.801  51.487  0.00  0.00    -0.650 OA
BRANCH  35  37
HETATM   37  O   UNK     0       3.147  -4.878  53.446  0.00  0.00    -0.776 OA
HETATM   38  H   UNK     0       2.432  -5.208  54.073  0.00  0.00     0.167 HD
ENDBRANCH  35  37
ENDBRANCH  34  35
ENDBRANCH  33  34
ENDBRANCH   6  33
BRANCH  27  39
HETATM   39  C   UNK     0      10.097 -10.113  46.583  0.00  0.00     0.051 C 
BRANCH  39  40
HETATM   40  C   UNK     0       9.274  -9.371  45.629  0.00  0.00     0.114 C 
BRANCH  40  41
HETATM   41  C   UNK     0       8.118  -9.958  44.989  0.00  0.00     0.139 C 
HETATM   42  O   UNK     0       7.488  -9.407  44.076  0.00  0.00    -0.650 OA
BRANCH  41  43
HETATM   43  O   UNK     0       7.665 -11.238  45.420  0.00  0.00    -0.776 OA
HETATM   44  H   UNK     0       8.209 -12.015  45.066  0.00  0.00     0.167 HD
ENDBRANCH  41  43
ENDBRANCH  40  41
ENDBRANCH  39  40
ENDBRANCH  27  39
BRANCH  11  45
HETATM   45  C   UNK     0      11.500  -1.438  51.886  0.00  0.00     0.051 C 
BRANCH  45  46
HETATM   46  C   UNK     0      10.927  -0.096  51.608  0.00  0.00     0.114 C 
BRANCH  46  47
HETATM   47  C   UNK     0      11.020   0.693  52.870  0.00  0.00     0.139 C 
HETATM   48  O   UNK     0      12.097   1.237  53.151  0.00  0.00    -0.650 OA
BRANCH  47  49
HETATM   49  O   UNK     0       9.938   0.815  53.704  0.00  0.00    -0.776 OA
HETATM   50  H   UNK     0       9.379   1.675  53.751  0.00  0.00     0.167 HD
ENDBRANCH  47  49
ENDBRANCH  46  47
ENDBRANCH  45  46
ENDBRANCH  11  45
BRANCH  18  51
HETATM   51  C   UNK     0      14.498  -5.973  47.504  0.00  0.00     0.051 C 
BRANCH  51  52
HETATM   52  C   UNK     0      15.257  -6.375  48.760  0.00  0.00     0.114 C 
BRANCH  52  53
HETATM   53  C   UNK     0      15.471  -7.834  48.829  0.00  0.00     0.139 C 
HETATM   54  O   UNK     0      14.766  -8.531  49.575  0.00  0.00    -0.650 OA
BRANCH  53  55
HETATM   55  O   UNK     0      16.456  -8.413  48.066  0.00  0.00    -0.776 OA
HETATM   56  H   UNK     0      16.533  -9.378  47.845  0.00  0.00     0.167 HD
ENDBRANCH  53  55
ENDBRANCH  52  53
ENDBRANCH  51  52
ENDBRANCH  18  51
TORSDOF 16
ENDMDL
MODEL 14
REMARK VINA RESULT:      -6.9      1.762      7.144
REMARK  16 active torsions:
REMARK  status: ('A' for Active; 'I' for Inactive)
REMARK    1  A    between atoms: C_6  and  C_7 
REMARK    2  A    between atoms: C_7  and  C_8 
REMARK    3  A    between atoms: C_8  and  C_9 
REMARK    4  A    between atoms: C_9  and  O_11 
REMARK    5  A    between atoms: C_16  and  C_17 
REMARK    6  A    between atoms: C_17  and  C_18 
REMARK    7  A    between atoms: C_18  and  C_19 
REMARK    8  A    between atoms: C_19  and  O_21 
REMARK    9  A    between atoms: C_28  and  C_29 
REMARK   10  A    between atoms: C_29  and  C_30 
REMARK   11  A    between atoms: C_30  and  C_31 
REMARK   12  A    between atoms: C_31  and  O_33 
REMARK   13  A    between atoms: C_42  and  C_43 
REMARK   14  A    between atoms: C_43  and  C_44 
REMARK   15  A    between atoms: C_44  and  C_45 
REMARK   16  A    between atoms: C_45  and  O_47 
ROOT
HETATM    1  C   UNK     0     -19.464 -18.392  56.029  0.00  0.00     0.051 C 
HETATM    2  C   UNK     0     -18.413 -19.040  56.908  0.00  0.00    -0.031 A 
HETATM    3  C   UNK     0     -17.792 -18.548  58.044  0.00  0.00     0.021 A 
HETATM    4  N   UNK     0     -16.894 -19.460  58.486  0.00  0.00    -0.361 N 
HETATM    5  C   UNK     0     -16.936 -20.526  57.661  0.00  0.00     0.022 A 
HETATM    6  C   UNK     0     -17.874 -20.296  56.661  0.00  0.00    -0.027 A 
HETATM    7  C   UNK     0     -16.215 -21.835  57.759  0.00  0.00     0.115 C 
HETATM    8  C   UNK     0     -16.136 -22.468  59.137  0.00  0.00     0.021 A 
HETATM    9  N   UNK     0     -17.054 -22.456  60.116  0.00  0.00    -0.361 N 
HETATM   10  C   UNK     0     -16.520 -23.064  61.197  0.00  0.00     0.022 A 
HETATM   11  C   UNK     0     -15.228 -23.487  60.903  0.00  0.00    -0.027 A 
HETATM   12  C   UNK     0     -14.979 -23.115  59.607  0.00  0.00    -0.031 A 
HETATM   13  C   UNK     0     -13.693 -23.374  58.854  0.00  0.00     0.051 C 
HETATM   14  C   UNK     0     -17.185 -23.222  62.562  0.00  0.00     0.115 C 
HETATM   15  C   UNK     0     -17.524 -21.903  63.238  0.00  0.00     0.021 A 
HETATM   16  N   UNK     0     -18.315 -20.920  62.770  0.00  0.00    -0.361 N 
HETATM   17  C   UNK     0     -18.300 -19.899  63.630  0.00  0.00     0.022 A 
HETATM   18  C   UNK     0     -17.468 -20.237  64.715  0.00  0.00    -0.027 A 
HETATM   19  C   UNK     0     -16.989 -21.496  64.458  0.00  0.00    -0.031 A 
HETATM   20  C   UNK     0     -16.076 -22.260  65.400  0.00  0.00     0.051 C 
HETATM   21  C   UNK     0     -18.958 -18.540  63.537  0.00  0.00     0.115 C 
HETATM   22  C   UNK     0     -19.083 -17.918  62.166  0.00  0.00     0.022 A 
HETATM   23  N   UNK     0     -18.187 -17.918  61.170  0.00  0.00    -0.361 N 
HETATM   24  C   UNK     0     -18.767 -17.377  60.080  0.00  0.00     0.021 A 
HETATM   25  C   UNK     0     -20.064 -17.011  60.384  0.00  0.00    -0.031 A 
HETATM   26  C   UNK     0     -21.094 -16.332  59.505  0.00  0.00     0.051 C 
HETATM   27  C   UNK     0     -20.290 -17.347  61.714  0.00  0.00    -0.027 A 
HETATM   28  C   UNK     0     -18.182 -17.245  58.684  0.00  0.00     0.115 C 
HETATM   29  H   UNK     0     -16.208 -19.327  59.355  0.00  0.00     0.165 HD
HETATM   30  H   UNK     0     -18.097 -22.064  60.032  0.00  0.00     0.165 HD
HETATM   31  H   UNK     0     -18.934 -20.964  61.837  0.00  0.00     0.165 HD
HETATM   32  H   UNK     0     -17.122 -18.260  61.240  0.00  0.00     0.165 HD
ENDROOT
BRANCH   6  33
HETATM   33  C   UNK     0     -18.290 -21.166  55.501  0.00  0.00     0.051 C 
BRANCH  33  34
HETATM   34  C   UNK     0     -19.469 -22.031  55.878  0.00  0.00     0.114 C 
BRANCH  34  35
HETATM   35  C   UNK     0     -19.795 -22.880  54.696  0.00  0.00     0.139 C 
HETATM   36  O   UNK     0     -20.453 -23.951  54.843  0.00  0.00    -0.650 OA
BRANCH  35  37
HETATM   37  O   UNK     0     -19.406 -22.547  53.404  0.00  0.00    -0.776 OA
HETATM   38  H   UNK     0     -19.002 -21.652  53.182  0.00  0.00     0.167 HD
ENDBRANCH  35  37
ENDBRANCH  34  35
ENDBRANCH  33  34
ENDBRANCH   6  33
BRANCH  27  39
HETATM   39  C   UNK     0     -21.560 -17.038  62.424  0.00  0.00     0.051 C 
BRANCH  39  40
HETATM   40  C   UNK     0     -21.676 -15.752  63.112  0.00  0.00     0.114 C 
BRANCH  40  41
HETATM   41  C   UNK     0     -20.787 -15.369  64.185  0.00  0.00     0.139 C 
HETATM   42  O   UNK     0     -20.985 -15.660  65.373  0.00  0.00    -0.650 OA
BRANCH  41  43
HETATM   43  O   UNK     0     -19.618 -14.617  63.879  0.00  0.00    -0.776 OA
HETATM   44  H   UNK     0     -19.779 -13.625  63.752  0.00  0.00     0.167 HD
ENDBRANCH  41  43
ENDBRANCH  40  41
ENDBRANCH  39  40
ENDBRANCH  27  39
BRANCH  11  45
HETATM   45  C   UNK     0     -14.251 -24.215  61.787  0.00  0.00     0.051 C 
BRANCH  45  46
HETATM   46  C   UNK     0     -13.564 -23.345  62.776  0.00  0.00     0.114 C 
BRANCH  46  47
HETATM   47  C   UNK     0     -12.113 -23.347  62.434  0.00  0.00     0.139 C 
HETATM   48  O   UNK     0     -11.733 -24.023  61.468  0.00  0.00    -0.650 OA
BRANCH  47  49
HETATM   49  O   UNK     0     -11.216 -22.618  63.172  0.00  0.00    -0.776 OA
HETATM   50  H   UNK     0     -10.240 -22.495  62.878  0.00  0.00     0.167 HD
ENDBRANCH  47  49
ENDBRANCH  46  47
ENDBRANCH  45  46
ENDBRANCH  11  45
BRANCH  18  51
HETATM   51  C   UNK     0     -17.162 -19.415  65.940  0.00  0.00     0.051 C 
BRANCH  51  52
HETATM   52  C   UNK     0     -18.290 -19.684  66.926  0.00  0.00     0.114 C 
BRANCH  52  53
HETATM   53  C   UNK     0     -18.732 -18.450  67.605  0.00  0.00     0.139 C 
HETATM   54  O   UNK     0     -18.777 -18.405  68.844  0.00  0.00    -0.650 OA
BRANCH  53  55
HETATM   55  O   UNK     0     -19.097 -17.357  66.857  0.00  0.00    -0.776 OA
HETATM   56  H   UNK     0     -20.003 -16.953  66.817  0.00  0.00     0.167 HD
ENDBRANCH  53  55
ENDBRANCH  52  53
ENDBRANCH  51  52
ENDBRANCH  18  51
TORSDOF 16
ENDMDL
MODEL 15
REMARK VINA RESULT:      -6.9     15.317     21.892
REMARK  16 active torsions:
REMARK  status: ('A' for Active; 'I' for Inactive)
REMARK    1  A    between atoms: C_6  and  C_7 
REMARK    2  A    between atoms: C_7  and  C_8 
REMARK    3  A    between atoms: C_8  and  C_9 
REMARK    4  A    between atoms: C_9  and  O_11 
REMARK    5  A    between atoms: C_16  and  C_17 
REMARK    6  A    between atoms: C_17  and  C_18 
REMARK    7  A    between atoms: C_18  and  C_19 
REMARK    8  A    between atoms: C_19  and  O_21 
REMARK    9  A    between atoms: C_28  and  C_29 
REMARK   10  A    between atoms: C_29  and  C_30 
REMARK   11  A    between atoms: C_30  and  C_31 
REMARK   12  A    between atoms: C_31  and  O_33 
REMARK   13  A    between atoms: C_42  and  C_43 
REMARK   14  A    between atoms: C_43  and  C_44 
REMARK   15  A    between atoms: C_44  and  C_45 
REMARK   16  A    between atoms: C_45  and  O_47 
ROOT
HETATM    1  C   UNK     0     -11.960 -30.497  43.911  0.00  0.00     0.051 C 
HETATM    2  C   UNK     0     -11.924 -30.947  45.358  0.00  0.00    -0.031 A 
HETATM    3  C   UNK     0     -11.767 -32.222  45.879  0.00  0.00     0.021 A 
HETATM    4  N   UNK     0     -11.829 -32.157  47.230  0.00  0.00    -0.361 N 
HETATM    5  C   UNK     0     -12.014 -30.868  47.582  0.00  0.00     0.022 A 
HETATM    6  C   UNK     0     -12.082 -30.084  46.435  0.00  0.00    -0.027 A 
HETATM    7  C   UNK     0     -12.057 -30.250  48.944  0.00  0.00     0.115 C 
HETATM    8  C   UNK     0     -11.024 -30.735  49.946  0.00  0.00     0.021 A 
HETATM    9  N   UNK     0      -9.751 -31.098  49.724  0.00  0.00    -0.361 N 
HETATM   10  C   UNK     0      -9.236 -31.548  50.888  0.00  0.00     0.022 A 
HETATM   11  C   UNK     0     -10.200 -31.464  51.888  0.00  0.00    -0.027 A 
HETATM   12  C   UNK     0     -11.329 -30.952  51.301  0.00  0.00    -0.031 A 
HETATM   13  C   UNK     0     -12.636 -30.680  52.011  0.00  0.00     0.051 C 
HETATM   14  C   UNK     0      -7.837 -32.123  51.091  0.00  0.00     0.115 C 
HETATM   15  C   UNK     0      -7.559 -33.372  50.269  0.00  0.00     0.021 A 
HETATM   16  N   UNK     0      -7.610 -33.502  48.931  0.00  0.00    -0.361 N 
HETATM   17  C   UNK     0      -7.369 -34.774  48.604  0.00  0.00     0.022 A 
HETATM   18  C   UNK     0      -7.140 -35.505  49.787  0.00  0.00    -0.027 A 
HETATM   19  C   UNK     0      -7.260 -34.615  50.822  0.00  0.00    -0.031 A 
HETATM   20  C   UNK     0      -7.053 -34.984  52.280  0.00  0.00     0.051 C 
HETATM   21  C   UNK     0      -7.381 -35.449  47.252  0.00  0.00     0.115 C 
HETATM   22  C   UNK     0      -8.375 -34.947  46.230  0.00  0.00     0.022 A 
HETATM   23  N   UNK     0      -9.647 -34.574  46.423  0.00  0.00    -0.361 N 
HETATM   24  C   UNK     0     -10.116 -34.057  45.270  0.00  0.00     0.021 A 
HETATM   25  C   UNK     0      -9.125 -34.107  44.308  0.00  0.00    -0.031 A 
HETATM   26  C   UNK     0      -9.185 -33.685  42.855  0.00  0.00     0.051 C 
HETATM   27  C   UNK     0      -8.001 -34.673  44.899  0.00  0.00    -0.027 A 
HETATM   28  C   UNK     0     -11.471 -33.419  45.020  0.00  0.00     0.115 C 
HETATM   29  H   UNK     0     -11.781 -33.028  47.924  0.00  0.00     0.165 HD
HETATM   30  H   UNK     0      -9.198 -30.992  48.759  0.00  0.00     0.165 HD
HETATM   31  H   UNK     0      -7.772 -32.670  48.197  0.00  0.00     0.165 HD
HETATM   32  H   UNK     0     -10.240 -34.713  47.364  0.00  0.00     0.165 HD
ENDROOT
BRANCH   6  33
HETATM   33  C   UNK     0     -12.283 -28.597  46.286  0.00  0.00     0.051 C 
BRANCH  33  34
HETATM   34  C   UNK     0     -10.956 -27.877  46.264  0.00  0.00     0.114 C 
BRANCH  34  35
HETATM   35  C   UNK     0     -11.102 -26.647  47.094  0.00  0.00     0.139 C 
HETATM   36  O   UNK     0     -10.542 -25.569  46.739  0.00  0.00    -0.650 OA
BRANCH  35  37
HETATM   37  O   UNK     0     -11.843 -26.619  48.269  0.00  0.00    -0.776 OA
HETATM   38  H   UNK     0     -12.847 -26.694  48.270  0.00  0.00     0.167 HD
ENDBRANCH  35  37
ENDBRANCH  34  35
ENDBRANCH  33  34
ENDBRANCH   6  33
BRANCH  27  39
HETATM   39  C   UNK     0      -6.747 -34.957  44.150  0.00  0.00     0.051 C 
BRANCH  39  40
HETATM   40  C   UNK     0      -6.505 -36.326  43.694  0.00  0.00     0.114 C 
BRANCH  40  41
HETATM   41  C   UNK     0      -5.366 -37.096  44.139  0.00  0.00     0.139 C 
HETATM   42  O   UNK     0      -4.230 -36.975  43.661  0.00  0.00    -0.650 OA
BRANCH  41  43
HETATM   43  O   UNK     0      -5.542 -38.050  45.181  0.00  0.00    -0.776 OA
HETATM   44  H   UNK     0      -6.459 -38.480  45.205  0.00  0.00     0.167 HD
ENDBRANCH  41  43
ENDBRANCH  40  41
ENDBRANCH  39  40
ENDBRANCH  27  39
BRANCH  11  45
HETATM   45  C   UNK     0     -10.085 -31.840  53.341  0.00  0.00     0.051 C 
BRANCH  45  46
HETATM   46  C   UNK     0     -10.286 -33.287  53.610  0.00  0.00     0.114 C 
BRANCH  46  47
HETATM   47  C   UNK     0     -10.748 -33.413  55.022  0.00  0.00     0.139 C 
HETATM   48  O   UNK     0     -11.844 -33.949  55.241  0.00  0.00    -0.650 OA
BRANCH  47  49
HETATM   49  O   UNK     0      -9.980 -32.945  56.058  0.00  0.00    -0.776 OA
HETATM   50  H   UNK     0      -9.313 -32.173  55.937  0.00  0.00     0.167 HD
ENDBRANCH  47  49
ENDBRANCH  46  47
ENDBRANCH  45  46
ENDBRANCH  11  45
BRANCH  18  51
HETATM   51  C   UNK     0      -6.804 -36.968  49.921  0.00  0.00     0.051 C 
BRANCH  51  52
HETATM   52  C   UNK     0      -5.289 -37.048  50.038  0.00  0.00     0.114 C 
BRANCH  52  53
HETATM   53  C   UNK     0      -4.681 -37.710  48.868  0.00  0.00     0.139 C 
HETATM   54  O   UNK     0      -4.181 -38.840  48.983  0.00  0.00    -0.650 OA
BRANCH  53  55
HETATM   55  O   UNK     0      -4.669 -37.067  47.654  0.00  0.00    -0.776 OA
HETATM   56  H   UNK     0      -4.344 -37.445  46.796  0.00  0.00     0.167 HD
ENDBRANCH  53  55
ENDBRANCH  52  53
ENDBRANCH  51  52
ENDBRANCH  18  51
TORSDOF 16
ENDMDL
MODEL 16
REMARK VINA RESULT:      -6.9      4.707      9.750
REMARK  16 active torsions:
REMARK  status: ('A' for Active; 'I' for Inactive)
REMARK    1  A    between atoms: C_6  and  C_7 
REMARK    2  A    between atoms: C_7  and  C_8 
REMARK    3  A    between atoms: C_8  and  C_9 
REMARK    4  A    between atoms: C_9  and  O_11 
REMARK    5  A    between atoms: C_16  and  C_17 
REMARK    6  A    between atoms: C_17  and  C_18 
REMARK    7  A    between atoms: C_18  and  C_19 
REMARK    8  A    between atoms: C_19  and  O_21 
REMARK    9  A    between atoms: C_28  and  C_29 
REMARK   10  A    between atoms: C_29  and  C_30 
REMARK   11  A    between atoms: C_30  and  C_31 
REMARK   12  A    between atoms: C_31  and  O_33 
REMARK   13  A    between atoms: C_42  and  C_43 
REMARK   14  A    between atoms: C_43  and  C_44 
REMARK   15  A    between atoms: C_44  and  C_45 
REMARK   16  A    between atoms: C_45  and  O_47 
ROOT
HETATM    1  C   UNK     0     -23.374 -25.949  56.834  0.00  0.00     0.051 C 
HETATM    2  C   UNK     0     -23.633 -24.666  57.597  0.00  0.00    -0.031 A 
HETATM    3  C   UNK     0     -22.747 -23.869  58.306  0.00  0.00     0.021 A 
HETATM    4  N   UNK     0     -23.426 -22.834  58.855  0.00  0.00    -0.361 N 
HETATM    5  C   UNK     0     -24.724 -22.949  58.504  0.00  0.00     0.022 A 
HETATM    6  C   UNK     0     -24.889 -24.085  57.720  0.00  0.00    -0.027 A 
HETATM    7  C   UNK     0     -25.867 -22.020  58.771  0.00  0.00     0.115 C 
HETATM    8  C   UNK     0     -25.594 -20.536  58.601  0.00  0.00     0.021 A 
HETATM    9  N   UNK     0     -24.803 -19.929  57.704  0.00  0.00    -0.361 N 
HETATM   10  C   UNK     0     -24.789 -18.608  57.982  0.00  0.00     0.022 A 
HETATM   11  C   UNK     0     -25.602 -18.357  59.084  0.00  0.00    -0.027 A 
HETATM   12  C   UNK     0     -26.112 -19.567  59.479  0.00  0.00    -0.031 A 
HETATM   13  C   UNK     0     -27.057 -19.780  60.640  0.00  0.00     0.051 C 
HETATM   14  C   UNK     0     -23.972 -17.543  57.258  0.00  0.00     0.115 C 
HETATM   15  C   UNK     0     -22.469 -17.763  57.331  0.00  0.00     0.021 A 
HETATM   16  N   UNK     0     -21.775 -18.836  56.908  0.00  0.00    -0.361 N 
HETATM   17  C   UNK     0     -20.487 -18.674  57.217  0.00  0.00     0.022 A 
HETATM   18  C   UNK     0     -20.332 -17.432  57.864  0.00  0.00    -0.027 A 
HETATM   19  C   UNK     0     -21.581 -16.871  57.928  0.00  0.00    -0.031 A 
HETATM   20  C   UNK     0     -21.862 -15.503  58.523  0.00  0.00     0.051 C 
HETATM   21  C   UNK     0     -19.316 -19.612  57.025  0.00  0.00     0.115 C 
HETATM   22  C   UNK     0     -19.583 -21.094  57.148  0.00  0.00     0.022 A 
HETATM   23  N   UNK     0     -20.369 -21.726  58.029  0.00  0.00    -0.361 N 
HETATM   24  C   UNK     0     -20.429 -23.028  57.685  0.00  0.00     0.021 A 
HETATM   25  C   UNK     0     -19.655 -23.242  56.561  0.00  0.00    -0.031 A 
HETATM   26  C   UNK     0     -19.376 -24.538  55.827  0.00  0.00     0.051 C 
HETATM   27  C   UNK     0     -19.102 -22.019  56.199  0.00  0.00    -0.027 A 
HETATM   28  C   UNK     0     -21.266 -24.122  58.327  0.00  0.00     0.115 C 
HETATM   29  H   UNK     0     -22.991 -22.052  59.519  0.00  0.00     0.165 HD
HETATM   30  H   UNK     0     -24.291 -20.423  56.841  0.00  0.00     0.165 HD
HETATM   31  H   UNK     0     -22.195 -19.705  56.336  0.00  0.00     0.165 HD
HETATM   32  H   UNK     0     -20.855 -21.266  58.928  0.00  0.00     0.165 HD
ENDROOT
BRANCH   6  33
HETATM   33  C   UNK     0     -26.134 -24.656  57.088  0.00  0.00     0.051 C 
BRANCH  33  34
HETATM   34  C   UNK     0     -26.820 -25.617  58.030  0.00  0.00     0.114 C 
BRANCH  34  35
HETATM   35  C   UNK     0     -28.245 -25.193  58.139  0.00  0.00     0.139 C 
HETATM   36  O   UNK     0     -29.102 -25.968  58.655  0.00  0.00    -0.650 OA
BRANCH  35  37
HETATM   37  O   UNK     0     -28.696 -23.956  57.695  0.00  0.00    -0.776 OA
HETATM   38  H   UNK     0     -28.116 -23.342  57.146  0.00  0.00     0.167 HD
ENDBRANCH  35  37
ENDBRANCH  34  35
ENDBRANCH  33  34
ENDBRANCH   6  33
BRANCH  27  39
HETATM   39  C   UNK     0     -18.146 -21.864  55.069  0.00  0.00     0.051 C 
BRANCH  39  40
HETATM   40  C   UNK     0     -16.730 -21.673  55.379  0.00  0.00     0.114 C 
BRANCH  40  41
HETATM   41  C   UNK     0     -16.008 -22.563  56.260  0.00  0.00     0.139 C 
HETATM   42  O   UNK     0     -16.022 -23.796  56.149  0.00  0.00    -0.650 OA
BRANCH  41  43
HETATM   43  O   UNK     0     -15.233 -22.009  57.318  0.00  0.00    -0.776 OA
HETATM   44  H   UNK     0     -15.757 -21.809  58.162  0.00  0.00     0.167 HD
ENDBRANCH  41  43
ENDBRANCH  40  41
ENDBRANCH  39  40
ENDBRANCH  27  39
BRANCH  11  45
HETATM   45  C   UNK     0     -25.902 -17.042  59.752  0.00  0.00     0.051 C 
BRANCH  45  46
HETATM   46  C   UNK     0     -24.789 -16.515  60.581  0.00  0.00     0.114 C 
BRANCH  46  47
HETATM   47  C   UNK     0     -24.986 -15.042  60.702  0.00  0.00     0.139 C 
HETATM   48  O   UNK     0     -26.129 -14.584  60.562  0.00  0.00    -0.650 OA
BRANCH  47  49
HETATM   49  O   UNK     0     -23.927 -14.210  60.960  0.00  0.00    -0.776 OA
HETATM   50  H   UNK     0     -22.993 -14.377  60.566  0.00  0.00     0.167 HD
ENDBRANCH  47  49
ENDBRANCH  46  47
ENDBRANCH  45  46
ENDBRANCH  11  45
BRANCH  18  51
HETATM   51  C   UNK     0     -19.061 -16.805  58.374  0.00  0.00     0.051 C 
BRANCH  51  52
HETATM   52  C   UNK     0     -18.929 -17.232  59.828  0.00  0.00     0.114 C 
BRANCH  52  53
HETATM   53  C   UNK     0     -17.572 -16.983  60.353  0.00  0.00     0.139 C 
HETATM   54  O   UNK     0     -16.808 -17.934  60.577  0.00  0.00    -0.650 OA
BRANCH  53  55
HETATM   55  O   UNK     0     -17.164 -15.693  60.595  0.00  0.00    -0.776 OA
HETATM   56  H   UNK     0     -17.738 -14.884  60.568  0.00  0.00     0.167 HD
ENDBRANCH  53  55
ENDBRANCH  52  53
ENDBRANCH  51  52
ENDBRANCH  18  51
TORSDOF 16
ENDMDL
MODEL 17
REMARK VINA RESULT:      -6.9     14.241     20.938
REMARK  16 active torsions:
REMARK  status: ('A' for Active; 'I' for Inactive)
REMARK    1  A    between atoms: C_6  and  C_7 
REMARK    2  A    between atoms: C_7  and  C_8 
REMARK    3  A    between atoms: C_8  and  C_9 
REMARK    4  A    between atoms: C_9  and  O_11 
REMARK    5  A    between atoms: C_16  and  C_17 
REMARK    6  A    between atoms: C_17  and  C_18 
REMARK    7  A    between atoms: C_18  and  C_19 
REMARK    8  A    between atoms: C_19  and  O_21 
REMARK    9  A    between atoms: C_28  and  C_29 
REMARK   10  A    between atoms: C_29  and  C_30 
REMARK   11  A    between atoms: C_30  and  C_31 
REMARK   12  A    between atoms: C_31  and  O_33 
REMARK   13  A    between atoms: C_42  and  C_43 
REMARK   14  A    between atoms: C_43  and  C_44 
REMARK   15  A    between atoms: C_44  and  C_45 
REMARK   16  A    between atoms: C_45  and  O_47 
ROOT
HETATM    1  C   UNK     0     -11.573 -31.436  43.313  0.00  0.00     0.051 C 
HETATM    2  C   UNK     0     -11.876 -31.526  44.795  0.00  0.00    -0.031 A 
HETATM    3  C   UNK     0     -11.674 -32.580  45.672  0.00  0.00     0.021 A 
HETATM    4  N   UNK     0     -12.123 -32.226  46.899  0.00  0.00    -0.361 N 
HETATM    5  C   UNK     0     -12.599 -30.966  46.826  0.00  0.00     0.022 A 
HETATM    6  C   UNK     0     -12.462 -30.498  45.523  0.00  0.00    -0.027 A 
HETATM    7  C   UNK     0     -13.119 -30.080  47.915  0.00  0.00     0.115 C 
HETATM    8  C   UNK     0     -12.347 -30.081  49.222  0.00  0.00     0.021 A 
HETATM    9  N   UNK     0     -11.023 -30.191  49.411  0.00  0.00    -0.361 N 
HETATM   10  C   UNK     0     -10.791 -30.238  50.740  0.00  0.00     0.022 A 
HETATM   11  C   UNK     0     -11.999 -30.146  51.426  0.00  0.00    -0.027 A 
HETATM   12  C   UNK     0     -12.983 -30.047  50.476  0.00  0.00    -0.031 A 
HETATM   13  C   UNK     0     -14.463 -29.920  50.760  0.00  0.00     0.051 C 
HETATM   14  C   UNK     0      -9.434 -30.424  51.413  0.00  0.00     0.115 C 
HETATM   15  C   UNK     0      -8.745 -31.732  51.058  0.00  0.00     0.021 A 
HETATM   16  N   UNK     0      -8.397 -32.171  49.834  0.00  0.00    -0.361 N 
HETATM   17  C   UNK     0      -7.878 -33.396  49.939  0.00  0.00     0.022 A 
HETATM   18  C   UNK     0      -7.880 -33.770  51.298  0.00  0.00    -0.027 A 
HETATM   19  C   UNK     0      -8.424 -32.718  51.988  0.00  0.00    -0.031 A 
HETATM   20  C   UNK     0      -8.580 -32.690  53.498  0.00  0.00     0.051 C 
HETATM   21  C   UNK     0      -7.405 -34.347  48.863  0.00  0.00     0.115 C 
HETATM   22  C   UNK     0      -8.136 -34.325  47.541  0.00  0.00     0.022 A 
HETATM   23  N   UNK     0      -9.453 -34.212  47.323  0.00  0.00    -0.361 N 
HETATM   24  C   UNK     0      -9.653 -34.089  45.996  0.00  0.00     0.021 A 
HETATM   25  C   UNK     0      -8.437 -34.134  45.342  0.00  0.00    -0.031 A 
HETATM   26  C   UNK     0      -8.151 -34.077  43.856  0.00  0.00     0.051 C 
HETATM   27  C   UNK     0      -7.451 -34.284  46.310  0.00  0.00    -0.027 A 
HETATM   28  C   UNK     0     -10.967 -33.844  45.273  0.00  0.00     0.115 C 
HETATM   29  H   UNK     0     -12.137 -32.883  47.799  0.00  0.00     0.165 HD
HETATM   30  H   UNK     0     -10.244 -30.186  48.609  0.00  0.00     0.165 HD
HETATM   31  H   UNK     0      -8.474 -31.586  48.881  0.00  0.00     0.165 HD
HETATM   32  H   UNK     0     -10.258 -34.262  48.102  0.00  0.00     0.165 HD
ENDROOT
BRANCH   6  33
HETATM   33  C   UNK     0     -12.844 -29.168  44.925  0.00  0.00     0.051 C 
BRANCH  33  34
HETATM   34  C   UNK     0     -14.267 -29.196  44.421  0.00  0.00     0.114 C 
BRANCH  34  35
HETATM   35  C   UNK     0     -14.238 -28.824  42.978  0.00  0.00     0.139 C 
HETATM   36  O   UNK     0     -15.171 -29.192  42.206  0.00  0.00    -0.650 OA
BRANCH  35  37
HETATM   37  O   UNK     0     -13.212 -28.072  42.418  0.00  0.00    -0.776 OA
HETATM   38  H   UNK     0     -13.299 -27.081  42.263  0.00  0.00     0.167 HD
ENDBRANCH  35  37
ENDBRANCH  34  35
ENDBRANCH  33  34
ENDBRANCH   6  33
BRANCH  27  39
HETATM   39  C   UNK     0      -6.008 -34.443  45.980  0.00  0.00     0.051 C 
BRANCH  39  40
HETATM   40  C   UNK     0      -5.499 -35.790  45.724  0.00  0.00     0.114 C 
BRANCH  40  41
HETATM   41  C   UNK     0      -5.532 -36.831  46.727  0.00  0.00     0.139 C 
HETATM   42  O   UNK     0      -6.169 -37.885  46.598  0.00  0.00    -0.650 OA
BRANCH  41  43
HETATM   43  O   UNK     0      -4.798 -36.650  47.934  0.00  0.00    -0.776 OA
HETATM   44  H   UNK     0      -4.602 -37.507  48.437  0.00  0.00     0.167 HD
ENDBRANCH  41  43
ENDBRANCH  40  41
ENDBRANCH  39  40
ENDBRANCH  27  39
BRANCH  11  45
HETATM   45  C   UNK     0     -12.240 -30.147  52.912  0.00  0.00     0.051 C 
BRANCH  45  46
HETATM   46  C   UNK     0     -12.361 -31.503  53.506  0.00  0.00     0.114 C 
BRANCH  46  47
HETATM   47  C   UNK     0     -12.089 -31.371  54.966  0.00  0.00     0.139 C 
HETATM   48  O   UNK     0     -11.967 -30.235  55.446  0.00  0.00    -0.650 OA
BRANCH  47  49
HETATM   49  O   UNK     0     -11.976 -32.482  55.763  0.00  0.00    -0.776 OA
HETATM   50  H   UNK     0     -12.364 -32.514  56.713  0.00  0.00     0.167 HD
ENDBRANCH  47  49
ENDBRANCH  46  47
ENDBRANCH  45  46
ENDBRANCH  11  45
BRANCH  18  51
HETATM   51  C   UNK     0      -7.372 -35.051  51.907  0.00  0.00     0.051 C 
BRANCH  51  52
HETATM   52  C   UNK     0      -8.558 -36.002  51.950  0.00  0.00     0.114 C 
BRANCH  52  53
HETATM   53  C   UNK     0      -8.281 -37.188  52.785  0.00  0.00     0.139 C 
HETATM   54  O   UNK     0      -7.431 -38.017  52.425  0.00  0.00    -0.650 OA
BRANCH  53  55
HETATM   55  O   UNK     0      -8.971 -37.368  53.959  0.00  0.00    -0.776 OA
HETATM   56  H   UNK     0      -9.617 -36.730  54.361  0.00  0.00     0.167 HD
ENDBRANCH  53  55
ENDBRANCH  52  53
ENDBRANCH  51  52
ENDBRANCH  18  51
TORSDOF 16
ENDMDL
MODEL 18
REMARK VINA RESULT:      -6.9      4.149      7.792
REMARK  16 active torsions:
REMARK  status: ('A' for Active; 'I' for Inactive)
REMARK    1  A    between atoms: C_6  and  C_7 
REMARK    2  A    between atoms: C_7  and  C_8 
REMARK    3  A    between atoms: C_8  and  C_9 
REMARK    4  A    between atoms: C_9  and  O_11 
REMARK    5  A    between atoms: C_16  and  C_17 
REMARK    6  A    between atoms: C_17  and  C_18 
REMARK    7  A    between atoms: C_18  and  C_19 
REMARK    8  A    between atoms: C_19  and  O_21 
REMARK    9  A    between atoms: C_28  and  C_29 
REMARK   10  A    between atoms: C_29  and  C_30 
REMARK   11  A    between atoms: C_30  and  C_31 
REMARK   12  A    between atoms: C_31  and  O_33 
REMARK   13  A    between atoms: C_42  and  C_43 
REMARK   14  A    between atoms: C_43  and  C_44 
REMARK   15  A    between atoms: C_44  and  C_45 
REMARK   16  A    between atoms: C_45  and  O_47 
ROOT
HETATM    1  C   UNK     0     -27.261 -20.029  59.307  0.00  0.00     0.051 C 
HETATM    2  C   UNK     0     -26.023 -20.485  58.562  0.00  0.00    -0.031 A 
HETATM    3  C   UNK     0     -25.057 -19.730  57.917  0.00  0.00     0.021 A 
HETATM    4  N   UNK     0     -24.146 -20.562  57.359  0.00  0.00    -0.361 N 
HETATM    5  C   UNK     0     -24.507 -21.831  57.642  0.00  0.00     0.022 A 
HETATM    6  C   UNK     0     -25.678 -21.819  58.391  0.00  0.00    -0.027 A 
HETATM    7  C   UNK     0     -23.794 -23.113  57.340  0.00  0.00     0.115 C 
HETATM    8  C   UNK     0     -22.291 -23.125  57.558  0.00  0.00     0.021 A 
HETATM    9  N   UNK     0     -21.579 -22.499  58.507  0.00  0.00    -0.361 N 
HETATM   10  C   UNK     0     -20.270 -22.716  58.260  0.00  0.00     0.022 A 
HETATM   11  C   UNK     0     -20.136 -23.511  57.126  0.00  0.00    -0.027 A 
HETATM   12  C   UNK     0     -21.406 -23.773  56.678  0.00  0.00    -0.031 A 
HETATM   13  C   UNK     0     -21.750 -24.609  55.467  0.00  0.00     0.051 C 
HETATM   14  C   UNK     0     -19.096 -22.142  59.049  0.00  0.00     0.115 C 
HETATM   15  C   UNK     0     -19.037 -20.623  59.045  0.00  0.00     0.021 A 
HETATM   16  N   UNK     0     -19.978 -19.763  59.478  0.00  0.00    -0.361 N 
HETATM   17  C   UNK     0     -19.574 -18.513  59.237  0.00  0.00     0.022 A 
HETATM   18  C   UNK     0     -18.305 -18.561  58.627  0.00  0.00    -0.027 A 
HETATM   19  C   UNK     0     -17.979 -19.888  58.514  0.00  0.00    -0.031 A 
HETATM   20  C   UNK     0     -16.667 -20.388  57.938  0.00  0.00     0.051 C 
HETATM   21  C   UNK     0     -20.288 -17.200  59.464  0.00  0.00     0.115 C 
HETATM   22  C   UNK     0     -21.789 -17.184  59.295  0.00  0.00     0.022 A 
HETATM   23  N   UNK     0     -22.525 -17.801  58.361  0.00  0.00    -0.361 N 
HETATM   24  C   UNK     0     -23.827 -17.636  58.671  0.00  0.00     0.021 A 
HETATM   25  C   UNK     0     -23.932 -16.886  59.827  0.00  0.00    -0.031 A 
HETATM   26  C   UNK     0     -25.177 -16.407  60.544  0.00  0.00     0.051 C 
HETATM   27  C   UNK     0     -22.640 -16.585  60.245  0.00  0.00    -0.027 A 
HETATM   28  C   UNK     0     -25.034 -18.228  57.964  0.00  0.00     0.115 C 
HETATM   29  H   UNK     0     -23.277 -20.249  56.736  0.00  0.00     0.165 HD
HETATM   30  H   UNK     0     -21.998 -21.945  59.382  0.00  0.00     0.165 HD
HETATM   31  H   UNK     0     -20.926 -20.040  60.007  0.00  0.00     0.165 HD
HETATM   32  H   UNK     0     -22.134 -18.322  57.449  0.00  0.00     0.165 HD
ENDROOT
BRANCH   6  33
HETATM   33  C   UNK     0     -26.486 -22.965  58.947  0.00  0.00     0.051 C 
BRANCH  33  34
HETATM   34  C   UNK     0     -27.691 -23.241  58.079  0.00  0.00     0.114 C 
BRANCH  34  35
HETATM   35  C   UNK     0     -27.269 -24.208  57.025  0.00  0.00     0.139 C 
HETATM   36  O   UNK     0     -26.608 -25.241  57.336  0.00  0.00    -0.650 OA
BRANCH  35  37
HETATM   37  O   UNK     0     -27.575 -24.032  55.681  0.00  0.00    -0.776 OA
HETATM   38  H   UNK     0     -28.349 -23.463  55.379  0.00  0.00     0.167 HD
ENDBRANCH  35  37
ENDBRANCH  34  35
ENDBRANCH  33  34
ENDBRANCH   6  33
BRANCH  27  39
HETATM   39  C   UNK     0     -22.350 -15.725  61.424  0.00  0.00     0.051 C 
BRANCH  39  40
HETATM   40  C   UNK     0     -21.876 -16.366  62.651  0.00  0.00     0.114 C 
BRANCH  40  41
HETATM   41  C   UNK     0     -20.526 -16.865  62.787  0.00  0.00     0.139 C 
HETATM   42  O   UNK     0     -20.254 -18.062  62.955  0.00  0.00    -0.650 OA
BRANCH  41  43
HETATM   43  O   UNK     0     -19.440 -15.946  62.728  0.00  0.00    -0.776 OA
HETATM   44  H   UNK     0     -19.518 -15.253  61.994  0.00  0.00     0.167 HD
ENDBRANCH  41  43
ENDBRANCH  40  41
ENDBRANCH  39  40
ENDBRANCH  27  39
BRANCH  11  45
HETATM   45  C   UNK     0     -18.877 -24.018  56.475  0.00  0.00     0.051 C 
BRANCH  45  46
HETATM   46  C   UNK     0     -18.143 -22.991  55.692  0.00  0.00     0.114 C 
BRANCH  46  47
HETATM   47  C   UNK     0     -16.785 -23.537  55.411  0.00  0.00     0.139 C 
HETATM   48  O   UNK     0     -16.687 -24.542  54.693  0.00  0.00    -0.650 OA
BRANCH  47  49
HETATM   49  O   UNK     0     -15.666 -22.941  55.936  0.00  0.00    -0.776 OA
HETATM   50  H   UNK     0     -15.714 -22.304  56.740  0.00  0.00     0.167 HD
ENDBRANCH  47  49
ENDBRANCH  46  47
ENDBRANCH  45  46
ENDBRANCH  11  45
BRANCH  18  51
HETATM   51  C   UNK     0     -17.440 -17.405  58.195  0.00  0.00     0.051 C 
BRANCH  51  52
HETATM   52  C   UNK     0     -16.353 -17.269  59.251  0.00  0.00     0.114 C 
BRANCH  52  53
HETATM   53  C   UNK     0     -16.890 -16.771  60.532  0.00  0.00     0.139 C 
HETATM   54  O   UNK     0     -17.145 -17.567  61.450  0.00  0.00    -0.650 OA
BRANCH  53  55
HETATM   55  O   UNK     0     -17.110 -15.426  60.701  0.00  0.00    -0.776 OA
HETATM   56  H   UNK     0     -16.539 -14.802  61.220  0.00  0.00     0.167 HD
ENDBRANCH  53  55
ENDBRANCH  52  53
ENDBRANCH  51  52
ENDBRANCH  18  51
TORSDOF 16
ENDMDL
MODEL 19
REMARK VINA RESULT:      -6.8     15.694     21.101
REMARK  16 active torsions:
REMARK  status: ('A' for Active; 'I' for Inactive)
REMARK    1  A    between atoms: C_6  and  C_7 
REMARK    2  A    between atoms: C_7  and  C_8 
REMARK    3  A    between atoms: C_8  and  C_9 
REMARK    4  A    between atoms: C_9  and  O_11 
REMARK    5  A    between atoms: C_16  and  C_17 
REMARK    6  A    between atoms: C_17  and  C_18 
REMARK    7  A    between atoms: C_18  and  C_19 
REMARK    8  A    between atoms: C_19  and  O_21 
REMARK    9  A    between atoms: C_28  and  C_29 
REMARK   10  A    between atoms: C_29  and  C_30 
REMARK   11  A    between atoms: C_30  and  C_31 
REMARK   12  A    between atoms: C_31  and  O_33 
REMARK   13  A    between atoms: C_42  and  C_43 
REMARK   14  A    between atoms: C_43  and  C_44 
REMARK   15  A    between atoms: C_44  and  C_45 
REMARK   16  A    between atoms: C_45  and  O_47 
ROOT
HETATM    1  C   UNK     0     -12.315 -31.633  52.333  0.00  0.00     0.051 C 
HETATM    2  C   UNK     0     -11.366 -32.708  51.844  0.00  0.00    -0.031 A 
HETATM    3  C   UNK     0     -11.458 -33.518  50.722  0.00  0.00     0.021 A 
HETATM    4  N   UNK     0     -10.397 -34.359  50.698  0.00  0.00    -0.361 N 
HETATM    5  C   UNK     0      -9.627 -34.097  51.775  0.00  0.00     0.022 A 
HETATM    6  C   UNK     0     -10.206 -33.071  52.515  0.00  0.00    -0.027 A 
HETATM    7  C   UNK     0      -8.302 -34.677  52.162  0.00  0.00     0.115 C 
HETATM    8  C   UNK     0      -7.286 -34.859  51.048  0.00  0.00     0.021 A 
HETATM    9  N   UNK     0      -7.071 -34.079  49.977  0.00  0.00    -0.361 N 
HETATM   10  C   UNK     0      -6.136 -34.674  49.206  0.00  0.00     0.022 A 
HETATM   11  C   UNK     0      -5.732 -35.865  49.801  0.00  0.00    -0.027 A 
HETATM   12  C   UNK     0      -6.452 -35.988  50.962  0.00  0.00    -0.031 A 
HETATM   13  C   UNK     0      -6.341 -37.133  51.944  0.00  0.00     0.051 C 
HETATM   14  C   UNK     0      -5.627 -34.173  47.858  0.00  0.00     0.115 C 
HETATM   15  C   UNK     0      -6.707 -34.068  46.793  0.00  0.00     0.021 A 
HETATM   16  N   UNK     0      -7.837 -33.337  46.838  0.00  0.00    -0.361 N 
HETATM   17  C   UNK     0      -8.555 -33.571  45.737  0.00  0.00     0.022 A 
HETATM   18  C   UNK     0      -7.855 -34.491  44.932  0.00  0.00    -0.027 A 
HETATM   19  C   UNK     0      -6.699 -34.793  45.603  0.00  0.00    -0.031 A 
HETATM   20  C   UNK     0      -5.631 -35.729  45.067  0.00  0.00     0.051 C 
HETATM   21  C   UNK     0      -9.921 -33.060  45.341  0.00  0.00     0.115 C 
HETATM   22  C   UNK     0     -10.928 -32.832  46.444  0.00  0.00     0.022 A 
HETATM   23  N   UNK     0     -11.161 -33.590  47.524  0.00  0.00    -0.361 N 
HETATM   24  C   UNK     0     -12.038 -32.940  48.315  0.00  0.00     0.021 A 
HETATM   25  C   UNK     0     -12.385 -31.739  47.726  0.00  0.00    -0.031 A 
HETATM   26  C   UNK     0     -13.362 -30.687  48.210  0.00  0.00     0.051 C 
HETATM   27  C   UNK     0     -11.688 -31.648  46.527  0.00  0.00    -0.027 A 
HETATM   28  C   UNK     0     -12.536 -33.356  49.689  0.00  0.00     0.115 C 
HETATM   29  H   UNK     0     -10.220 -35.159  49.942  0.00  0.00     0.165 HD
HETATM   30  H   UNK     0      -7.541 -33.083  49.788  0.00  0.00     0.165 HD
HETATM   31  H   UNK     0      -8.112 -32.604  47.640  0.00  0.00     0.165 HD
HETATM   32  H   UNK     0     -10.742 -34.611  47.716  0.00  0.00     0.165 HD
ENDROOT
BRANCH   6  33
HETATM   33  C   UNK     0      -9.747 -32.421  53.795  0.00  0.00     0.051 C 
BRANCH  33  34
HETATM   34  C   UNK     0      -9.951 -33.348  54.970  0.00  0.00     0.114 C 
BRANCH  34  35
HETATM   35  C   UNK     0     -11.161 -32.879  55.704  0.00  0.00     0.139 C 
HETATM   36  O   UNK     0     -12.315 -33.227  55.319  0.00  0.00    -0.650 OA
BRANCH  35  37
HETATM   37  O   UNK     0     -11.087 -32.058  56.823  0.00  0.00    -0.776 OA
HETATM   38  H   UNK     0     -10.974 -31.060  56.747  0.00  0.00     0.167 HD
ENDBRANCH  35  37
ENDBRANCH  34  35
ENDBRANCH  33  34
ENDBRANCH   6  33
BRANCH  27  39
HETATM   39  C   UNK     0     -11.859 -30.518  45.574  0.00  0.00     0.051 C 
BRANCH  39  40
HETATM   40  C   UNK     0     -11.086 -29.297  45.799  0.00  0.00     0.114 C 
BRANCH  40  41
HETATM   41  C   UNK     0     -11.661 -27.980  45.637  0.00  0.00     0.139 C 
HETATM   42  O   UNK     0     -11.470 -27.048  46.430  0.00  0.00    -0.650 OA
BRANCH  41  43
HETATM   43  O   UNK     0     -12.493 -27.724  44.510  0.00  0.00    -0.776 OA
HETATM   44  H   UNK     0     -12.606 -26.742  44.287  0.00  0.00     0.167 HD
ENDBRANCH  41  43
ENDBRANCH  40  41
ENDBRANCH  39  40
ENDBRANCH  27  39
BRANCH  11  45
HETATM   45  C   UNK     0      -4.711 -36.860  49.318  0.00  0.00     0.051 C 
BRANCH  45  46
HETATM   46  C   UNK     0      -5.221 -37.801  48.289  0.00  0.00     0.114 C 
BRANCH  46  47
HETATM   47  C   UNK     0      -5.073 -39.179  48.837  0.00  0.00     0.139 C 
HETATM   48  O   UNK     0      -5.977 -39.632  49.554  0.00  0.00    -0.650 OA
BRANCH  47  49
HETATM   49  O   UNK     0      -3.960 -39.931  48.558  0.00  0.00    -0.776 OA
HETATM   50  H   UNK     0      -3.083 -39.507  48.235  0.00  0.00     0.167 HD
ENDBRANCH  47  49
ENDBRANCH  46  47
ENDBRANCH  45  46
ENDBRANCH  11  45
BRANCH  18  51
HETATM   51  C   UNK     0      -8.256 -35.036  43.585  0.00  0.00     0.051 C 
BRANCH  51  52
HETATM   52  C   UNK     0      -7.811 -34.006  42.559  0.00  0.00     0.114 C 
BRANCH  52  53
HETATM   53  C   UNK     0      -7.653 -34.599  41.217  0.00  0.00     0.139 C 
HETATM   54  O   UNK     0      -6.605 -35.194  40.920  0.00  0.00    -0.650 OA
BRANCH  53  55
HETATM   55  O   UNK     0      -8.670 -34.487  40.300  0.00  0.00    -0.776 OA
HETATM   56  H   UNK     0      -9.152 -35.239  39.868  0.00  0.00     0.167 HD
ENDBRANCH  53  55
ENDBRANCH  52  53
ENDBRANCH  51  52
ENDBRANCH  18  51
TORSDOF 16
ENDMDL
MODEL 20
REMARK VINA RESULT:      -6.8     16.226     21.831
REMARK  16 active torsions:
REMARK  status: ('A' for Active; 'I' for Inactive)
REMARK    1  A    between atoms: C_6  and  C_7 
REMARK    2  A    between atoms: C_7  and  C_8 
REMARK    3  A    between atoms: C_8  and  C_9 
REMARK    4  A    between atoms: C_9  and  O_11 
REMARK    5  A    between atoms: C_16  and  C_17 
REMARK    6  A    between atoms: C_17  and  C_18 
REMARK    7  A    between atoms: C_18  and  C_19 
REMARK    8  A    between atoms: C_19  and  O_21 
REMARK    9  A    between atoms: C_28  and  C_29 
REMARK   10  A    between atoms: C_29  and  C_30 
REMARK   11  A    between atoms: C_30  and  C_31 
REMARK   12  A    between atoms: C_31  and  O_33 
REMARK   13  A    between atoms: C_42  and  C_43 
REMARK   14  A    between atoms: C_43  and  C_44 
REMARK   15  A    between atoms: C_44  and  C_45 
REMARK   16  A    between atoms: C_45  and  O_47 
ROOT
HETATM    1  C   UNK     0      -6.566 -34.325  52.688  0.00  0.00     0.051 C 
HETATM    2  C   UNK     0      -7.169 -33.375  51.673  0.00  0.00    -0.031 A 
HETATM    3  C   UNK     0      -6.759 -33.093  50.379  0.00  0.00     0.021 A 
HETATM    4  N   UNK     0      -7.580 -32.155  49.851  0.00  0.00    -0.361 N 
HETATM    5  C   UNK     0      -8.509 -31.839  50.776  0.00  0.00     0.022 A 
HETATM    6  C   UNK     0      -8.280 -32.582  51.929  0.00  0.00    -0.027 A 
HETATM    7  C   UNK     0      -9.695 -30.932  50.664  0.00  0.00     0.115 C 
HETATM    8  C   UNK     0     -10.502 -31.021  49.380  0.00  0.00     0.021 A 
HETATM    9  N   UNK     0     -10.770 -32.104  48.635  0.00  0.00    -0.361 N 
HETATM   10  C   UNK     0     -11.441 -31.700  47.535  0.00  0.00     0.022 A 
HETATM   11  C   UNK     0     -11.618 -30.320  47.578  0.00  0.00    -0.027 A 
HETATM   12  C   UNK     0     -11.029 -29.886  48.738  0.00  0.00    -0.031 A 
HETATM   13  C   UNK     0     -10.979 -28.450  49.209  0.00  0.00     0.051 C 
HETATM   14  C   UNK     0     -11.894 -32.588  46.379  0.00  0.00     0.115 C 
HETATM   15  C   UNK     0     -10.754 -33.285  45.656  0.00  0.00     0.021 A 
HETATM   16  N   UNK     0      -9.843 -34.128  46.178  0.00  0.00    -0.361 N 
HETATM   17  C   UNK     0      -8.967 -34.469  45.230  0.00  0.00     0.022 A 
HETATM   18  C   UNK     0      -9.330 -33.826  44.030  0.00  0.00    -0.027 A 
HETATM   19  C   UNK     0     -10.452 -33.089  44.310  0.00  0.00    -0.031 A 
HETATM   20  C   UNK     0     -11.198 -32.263  43.278  0.00  0.00     0.051 C 
HETATM   21  C   UNK     0      -7.724 -35.325  45.318  0.00  0.00     0.115 C 
HETATM   22  C   UNK     0      -6.936 -35.280  46.606  0.00  0.00     0.022 A 
HETATM   23  N   UNK     0      -6.656 -34.217  47.371  0.00  0.00    -0.361 N 
HETATM   24  C   UNK     0      -6.056 -34.652  48.497  0.00  0.00     0.021 A 
HETATM   25  C   UNK     0      -5.938 -36.028  48.452  0.00  0.00    -0.031 A 
HETATM   26  C   UNK     0      -5.301 -36.963  49.459  0.00  0.00     0.051 C 
HETATM   27  C   UNK     0      -6.493 -36.453  47.251  0.00  0.00    -0.027 A 
HETATM   28  C   UNK     0      -5.637 -33.830  49.704  0.00  0.00     0.115 C 
HETATM   29  H   UNK     0      -7.473 -31.693  48.842  0.00  0.00     0.165 HD
HETATM   30  H   UNK     0     -10.532 -33.161  48.907  0.00  0.00     0.165 HD
HETATM   31  H   UNK     0      -9.844 -34.528  47.225  0.00  0.00     0.165 HD
HETATM   32  H   UNK     0      -6.841 -33.144  47.103  0.00  0.00     0.165 HD
ENDROOT
BRANCH   6  33
HETATM   33  C   UNK     0      -9.025 -32.593  53.240  0.00  0.00     0.051 C 
BRANCH  33  34
HETATM   34  C   UNK     0     -10.128 -33.626  53.220  0.00  0.00     0.114 C 
BRANCH  34  35
HETATM   35  C   UNK     0     -10.346 -34.074  54.625  0.00  0.00     0.139 C 
HETATM   36  O   UNK     0     -10.281 -33.242  55.576  0.00  0.00    -0.650 OA
BRANCH  35  37
HETATM   37  O   UNK     0     -10.627 -35.394  54.956  0.00  0.00    -0.776 OA
HETATM   38  H   UNK     0     -10.482 -36.150  54.306  0.00  0.00     0.167 HD
ENDBRANCH  35  37
ENDBRANCH  34  35
ENDBRANCH  33  34
ENDBRANCH   6  33
BRANCH  27  39
HETATM   39  C   UNK     0      -6.485 -37.875  46.812  0.00  0.00     0.051 C 
BRANCH  39  40
HETATM   40  C   UNK     0      -5.387 -38.333  45.962  0.00  0.00     0.114 C 
BRANCH  40  41
HETATM   41  C   UNK     0      -5.588 -38.711  44.581  0.00  0.00     0.139 C 
HETATM   42  O   UNK     0      -5.627 -39.887  44.193  0.00  0.00    -0.650 OA
BRANCH  41  43
HETATM   43  O   UNK     0      -5.750 -37.691  43.601  0.00  0.00    -0.776 OA
HETATM   44  H   UNK     0      -5.205 -37.828  42.759  0.00  0.00     0.167 HD
ENDBRANCH  41  43
ENDBRANCH  40  41
ENDBRANCH  39  40
ENDBRANCH  27  39
BRANCH  11  45
HETATM   45  C   UNK     0     -12.311 -29.428  46.583  0.00  0.00     0.051 C 
BRANCH  45  46
HETATM   46  C   UNK     0     -11.504 -29.130  45.372  0.00  0.00     0.114 C 
BRANCH  46  47
HETATM   47  C   UNK     0     -11.015 -27.727  45.502  0.00  0.00     0.139 C 
HETATM   48  O   UNK     0     -11.690 -26.923  46.160  0.00  0.00    -0.650 OA
BRANCH  47  49
HETATM   49  O   UNK     0      -9.844 -27.334  44.904  0.00  0.00    -0.776 OA
HETATM   50  H   UNK     0      -9.441 -26.402  45.058  0.00  0.00     0.167 HD
ENDBRANCH  47  49
ENDBRANCH  46  47
ENDBRANCH  45  46
ENDBRANCH  11  45
BRANCH  18  51
HETATM   51  C   UNK     0      -8.658 -33.925  42.685  0.00  0.00     0.051 C 
BRANCH  51  52
HETATM   52  C   UNK     0      -9.259 -35.141  41.997  0.00  0.00     0.114 C 
BRANCH  52  53
HETATM   53  C   UNK     0      -8.306 -36.266  41.936  0.00  0.00     0.139 C 
HETATM   54  O   UNK     0      -8.596 -37.356  42.454  0.00  0.00    -0.650 OA
BRANCH  53  55
HETATM   55  O   UNK     0      -7.096 -36.098  41.307  0.00  0.00    -0.776 OA
HETATM   56  H   UNK     0      -6.912 -36.257  40.344  0.00  0.00     0.167 HD
ENDBRANCH  53  55
ENDBRANCH  52  53
ENDBRANCH  51  52
ENDBRANCH  18  51
TORSDOF 16
ENDMDL
