MODEL 1
REMARK VINA RESULT:     -11.2      0.000      0.000
REMARK  28 active torsions:
REMARK  status: ('A' for Active; 'I' for Inactive)
REMARK    1  A    between atoms: C_2  and  O_3 
REMARK    2  A    between atoms: C_2  and  C_4 
REMARK    3  A    between atoms: C_4  and  C_5 
REMARK    4  A    between atoms: C_5  and  C_6 
REMARK    5  A    between atoms: C_7  and  C_8 
REMARK    6  A    between atoms: C_8  and  C_9 
REMARK    7  A    between atoms: C_9  and  O_11 
REMARK    8  A    between atoms: C_28  and  C_29 
REMARK    9  A    between atoms: C_29  and  C_30 
REMARK   10  A    between atoms: C_30  and  O_32 
REMARK   11  A    between atoms: C_33  and  C_34 
REMARK   12  A    between atoms: C_34  and  C_35 
REMARK   13  A    between atoms: C_35  and  C_36 
REMARK   14  A    between atoms: C_36  and  O_38 
REMARK   15  A    between atoms: C_39  and  C_40 
REMARK   16  A    between atoms: C_40  and  C_41 
REMARK   17  A    between atoms: C_41  and  C_42 
REMARK   18  A    between atoms: C_42  and  O_44 
REMARK   19  A    between atoms: C_45  and  C_46 
REMARK   20  A    between atoms: C_46  and  C_47 
REMARK   21  A    between atoms: C_47  and  O_49 
REMARK   22  A    between atoms: C_50  and  C_51 
REMARK   23  A    between atoms: C_51  and  C_52 
REMARK   24  A    between atoms: C_52  and  O_54 
REMARK   25  A    between atoms: C_55  and  C_56 
REMARK   26  A    between atoms: C_56  and  C_57 
REMARK   27  A    between atoms: C_57  and  C_58 
REMARK   28  A    between atoms: C_58  and  O_60 
ROOT
ATOM      1  O   UNK d   0     -13.418 -20.539  -6.221  0.00  0.00    -0.650 OA
ATOM      2  C   UNK d   0     -12.957 -19.474  -6.688  0.00  0.00     0.139 C 
ENDROOT
BRANCH   2   3
ATOM      3  O   UNK d   0     -11.812 -19.511  -7.446  0.00  0.00    -0.776 OA
ATOM      4  H   UNK d   0     -10.936 -19.870  -7.061  0.00  0.00     0.167 HD
ENDBRANCH   2   3
BRANCH   2   5
ATOM      5  C   UNK d   0     -13.648 -18.180  -6.423  0.00  0.00     0.115 C 
BRANCH   5   6
ATOM      6  C   UNK d   0     -13.184 -17.136  -7.402  0.00  0.00     0.052 C 
BRANCH   6   7
ATOM      7  C   UNK d   0     -12.912 -15.803  -6.746  0.00  0.00    -0.020 A 
ATOM      8  C   UNK d   0     -13.649 -14.724  -6.794  0.00  0.00    -0.011 A 
ATOM      9  C   UNK d   0     -12.980 -13.692  -6.020  0.00  0.00     0.067 A 
ATOM     10  C   UNK d   0     -13.243 -12.359  -5.668  0.00  0.00     0.062 C 
ATOM     11  N   UNK d   0     -11.838 -14.229  -5.540  0.00  0.00    -0.248 NA
ATOM     12  C   UNK d   0     -12.609 -11.605  -4.674  0.00  0.00     0.041 A 
ATOM     13  N   UNK d   0     -11.310 -11.495  -4.338  0.00  0.00    -0.355 N 
ATOM     14  C   UNK d   0     -13.396 -10.839  -3.795  0.00  0.00    -0.022 A 
ATOM     15  C   UNK d   0     -11.253 -10.686  -3.263  0.00  0.00     0.042 A 
ATOM     16  H   UNK d   0     -10.448 -11.965  -4.862  0.00  0.00     0.166 HD
ATOM     17  C   UNK d   0     -10.146 -10.240  -2.513  0.00  0.00     0.062 C 
ATOM     18  C   UNK d   0     -12.542 -10.255  -2.893  0.00  0.00    -0.013 A 
ATOM     19  C   UNK d   0      -9.070 -10.955  -2.054  0.00  0.00     0.067 A 
ATOM     20  N   UNK d   0      -8.923 -12.196  -2.527  0.00  0.00    -0.248 NA
ATOM     21  C   UNK d   0      -7.982 -10.721  -1.120  0.00  0.00    -0.011 A 
ATOM     22  C   UNK d   0      -7.818 -12.790  -1.968  0.00  0.00     0.066 A 
ATOM     23  C   UNK d   0      -7.523 -14.074  -2.402  0.00  0.00     0.062 C 
ATOM     24  C   UNK d   0      -7.255 -11.800  -1.071  0.00  0.00    -0.020 A 
ATOM     25  C   UNK d   0      -8.165 -14.810  -3.410  0.00  0.00     0.041 A 
ATOM     26  N   UNK d   0      -9.458 -14.931  -3.735  0.00  0.00    -0.355 N 
ATOM     27  C   UNK d   0      -7.374 -15.575  -4.295  0.00  0.00    -0.022 A 
ATOM     28  C   UNK d   0      -9.518 -15.744  -4.802  0.00  0.00     0.042 A 
ATOM     29  H   UNK d   0     -10.323 -14.467  -3.202  0.00  0.00     0.166 HD
ATOM     30  C   UNK d   0     -10.612 -16.204  -5.552  0.00  0.00     0.062 C 
ATOM     31  C   UNK d   0      -8.221 -16.168  -5.179  0.00  0.00    -0.013 A 
ATOM     32  C   UNK d   0     -11.738 -15.497  -5.941  0.00  0.00     0.066 A 
BRANCH   8  33
ATOM     33  C   UNK d   0     -14.930 -14.559  -7.505  0.00  0.00     0.151 C 
BRANCH  33  34
ATOM     34  C   UNK d   0     -14.777 -14.587  -8.971  0.00  0.00     0.143 C 
ATOM     35  O   UNK d   0     -14.074 -13.749  -9.554  0.00  0.00    -0.650 OA
BRANCH  34  36
ATOM     36  O   UNK d   0     -15.426 -15.557  -9.699  0.00  0.00    -0.776 OA
ATOM     37  H   UNK d   0     -15.095 -16.532  -9.705  0.00  0.00     0.167 HD
ENDBRANCH  34  36
ENDBRANCH  33  34
ENDBRANCH   8  33
BRANCH  31  38
ATOM     38  C   UNK d   0      -7.826 -17.074  -6.323  0.00  0.00     0.151 C 
BRANCH  38  39
ATOM     39  C   UNK d   0      -7.395 -16.342  -7.495  0.00  0.00     0.143 C 
ATOM     40  O   UNK d   0      -8.117 -16.208  -8.498  0.00  0.00    -0.650 OA
BRANCH  39  41
ATOM     41  O   UNK d   0      -6.127 -15.761  -7.513  0.00  0.00    -0.776 OA
ATOM     42  H   UNK d   0      -5.437 -16.180  -8.144  0.00  0.00     0.167 HD
ENDBRANCH  39  41
ENDBRANCH  38  39
ENDBRANCH  31  38
BRANCH  27  43
ATOM     43  C   UNK d   0      -5.877 -15.758  -4.328  0.00  0.00     0.052 C 
BRANCH  43  44
ATOM     44  C   UNK d   0      -5.367 -16.647  -3.241  0.00  0.00     0.115 C 
BRANCH  44  45
ATOM     45  C   UNK d   0      -4.581 -15.785  -2.321  0.00  0.00     0.139 C 
ATOM     46  O   UNK d   0      -3.770 -14.968  -2.823  0.00  0.00    -0.650 OA
BRANCH  45  47
ATOM     47  O   UNK d   0      -4.710 -15.842  -0.950  0.00  0.00    -0.776 OA
ATOM     48  H   UNK d   0      -5.156 -15.091  -0.397  0.00  0.00     0.167 HD
ENDBRANCH  45  47
ENDBRANCH  44  45
ENDBRANCH  43  44
ENDBRANCH  27  43
BRANCH  24  49
ATOM     49  C   UNK d   0      -6.028 -11.985  -0.278  0.00  0.00     0.052 C 
BRANCH  49  50
ATOM     50  C   UNK d   0      -6.359 -12.563   1.074  0.00  0.00     0.115 C 
BRANCH  50  51
ATOM     51  C   UNK d   0      -6.293 -11.661   2.216  0.00  0.00     0.139 C 
ATOM     52  O   UNK d   0      -6.702 -11.983   3.357  0.00  0.00    -0.650 OA
BRANCH  51  53
ATOM     53  O   UNK d   0      -5.762 -10.390   2.058  0.00  0.00    -0.776 OA
ATOM     54  H   UNK d   0      -4.877 -10.188   2.489  0.00  0.00     0.167 HD
ENDBRANCH  51  53
ENDBRANCH  50  51
ENDBRANCH  49  50
ENDBRANCH  24  49
BRANCH  21  55
ATOM     55  C   UNK d   0      -7.780  -9.443  -0.376  0.00  0.00     0.151 C 
BRANCH  55  56
ATOM     56  C   UNK d   0      -6.517  -8.784  -0.746  0.00  0.00     0.143 C 
ATOM     57  O   UNK d   0      -5.572  -8.640   0.054  0.00  0.00    -0.650 OA
BRANCH  56  58
ATOM     58  O   UNK d   0      -6.391  -8.307  -2.049  0.00  0.00    -0.776 OA
ATOM     59  H   UNK d   0      -5.531  -7.759  -2.232  0.00  0.00     0.167 HD
ENDBRANCH  56  58
ENDBRANCH  55  56
ENDBRANCH  21  55
BRANCH  18  60
ATOM     60  C   UNK d   0     -12.965  -9.352  -1.761  0.00  0.00     0.151 C 
BRANCH  60  61
ATOM     61  C   UNK d   0     -13.311 -10.241  -0.642  0.00  0.00     0.143 C 
ATOM     62  O   UNK d   0     -12.822 -11.343  -0.392  0.00  0.00    -0.650 OA
BRANCH  61  63
ATOM     63  O   UNK d   0     -14.317  -9.754   0.226  0.00  0.00    -0.776 OA
ATOM     64  H   UNK d   0     -14.540  -8.775   0.263  0.00  0.00     0.167 HD
ENDBRANCH  61  63
ENDBRANCH  60  61
ENDBRANCH  18  60
BRANCH  14  65
ATOM     65  C   UNK d   0     -14.869 -10.542  -3.803  0.00  0.00     0.052 C 
BRANCH  65  66
ATOM     66  C   UNK d   0     -15.215  -9.337  -4.603  0.00  0.00     0.115 C 
BRANCH  66  67
ATOM     67  C   UNK d   0     -16.390  -8.579  -4.276  0.00  0.00     0.139 C 
ATOM     68  O   UNK d   0     -17.535  -9.033  -4.645  0.00  0.00    -0.650 OA
BRANCH  67  69
ATOM     69  O   UNK d   0     -16.461  -7.369  -3.586  0.00  0.00    -0.776 OA
ATOM     70  H   UNK d   0     -16.081  -6.549  -4.080  0.00  0.00     0.167 HD
ENDBRANCH  67  69
ENDBRANCH  66  67
ENDBRANCH  65  66
ENDBRANCH  14  65
ENDBRANCH   6   7
ENDBRANCH   5   6
ENDBRANCH   2   5
TORSDOF 28
ENDMDL
MODEL 2
REMARK VINA RESULT:     -10.7     27.840     31.904
REMARK  28 active torsions:
REMARK  status: ('A' for Active; 'I' for Inactive)
REMARK    1  A    between atoms: C_2  and  O_3 
REMARK    2  A    between atoms: C_2  and  C_4 
REMARK    3  A    between atoms: C_4  and  C_5 
REMARK    4  A    between atoms: C_5  and  C_6 
REMARK    5  A    between atoms: C_7  and  C_8 
REMARK    6  A    between atoms: C_8  and  C_9 
REMARK    7  A    between atoms: C_9  and  O_11 
REMARK    8  A    between atoms: C_28  and  C_29 
REMARK    9  A    between atoms: C_29  and  C_30 
REMARK   10  A    between atoms: C_30  and  O_32 
REMARK   11  A    between atoms: C_33  and  C_34 
REMARK   12  A    between atoms: C_34  and  C_35 
REMARK   13  A    between atoms: C_35  and  C_36 
REMARK   14  A    between atoms: C_36  and  O_38 
REMARK   15  A    between atoms: C_39  and  C_40 
REMARK   16  A    between atoms: C_40  and  C_41 
REMARK   17  A    between atoms: C_41  and  C_42 
REMARK   18  A    between atoms: C_42  and  O_44 
REMARK   19  A    between atoms: C_45  and  C_46 
REMARK   20  A    between atoms: C_46  and  C_47 
REMARK   21  A    between atoms: C_47  and  O_49 
REMARK   22  A    between atoms: C_50  and  C_51 
REMARK   23  A    between atoms: C_51  and  C_52 
REMARK   24  A    between atoms: C_52  and  O_54 
REMARK   25  A    between atoms: C_55  and  C_56 
REMARK   26  A    between atoms: C_56  and  C_57 
REMARK   27  A    between atoms: C_57  and  C_58 
REMARK   28  A    between atoms: C_58  and  O_60 
ROOT
ATOM      1  O   UNK d   0     -31.015 -18.395  16.351  0.00  0.00    -0.650 OA
ATOM      2  C   UNK d   0     -31.148 -18.939  15.232  0.00  0.00     0.139 C 
ENDROOT
BRANCH   2   3
ATOM      3  O   UNK d   0     -30.481 -18.421  14.148  0.00  0.00    -0.776 OA
ATOM      4  H   UNK d   0     -30.354 -17.412  14.039  0.00  0.00     0.167 HD
ENDBRANCH   2   3
BRANCH   2   5
ATOM      5  C   UNK d   0     -32.024 -20.135  15.081  0.00  0.00     0.115 C 
BRANCH   5   6
ATOM      6  C   UNK d   0     -31.600 -20.938  13.882  0.00  0.00     0.052 C 
BRANCH   6   7
ATOM      7  C   UNK d   0     -32.745 -21.226  12.940  0.00  0.00    -0.020 A 
ATOM      8  C   UNK d   0     -33.114 -22.387  12.462  0.00  0.00    -0.011 A 
ATOM      9  C   UNK d   0     -34.258 -22.168  11.593  0.00  0.00     0.067 A 
ATOM     10  C   UNK d   0     -35.109 -22.970  10.818  0.00  0.00     0.062 C 
ATOM     11  N   UNK d   0     -34.515 -20.843  11.596  0.00  0.00    -0.248 NA
ATOM     12  C   UNK d   0     -36.341 -22.608  10.261  0.00  0.00     0.041 A 
ATOM     13  N   UNK d   0     -36.732 -21.486   9.628  0.00  0.00    -0.355 N 
ATOM     14  C   UNK d   0     -37.429 -23.490  10.387  0.00  0.00    -0.022 A 
ATOM     15  C   UNK d   0     -38.042 -21.630   9.356  0.00  0.00     0.042 A 
ATOM     16  H   UNK d   0     -36.089 -20.618   9.362  0.00  0.00     0.166 HD
ATOM     17  C   UNK d   0     -38.942 -20.759   8.708  0.00  0.00     0.062 C 
ATOM     18  C   UNK d   0     -38.515 -22.873   9.817  0.00  0.00    -0.013 A 
ATOM     19  C   UNK d   0     -39.106 -19.408   8.877  0.00  0.00     0.067 A 
ATOM     20  N   UNK d   0     -38.178 -18.771   9.596  0.00  0.00    -0.248 NA
ATOM     21  C   UNK d   0     -40.088 -18.416   8.471  0.00  0.00    -0.011 A 
ATOM     22  C   UNK d   0     -38.483 -17.435   9.691  0.00  0.00     0.066 A 
ATOM     23  C   UNK d   0     -37.578 -16.644  10.383  0.00  0.00     0.062 C 
ATOM     24  C   UNK d   0     -39.720 -17.265   8.954  0.00  0.00    -0.020 A 
ATOM     25  C   UNK d   0     -36.340 -17.024  10.924  0.00  0.00     0.041 A 
ATOM     26  N   UNK d   0     -35.955 -18.133  11.566  0.00  0.00    -0.355 N 
ATOM     27  C   UNK d   0     -35.247 -16.141  10.793  0.00  0.00    -0.022 A 
ATOM     28  C   UNK d   0     -34.650 -17.989  11.846  0.00  0.00     0.042 A 
ATOM     29  H   UNK d   0     -36.604 -19.000  11.842  0.00  0.00     0.166 HD
ATOM     30  C   UNK d   0     -33.746 -18.843  12.498  0.00  0.00     0.062 C 
ATOM     31  C   UNK d   0     -34.173 -16.743  11.374  0.00  0.00    -0.013 A 
ATOM     32  C   UNK d   0     -33.641 -20.220  12.388  0.00  0.00     0.066 A 
BRANCH   8  33
ATOM     33  C   UNK d   0     -32.491 -23.695  12.737  0.00  0.00     0.151 C 
BRANCH  33  34
ATOM     34  C   UNK d   0     -31.616 -24.152  11.643  0.00  0.00     0.143 C 
ATOM     35  O   UNK d   0     -30.432 -23.790  11.581  0.00  0.00    -0.650 OA
BRANCH  34  36
ATOM     36  O   UNK d   0     -32.123 -24.990  10.677  0.00  0.00    -0.776 OA
ATOM     37  H   UNK d   0     -32.416 -25.950  10.903  0.00  0.00     0.167 HD
ENDBRANCH  34  36
ENDBRANCH  33  34
ENDBRANCH   8  33
BRANCH  31  38
ATOM     38  C   UNK d   0     -32.775 -16.179  11.464  0.00  0.00     0.151 C 
BRANCH  38  39
ATOM     39  C   UNK d   0     -32.557 -15.407  12.669  0.00  0.00     0.143 C 
ATOM     40  O   UNK d   0     -31.556 -14.687  12.826  0.00  0.00    -0.650 OA
BRANCH  39  41
ATOM     41  O   UNK d   0     -33.497 -15.462  13.698  0.00  0.00    -0.776 OA
ATOM     42  H   UNK d   0     -33.314 -16.129  14.454  0.00  0.00     0.167 HD
ENDBRANCH  39  41
ENDBRANCH  38  39
ENDBRANCH  31  38
BRANCH  27  43
ATOM     43  C   UNK d   0     -35.188 -14.776  10.154  0.00  0.00     0.052 C 
BRANCH  43  44
ATOM     44  C   UNK d   0     -36.059 -13.768  10.831  0.00  0.00     0.115 C 
BRANCH  44  45
ATOM     45  C   UNK d   0     -35.154 -12.868  11.592  0.00  0.00     0.139 C 
ATOM     46  O   UNK d   0     -34.761 -13.244  12.725  0.00  0.00    -0.650 OA
BRANCH  45  47
ATOM     47  O   UNK d   0     -34.728 -11.651  11.106  0.00  0.00    -0.776 OA
ATOM     48  H   UNK d   0     -33.762 -11.306  11.227  0.00  0.00     0.167 HD
ENDBRANCH  45  47
ENDBRANCH  44  45
ENDBRANCH  43  44
ENDBRANCH  27  43
BRANCH  24  49
ATOM     49  C   UNK d   0     -40.408 -15.978   8.751  0.00  0.00     0.052 C 
BRANCH  49  50
ATOM     50  C   UNK d   0     -41.527 -15.819   9.747  0.00  0.00     0.115 C 
BRANCH  50  51
ATOM     51  C   UNK d   0     -41.204 -15.175  11.013  0.00  0.00     0.139 C 
ATOM     52  O   UNK d   0     -40.698 -14.030  11.080  0.00  0.00    -0.650 OA
BRANCH  51  53
ATOM     53  O   UNK d   0     -41.457 -15.839  12.205  0.00  0.00    -0.776 OA
ATOM     54  H   UNK d   0     -40.879 -16.625  12.442  0.00  0.00     0.167 HD
ENDBRANCH  51  53
ENDBRANCH  50  51
ENDBRANCH  49  50
ENDBRANCH  24  49
BRANCH  21  55
ATOM     55  C   UNK d   0     -41.289 -18.722   7.638  0.00  0.00     0.151 C 
BRANCH  55  56
ATOM     56  C   UNK d   0     -41.264 -18.010   6.352  0.00  0.00     0.143 C 
ATOM     57  O   UNK d   0     -42.300 -17.642   5.764  0.00  0.00    -0.650 OA
BRANCH  56  58
ATOM     58  O   UNK d   0     -40.021 -17.743   5.781  0.00  0.00    -0.776 OA
ATOM     59  H   UNK d   0     -39.209 -17.926   6.398  0.00  0.00     0.167 HD
ENDBRANCH  56  58
ENDBRANCH  55  56
ENDBRANCH  21  55
BRANCH  18  60
ATOM     60  C   UNK d   0     -39.902 -23.463   9.738  0.00  0.00     0.151 C 
BRANCH  60  61
ATOM     61  C   UNK d   0     -40.577 -23.074  10.985  0.00  0.00     0.143 C 
ATOM     62  O   UNK d   0     -40.751 -21.932  11.410  0.00  0.00    -0.650 OA
BRANCH  61  63
ATOM     63  O   UNK d   0     -41.072 -24.149  11.763  0.00  0.00    -0.776 OA
ATOM     64  H   UNK d   0     -41.361 -24.010  12.715  0.00  0.00     0.167 HD
ENDBRANCH  61  63
ENDBRANCH  60  61
ENDBRANCH  18  60
BRANCH  14  65
ATOM     65  C   UNK d   0     -37.498 -24.896  10.911  0.00  0.00     0.052 C 
BRANCH  65  66
ATOM     66  C   UNK d   0     -36.548 -25.817  10.230  0.00  0.00     0.115 C 
BRANCH  66  67
ATOM     67  C   UNK d   0     -35.752 -26.723  11.009  0.00  0.00     0.139 C 
ATOM     68  O   UNK d   0     -34.777 -26.245  11.698  0.00  0.00    -0.650 OA
BRANCH  67  69
ATOM     69  O   UNK d   0     -35.898 -28.105  11.125  0.00  0.00    -0.776 OA
ATOM     70  H   UNK d   0     -35.109 -28.603  11.562  0.00  0.00     0.167 HD
ENDBRANCH  67  69
ENDBRANCH  66  67
ENDBRANCH  65  66
ENDBRANCH  14  65
ENDBRANCH   6   7
ENDBRANCH   5   6
ENDBRANCH   2   5
TORSDOF 28
ENDMDL
MODEL 3
REMARK VINA RESULT:     -10.7      1.769      7.537
REMARK  28 active torsions:
REMARK  status: ('A' for Active; 'I' for Inactive)
REMARK    1  A    between atoms: C_2  and  O_3 
REMARK    2  A    between atoms: C_2  and  C_4 
REMARK    3  A    between atoms: C_4  and  C_5 
REMARK    4  A    between atoms: C_5  and  C_6 
REMARK    5  A    between atoms: C_7  and  C_8 
REMARK    6  A    between atoms: C_8  and  C_9 
REMARK    7  A    between atoms: C_9  and  O_11 
REMARK    8  A    between atoms: C_28  and  C_29 
REMARK    9  A    between atoms: C_29  and  C_30 
REMARK   10  A    between atoms: C_30  and  O_32 
REMARK   11  A    between atoms: C_33  and  C_34 
REMARK   12  A    between atoms: C_34  and  C_35 
REMARK   13  A    between atoms: C_35  and  C_36 
REMARK   14  A    between atoms: C_36  and  O_38 
REMARK   15  A    between atoms: C_39  and  C_40 
REMARK   16  A    between atoms: C_40  and  C_41 
REMARK   17  A    between atoms: C_41  and  C_42 
REMARK   18  A    between atoms: C_42  and  O_44 
REMARK   19  A    between atoms: C_45  and  C_46 
REMARK   20  A    between atoms: C_46  and  C_47 
REMARK   21  A    between atoms: C_47  and  O_49 
REMARK   22  A    between atoms: C_50  and  C_51 
REMARK   23  A    between atoms: C_51  and  C_52 
REMARK   24  A    between atoms: C_52  and  O_54 
REMARK   25  A    between atoms: C_55  and  C_56 
REMARK   26  A    between atoms: C_56  and  C_57 
REMARK   27  A    between atoms: C_57  and  C_58 
REMARK   28  A    between atoms: C_58  and  O_60 
ROOT
ATOM      1  O   UNK d   0     -15.018 -10.020  -6.761  0.00  0.00    -0.650 OA
ATOM      2  C   UNK d   0     -16.017 -10.569  -6.247  0.00  0.00     0.139 C 
ENDROOT
BRANCH   2   3
ATOM      3  O   UNK d   0     -17.082  -9.796  -5.852  0.00  0.00    -0.776 OA
ATOM      4  H   UNK d   0     -16.939  -8.868  -5.447  0.00  0.00     0.167 HD
ENDBRANCH   2   3
BRANCH   2   5
ATOM      5  C   UNK d   0     -16.048 -12.049  -6.067  0.00  0.00     0.115 C 
BRANCH   5   6
ATOM      6  C   UNK d   0     -15.298 -12.722  -7.183  0.00  0.00     0.052 C 
BRANCH   6   7
ATOM      7  C   UNK d   0     -14.085 -13.478  -6.695  0.00  0.00    -0.020 A 
ATOM      8  C   UNK d   0     -13.663 -14.652  -7.091  0.00  0.00    -0.011 A 
ATOM      9  C   UNK d   0     -12.466 -14.974  -6.332  0.00  0.00     0.067 A 
ATOM     10  C   UNK d   0     -11.549 -16.036  -6.290  0.00  0.00     0.062 C 
ATOM     11  N   UNK d   0     -12.235 -13.943  -5.492  0.00  0.00    -0.248 NA
ATOM     12  C   UNK d   0     -10.289 -16.043  -5.682  0.00  0.00     0.041 A 
ATOM     13  N   UNK d   0      -9.877 -15.567  -4.492  0.00  0.00    -0.355 N 
ATOM     14  C   UNK d   0      -9.195 -16.574  -6.389  0.00  0.00    -0.022 A 
ATOM     15  C   UNK d   0      -8.548 -15.774  -4.429  0.00  0.00     0.042 A 
ATOM     16  H   UNK d   0     -10.515 -15.111  -3.704  0.00  0.00     0.166 HD
ATOM     17  C   UNK d   0      -7.623 -15.470  -3.411  0.00  0.00     0.062 C 
ATOM     18  C   UNK d   0      -8.084 -16.403  -5.601  0.00  0.00    -0.013 A 
ATOM     19  C   UNK d   0      -7.495 -14.318  -2.677  0.00  0.00     0.067 A 
ATOM     20  N   UNK d   0      -8.482 -13.424  -2.779  0.00  0.00    -0.248 NA
ATOM     21  C   UNK d   0      -6.507 -13.762  -1.768  0.00  0.00    -0.011 A 
ATOM     22  C   UNK d   0      -8.210 -12.323  -2.005  0.00  0.00     0.066 A 
ATOM     23  C   UNK d   0      -9.175 -11.327  -1.989  0.00  0.00     0.062 C 
ATOM     24  C   UNK d   0      -6.929 -12.593  -1.382  0.00  0.00    -0.020 A 
ATOM     25  C   UNK d   0     -10.440 -11.344  -2.596  0.00  0.00     0.041 A 
ATOM     26  N   UNK d   0     -10.847 -11.804  -3.785  0.00  0.00    -0.355 N 
ATOM     27  C   UNK d   0     -11.538 -10.816  -1.884  0.00  0.00    -0.022 A 
ATOM     28  C   UNK d   0     -12.171 -11.590  -3.854  0.00  0.00     0.042 A 
ATOM     29  H   UNK d   0     -10.202 -12.253  -4.581  0.00  0.00     0.166 HD
ATOM     30  C   UNK d   0     -13.101 -11.879  -4.864  0.00  0.00     0.062 C 
ATOM     31  C   UNK d   0     -12.637 -10.968  -2.672  0.00  0.00    -0.013 A 
ATOM     32  C   UNK d   0     -13.173 -13.010  -5.662  0.00  0.00     0.066 A 
BRANCH   8  33
ATOM     33  C   UNK d   0     -14.279 -15.513  -8.117  0.00  0.00     0.151 C 
BRANCH  33  34
ATOM     34  C   UNK d   0     -15.176 -16.532  -7.544  0.00  0.00     0.143 C 
ATOM     35  O   UNK d   0     -14.882 -17.735  -7.584  0.00  0.00    -0.650 OA
BRANCH  34  36
ATOM     36  O   UNK d   0     -16.358 -16.139  -6.958  0.00  0.00    -0.776 OA
ATOM     37  H   UNK d   0     -16.449 -15.220  -6.504  0.00  0.00     0.167 HD
ENDBRANCH  34  36
ENDBRANCH  33  34
ENDBRANCH   8  33
BRANCH  31  38
ATOM     38  C   UNK d   0     -14.049 -10.560  -2.321  0.00  0.00     0.151 C 
BRANCH  38  39
ATOM     39  C   UNK d   0     -14.523  -9.442  -3.109  0.00  0.00     0.143 C 
ATOM     40  O   UNK d   0     -13.750  -8.683  -3.719  0.00  0.00    -0.650 OA
BRANCH  39  41
ATOM     41  O   UNK d   0     -15.893  -9.197  -3.197  0.00  0.00    -0.776 OA
ATOM     42  H   UNK d   0     -16.517  -9.975  -2.962  0.00  0.00     0.167 HD
ENDBRANCH  39  41
ENDBRANCH  38  39
ENDBRANCH  31  38
BRANCH  27  43
ATOM     43  C   UNK d   0     -11.578 -10.184  -0.515  0.00  0.00     0.052 C 
BRANCH  43  44
ATOM     44  C   UNK d   0     -10.775  -8.928  -0.420  0.00  0.00     0.115 C 
BRANCH  44  45
ATOM     45  C   UNK d   0     -11.735  -7.830  -0.135  0.00  0.00     0.139 C 
ATOM     46  O   UNK d   0     -12.815  -7.807  -0.778  0.00  0.00    -0.650 OA
BRANCH  45  47
ATOM     47  O   UNK d   0     -11.493  -6.849   0.801  0.00  0.00    -0.776 OA
ATOM     48  H   UNK d   0     -11.220  -7.058   1.775  0.00  0.00     0.167 HD
ENDBRANCH  45  47
ENDBRANCH  44  45
ENDBRANCH  43  44
ENDBRANCH  27  43
BRANCH  24  49
ATOM     49  C   UNK d   0      -6.253 -11.698  -0.427  0.00  0.00     0.052 C 
BRANCH  49  50
ATOM     50  C   UNK d   0      -5.741 -10.468  -1.133  0.00  0.00     0.115 C 
BRANCH  50  51
ATOM     51  C   UNK d   0      -6.027  -9.180  -0.517  0.00  0.00     0.139 C 
ATOM     52  O   UNK d   0      -5.713  -8.912   0.667  0.00  0.00    -0.650 OA
BRANCH  51  53
ATOM     53  O   UNK d   0      -6.675  -8.197  -1.250  0.00  0.00    -0.776 OA
ATOM     54  H   UNK d   0      -6.883  -7.325  -0.796  0.00  0.00     0.167 HD
ENDBRANCH  51  53
ENDBRANCH  50  51
ENDBRANCH  49  50
ENDBRANCH  24  49
BRANCH  21  55
ATOM     55  C   UNK d   0      -5.246 -14.460  -1.378  0.00  0.00     0.151 C 
BRANCH  55  56
ATOM     56  C   UNK d   0      -4.218 -14.368  -2.426  0.00  0.00     0.143 C 
ATOM     57  O   UNK d   0      -4.102 -15.214  -3.334  0.00  0.00    -0.650 OA
BRANCH  56  58
ATOM     58  O   UNK d   0      -3.345 -13.282  -2.385  0.00  0.00    -0.776 OA
ATOM     59  H   UNK d   0      -3.290 -12.800  -1.469  0.00  0.00     0.167 HD
ENDBRANCH  56  58
ENDBRANCH  55  56
ENDBRANCH  21  55
BRANCH  18  60
ATOM     60  C   UNK d   0      -6.685 -16.824  -5.977  0.00  0.00     0.151 C 
BRANCH  60  61
ATOM     61  C   UNK d   0      -6.101 -15.684  -6.699  0.00  0.00     0.143 C 
ATOM     62  O   UNK d   0      -6.330 -15.345  -7.861  0.00  0.00    -0.650 OA
BRANCH  61  63
ATOM     63  O   UNK d   0      -5.179 -14.908  -5.956  0.00  0.00    -0.776 OA
ATOM     64  H   UNK d   0      -4.190 -15.076  -6.020  0.00  0.00     0.167 HD
ENDBRANCH  61  63
ENDBRANCH  60  61
ENDBRANCH  18  60
BRANCH  14  65
ATOM     65  C   UNK d   0      -9.137 -17.310  -7.697  0.00  0.00     0.052 C 
BRANCH  65  66
ATOM     66  C   UNK d   0      -9.852 -18.614  -7.663  0.00  0.00     0.115 C 
BRANCH  66  67
ATOM     67  C   UNK d   0     -10.846 -18.907  -8.657  0.00  0.00     0.139 C 
ATOM     68  O   UNK d   0     -10.470 -19.457  -9.757  0.00  0.00    -0.650 OA
BRANCH  67  69
ATOM     69  O   UNK d   0     -12.218 -18.666  -8.589  0.00  0.00    -0.776 OA
ATOM     70  H   UNK d   0     -12.824 -19.431  -8.920  0.00  0.00     0.167 HD
ENDBRANCH  67  69
ENDBRANCH  66  67
ENDBRANCH  65  66
ENDBRANCH  14  65
ENDBRANCH   6   7
ENDBRANCH   5   6
ENDBRANCH   2   5
TORSDOF 28
ENDMDL
MODEL 4
REMARK VINA RESULT:     -10.7     28.132     32.515
REMARK  28 active torsions:
REMARK  status: ('A' for Active; 'I' for Inactive)
REMARK    1  A    between atoms: C_2  and  O_3 
REMARK    2  A    between atoms: C_2  and  C_4 
REMARK    3  A    between atoms: C_4  and  C_5 
REMARK    4  A    between atoms: C_5  and  C_6 
REMARK    5  A    between atoms: C_7  and  C_8 
REMARK    6  A    between atoms: C_8  and  C_9 
REMARK    7  A    between atoms: C_9  and  O_11 
REMARK    8  A    between atoms: C_28  and  C_29 
REMARK    9  A    between atoms: C_29  and  C_30 
REMARK   10  A    between atoms: C_30  and  O_32 
REMARK   11  A    between atoms: C_33  and  C_34 
REMARK   12  A    between atoms: C_34  and  C_35 
REMARK   13  A    between atoms: C_35  and  C_36 
REMARK   14  A    between atoms: C_36  and  O_38 
REMARK   15  A    between atoms: C_39  and  C_40 
REMARK   16  A    between atoms: C_40  and  C_41 
REMARK   17  A    between atoms: C_41  and  C_42 
REMARK   18  A    between atoms: C_42  and  O_44 
REMARK   19  A    between atoms: C_45  and  C_46 
REMARK   20  A    between atoms: C_46  and  C_47 
REMARK   21  A    between atoms: C_47  and  O_49 
REMARK   22  A    between atoms: C_50  and  C_51 
REMARK   23  A    between atoms: C_51  and  C_52 
REMARK   24  A    between atoms: C_52  and  O_54 
REMARK   25  A    between atoms: C_55  and  C_56 
REMARK   26  A    between atoms: C_56  and  C_57 
REMARK   27  A    between atoms: C_57  and  C_58 
REMARK   28  A    between atoms: C_58  and  O_60 
ROOT
ATOM      1  O   UNK d   0     -31.902 -19.521  16.071  0.00  0.00    -0.650 OA
ATOM      2  C   UNK d   0     -31.173 -19.054  15.168  0.00  0.00     0.139 C 
ENDROOT
BRANCH   2   3
ATOM      3  O   UNK d   0     -30.335 -18.003  15.455  0.00  0.00    -0.776 OA
ATOM      4  H   UNK d   0     -30.560 -17.337  16.197  0.00  0.00     0.167 HD
ENDBRANCH   2   3
BRANCH   2   5
ATOM      5  C   UNK d   0     -31.216 -19.634  13.796  0.00  0.00     0.115 C 
BRANCH   5   6
ATOM      6  C   UNK d   0     -31.469 -21.116  13.868  0.00  0.00     0.052 C 
BRANCH   6   7
ATOM      7  C   UNK d   0     -32.638 -21.548  13.016  0.00  0.00    -0.020 A 
ATOM      8  C   UNK d   0     -32.794 -22.688  12.394  0.00  0.00    -0.011 A 
ATOM      9  C   UNK d   0     -34.068 -22.644  11.696  0.00  0.00     0.067 A 
ATOM     10  C   UNK d   0     -34.813 -23.520  10.891  0.00  0.00     0.062 C 
ATOM     11  N   UNK d   0     -34.619 -21.437  11.943  0.00  0.00    -0.248 NA
ATOM     12  C   UNK d   0     -36.160 -23.403  10.532  0.00  0.00     0.041 A 
ATOM     13  N   UNK d   0     -36.882 -22.337  10.136  0.00  0.00    -0.355 N 
ATOM     14  C   UNK d   0     -36.990 -24.535  10.622  0.00  0.00    -0.022 A 
ATOM     15  C   UNK d   0     -38.150 -22.763   9.981  0.00  0.00     0.042 A 
ATOM     16  H   UNK d   0     -36.500 -21.309   9.951  0.00  0.00     0.166 HD
ATOM     17  C   UNK d   0     -39.306 -22.063   9.582  0.00  0.00     0.062 C 
ATOM     18  C   UNK d   0     -38.257 -24.135  10.277  0.00  0.00    -0.013 A 
ATOM     19  C   UNK d   0     -39.750 -20.830   9.987  0.00  0.00     0.067 A 
ATOM     20  N   UNK d   0     -38.902 -20.086  10.701  0.00  0.00    -0.248 NA
ATOM     21  C   UNK d   0     -40.980 -20.066   9.853  0.00  0.00    -0.011 A 
ATOM     22  C   UNK d   0     -39.488 -18.892  11.045  0.00  0.00     0.066 A 
ATOM     23  C   UNK d   0     -38.700 -18.003  11.761  0.00  0.00     0.062 C 
ATOM     24  C   UNK d   0     -40.821 -18.936  10.478  0.00  0.00    -0.020 A 
ATOM     25  C   UNK d   0     -37.345 -18.134  12.101  0.00  0.00     0.041 A 
ATOM     26  N   UNK d   0     -36.630 -19.190  12.508  0.00  0.00    -0.355 N 
ATOM     27  C   UNK d   0     -36.512 -16.998  12.005  0.00  0.00    -0.022 A 
ATOM     28  C   UNK d   0     -35.367 -18.766  12.672  0.00  0.00     0.042 A 
ATOM     29  H   UNK d   0     -37.019 -20.220  12.704  0.00  0.00     0.166 HD
ATOM     30  C   UNK d   0     -34.210 -19.450  13.077  0.00  0.00     0.062 C 
ATOM     31  C   UNK d   0     -35.259 -17.389  12.364  0.00  0.00    -0.013 A 
ATOM     32  C   UNK d   0     -33.808 -20.730  12.732  0.00  0.00     0.066 A 
BRANCH   8  33
ATOM     33  C   UNK d   0     -31.857 -23.827  12.384  0.00  0.00     0.151 C 
BRANCH  33  34
ATOM     34  C   UNK d   0     -30.990 -23.842  11.192  0.00  0.00     0.143 C 
ATOM     35  O   UNK d   0     -29.803 -23.492  11.263  0.00  0.00    -0.650 OA
BRANCH  34  36
ATOM     36  O   UNK d   0     -31.509 -24.249   9.984  0.00  0.00    -0.776 OA
ATOM     37  H   UNK d   0     -32.316 -24.887   9.938  0.00  0.00     0.167 HD
ENDBRANCH  34  36
ENDBRANCH  33  34
ENDBRANCH   8  33
BRANCH  31  38
ATOM     38  C   UNK d   0     -34.028 -16.514  12.401  0.00  0.00     0.151 C 
BRANCH  38  39
ATOM     39  C   UNK d   0     -33.293 -16.526  11.154  0.00  0.00     0.143 C 
ATOM     40  O   UNK d   0     -33.481 -15.679  10.263  0.00  0.00    -0.650 OA
BRANCH  39  41
ATOM     41  O   UNK d   0     -32.336 -17.515  10.932  0.00  0.00    -0.776 OA
ATOM     42  H   UNK d   0     -31.698 -17.723  11.706  0.00  0.00     0.167 HD
ENDBRANCH  39  41
ENDBRANCH  38  39
ENDBRANCH  31  38
BRANCH  27  43
ATOM     43  C   UNK d   0     -36.858 -15.588  11.597  0.00  0.00     0.052 C 
BRANCH  43  44
ATOM     44  C   UNK d   0     -36.949 -15.407  10.116  0.00  0.00     0.115 C 
BRANCH  44  45
ATOM     45  C   UNK d   0     -38.086 -14.483   9.871  0.00  0.00     0.139 C 
ATOM     46  O   UNK d   0     -38.748 -14.627   8.813  0.00  0.00    -0.650 OA
BRANCH  45  47
ATOM     47  O   UNK d   0     -38.442 -13.486  10.753  0.00  0.00    -0.776 OA
ATOM     48  H   UNK d   0     -38.005 -13.377  11.682  0.00  0.00     0.167 HD
ENDBRANCH  45  47
ENDBRANCH  44  45
ENDBRANCH  43  44
ENDBRANCH  27  43
BRANCH  24  49
ATOM     49  C   UNK d   0     -41.807 -17.844  10.562  0.00  0.00     0.052 C 
BRANCH  49  50
ATOM     50  C   UNK d   0     -41.310 -16.630   9.820  0.00  0.00     0.115 C 
BRANCH  50  51
ATOM     51  C   UNK d   0     -41.633 -15.327  10.384  0.00  0.00     0.139 C 
ATOM     52  O   UNK d   0     -41.081 -14.882  11.418  0.00  0.00    -0.650 OA
BRANCH  51  53
ATOM     53  O   UNK d   0     -42.589 -14.532   9.771  0.00  0.00    -0.776 OA
ATOM     54  H   UNK d   0     -42.776 -13.625  10.163  0.00  0.00     0.167 HD
ENDBRANCH  51  53
ENDBRANCH  50  51
ENDBRANCH  49  50
ENDBRANCH  24  49
BRANCH  21  55
ATOM     55  C   UNK d   0     -42.183 -20.545   9.110  0.00  0.00     0.151 C 
BRANCH  55  56
ATOM     56  C   UNK d   0     -41.966 -20.553   7.655  0.00  0.00     0.143 C 
ATOM     57  O   UNK d   0     -41.879 -19.509   6.980  0.00  0.00    -0.650 OA
BRANCH  56  58
ATOM     58  O   UNK d   0     -41.856 -21.790   7.022  0.00  0.00    -0.776 OA
ATOM     59  H   UNK d   0     -40.941 -21.970   6.573  0.00  0.00     0.167 HD
ENDBRANCH  56  58
ENDBRANCH  55  56
ENDBRANCH  21  55
BRANCH  18  60
ATOM     60  C   UNK d   0     -39.468 -25.034  10.246  0.00  0.00     0.151 C 
BRANCH  60  61
ATOM     61  C   UNK d   0     -40.043 -24.983  11.599  0.00  0.00     0.143 C 
ATOM     62  O   UNK d   0     -39.738 -25.688  12.562  0.00  0.00    -0.650 OA
BRANCH  61  63
ATOM     63  O   UNK d   0     -41.054 -24.010  11.788  0.00  0.00    -0.776 OA
ATOM     64  H   UNK d   0     -42.021 -24.229  11.624  0.00  0.00     0.167 HD
ENDBRANCH  61  63
ENDBRANCH  60  61
ENDBRANCH  18  60
BRANCH  14  65
ATOM     65  C   UNK d   0     -36.660 -25.972  10.912  0.00  0.00     0.052 C 
BRANCH  65  66
ATOM     66  C   UNK d   0     -35.885 -26.622   9.822  0.00  0.00     0.115 C 
BRANCH  66  67
ATOM     67  C   UNK d   0     -34.486 -26.890  10.005  0.00  0.00     0.139 C 
ATOM     68  O   UNK d   0     -33.732 -26.956   8.966  0.00  0.00    -0.650 OA
BRANCH  67  69
ATOM     69  O   UNK d   0     -33.808 -27.098  11.206  0.00  0.00    -0.776 OA
ATOM     70  H   UNK d   0     -34.386 -27.411  11.999  0.00  0.00     0.167 HD
ENDBRANCH  67  69
ENDBRANCH  66  67
ENDBRANCH  65  66
ENDBRANCH  14  65
ENDBRANCH   6   7
ENDBRANCH   5   6
ENDBRANCH   2   5
TORSDOF 28
ENDMDL
MODEL 5
REMARK VINA RESULT:     -10.4      1.627      7.546
REMARK  28 active torsions:
REMARK  status: ('A' for Active; 'I' for Inactive)
REMARK    1  A    between atoms: C_2  and  O_3 
REMARK    2  A    between atoms: C_2  and  C_4 
REMARK    3  A    between atoms: C_4  and  C_5 
REMARK    4  A    between atoms: C_5  and  C_6 
REMARK    5  A    between atoms: C_7  and  C_8 
REMARK    6  A    between atoms: C_8  and  C_9 
REMARK    7  A    between atoms: C_9  and  O_11 
REMARK    8  A    between atoms: C_28  and  C_29 
REMARK    9  A    between atoms: C_29  and  C_30 
REMARK   10  A    between atoms: C_30  and  O_32 
REMARK   11  A    between atoms: C_33  and  C_34 
REMARK   12  A    between atoms: C_34  and  C_35 
REMARK   13  A    between atoms: C_35  and  C_36 
REMARK   14  A    between atoms: C_36  and  O_38 
REMARK   15  A    between atoms: C_39  and  C_40 
REMARK   16  A    between atoms: C_40  and  C_41 
REMARK   17  A    between atoms: C_41  and  C_42 
REMARK   18  A    between atoms: C_42  and  O_44 
REMARK   19  A    between atoms: C_45  and  C_46 
REMARK   20  A    between atoms: C_46  and  C_47 
REMARK   21  A    between atoms: C_47  and  O_49 
REMARK   22  A    between atoms: C_50  and  C_51 
REMARK   23  A    between atoms: C_51  and  C_52 
REMARK   24  A    between atoms: C_52  and  O_54 
REMARK   25  A    between atoms: C_55  and  C_56 
REMARK   26  A    between atoms: C_56  and  C_57 
REMARK   27  A    between atoms: C_57  and  C_58 
REMARK   28  A    between atoms: C_58  and  O_60 
ROOT
ATOM      1  O   UNK d   0     -15.689  -9.917  -4.293  0.00  0.00    -0.650 OA
ATOM      2  C   UNK d   0     -15.972  -9.935  -5.512  0.00  0.00     0.139 C 
ENDROOT
BRANCH   2   3
ATOM      3  O   UNK d   0     -17.098  -9.282  -5.952  0.00  0.00    -0.776 OA
ATOM      4  H   UNK d   0     -17.882  -9.796  -6.358  0.00  0.00     0.167 HD
ENDBRANCH   2   3
BRANCH   2   5
ATOM      5  C   UNK d   0     -15.094 -10.660  -6.473  0.00  0.00     0.115 C 
BRANCH   5   6
ATOM      6  C   UNK d   0     -15.486 -12.111  -6.540  0.00  0.00     0.052 C 
BRANCH   6   7
ATOM      7  C   UNK d   0     -14.315 -13.040  -6.332  0.00  0.00    -0.020 A 
ATOM      8  C   UNK d   0     -14.163 -14.251  -6.805  0.00  0.00    -0.011 A 
ATOM      9  C   UNK d   0     -12.883 -14.755  -6.334  0.00  0.00     0.067 A 
ATOM     10  C   UNK d   0     -12.140 -15.935  -6.492  0.00  0.00     0.062 C 
ATOM     11  N   UNK d   0     -12.326 -13.788  -5.576  0.00  0.00    -0.248 NA
ATOM     12  C   UNK d   0     -10.789 -16.133  -6.184  0.00  0.00     0.041 A 
ATOM     13  N   UNK d   0     -10.056 -15.748  -5.122  0.00  0.00    -0.355 N 
ATOM     14  C   UNK d   0      -9.968 -16.793  -7.117  0.00  0.00    -0.022 A 
ATOM     15  C   UNK d   0      -8.790 -16.140  -5.360  0.00  0.00     0.042 A 
ATOM     16  H   UNK d   0     -10.430 -15.227  -4.213  0.00  0.00     0.166 HD
ATOM     17  C   UNK d   0      -7.627 -15.993  -4.579  0.00  0.00     0.062 C 
ATOM     18  C   UNK d   0      -8.696 -16.798  -6.601  0.00  0.00    -0.013 A 
ATOM     19  C   UNK d   0      -7.177 -14.888  -3.902  0.00  0.00     0.067 A 
ATOM     20  N   UNK d   0      -8.025 -13.863  -3.786  0.00  0.00    -0.248 NA
ATOM     21  C   UNK d   0      -5.941 -14.498  -3.244  0.00  0.00    -0.011 A 
ATOM     22  C   UNK d   0      -7.432 -12.830  -3.101  0.00  0.00     0.066 A 
ATOM     23  C   UNK d   0      -8.218 -11.710  -2.874  0.00  0.00     0.062 C 
ATOM     24  C   UNK d   0      -6.095 -13.291  -2.782  0.00  0.00    -0.020 A 
ATOM     25  C   UNK d   0      -9.577 -11.536  -3.180  0.00  0.00     0.041 A 
ATOM     26  N   UNK d   0     -10.302 -11.905  -4.243  0.00  0.00    -0.355 N 
ATOM     27  C   UNK d   0     -10.401 -10.877  -2.242  0.00  0.00    -0.022 A 
ATOM     28  C   UNK d   0     -11.563 -11.508  -4.012  0.00  0.00     0.042 A 
ATOM     29  H   UNK d   0      -9.923 -12.420  -5.160  0.00  0.00     0.166 HD
ATOM     30  C   UNK d   0     -12.728 -11.639  -4.784  0.00  0.00     0.062 C 
ATOM     31  C   UNK d   0     -11.660 -10.856  -2.760  0.00  0.00    -0.013 A 
ATOM     32  C   UNK d   0     -13.137 -12.729  -5.536  0.00  0.00     0.066 A 
BRANCH   8  33
ATOM     33  C   UNK d   0     -15.108 -14.993  -7.659  0.00  0.00     0.151 C 
BRANCH  33  34
ATOM     34  C   UNK d   0     -14.840 -14.813  -9.097  0.00  0.00     0.143 C 
ATOM     35  O   UNK d   0     -14.087 -13.913  -9.497  0.00  0.00    -0.650 OA
BRANCH  34  36
ATOM     36  O   UNK d   0     -15.436 -15.657 -10.006  0.00  0.00    -0.776 OA
ATOM     37  H   UNK d   0     -14.890 -16.111 -10.751  0.00  0.00     0.167 HD
ENDBRANCH  34  36
ENDBRANCH  33  34
ENDBRANCH   8  33
BRANCH  31  38
ATOM     38  C   UNK d   0     -12.884 -10.264  -2.102  0.00  0.00     0.151 C 
BRANCH  38  39
ATOM     39  C   UNK d   0     -13.011  -8.840  -2.329  0.00  0.00     0.143 C 
ATOM     40  O   UNK d   0     -12.928  -8.009  -1.408  0.00  0.00    -0.650 OA
BRANCH  39  41
ATOM     41  O   UNK d   0     -13.234  -8.369  -3.623  0.00  0.00    -0.776 OA
ATOM     42  H   UNK d   0     -12.507  -7.769  -4.027  0.00  0.00     0.167 HD
ENDBRANCH  39  41
ENDBRANCH  38  39
ENDBRANCH  31  38
BRANCH  27  43
ATOM     43  C   UNK d   0     -10.043 -10.280  -0.904  0.00  0.00     0.052 C 
BRANCH  43  44
ATOM     44  C   UNK d   0      -9.552  -8.872  -0.998  0.00  0.00     0.115 C 
BRANCH  44  45
ATOM     45  C   UNK d   0      -8.180  -8.862  -0.426  0.00  0.00     0.139 C 
ATOM     46  O   UNK d   0      -7.208  -8.895  -1.221  0.00  0.00    -0.650 OA
BRANCH  45  47
ATOM     47  O   UNK d   0      -7.936  -8.812   0.929  0.00  0.00    -0.776 OA
ATOM     48  H   UNK d   0      -7.600  -9.626   1.468  0.00  0.00     0.167 HD
ENDBRANCH  45  47
ENDBRANCH  44  45
ENDBRANCH  43  44
ENDBRANCH  27  43
BRANCH  24  49
ATOM     49  C   UNK d   0      -5.103 -12.522  -2.011  0.00  0.00     0.052 C 
BRANCH  49  50
ATOM     50  C   UNK d   0      -5.735 -11.942  -0.773  0.00  0.00     0.115 C 
BRANCH  50  51
ATOM     51  C   UNK d   0      -5.980 -12.852   0.338  0.00  0.00     0.139 C 
ATOM     52  O   UNK d   0      -7.047 -13.498   0.459  0.00  0.00    -0.650 OA
BRANCH  51  53
ATOM     53  O   UNK d   0      -5.009 -13.023   1.312  0.00  0.00    -0.776 OA
ATOM     54  H   UNK d   0      -4.608 -13.937   1.428  0.00  0.00     0.167 HD
ENDBRANCH  51  53
ENDBRANCH  50  51
ENDBRANCH  49  50
ENDBRANCH  24  49
BRANCH  21  55
ATOM     55  C   UNK d   0      -4.736 -15.373  -3.144  0.00  0.00     0.151 C 
BRANCH  55  56
ATOM     56  C   UNK d   0      -4.729 -16.161  -1.902  0.00  0.00     0.143 C 
ATOM     57  O   UNK d   0      -3.961 -17.126  -1.719  0.00  0.00    -0.650 OA
BRANCH  56  58
ATOM     58  O   UNK d   0      -5.626 -15.799  -0.898  0.00  0.00    -0.776 OA
ATOM     59  H   UNK d   0      -5.703 -16.475  -0.117  0.00  0.00     0.167 HD
ENDBRANCH  56  58
ENDBRANCH  55  56
ENDBRANCH  21  55
BRANCH  18  60
ATOM     60  C   UNK d   0      -7.491 -17.400  -7.280  0.00  0.00     0.151 C 
BRANCH  60  61
ATOM     61  C   UNK d   0      -6.901 -16.321  -8.088  0.00  0.00     0.143 C 
ATOM     62  O   UNK d   0      -7.249 -15.962  -9.213  0.00  0.00    -0.650 OA
BRANCH  61  63
ATOM     63  O   UNK d   0      -5.819 -15.638  -7.482  0.00  0.00    -0.776 OA
ATOM     64  H   UNK d   0      -5.835 -14.640  -7.369  0.00  0.00     0.167 HD
ENDBRANCH  61  63
ENDBRANCH  60  61
ENDBRANCH  18  60
BRANCH  14  65
ATOM     65  C   UNK d   0     -10.310 -17.498  -8.398  0.00  0.00     0.052 C 
BRANCH  65  66
ATOM     66  C   UNK d   0     -11.124 -18.725  -8.188  0.00  0.00     0.115 C 
BRANCH  66  67
ATOM     67  C   UNK d   0     -10.710 -19.965  -8.782  0.00  0.00     0.139 C 
ATOM     68  O   UNK d   0     -11.478 -20.514  -9.655  0.00  0.00    -0.650 OA
BRANCH  67  69
ATOM     69  O   UNK d   0      -9.541 -20.683  -8.531  0.00  0.00    -0.776 OA
ATOM     70  H   UNK d   0      -9.284 -21.383  -9.242  0.00  0.00     0.167 HD
ENDBRANCH  67  69
ENDBRANCH  66  67
ENDBRANCH  65  66
ENDBRANCH  14  65
ENDBRANCH   6   7
ENDBRANCH   5   6
ENDBRANCH   2   5
TORSDOF 28
ENDMDL
MODEL 6
REMARK VINA RESULT:     -10.3     27.859     31.750
REMARK  28 active torsions:
REMARK  status: ('A' for Active; 'I' for Inactive)
REMARK    1  A    between atoms: C_2  and  O_3 
REMARK    2  A    between atoms: C_2  and  C_4 
REMARK    3  A    between atoms: C_4  and  C_5 
REMARK    4  A    between atoms: C_5  and  C_6 
REMARK    5  A    between atoms: C_7  and  C_8 
REMARK    6  A    between atoms: C_8  and  C_9 
REMARK    7  A    between atoms: C_9  and  O_11 
REMARK    8  A    between atoms: C_28  and  C_29 
REMARK    9  A    between atoms: C_29  and  C_30 
REMARK   10  A    between atoms: C_30  and  O_32 
REMARK   11  A    between atoms: C_33  and  C_34 
REMARK   12  A    between atoms: C_34  and  C_35 
REMARK   13  A    between atoms: C_35  and  C_36 
REMARK   14  A    between atoms: C_36  and  O_38 
REMARK   15  A    between atoms: C_39  and  C_40 
REMARK   16  A    between atoms: C_40  and  C_41 
REMARK   17  A    between atoms: C_41  and  C_42 
REMARK   18  A    between atoms: C_42  and  O_44 
REMARK   19  A    between atoms: C_45  and  C_46 
REMARK   20  A    between atoms: C_46  and  C_47 
REMARK   21  A    between atoms: C_47  and  O_49 
REMARK   22  A    between atoms: C_50  and  C_51 
REMARK   23  A    between atoms: C_51  and  C_52 
REMARK   24  A    between atoms: C_52  and  O_54 
REMARK   25  A    between atoms: C_55  and  C_56 
REMARK   26  A    between atoms: C_56  and  C_57 
REMARK   27  A    between atoms: C_57  and  C_58 
REMARK   28  A    between atoms: C_58  and  O_60 
ROOT
ATOM      1  O   UNK d   0     -31.897 -14.925  11.392  0.00  0.00    -0.650 OA
ATOM      2  C   UNK d   0     -32.450 -14.627  12.474  0.00  0.00     0.139 C 
ENDROOT
BRANCH   2   3
ATOM      3  O   UNK d   0     -31.680 -14.449  13.598  0.00  0.00    -0.776 OA
ATOM      4  H   UNK d   0     -31.809 -13.635  14.202  0.00  0.00     0.167 HD
ENDBRANCH   2   3
BRANCH   2   5
ATOM      5  C   UNK d   0     -33.931 -14.469  12.539  0.00  0.00     0.115 C 
BRANCH   5   6
ATOM      6  C   UNK d   0     -34.517 -14.517  11.154  0.00  0.00     0.052 C 
BRANCH   6   7
ATOM      7  C   UNK d   0     -35.486 -15.661  10.973  0.00  0.00    -0.020 A 
ATOM      8  C   UNK d   0     -36.748 -15.593  10.635  0.00  0.00    -0.011 A 
ATOM      9  C   UNK d   0     -37.272 -16.948  10.594  0.00  0.00     0.067 A 
ATOM     10  C   UNK d   0     -38.504 -17.548  10.291  0.00  0.00     0.062 C 
ATOM     11  N   UNK d   0     -36.262 -17.778  10.928  0.00  0.00    -0.248 NA
ATOM     12  C   UNK d   0     -38.747 -18.902  10.036  0.00  0.00     0.041 A 
ATOM     13  N   UNK d   0     -38.292 -20.014  10.644  0.00  0.00    -0.355 N 
ATOM     14  C   UNK d   0     -39.553 -19.254   8.938  0.00  0.00    -0.022 A 
ATOM     15  C   UNK d   0     -38.782 -21.062   9.956  0.00  0.00     0.042 A 
ATOM     16  H   UNK d   0     -37.653 -20.057  11.554  0.00  0.00     0.166 HD
ATOM     17  C   UNK d   0     -38.619 -22.447  10.162  0.00  0.00     0.062 C 
ATOM     18  C   UNK d   0     -39.577 -20.625   8.879  0.00  0.00    -0.013 A 
ATOM     19  C   UNK d   0     -37.475 -23.147  10.449  0.00  0.00     0.067 A 
ATOM     20  N   UNK d   0     -36.395 -22.434  10.777  0.00  0.00    -0.248 NA
ATOM     21  C   UNK d   0     -37.089 -24.548  10.483  0.00  0.00    -0.011 A 
ATOM     22  C   UNK d   0     -35.330 -23.266  11.021  0.00  0.00     0.066 A 
ATOM     23  C   UNK d   0     -34.147 -22.655  11.411  0.00  0.00     0.062 C 
ATOM     24  C   UNK d   0     -35.831 -24.610  10.815  0.00  0.00    -0.020 A 
ATOM     25  C   UNK d   0     -33.928 -21.294  11.674  0.00  0.00     0.041 A 
ATOM     26  N   UNK d   0     -34.368 -20.189  11.060  0.00  0.00    -0.355 N 
ATOM     27  C   UNK d   0     -33.122 -20.941  12.779  0.00  0.00    -0.022 A 
ATOM     28  C   UNK d   0     -33.874 -19.142  11.740  0.00  0.00     0.042 A 
ATOM     29  H   UNK d   0     -35.001 -20.147  10.140  0.00  0.00     0.166 HD
ATOM     30  C   UNK d   0     -34.020 -17.760  11.541  0.00  0.00     0.062 C 
ATOM     31  C   UNK d   0     -33.083 -19.582  12.828  0.00  0.00    -0.013 A 
ATOM     32  C   UNK d   0     -35.160 -17.066  11.167  0.00  0.00     0.066 A 
BRANCH   8  33
ATOM     33  C   UNK d   0     -37.522 -14.371  10.347  0.00  0.00     0.151 C 
BRANCH  33  34
ATOM     34  C   UNK d   0     -38.881 -14.659   9.854  0.00  0.00     0.143 C 
ATOM     35  O   UNK d   0     -39.088 -14.889   8.654  0.00  0.00    -0.650 OA
BRANCH  34  36
ATOM     36  O   UNK d   0     -39.933 -14.670  10.741  0.00  0.00    -0.776 OA
ATOM     37  H   UNK d   0     -40.776 -15.232  10.562  0.00  0.00     0.167 HD
ENDBRANCH  34  36
ENDBRANCH  33  34
ENDBRANCH   8  33
BRANCH  31  38
ATOM     38  C   UNK d   0     -32.351 -18.748  13.854  0.00  0.00     0.151 C 
BRANCH  38  39
ATOM     39  C   UNK d   0     -33.190 -18.369  14.971  0.00  0.00     0.143 C 
ATOM     40  O   UNK d   0     -33.997 -17.425  14.907  0.00  0.00    -0.650 OA
BRANCH  39  41
ATOM     41  O   UNK d   0     -33.100 -19.078  16.168  0.00  0.00    -0.776 OA
ATOM     42  H   UNK d   0     -33.847 -19.753  16.362  0.00  0.00     0.167 HD
ENDBRANCH  39  41
ENDBRANCH  38  39
ENDBRANCH  31  38
BRANCH  27  43
ATOM     43  C   UNK d   0     -32.404 -21.830  13.763  0.00  0.00     0.052 C 
BRANCH  43  44
ATOM     44  C   UNK d   0     -31.227 -22.536  13.173  0.00  0.00     0.115 C 
BRANCH  44  45
ATOM     45  C   UNK d   0     -31.381 -23.975  13.513  0.00  0.00     0.139 C 
ATOM     46  O   UNK d   0     -30.832 -24.821  12.765  0.00  0.00    -0.650 OA
BRANCH  45  47
ATOM     47  O   UNK d   0     -32.091 -24.412  14.610  0.00  0.00    -0.776 OA
ATOM     48  H   UNK d   0     -32.428 -25.383  14.709  0.00  0.00     0.167 HD
ENDBRANCH  45  47
ENDBRANCH  44  45
ENDBRANCH  43  44
ENDBRANCH  27  43
BRANCH  24  49
ATOM     49  C   UNK d   0     -35.043 -25.840  11.004  0.00  0.00     0.052 C 
BRANCH  49  50
ATOM     50  C   UNK d   0     -34.506 -26.327   9.683  0.00  0.00     0.115 C 
BRANCH  50  51
ATOM     51  C   UNK d   0     -33.058 -26.417   9.546  0.00  0.00     0.139 C 
ATOM     52  O   UNK d   0     -32.499 -27.289   8.841  0.00  0.00    -0.650 OA
BRANCH  51  53
ATOM     53  O   UNK d   0     -32.249 -25.512  10.215  0.00  0.00    -0.776 OA
ATOM     54  H   UNK d   0     -31.274 -25.476   9.972  0.00  0.00     0.167 HD
ENDBRANCH  51  53
ENDBRANCH  50  51
ENDBRANCH  49  50
ENDBRANCH  24  49
BRANCH  21  55
ATOM     55  C   UNK d   0     -38.018 -25.678  10.186  0.00  0.00     0.151 C 
BRANCH  55  56
ATOM     56  C   UNK d   0     -38.776 -26.096  11.375  0.00  0.00     0.143 C 
ATOM     57  O   UNK d   0     -39.879 -25.602  11.681  0.00  0.00    -0.650 OA
BRANCH  56  58
ATOM     58  O   UNK d   0     -38.222 -27.089  12.182  0.00  0.00    -0.776 OA
ATOM     59  H   UNK d   0     -37.218 -27.279  12.013  0.00  0.00     0.167 HD
ENDBRANCH  56  58
ENDBRANCH  55  56
ENDBRANCH  21  55
BRANCH  18  60
ATOM     60  C   UNK d   0     -40.320 -21.433   7.844  0.00  0.00     0.151 C 
BRANCH  60  61
ATOM     61  C   UNK d   0     -41.639 -21.722   8.427  0.00  0.00     0.143 C 
ATOM     62  O   UNK d   0     -41.965 -21.620   9.610  0.00  0.00    -0.650 OA
BRANCH  61  63
ATOM     63  O   UNK d   0     -42.621 -22.163   7.508  0.00  0.00    -0.776 OA
ATOM     64  H   UNK d   0     -42.580 -23.084   7.108  0.00  0.00     0.167 HD
ENDBRANCH  61  63
ENDBRANCH  60  61
ENDBRANCH  18  60
BRANCH  14  65
ATOM     65  C   UNK d   0     -40.373 -18.403   8.011  0.00  0.00     0.052 C 
BRANCH  65  66
ATOM     66  C   UNK d   0     -41.791 -18.274   8.441  0.00  0.00     0.115 C 
BRANCH  66  67
ATOM     67  C   UNK d   0     -42.093 -17.934   9.803  0.00  0.00     0.139 C 
ATOM     68  O   UNK d   0     -41.944 -16.713  10.178  0.00  0.00    -0.650 OA
BRANCH  67  69
ATOM     69  O   UNK d   0     -42.543 -18.782  10.815  0.00  0.00    -0.776 OA
ATOM     70  H   UNK d   0     -41.971 -19.622  10.983  0.00  0.00     0.167 HD
ENDBRANCH  67  69
ENDBRANCH  66  67
ENDBRANCH  65  66
ENDBRANCH  14  65
ENDBRANCH   6   7
ENDBRANCH   5   6
ENDBRANCH   2   5
TORSDOF 28
ENDMDL
MODEL 7
REMARK VINA RESULT:     -10.2     28.189     32.038
REMARK  28 active torsions:
REMARK  status: ('A' for Active; 'I' for Inactive)
REMARK    1  A    between atoms: C_2  and  O_3 
REMARK    2  A    between atoms: C_2  and  C_4 
REMARK    3  A    between atoms: C_4  and  C_5 
REMARK    4  A    between atoms: C_5  and  C_6 
REMARK    5  A    between atoms: C_7  and  C_8 
REMARK    6  A    between atoms: C_8  and  C_9 
REMARK    7  A    between atoms: C_9  and  O_11 
REMARK    8  A    between atoms: C_28  and  C_29 
REMARK    9  A    between atoms: C_29  and  C_30 
REMARK   10  A    between atoms: C_30  and  O_32 
REMARK   11  A    between atoms: C_33  and  C_34 
REMARK   12  A    between atoms: C_34  and  C_35 
REMARK   13  A    between atoms: C_35  and  C_36 
REMARK   14  A    between atoms: C_36  and  O_38 
REMARK   15  A    between atoms: C_39  and  C_40 
REMARK   16  A    between atoms: C_40  and  C_41 
REMARK   17  A    between atoms: C_41  and  C_42 
REMARK   18  A    between atoms: C_42  and  O_44 
REMARK   19  A    between atoms: C_45  and  C_46 
REMARK   20  A    between atoms: C_46  and  C_47 
REMARK   21  A    between atoms: C_47  and  O_49 
REMARK   22  A    between atoms: C_50  and  C_51 
REMARK   23  A    between atoms: C_51  and  C_52 
REMARK   24  A    between atoms: C_52  and  O_54 
REMARK   25  A    between atoms: C_55  and  C_56 
REMARK   26  A    between atoms: C_56  and  C_57 
REMARK   27  A    between atoms: C_57  and  C_58 
REMARK   28  A    between atoms: C_58  and  O_60 
ROOT
ATOM      1  O   UNK d   0     -34.391 -13.814  12.630  0.00  0.00    -0.650 OA
ATOM      2  C   UNK d   0     -34.892 -13.409  11.558  0.00  0.00     0.139 C 
ENDROOT
BRANCH   2   3
ATOM      3  O   UNK d   0     -34.933 -12.059  11.301  0.00  0.00    -0.776 OA
ATOM      4  H   UNK d   0     -34.962 -11.705  10.343  0.00  0.00     0.167 HD
ENDBRANCH   2   3
BRANCH   2   5
ATOM      5  C   UNK d   0     -35.437 -14.384  10.571  0.00  0.00     0.115 C 
BRANCH   5   6
ATOM      6  C   UNK d   0     -36.927 -14.215  10.447  0.00  0.00     0.052 C 
BRANCH   6   7
ATOM      7  C   UNK d   0     -37.662 -15.535  10.432  0.00  0.00    -0.020 A 
ATOM      8  C   UNK d   0     -38.939 -15.735  10.232  0.00  0.00    -0.011 A 
ATOM      9  C   UNK d   0     -39.185 -17.165  10.318  0.00  0.00     0.067 A 
ATOM     10  C   UNK d   0     -40.296 -18.012  10.184  0.00  0.00     0.062 C 
ATOM     11  N   UNK d   0     -38.001 -17.759  10.579  0.00  0.00    -0.248 NA
ATOM     12  C   UNK d   0     -40.288 -19.402  10.025  0.00  0.00     0.041 A 
ATOM     13  N   UNK d   0     -39.563 -20.359  10.635  0.00  0.00    -0.355 N 
ATOM     14  C   UNK d   0     -41.112 -19.979   9.042  0.00  0.00    -0.022 A 
ATOM     15  C   UNK d   0     -39.899 -21.528  10.058  0.00  0.00     0.042 A 
ATOM     16  H   UNK d   0     -38.842 -20.213  11.469  0.00  0.00     0.166 HD
ATOM     17  C   UNK d   0     -39.445 -22.837  10.314  0.00  0.00     0.062 C 
ATOM     18  C   UNK d   0     -40.868 -21.330   9.055  0.00  0.00    -0.013 A 
ATOM     19  C   UNK d   0     -38.162 -23.282  10.508  0.00  0.00     0.067 A 
ATOM     20  N   UNK d   0     -37.219 -22.352  10.678  0.00  0.00    -0.248 NA
ATOM     21  C   UNK d   0     -37.503 -24.576  10.570  0.00  0.00    -0.011 A 
ATOM     22  C   UNK d   0     -35.991 -22.943  10.845  0.00  0.00     0.066 A 
ATOM     23  C   UNK d   0     -34.921 -22.090  11.071  0.00  0.00     0.062 C 
ATOM     24  C   UNK d   0     -36.232 -24.371  10.763  0.00  0.00    -0.020 A 
ATOM     25  C   UNK d   0     -34.952 -20.697  11.239  0.00  0.00     0.041 A 
ATOM     26  N   UNK d   0     -35.662 -19.744  10.623  0.00  0.00    -0.355 N 
ATOM     27  C   UNK d   0     -34.128 -20.118  12.229  0.00  0.00    -0.022 A 
ATOM     28  C   UNK d   0     -35.321 -18.576  11.190  0.00  0.00     0.042 A 
ATOM     29  H   UNK d   0     -36.378 -19.890   9.778  0.00  0.00     0.166 HD
ATOM     30  C   UNK d   0     -35.759 -17.266  10.940  0.00  0.00     0.062 C 
ATOM     31  C   UNK d   0     -34.356 -18.777  12.206  0.00  0.00    -0.013 A 
ATOM     32  C   UNK d   0     -37.045 -16.833  10.659  0.00  0.00     0.066 A 
BRANCH   8  33
ATOM     33  C   UNK d   0     -39.966 -14.709   9.970  0.00  0.00     0.151 C 
BRANCH  33  34
ATOM     34  C   UNK d   0     -41.199 -14.923  10.749  0.00  0.00     0.143 C 
ATOM     35  O   UNK d   0     -42.314 -14.804  10.221  0.00  0.00    -0.650 OA
BRANCH  34  36
ATOM     36  O   UNK d   0     -41.107 -15.258  12.080  0.00  0.00    -0.776 OA
ATOM     37  H   UNK d   0     -41.511 -16.134  12.440  0.00  0.00     0.167 HD
ENDBRANCH  34  36
ENDBRANCH  33  34
ENDBRANCH   8  33
BRANCH  31  38
ATOM     38  C   UNK d   0     -33.707 -17.747  13.101  0.00  0.00     0.151 C 
BRANCH  38  39
ATOM     39  C   UNK d   0     -32.514 -17.169  12.520  0.00  0.00     0.143 C 
ATOM     40  O   UNK d   0     -31.673 -16.555  13.199  0.00  0.00    -0.650 OA
BRANCH  39  41
ATOM     41  O   UNK d   0     -32.286 -17.298  11.150  0.00  0.00    -0.776 OA
ATOM     42  H   UNK d   0     -32.675 -16.566  10.546  0.00  0.00     0.167 HD
ENDBRANCH  39  41
ENDBRANCH  38  39
ENDBRANCH  31  38
BRANCH  27  43
ATOM     43  C   UNK d   0     -33.154 -20.780  13.172  0.00  0.00     0.052 C 
BRANCH  43  44
ATOM     44  C   UNK d   0     -31.822 -21.049  12.552  0.00  0.00     0.115 C 
BRANCH  44  45
ATOM     45  C   UNK d   0     -31.638 -22.524  12.563  0.00  0.00     0.139 C 
ATOM     46  O   UNK d   0     -32.410 -23.210  13.277  0.00  0.00    -0.650 OA
BRANCH  45  47
ATOM     47  O   UNK d   0     -30.667 -23.162  11.822  0.00  0.00    -0.776 OA
ATOM     48  H   UNK d   0     -29.978 -23.807  12.239  0.00  0.00     0.167 HD
ENDBRANCH  45  47
ENDBRANCH  44  45
ENDBRANCH  43  44
ENDBRANCH  27  43
BRANCH  24  49
ATOM     49  C   UNK d   0     -35.199 -25.409  10.926  0.00  0.00     0.052 C 
BRANCH  49  50
ATOM     50  C   UNK d   0     -34.231 -25.370   9.772  0.00  0.00     0.115 C 
BRANCH  50  51
ATOM     51  C   UNK d   0     -32.823 -25.172  10.092  0.00  0.00     0.139 C 
ATOM     52  O   UNK d   0     -32.204 -25.902  10.902  0.00  0.00    -0.650 OA
BRANCH  51  53
ATOM     53  O   UNK d   0     -32.121 -24.139   9.490  0.00  0.00    -0.776 OA
ATOM     54  H   UNK d   0     -31.852 -23.354  10.057  0.00  0.00     0.167 HD
ENDBRANCH  51  53
ENDBRANCH  50  51
ENDBRANCH  49  50
ENDBRANCH  24  49
BRANCH  21  55
ATOM     55  C   UNK d   0     -38.213 -25.882  10.434  0.00  0.00     0.151 C 
BRANCH  55  56
ATOM     56  C   UNK d   0     -38.775 -26.340  11.714  0.00  0.00     0.143 C 
ATOM     57  O   UNK d   0     -38.151 -27.080  12.500  0.00  0.00    -0.650 OA
BRANCH  56  58
ATOM     58  O   UNK d   0     -40.062 -25.918  12.046  0.00  0.00    -0.776 OA
ATOM     59  H   UNK d   0     -40.119 -24.963  12.444  0.00  0.00     0.167 HD
ENDBRANCH  56  58
ENDBRANCH  55  56
ENDBRANCH  21  55
BRANCH  18  60
ATOM     60  C   UNK d   0     -41.534 -22.337   8.150  0.00  0.00     0.151 C 
BRANCH  60  61
ATOM     61  C   UNK d   0     -40.571 -22.609   7.071  0.00  0.00     0.143 C 
ATOM     62  O   UNK d   0     -39.411 -22.204   6.992  0.00  0.00    -0.650 OA
BRANCH  61  63
ATOM     63  O   UNK d   0     -41.056 -23.429   6.024  0.00  0.00    -0.776 OA
ATOM     64  H   UNK d   0     -41.312 -23.036   5.135  0.00  0.00     0.167 HD
ENDBRANCH  61  63
ENDBRANCH  60  61
ENDBRANCH  18  60
BRANCH  14  65
ATOM     65  C   UNK d   0     -42.172 -19.371   8.169  0.00  0.00     0.052 C 
BRANCH  65  66
ATOM     66  C   UNK d   0     -41.652 -18.919   6.851  0.00  0.00     0.115 C 
BRANCH  66  67
ATOM     67  C   UNK d   0     -41.729 -17.531   6.492  0.00  0.00     0.139 C 
ATOM     68  O   UNK d   0     -42.429 -17.201   5.465  0.00  0.00    -0.650 OA
BRANCH  67  69
ATOM     69  O   UNK d   0     -41.125 -16.449   7.132  0.00  0.00    -0.776 OA
ATOM     70  H   UNK d   0     -41.542 -16.171   8.032  0.00  0.00     0.167 HD
ENDBRANCH  67  69
ENDBRANCH  66  67
ENDBRANCH  65  66
ENDBRANCH  14  65
ENDBRANCH   6   7
ENDBRANCH   5   6
ENDBRANCH   2   5
TORSDOF 28
ENDMDL
MODEL 8
REMARK VINA RESULT:     -10.1      1.636      8.392
REMARK  28 active torsions:
REMARK  status: ('A' for Active; 'I' for Inactive)
REMARK    1  A    between atoms: C_2  and  O_3 
REMARK    2  A    between atoms: C_2  and  C_4 
REMARK    3  A    between atoms: C_4  and  C_5 
REMARK    4  A    between atoms: C_5  and  C_6 
REMARK    5  A    between atoms: C_7  and  C_8 
REMARK    6  A    between atoms: C_8  and  C_9 
REMARK    7  A    between atoms: C_9  and  O_11 
REMARK    8  A    between atoms: C_28  and  C_29 
REMARK    9  A    between atoms: C_29  and  C_30 
REMARK   10  A    between atoms: C_30  and  O_32 
REMARK   11  A    between atoms: C_33  and  C_34 
REMARK   12  A    between atoms: C_34  and  C_35 
REMARK   13  A    between atoms: C_35  and  C_36 
REMARK   14  A    between atoms: C_36  and  O_38 
REMARK   15  A    between atoms: C_39  and  C_40 
REMARK   16  A    between atoms: C_40  and  C_41 
REMARK   17  A    between atoms: C_41  and  C_42 
REMARK   18  A    between atoms: C_42  and  O_44 
REMARK   19  A    between atoms: C_45  and  C_46 
REMARK   20  A    between atoms: C_46  and  C_47 
REMARK   21  A    between atoms: C_47  and  O_49 
REMARK   22  A    between atoms: C_50  and  C_51 
REMARK   23  A    between atoms: C_51  and  C_52 
REMARK   24  A    between atoms: C_52  and  O_54 
REMARK   25  A    between atoms: C_55  and  C_56 
REMARK   26  A    between atoms: C_56  and  C_57 
REMARK   27  A    between atoms: C_57  and  C_58 
REMARK   28  A    between atoms: C_58  and  O_60 
ROOT
ATOM      1  O   UNK d   0      -6.815 -15.994  -8.490  0.00  0.00    -0.650 OA
ATOM      2  C   UNK d   0      -6.528 -16.688  -7.490  0.00  0.00     0.139 C 
ENDROOT
BRANCH   2   3
ATOM      3  O   UNK d   0      -5.348 -16.456  -6.825  0.00  0.00    -0.776 OA
ATOM      4  H   UNK d   0      -4.521 -16.117  -7.321  0.00  0.00     0.167 HD
ENDBRANCH   2   3
BRANCH   2   5
ATOM      5  C   UNK d   0      -7.459 -17.756  -7.028  0.00  0.00     0.115 C 
BRANCH   5   6
ATOM      6  C   UNK d   0      -7.358 -17.921  -5.536  0.00  0.00     0.052 C 
BRANCH   6   7
ATOM      7  C   UNK d   0      -7.897 -16.729  -4.782  0.00  0.00    -0.020 A 
ATOM      8  C   UNK d   0      -7.336 -16.096  -3.783  0.00  0.00    -0.011 A 
ATOM      9  C   UNK d   0      -8.229 -15.023  -3.379  0.00  0.00     0.067 A 
ATOM     10  C   UNK d   0      -8.213 -13.999  -2.418  0.00  0.00     0.062 C 
ATOM     11  N   UNK d   0      -9.313 -15.080  -4.181  0.00  0.00    -0.248 NA
ATOM     12  C   UNK d   0      -9.048 -12.878  -2.360  0.00  0.00     0.041 A 
ATOM     13  N   UNK d   0     -10.374 -12.750  -2.554  0.00  0.00    -0.355 N 
ATOM     14  C   UNK d   0      -8.477 -11.616  -2.114  0.00  0.00    -0.022 A 
ATOM     15  C   UNK d   0     -10.658 -11.438  -2.446  0.00  0.00     0.042 A 
ATOM     16  H   UNK d   0     -11.098 -13.573  -2.745  0.00  0.00     0.166 HD
ATOM     17  C   UNK d   0     -11.887 -10.758  -2.558  0.00  0.00     0.062 C 
ATOM     18  C   UNK d   0      -9.494 -10.696  -2.170  0.00  0.00    -0.013 A 
ATOM     19  C   UNK d   0     -12.876 -10.913  -3.495  0.00  0.00     0.067 A 
ATOM     20  N   UNK d   0     -12.782 -11.971  -4.304  0.00  0.00    -0.248 NA
ATOM     21  C   UNK d   0     -14.071 -10.182  -3.884  0.00  0.00    -0.011 A 
ATOM     22  C   UNK d   0     -13.829 -11.985  -5.194  0.00  0.00     0.066 A 
ATOM     23  C   UNK d   0     -13.876 -13.057  -6.072  0.00  0.00     0.062 C 
ATOM     24  C   UNK d   0     -14.622 -10.813  -4.881  0.00  0.00    -0.020 A 
ATOM     25  C   UNK d   0     -13.035 -14.180  -6.106  0.00  0.00     0.041 A 
ATOM     26  N   UNK d   0     -11.714 -14.306  -5.928  0.00  0.00    -0.355 N 
ATOM     27  C   UNK d   0     -13.609 -15.447  -6.349  0.00  0.00    -0.022 A 
ATOM     28  C   UNK d   0     -11.427 -15.612  -6.044  0.00  0.00     0.042 A 
ATOM     29  H   UNK d   0     -10.986 -13.477  -5.747  0.00  0.00     0.166 HD
ATOM     30  C   UNK d   0     -10.209 -16.302  -5.944  0.00  0.00     0.062 C 
ATOM     31  C   UNK d   0     -12.599 -16.359  -6.311  0.00  0.00    -0.013 A 
ATOM     32  C   UNK d   0      -9.175 -16.084  -5.047  0.00  0.00     0.066 A 
BRANCH   8  33
ATOM     33  C   UNK d   0      -6.035 -16.402  -3.160  0.00  0.00     0.151 C 
BRANCH  33  34
ATOM     34  C   UNK d   0      -5.006 -15.390  -3.461  0.00  0.00     0.143 C 
ATOM     35  O   UNK d   0      -4.134 -15.103  -2.629  0.00  0.00    -0.650 OA
BRANCH  34  36
ATOM     36  O   UNK d   0      -5.019 -14.757  -4.682  0.00  0.00    -0.776 OA
ATOM     37  H   UNK d   0      -4.885 -15.281  -5.557  0.00  0.00     0.167 HD
ENDBRANCH  34  36
ENDBRANCH  33  34
ENDBRANCH   8  33
BRANCH  31  38
ATOM     38  C   UNK d   0     -12.738 -17.851  -6.502  0.00  0.00     0.151 C 
BRANCH  38  39
ATOM     39  C   UNK d   0     -12.623 -18.252  -7.888  0.00  0.00     0.143 C 
ATOM     40  O   UNK d   0     -13.507 -18.910  -8.466  0.00  0.00    -0.650 OA
BRANCH  39  41
ATOM     41  O   UNK d   0     -11.487 -17.896  -8.614  0.00  0.00    -0.776 OA
ATOM     42  H   UNK d   0     -11.055 -16.996  -8.382  0.00  0.00     0.167 HD
ENDBRANCH  39  41
ENDBRANCH  38  39
ENDBRANCH  31  38
BRANCH  27  43
ATOM     43  C   UNK d   0     -15.049 -15.812  -6.611  0.00  0.00     0.052 C 
BRANCH  43  44
ATOM     44  C   UNK d   0     -15.389 -15.869  -8.065  0.00  0.00     0.115 C 
BRANCH  44  45
ATOM     45  C   UNK d   0     -16.489 -16.858  -8.206  0.00  0.00     0.139 C 
ATOM     46  O   UNK d   0     -16.513 -17.833  -7.414  0.00  0.00    -0.650 OA
BRANCH  45  47
ATOM     47  O   UNK d   0     -17.478 -16.745  -9.159  0.00  0.00    -0.776 OA
ATOM     48  H   UNK d   0     -18.359 -16.231  -8.994  0.00  0.00     0.167 HD
ENDBRANCH  45  47
ENDBRANCH  44  45
ENDBRANCH  43  44
ENDBRANCH  27  43
BRANCH  24  49
ATOM     49  C   UNK d   0     -15.874 -10.439  -5.559  0.00  0.00     0.052 C 
BRANCH  49  50
ATOM     50  C   UNK d   0     -15.629  -9.314  -6.532  0.00  0.00     0.115 C 
BRANCH  50  51
ATOM     51  C   UNK d   0     -16.426  -8.106  -6.367  0.00  0.00     0.139 C 
ATOM     52  O   UNK d   0     -17.144  -7.902  -5.359  0.00  0.00    -0.650 OA
BRANCH  51  53
ATOM     53  O   UNK d   0     -16.406  -7.131  -7.352  0.00  0.00    -0.776 OA
ATOM     54  H   UNK d   0     -15.539  -6.955  -7.829  0.00  0.00     0.167 HD
ENDBRANCH  51  53
ENDBRANCH  50  51
ENDBRANCH  49  50
ENDBRANCH  24  49
BRANCH  21  55
ATOM     55  C   UNK d   0     -14.540  -8.933  -3.215  0.00  0.00     0.151 C 
BRANCH  55  56
ATOM     56  C   UNK d   0     -15.274  -9.215  -1.971  0.00  0.00     0.143 C 
ATOM     57  O   UNK d   0     -14.702  -9.419  -0.882  0.00  0.00    -0.650 OA
BRANCH  56  58
ATOM     58  O   UNK d   0     -16.666  -9.252  -2.033  0.00  0.00    -0.776 OA
ATOM     59  H   UNK d   0     -17.096  -8.522  -2.629  0.00  0.00     0.167 HD
ENDBRANCH  56  58
ENDBRANCH  55  56
ENDBRANCH  21  55
BRANCH  18  60
ATOM     60  C   UNK d   0      -9.326  -9.210  -1.972  0.00  0.00     0.151 C 
BRANCH  60  61
ATOM     61  C   UNK d   0      -9.722  -8.941  -0.581  0.00  0.00     0.143 C 
ATOM     62  O   UNK d   0     -10.862  -8.957  -0.117  0.00  0.00    -0.650 OA
BRANCH  61  63
ATOM     63  O   UNK d   0      -8.657  -8.634   0.300  0.00  0.00    -0.776 OA
ATOM     64  H   UNK d   0      -7.746  -9.039   0.173  0.00  0.00     0.167 HD
ENDBRANCH  61  63
ENDBRANCH  60  61
ENDBRANCH  18  60
BRANCH  14  65
ATOM     65  C   UNK d   0      -7.075 -11.231  -1.736  0.00  0.00     0.052 C 
BRANCH  65  66
ATOM     66  C   UNK d   0      -6.811 -11.352  -0.277  0.00  0.00     0.115 C 
BRANCH  66  67
ATOM     67  C   UNK d   0      -6.113 -12.500   0.227  0.00  0.00     0.139 C 
ATOM     68  O   UNK d   0      -6.207 -12.774   1.480  0.00  0.00    -0.650 OA
BRANCH  67  69
ATOM     69  O   UNK d   0      -5.316 -13.395  -0.485  0.00  0.00    -0.776 OA
ATOM     70  H   UNK d   0      -4.311 -13.378  -0.259  0.00  0.00     0.167 HD
ENDBRANCH  67  69
ENDBRANCH  66  67
ENDBRANCH  65  66
ENDBRANCH  14  65
ENDBRANCH   6   7
ENDBRANCH   5   6
ENDBRANCH   2   5
TORSDOF 28
ENDMDL
MODEL 9
REMARK VINA RESULT:     -10.0     27.129     30.032
REMARK  28 active torsions:
REMARK  status: ('A' for Active; 'I' for Inactive)
REMARK    1  A    between atoms: C_2  and  O_3 
REMARK    2  A    between atoms: C_2  and  C_4 
REMARK    3  A    between atoms: C_4  and  C_5 
REMARK    4  A    between atoms: C_5  and  C_6 
REMARK    5  A    between atoms: C_7  and  C_8 
REMARK    6  A    between atoms: C_8  and  C_9 
REMARK    7  A    between atoms: C_9  and  O_11 
REMARK    8  A    between atoms: C_28  and  C_29 
REMARK    9  A    between atoms: C_29  and  C_30 
REMARK   10  A    between atoms: C_30  and  O_32 
REMARK   11  A    between atoms: C_33  and  C_34 
REMARK   12  A    between atoms: C_34  and  C_35 
REMARK   13  A    between atoms: C_35  and  C_36 
REMARK   14  A    between atoms: C_36  and  O_38 
REMARK   15  A    between atoms: C_39  and  C_40 
REMARK   16  A    between atoms: C_40  and  C_41 
REMARK   17  A    between atoms: C_41  and  C_42 
REMARK   18  A    between atoms: C_42  and  O_44 
REMARK   19  A    between atoms: C_45  and  C_46 
REMARK   20  A    between atoms: C_46  and  C_47 
REMARK   21  A    between atoms: C_47  and  O_49 
REMARK   22  A    between atoms: C_50  and  C_51 
REMARK   23  A    between atoms: C_51  and  C_52 
REMARK   24  A    between atoms: C_52  and  O_54 
REMARK   25  A    between atoms: C_55  and  C_56 
REMARK   26  A    between atoms: C_56  and  C_57 
REMARK   27  A    between atoms: C_57  and  C_58 
REMARK   28  A    between atoms: C_58  and  O_60 
ROOT
ATOM      1  O   UNK d   0     -40.451 -21.334  11.685  0.00  0.00    -0.650 OA
ATOM      2  C   UNK d   0     -40.744 -21.748  10.541  0.00  0.00     0.139 C 
ENDROOT
BRANCH   2   3
ATOM      3  O   UNK d   0     -41.872 -21.269   9.921  0.00  0.00    -0.776 OA
ATOM      4  H   UNK d   0     -41.922 -20.303   9.589  0.00  0.00     0.167 HD
ENDBRANCH   2   3
BRANCH   2   5
ATOM      5  C   UNK d   0     -39.875 -22.751   9.863  0.00  0.00     0.115 C 
BRANCH   5   6
ATOM      6  C   UNK d   0     -39.234 -22.142   8.645  0.00  0.00     0.052 C 
BRANCH   6   7
ATOM      7  C   UNK d   0     -38.334 -20.978   8.983  0.00  0.00    -0.020 A 
ATOM      8  C   UNK d   0     -38.446 -19.739   8.578  0.00  0.00    -0.011 A 
ATOM      9  C   UNK d   0     -37.347 -18.981   9.153  0.00  0.00     0.067 A 
ATOM     10  C   UNK d   0     -36.917 -17.646   9.131  0.00  0.00     0.062 C 
ATOM     11  N   UNK d   0     -36.611 -19.840   9.890  0.00  0.00    -0.248 NA
ATOM     12  C   UNK d   0     -35.982 -17.042   9.979  0.00  0.00     0.041 A 
ATOM     13  N   UNK d   0     -34.793 -17.475  10.440  0.00  0.00    -0.355 N 
ATOM     14  C   UNK d   0     -36.281 -15.786  10.537  0.00  0.00    -0.022 A 
ATOM     15  C   UNK d   0     -34.334 -16.530  11.281  0.00  0.00     0.042 A 
ATOM     16  H   UNK d   0     -34.280 -18.422  10.160  0.00  0.00     0.166 HD
ATOM     17  C   UNK d   0     -33.142 -16.476  12.031  0.00  0.00     0.062 C 
ATOM     18  C   UNK d   0     -35.240 -15.455  11.368  0.00  0.00    -0.013 A 
ATOM     19  C   UNK d   0     -32.552 -17.458  12.784  0.00  0.00     0.067 A 
ATOM     20  N   UNK d   0     -33.038 -18.695  12.653  0.00  0.00    -0.248 NA
ATOM     21  C   UNK d   0     -31.478 -17.522  13.762  0.00  0.00    -0.011 A 
ATOM     22  C   UNK d   0     -32.362 -19.563  13.475  0.00  0.00     0.066 A 
ATOM     23  C   UNK d   0     -32.742 -20.895  13.412  0.00  0.00     0.062 C 
ATOM     24  C   UNK d   0     -31.375 -18.756  14.166  0.00  0.00    -0.020 A 
ATOM     25  C   UNK d   0     -33.674 -21.483  12.543  0.00  0.00     0.041 A 
ATOM     26  N   UNK d   0     -34.863 -21.059  12.097  0.00  0.00    -0.355 N 
ATOM     27  C   UNK d   0     -33.371 -22.742  11.980  0.00  0.00    -0.022 A 
ATOM     28  C   UNK d   0     -35.327 -22.005  11.265  0.00  0.00     0.042 A 
ATOM     29  H   UNK d   0     -35.382 -20.113  12.387  0.00  0.00     0.166 HD
ATOM     30  C   UNK d   0     -36.515 -22.076  10.519  0.00  0.00     0.062 C 
ATOM     31  C   UNK d   0     -34.412 -23.079  11.170  0.00  0.00    -0.013 A 
ATOM     32  C   UNK d   0     -37.153 -21.057   9.829  0.00  0.00     0.066 A 
BRANCH   8  33
ATOM     33  C   UNK d   0     -39.489 -19.188   7.692  0.00  0.00     0.151 C 
BRANCH  33  34
ATOM     34  C   UNK d   0     -40.485 -18.379   8.418  0.00  0.00     0.143 C 
ATOM     35  O   UNK d   0     -40.630 -18.497   9.643  0.00  0.00    -0.650 OA
BRANCH  34  36
ATOM     36  O   UNK d   0     -41.264 -17.484   7.722  0.00  0.00    -0.776 OA
ATOM     37  H   UNK d   0     -42.230 -17.714   7.451  0.00  0.00     0.167 HD
ENDBRANCH  34  36
ENDBRANCH  33  34
ENDBRANCH   8  33
BRANCH  31  38
ATOM     38  C   UNK d   0     -34.526 -24.339  10.343  0.00  0.00     0.151 C 
BRANCH  38  39
ATOM     39  C   UNK d   0     -35.207 -25.409  11.041  0.00  0.00     0.143 C 
ATOM     40  O   UNK d   0     -36.440 -25.558  10.990  0.00  0.00    -0.650 OA
BRANCH  39  41
ATOM     41  O   UNK d   0     -34.465 -26.313  11.802  0.00  0.00    -0.776 OA
ATOM     42  H   UNK d   0     -34.616 -26.296  12.815  0.00  0.00     0.167 HD
ENDBRANCH  39  41
ENDBRANCH  38  39
ENDBRANCH  31  38
BRANCH  27  43
ATOM     43  C   UNK d   0     -32.159 -23.616  12.183  0.00  0.00     0.052 C 
BRANCH  43  44
ATOM     44  C   UNK d   0     -31.470 -23.977  10.906  0.00  0.00     0.115 C 
BRANCH  44  45
ATOM     45  C   UNK d   0     -30.946 -25.356  11.082  0.00  0.00     0.139 C 
ATOM     46  O   UNK d   0     -29.819 -25.627  10.599  0.00  0.00    -0.650 OA
BRANCH  45  47
ATOM     47  O   UNK d   0     -31.641 -26.340  11.752  0.00  0.00    -0.776 OA
ATOM     48  H   UNK d   0     -31.325 -27.322  11.790  0.00  0.00     0.167 HD
ENDBRANCH  45  47
ENDBRANCH  44  45
ENDBRANCH  43  44
ENDBRANCH  27  43
BRANCH  24  49
ATOM     49  C   UNK d   0     -30.388 -19.275  15.128  0.00  0.00     0.052 C 
BRANCH  49  50
ATOM     50  C   UNK d   0     -30.883 -19.089  16.539  0.00  0.00     0.115 C 
BRANCH  50  51
ATOM     51  C   UNK d   0     -32.308 -19.282  16.774  0.00  0.00     0.139 C 
ATOM     52  O   UNK d   0     -33.112 -18.325  16.875  0.00  0.00    -0.650 OA
BRANCH  51  53
ATOM     53  O   UNK d   0     -32.815 -20.566  16.898  0.00  0.00    -0.776 OA
ATOM     54  H   UNK d   0     -33.795 -20.673  17.094  0.00  0.00     0.167 HD
ENDBRANCH  51  53
ENDBRANCH  50  51
ENDBRANCH  49  50
ENDBRANCH  24  49
BRANCH  21  55
ATOM     55  C   UNK d   0     -30.665 -16.345  14.187  0.00  0.00     0.151 C 
BRANCH  55  56
ATOM     56  C   UNK d   0     -30.885 -15.179  13.317  0.00  0.00     0.143 C 
ATOM     57  O   UNK d   0     -30.248 -14.995  12.262  0.00  0.00    -0.650 OA
BRANCH  56  58
ATOM     58  O   UNK d   0     -31.851 -14.253  13.706  0.00  0.00    -0.776 OA
ATOM     59  H   UNK d   0     -31.966 -13.447  13.065  0.00  0.00     0.167 HD
ENDBRANCH  56  58
ENDBRANCH  55  56
ENDBRANCH  21  55
BRANCH  18  60
ATOM     60  C   UNK d   0     -35.151 -14.187  12.180  0.00  0.00     0.151 C 
BRANCH  60  61
ATOM     61  C   UNK d   0     -34.305 -13.268  11.403  0.00  0.00     0.143 C 
ATOM     62  O   UNK d   0     -33.149 -13.463  11.026  0.00  0.00    -0.650 OA
BRANCH  61  63
ATOM     63  O   UNK d   0     -34.909 -12.034  11.064  0.00  0.00    -0.776 OA
ATOM     64  H   UNK d   0     -34.564 -11.480  10.300  0.00  0.00     0.167 HD
ENDBRANCH  61  63
ENDBRANCH  60  61
ENDBRANCH  18  60
BRANCH  14  65
ATOM     65  C   UNK d   0     -37.418 -14.840  10.271  0.00  0.00     0.052 C 
BRANCH  65  66
ATOM     66  C   UNK d   0     -38.743 -15.405  10.640  0.00  0.00     0.115 C 
BRANCH  66  67
ATOM     67  C   UNK d   0     -39.932 -14.900  10.012  0.00  0.00     0.139 C 
ATOM     68  O   UNK d   0     -40.041 -15.002   8.734  0.00  0.00    -0.650 OA
BRANCH  67  69
ATOM     69  O   UNK d   0     -41.027 -14.291  10.622  0.00  0.00    -0.776 OA
ATOM     70  H   UNK d   0     -41.524 -13.590  10.054  0.00  0.00     0.167 HD
ENDBRANCH  67  69
ENDBRANCH  66  67
ENDBRANCH  65  66
ENDBRANCH  14  65
ENDBRANCH   6   7
ENDBRANCH   5   6
ENDBRANCH   2   5
TORSDOF 28
ENDMDL
MODEL 10
REMARK VINA RESULT:      -9.6      1.494      7.994
REMARK  28 active torsions:
REMARK  status: ('A' for Active; 'I' for Inactive)
REMARK    1  A    between atoms: C_2  and  O_3 
REMARK    2  A    between atoms: C_2  and  C_4 
REMARK    3  A    between atoms: C_4  and  C_5 
REMARK    4  A    between atoms: C_5  and  C_6 
REMARK    5  A    between atoms: C_7  and  C_8 
REMARK    6  A    between atoms: C_8  and  C_9 
REMARK    7  A    between atoms: C_9  and  O_11 
REMARK    8  A    between atoms: C_28  and  C_29 
REMARK    9  A    between atoms: C_29  and  C_30 
REMARK   10  A    between atoms: C_30  and  O_32 
REMARK   11  A    between atoms: C_33  and  C_34 
REMARK   12  A    between atoms: C_34  and  C_35 
REMARK   13  A    between atoms: C_35  and  C_36 
REMARK   14  A    between atoms: C_36  and  O_38 
REMARK   15  A    between atoms: C_39  and  C_40 
REMARK   16  A    between atoms: C_40  and  C_41 
REMARK   17  A    between atoms: C_41  and  C_42 
REMARK   18  A    between atoms: C_42  and  O_44 
REMARK   19  A    between atoms: C_45  and  C_46 
REMARK   20  A    between atoms: C_46  and  C_47 
REMARK   21  A    between atoms: C_47  and  O_49 
REMARK   22  A    between atoms: C_50  and  C_51 
REMARK   23  A    between atoms: C_51  and  C_52 
REMARK   24  A    between atoms: C_52  and  O_54 
REMARK   25  A    between atoms: C_55  and  C_56 
REMARK   26  A    between atoms: C_56  and  C_57 
REMARK   27  A    between atoms: C_57  and  C_58 
REMARK   28  A    between atoms: C_58  and  O_60 
ROOT
ATOM      1  O   UNK d   0      -7.179  -9.909   1.041  0.00  0.00    -0.650 OA
ATOM      2  C   UNK d   0      -6.871  -9.149   0.096  0.00  0.00     0.139 C 
ENDROOT
BRANCH   2   3
ATOM      3  O   UNK d   0      -5.604  -8.620   0.042  0.00  0.00    -0.776 OA
ATOM      4  H   UNK d   0      -5.207  -8.289  -0.839  0.00  0.00     0.167 HD
ENDBRANCH   2   3
BRANCH   2   5
ATOM      5  C   UNK d   0      -7.872  -8.823  -0.959  0.00  0.00     0.115 C 
BRANCH   5   6
ATOM      6  C   UNK d   0      -9.266  -9.027  -0.430  0.00  0.00     0.052 C 
BRANCH   6   7
ATOM      7  C   UNK d   0     -10.109  -9.894  -1.334  0.00  0.00    -0.020 A 
ATOM      8  C   UNK d   0     -11.351  -9.698  -1.697  0.00  0.00    -0.011 A 
ATOM      9  C   UNK d   0     -11.741 -10.798  -2.563  0.00  0.00     0.067 A 
ATOM     10  C   UNK d   0     -12.891 -11.164  -3.280  0.00  0.00     0.062 C 
ATOM     11  N   UNK d   0     -10.676 -11.621  -2.669  0.00  0.00    -0.248 NA
ATOM     12  C   UNK d   0     -12.988 -12.125  -4.292  0.00  0.00     0.041 A 
ATOM     13  N   UNK d   0     -12.464 -13.362  -4.393  0.00  0.00    -0.355 N 
ATOM     14  C   UNK d   0     -13.694 -11.808  -5.466  0.00  0.00    -0.022 A 
ATOM     15  C   UNK d   0     -12.812 -13.833  -5.605  0.00  0.00     0.042 A 
ATOM     16  H   UNK d   0     -11.876 -13.898  -3.616  0.00  0.00     0.166 HD
ATOM     17  C   UNK d   0     -12.530 -15.070  -6.220  0.00  0.00     0.062 C 
ATOM     18  C   UNK d   0     -13.584 -12.887  -6.307  0.00  0.00    -0.013 A 
ATOM     19  C   UNK d   0     -11.343 -15.754  -6.275  0.00  0.00     0.067 A 
ATOM     20  N   UNK d   0     -10.356 -15.317  -5.488  0.00  0.00    -0.248 NA
ATOM     21  C   UNK d   0     -10.827 -16.894  -7.015  0.00  0.00    -0.011 A 
ATOM     22  C   UNK d   0      -9.232 -16.087  -5.662  0.00  0.00     0.066 A 
ATOM     23  C   UNK d   0      -8.136 -15.765  -4.874  0.00  0.00     0.062 C 
ATOM     24  C   UNK d   0      -9.590 -17.081  -6.655  0.00  0.00    -0.020 A 
ATOM     25  C   UNK d   0      -8.063 -14.804  -3.854  0.00  0.00     0.041 A 
ATOM     26  N   UNK d   0      -8.571 -13.569  -3.759  0.00  0.00    -0.355 N 
ATOM     27  C   UNK d   0      -7.358 -15.125  -2.674  0.00  0.00    -0.022 A 
ATOM     28  C   UNK d   0      -8.218 -13.093  -2.555  0.00  0.00     0.042 A 
ATOM     29  H   UNK d   0      -9.153 -13.028  -4.545  0.00  0.00     0.166 HD
ATOM     30  C   UNK d   0      -8.484 -11.862  -1.935  0.00  0.00     0.062 C 
ATOM     31  C   UNK d   0      -7.452 -14.049  -1.846  0.00  0.00    -0.013 A 
ATOM     32  C   UNK d   0      -9.662 -11.133  -1.954  0.00  0.00     0.066 A 
BRANCH   8  33
ATOM     33  C   UNK d   0     -12.221  -8.573  -1.304  0.00  0.00     0.151 C 
BRANCH  33  34
ATOM     34  C   UNK d   0     -13.054  -8.081  -2.416  0.00  0.00     0.143 C 
ATOM     35  O   UNK d   0     -14.291  -8.104  -2.343  0.00  0.00    -0.650 OA
BRANCH  34  36
ATOM     36  O   UNK d   0     -12.447  -7.592  -3.550  0.00  0.00    -0.776 OA
ATOM     37  H   UNK d   0     -12.056  -6.640  -3.579  0.00  0.00     0.167 HD
ENDBRANCH  34  36
ENDBRANCH  33  34
ENDBRANCH   8  33
BRANCH  31  38
ATOM     38  C   UNK d   0      -6.861 -13.936  -0.460  0.00  0.00     0.151 C 
BRANCH  38  39
ATOM     39  C   UNK d   0      -5.774 -12.984  -0.388  0.00  0.00     0.143 C 
ATOM     40  O   UNK d   0      -5.064 -12.709  -1.371  0.00  0.00    -0.650 OA
BRANCH  39  41
ATOM     41  O   UNK d   0      -5.502 -12.343   0.820  0.00  0.00    -0.776 OA
ATOM     42  H   UNK d   0      -4.638 -12.612   1.302  0.00  0.00     0.167 HD
ENDBRANCH  39  41
ENDBRANCH  38  39
ENDBRANCH  31  38
BRANCH  27  43
ATOM     43  C   UNK d   0      -6.615 -16.387  -2.315  0.00  0.00     0.052 C 
BRANCH  43  44
ATOM     44  C   UNK d   0      -5.337 -16.556  -3.071  0.00  0.00     0.115 C 
BRANCH  44  45
ATOM     45  C   UNK d   0      -4.271 -15.929  -2.248  0.00  0.00     0.139 C 
ATOM     46  O   UNK d   0      -4.015 -16.434  -1.127  0.00  0.00    -0.650 OA
BRANCH  45  47
ATOM     47  O   UNK d   0      -3.554 -14.829  -2.666  0.00  0.00    -0.776 OA
ATOM     48  H   UNK d   0      -2.619 -14.901  -3.099  0.00  0.00     0.167 HD
ENDBRANCH  45  47
ENDBRANCH  44  45
ENDBRANCH  43  44
ENDBRANCH  27  43
BRANCH  24  49
ATOM     49  C   UNK d   0      -8.700 -18.153  -7.130  0.00  0.00     0.052 C 
BRANCH  49  50
ATOM     50  C   UNK d   0      -7.324 -17.607  -7.412  0.00  0.00     0.115 C 
BRANCH  50  51
ATOM     51  C   UNK d   0      -7.213 -16.585  -8.444  0.00  0.00     0.139 C 
ATOM     52  O   UNK d   0      -8.080 -16.427  -9.336  0.00  0.00    -0.650 OA
BRANCH  51  53
ATOM     53  O   UNK d   0      -6.111 -15.744  -8.461  0.00  0.00    -0.776 OA
ATOM     54  H   UNK d   0      -5.389 -15.919  -9.139  0.00  0.00     0.167 HD
ENDBRANCH  51  53
ENDBRANCH  50  51
ENDBRANCH  49  50
ENDBRANCH  24  49
BRANCH  21  55
ATOM     55  C   UNK d   0     -11.626 -17.679  -8.002  0.00  0.00     0.151 C 
BRANCH  55  56
ATOM     56  C   UNK d   0     -12.338 -18.799  -7.368  0.00  0.00     0.143 C 
ATOM     57  O   UNK d   0     -13.348 -18.639  -6.655  0.00  0.00    -0.650 OA
BRANCH  56  58
ATOM     58  O   UNK d   0     -11.849 -20.086  -7.584  0.00  0.00    -0.776 OA
ATOM     59  H   UNK d   0     -12.538 -20.754  -7.975  0.00  0.00     0.167 HD
ENDBRANCH  56  58
ENDBRANCH  55  56
ENDBRANCH  21  55
BRANCH  18  60
ATOM     60  C   UNK d   0     -14.187 -12.973  -7.687  0.00  0.00     0.151 C 
BRANCH  60  61
ATOM     61  C   UNK d   0     -15.087 -14.136  -7.663  0.00  0.00     0.143 C 
ATOM     62  O   UNK d   0     -15.970 -14.374  -6.838  0.00  0.00    -0.650 OA
BRANCH  61  63
ATOM     63  O   UNK d   0     -14.898 -15.067  -8.713  0.00  0.00    -0.776 OA
ATOM     64  H   UNK d   0     -13.999 -15.182  -9.147  0.00  0.00     0.167 HD
ENDBRANCH  61  63
ENDBRANCH  60  61
ENDBRANCH  18  60
BRANCH  14  65
ATOM     65  C   UNK d   0     -14.538 -10.614  -5.811  0.00  0.00     0.052 C 
BRANCH  65  66
ATOM     66  C   UNK d   0     -15.960 -10.770  -5.404  0.00  0.00     0.115 C 
BRANCH  66  67
ATOM     67  C   UNK d   0     -16.800  -9.611  -5.294  0.00  0.00     0.139 C 
ATOM     68  O   UNK d   0     -16.586  -8.620  -6.085  0.00  0.00    -0.650 OA
BRANCH  67  69
ATOM     69  O   UNK d   0     -17.859  -9.405  -4.409  0.00  0.00    -0.776 OA
ATOM     70  H   UNK d   0     -17.838  -9.969  -3.547  0.00  0.00     0.167 HD
ENDBRANCH  67  69
ENDBRANCH  66  67
ENDBRANCH  65  66
ENDBRANCH  14  65
ENDBRANCH   6   7
ENDBRANCH   5   6
ENDBRANCH   2   5
TORSDOF 28
ENDMDL
MODEL 11
REMARK VINA RESULT:      -9.5      2.023     10.435
REMARK  28 active torsions:
REMARK  status: ('A' for Active; 'I' for Inactive)
REMARK    1  A    between atoms: C_2  and  O_3 
REMARK    2  A    between atoms: C_2  and  C_4 
REMARK    3  A    between atoms: C_4  and  C_5 
REMARK    4  A    between atoms: C_5  and  C_6 
REMARK    5  A    between atoms: C_7  and  C_8 
REMARK    6  A    between atoms: C_8  and  C_9 
REMARK    7  A    between atoms: C_9  and  O_11 
REMARK    8  A    between atoms: C_28  and  C_29 
REMARK    9  A    between atoms: C_29  and  C_30 
REMARK   10  A    between atoms: C_30  and  O_32 
REMARK   11  A    between atoms: C_33  and  C_34 
REMARK   12  A    between atoms: C_34  and  C_35 
REMARK   13  A    between atoms: C_35  and  C_36 
REMARK   14  A    between atoms: C_36  and  O_38 
REMARK   15  A    between atoms: C_39  and  C_40 
REMARK   16  A    between atoms: C_40  and  C_41 
REMARK   17  A    between atoms: C_41  and  C_42 
REMARK   18  A    between atoms: C_42  and  O_44 
REMARK   19  A    between atoms: C_45  and  C_46 
REMARK   20  A    between atoms: C_46  and  C_47 
REMARK   21  A    between atoms: C_47  and  O_49 
REMARK   22  A    between atoms: C_50  and  C_51 
REMARK   23  A    between atoms: C_51  and  C_52 
REMARK   24  A    between atoms: C_52  and  O_54 
REMARK   25  A    between atoms: C_55  and  C_56 
REMARK   26  A    between atoms: C_56  and  C_57 
REMARK   27  A    between atoms: C_57  and  C_58 
REMARK   28  A    between atoms: C_58  and  O_60 
ROOT
ATOM      1  O   UNK d   0     -13.010  -8.999  -1.324  0.00  0.00    -0.650 OA
ATOM      2  C   UNK d   0     -11.977  -8.795  -0.649  0.00  0.00     0.139 C 
ENDROOT
BRANCH   2   3
ATOM      3  O   UNK d   0     -11.868  -7.637   0.084  0.00  0.00    -0.776 OA
ATOM      4  H   UNK d   0     -11.360  -6.829  -0.280  0.00  0.00     0.167 HD
ENDBRANCH   2   3
BRANCH   2   5
ATOM      5  C   UNK d   0     -10.876  -9.800  -0.642  0.00  0.00     0.115 C 
BRANCH   5   6
ATOM      6  C   UNK d   0      -9.752  -9.343  -1.531  0.00  0.00     0.052 C 
BRANCH   6   7
ATOM      7  C   UNK d   0      -9.154 -10.470  -2.338  0.00  0.00    -0.020 A 
ATOM      8  C   UNK d   0      -7.889 -10.783  -2.458  0.00  0.00    -0.011 A 
ATOM      9  C   UNK d   0      -7.796 -11.932  -3.342  0.00  0.00     0.067 A 
ATOM     10  C   UNK d   0      -6.766 -12.743  -3.845  0.00  0.00     0.062 C 
ATOM     11  N   UNK d   0      -9.053 -12.250  -3.720  0.00  0.00    -0.248 NA
ATOM     12  C   UNK d   0      -6.897 -13.987  -4.471  0.00  0.00     0.041 A 
ATOM     13  N   UNK d   0      -7.770 -14.427  -5.397  0.00  0.00    -0.355 N 
ATOM     14  C   UNK d   0      -6.041 -15.035  -4.086  0.00  0.00    -0.022 A 
ATOM     15  C   UNK d   0      -7.495 -15.729  -5.604  0.00  0.00     0.042 A 
ATOM     16  H   UNK d   0      -8.552 -13.824  -5.909  0.00  0.00     0.166 HD
ATOM     17  C   UNK d   0      -8.100 -16.664  -6.467  0.00  0.00     0.062 C 
ATOM     18  C   UNK d   0      -6.417 -16.146  -4.799  0.00  0.00    -0.013 A 
ATOM     19  C   UNK d   0      -9.434 -16.890  -6.694  0.00  0.00     0.067 A 
ATOM     20  N   UNK d   0     -10.292 -15.996  -6.198  0.00  0.00    -0.248 NA
ATOM     21  C   UNK d   0     -10.221 -17.915  -7.360  0.00  0.00    -0.011 A 
ATOM     22  C   UNK d   0     -11.584 -16.362  -6.490  0.00  0.00     0.066 A 
ATOM     23  C   UNK d   0     -12.581 -15.496  -6.064  0.00  0.00     0.062 C 
ATOM     24  C   UNK d   0     -11.478 -17.602  -7.234  0.00  0.00    -0.020 A 
ATOM     25  C   UNK d   0     -12.428 -14.245  -5.448  0.00  0.00     0.041 A 
ATOM     26  N   UNK d   0     -11.570 -13.812  -4.517  0.00  0.00    -0.355 N 
ATOM     27  C   UNK d   0     -13.285 -13.192  -5.838  0.00  0.00    -0.022 A 
ATOM     28  C   UNK d   0     -11.848 -12.516  -4.302  0.00  0.00     0.042 A 
ATOM     29  H   UNK d   0     -10.792 -14.422  -3.996  0.00  0.00     0.166 HD
ATOM     30  C   UNK d   0     -11.260 -11.577  -3.441  0.00  0.00     0.062 C 
ATOM     31  C   UNK d   0     -12.924 -12.095  -5.119  0.00  0.00    -0.013 A 
ATOM     32  C   UNK d   0      -9.916 -11.408  -3.149  0.00  0.00     0.066 A 
BRANCH   8  33
ATOM     33  C   UNK d   0      -6.745 -10.102  -1.822  0.00  0.00     0.151 C 
BRANCH  33  34
ATOM     34  C   UNK d   0      -6.493 -10.572  -0.448  0.00  0.00     0.143 C 
ATOM     35  O   UNK d   0      -6.608 -11.771  -0.154  0.00  0.00    -0.650 OA
BRANCH  34  36
ATOM     36  O   UNK d   0      -6.126  -9.665   0.519  0.00  0.00    -0.776 OA
ATOM     37  H   UNK d   0      -6.387  -8.672   0.447  0.00  0.00     0.167 HD
ENDBRANCH  34  36
ENDBRANCH  33  34
ENDBRANCH   8  33
BRANCH  31  38
ATOM     38  C   UNK d   0     -13.553 -10.724  -5.208  0.00  0.00     0.151 C 
BRANCH  38  39
ATOM     39  C   UNK d   0     -14.789 -10.623  -4.463  0.00  0.00     0.143 C 
ATOM     40  O   UNK d   0     -15.883 -10.407  -5.014  0.00  0.00    -0.650 OA
BRANCH  39  41
ATOM     41  O   UNK d   0     -14.769 -10.772  -3.076  0.00  0.00    -0.776 OA
ATOM     42  H   UNK d   0     -15.576 -11.237  -2.650  0.00  0.00     0.167 HD
ENDBRANCH  39  41
ENDBRANCH  38  39
ENDBRANCH  31  38
BRANCH  27  43
ATOM     43  C   UNK d   0     -14.408 -13.193  -6.845  0.00  0.00     0.052 C 
BRANCH  43  44
ATOM     44  C   UNK d   0     -15.156 -14.486  -6.894  0.00  0.00     0.115 C 
BRANCH  44  45
ATOM     45  C   UNK d   0     -15.188 -14.904  -8.320  0.00  0.00     0.139 C 
ATOM     46  O   UNK d   0     -16.175 -15.569  -8.720  0.00  0.00    -0.650 OA
BRANCH  45  47
ATOM     47  O   UNK d   0     -14.189 -14.586  -9.215  0.00  0.00    -0.776 OA
ATOM     48  H   UNK d   0     -13.382 -15.205  -9.397  0.00  0.00     0.167 HD
ENDBRANCH  45  47
ENDBRANCH  44  45
ENDBRANCH  43  44
ENDBRANCH  27  43
BRANCH  24  49
ATOM     49  C   UNK d   0     -12.619 -18.347  -7.792  0.00  0.00     0.052 C 
BRANCH  49  50
ATOM     50  C   UNK d   0     -13.418 -18.990  -6.688  0.00  0.00     0.115 C 
BRANCH  50  51
ATOM     51  C   UNK d   0     -14.755 -18.467  -6.443  0.00  0.00     0.139 C 
ATOM     52  O   UNK d   0     -15.687 -18.579  -7.274  0.00  0.00    -0.650 OA
BRANCH  51  53
ATOM     53  O   UNK d   0     -15.029 -17.814  -5.251  0.00  0.00    -0.776 OA
ATOM     54  H   UNK d   0     -14.431 -17.055  -4.976  0.00  0.00     0.167 HD
ENDBRANCH  51  53
ENDBRANCH  50  51
ENDBRANCH  49  50
ENDBRANCH  24  49
BRANCH  21  55
ATOM     55  C   UNK d   0      -9.634 -19.097  -8.057  0.00  0.00     0.151 C 
BRANCH  55  56
ATOM     56  C   UNK d   0     -10.449 -19.520  -9.207  0.00  0.00     0.143 C 
ATOM     57  O   UNK d   0     -11.132 -20.563  -9.202  0.00  0.00    -0.650 OA
BRANCH  56  58
ATOM     58  O   UNK d   0     -10.444 -18.708 -10.339  0.00  0.00    -0.776 OA
ATOM     59  H   UNK d   0     -11.359 -18.282 -10.575  0.00  0.00     0.167 HD
ENDBRANCH  56  58
ENDBRANCH  55  56
ENDBRANCH  21  55
BRANCH  18  60
ATOM     60  C   UNK d   0      -5.768 -17.504  -4.691  0.00  0.00     0.151 C 
BRANCH  60  61
ATOM     61  C   UNK d   0      -6.731 -18.356  -3.977  0.00  0.00     0.143 C 
ATOM     62  O   UNK d   0      -6.750 -19.587  -3.942  0.00  0.00    -0.650 OA
BRANCH  61  63
ATOM     63  O   UNK d   0      -7.733 -17.661  -3.258  0.00  0.00    -0.776 OA
ATOM     64  H   UNK d   0      -7.608 -16.700  -2.992  0.00  0.00     0.167 HD
ENDBRANCH  61  63
ENDBRANCH  60  61
ENDBRANCH  18  60
BRANCH  14  65
ATOM     65  C   UNK d   0      -4.844 -15.041  -3.178  0.00  0.00     0.052 C 
BRANCH  65  66
ATOM     66  C   UNK d   0      -5.091 -15.754  -1.895  0.00  0.00     0.115 C 
BRANCH  66  67
ATOM     67  C   UNK d   0      -6.193 -15.361  -1.064  0.00  0.00     0.139 C 
ATOM     68  O   UNK d   0      -5.943 -14.903   0.111  0.00  0.00    -0.650 OA
BRANCH  67  69
ATOM     69  O   UNK d   0      -7.553 -15.411  -1.369  0.00  0.00    -0.776 OA
ATOM     70  H   UNK d   0      -7.792 -15.318  -2.367  0.00  0.00     0.167 HD
ENDBRANCH  67  69
ENDBRANCH  66  67
ENDBRANCH  65  66
ENDBRANCH  14  65
ENDBRANCH   6   7
ENDBRANCH   5   6
ENDBRANCH   2   5
TORSDOF 28
ENDMDL
MODEL 12
REMARK VINA RESULT:      -9.5      1.354     10.086
REMARK  28 active torsions:
REMARK  status: ('A' for Active; 'I' for Inactive)
REMARK    1  A    between atoms: C_2  and  O_3 
REMARK    2  A    between atoms: C_2  and  C_4 
REMARK    3  A    between atoms: C_4  and  C_5 
REMARK    4  A    between atoms: C_5  and  C_6 
REMARK    5  A    between atoms: C_7  and  C_8 
REMARK    6  A    between atoms: C_8  and  C_9 
REMARK    7  A    between atoms: C_9  and  O_11 
REMARK    8  A    between atoms: C_28  and  C_29 
REMARK    9  A    between atoms: C_29  and  C_30 
REMARK   10  A    between atoms: C_30  and  O_32 
REMARK   11  A    between atoms: C_33  and  C_34 
REMARK   12  A    between atoms: C_34  and  C_35 
REMARK   13  A    between atoms: C_35  and  C_36 
REMARK   14  A    between atoms: C_36  and  O_38 
REMARK   15  A    between atoms: C_39  and  C_40 
REMARK   16  A    between atoms: C_40  and  C_41 
REMARK   17  A    between atoms: C_41  and  C_42 
REMARK   18  A    between atoms: C_42  and  O_44 
REMARK   19  A    between atoms: C_45  and  C_46 
REMARK   20  A    between atoms: C_46  and  C_47 
REMARK   21  A    between atoms: C_47  and  O_49 
REMARK   22  A    between atoms: C_50  and  C_51 
REMARK   23  A    between atoms: C_51  and  C_52 
REMARK   24  A    between atoms: C_52  and  O_54 
REMARK   25  A    between atoms: C_55  and  C_56 
REMARK   26  A    between atoms: C_56  and  C_57 
REMARK   27  A    between atoms: C_57  and  C_58 
REMARK   28  A    between atoms: C_58  and  O_60 
ROOT
ATOM      1  O   UNK d   0     -13.339  -7.488  -2.297  0.00  0.00    -0.650 OA
ATOM      2  C   UNK d   0     -13.857  -8.210  -1.416  0.00  0.00     0.139 C 
ENDROOT
BRANCH   2   3
ATOM      3  O   UNK d   0     -15.222  -8.206  -1.259  0.00  0.00    -0.776 OA
ATOM      4  H   UNK d   0     -15.706  -8.997  -0.829  0.00  0.00     0.167 HD
ENDBRANCH   2   3
BRANCH   2   5
ATOM      5  C   UNK d   0     -12.998  -9.063  -0.546  0.00  0.00     0.115 C 
BRANCH   5   6
ATOM      6  C   UNK d   0     -11.561  -8.633  -0.657  0.00  0.00     0.052 C 
BRANCH   6   7
ATOM      7  C   UNK d   0     -10.685  -9.688  -1.288  0.00  0.00    -0.020 A 
ATOM      8  C   UNK d   0      -9.415  -9.911  -1.063  0.00  0.00    -0.011 A 
ATOM      9  C   UNK d   0      -9.002 -11.020  -1.906  0.00  0.00     0.067 A 
ATOM     10  C   UNK d   0      -7.817 -11.741  -2.121  0.00  0.00     0.062 C 
ATOM     11  N   UNK d   0     -10.082 -11.408  -2.615  0.00  0.00    -0.248 NA
ATOM     12  C   UNK d   0      -7.680 -12.970  -2.777  0.00  0.00     0.041 A 
ATOM     13  N   UNK d   0      -8.235 -13.435  -3.912  0.00  0.00    -0.355 N 
ATOM     14  C   UNK d   0      -6.885 -13.970  -2.189  0.00  0.00    -0.022 A 
ATOM     15  C   UNK d   0      -7.819 -14.707  -4.056  0.00  0.00     0.042 A 
ATOM     16  H   UNK d   0      -8.892 -12.869  -4.608  0.00  0.00     0.166 HD
ATOM     17  C   UNK d   0      -8.097 -15.651  -5.064  0.00  0.00     0.062 C 
ATOM     18  C   UNK d   0      -6.971 -15.078  -2.994  0.00  0.00    -0.013 A 
ATOM     19  C   UNK d   0      -9.299 -15.959  -5.649  0.00  0.00     0.067 A 
ATOM     20  N   UNK d   0     -10.323 -15.142  -5.392  0.00  0.00    -0.248 NA
ATOM     21  C   UNK d   0      -9.798 -17.011  -6.519  0.00  0.00    -0.011 A 
ATOM     22  C   UNK d   0     -11.456 -15.584  -6.030  0.00  0.00     0.066 A 
ATOM     23  C   UNK d   0     -12.593 -14.804  -5.879  0.00  0.00     0.062 C 
ATOM     24  C   UNK d   0     -11.062 -16.788  -6.735  0.00  0.00    -0.020 A 
ATOM     25  C   UNK d   0     -12.706 -13.566  -5.227  0.00  0.00     0.041 A 
ATOM     26  N   UNK d   0     -12.167 -13.109  -4.090  0.00  0.00    -0.355 N 
ATOM     27  C   UNK d   0     -13.501 -12.561  -5.820  0.00  0.00    -0.022 A 
ATOM     28  C   UNK d   0     -12.588 -11.843  -3.940  0.00  0.00     0.042 A 
ATOM     29  H   UNK d   0     -11.515 -13.682  -3.386  0.00  0.00     0.166 HD
ATOM     30  C   UNK d   0     -12.326 -10.896  -2.938  0.00  0.00     0.062 C 
ATOM     31  C   UNK d   0     -13.431 -11.467  -5.013  0.00  0.00    -0.013 A 
ATOM     32  C   UNK d   0     -11.127 -10.647  -2.289  0.00  0.00     0.066 A 
BRANCH   8  33
ATOM     33  C   UNK d   0      -8.540  -9.176  -0.130  0.00  0.00     0.151 C 
BRANCH  33  34
ATOM     34  C   UNK d   0      -7.289  -8.719  -0.762  0.00  0.00     0.143 C 
ATOM     35  O   UNK d   0      -7.245  -8.465  -1.975  0.00  0.00    -0.650 OA
BRANCH  34  36
ATOM     36  O   UNK d   0      -6.157  -8.574   0.006  0.00  0.00    -0.776 OA
ATOM     37  H   UNK d   0      -5.564  -9.382   0.240  0.00  0.00     0.167 HD
ENDBRANCH  34  36
ENDBRANCH  33  34
ENDBRANCH   8  33
BRANCH  31  38
ATOM     38  C   UNK d   0     -14.112 -10.140  -5.250  0.00  0.00     0.151 C 
BRANCH  38  39
ATOM     39  C   UNK d   0     -15.468 -10.106  -4.745  0.00  0.00     0.143 C 
ATOM     40  O   UNK d   0     -15.745  -9.680  -3.610  0.00  0.00    -0.650 OA
BRANCH  39  41
ATOM     41  O   UNK d   0     -16.512 -10.564  -5.549  0.00  0.00    -0.776 OA
ATOM     42  H   UNK d   0     -16.669 -11.576  -5.568  0.00  0.00     0.167 HD
ENDBRANCH  39  41
ENDBRANCH  38  39
ENDBRANCH  31  38
BRANCH  27  43
ATOM     43  C   UNK d   0     -14.307 -12.604  -7.094  0.00  0.00     0.052 C 
BRANCH  43  44
ATOM     44  C   UNK d   0     -15.177 -13.814  -7.202  0.00  0.00     0.115 C 
BRANCH  44  45
ATOM     45  C   UNK d   0     -14.719 -14.559  -8.404  0.00  0.00     0.139 C 
ATOM     46  O   UNK d   0     -14.067 -13.933  -9.276  0.00  0.00    -0.650 OA
BRANCH  45  47
ATOM     47  O   UNK d   0     -14.974 -15.900  -8.594  0.00  0.00    -0.776 OA
ATOM     48  H   UNK d   0     -15.872 -16.252  -8.965  0.00  0.00     0.167 HD
ENDBRANCH  45  47
ENDBRANCH  44  45
ENDBRANCH  43  44
ENDBRANCH  27  43
BRANCH  24  49
ATOM     49  C   UNK d   0     -11.951 -17.589  -7.594  0.00  0.00     0.052 C 
BRANCH  49  50
ATOM     50  C   UNK d   0     -12.970 -18.319  -6.758  0.00  0.00     0.115 C 
BRANCH  50  51
ATOM     51  C   UNK d   0     -12.843 -19.767  -6.669  0.00  0.00     0.139 C 
ATOM     52  O   UNK d   0     -13.616 -20.473  -5.979  0.00  0.00    -0.650 OA
BRANCH  51  53
ATOM     53  O   UNK d   0     -11.831 -20.411  -7.364  0.00  0.00    -0.776 OA
ATOM     54  H   UNK d   0     -12.034 -21.302  -7.783  0.00  0.00     0.167 HD
ENDBRANCH  51  53
ENDBRANCH  50  51
ENDBRANCH  49  50
ENDBRANCH  24  49
BRANCH  21  55
ATOM     55  C   UNK d   0      -8.958 -18.126  -7.048  0.00  0.00     0.151 C 
BRANCH  55  56
ATOM     56  C   UNK d   0      -7.893 -17.640  -7.939  0.00  0.00     0.143 C 
ATOM     57  O   UNK d   0      -6.701 -17.981  -7.815  0.00  0.00    -0.650 OA
BRANCH  56  58
ATOM     58  O   UNK d   0      -8.253 -16.763  -8.961  0.00  0.00    -0.776 OA
ATOM     59  H   UNK d   0      -7.758 -15.853  -8.949  0.00  0.00     0.167 HD
ENDBRANCH  56  58
ENDBRANCH  55  56
ENDBRANCH  21  55
BRANCH  18  60
ATOM     60  C   UNK d   0      -6.276 -16.392  -2.734  0.00  0.00     0.151 C 
BRANCH  60  61
ATOM     61  C   UNK d   0      -4.835 -16.113  -2.830  0.00  0.00     0.143 C 
ATOM     62  O   UNK d   0      -3.944 -16.547  -2.099  0.00  0.00    -0.650 OA
BRANCH  61  63
ATOM     63  O   UNK d   0      -4.458 -15.248  -3.885  0.00  0.00    -0.776 OA
ATOM     64  H   UNK d   0      -4.565 -15.525  -4.845  0.00  0.00     0.167 HD
ENDBRANCH  61  63
ENDBRANCH  60  61
ENDBRANCH  18  60
BRANCH  14  65
ATOM     65  C   UNK d   0      -5.981 -13.926  -0.990  0.00  0.00     0.052 C 
BRANCH  65  66
ATOM     66  C   UNK d   0      -6.659 -13.412   0.231  0.00  0.00     0.115 C 
BRANCH  66  67
ATOM     67  C   UNK d   0      -5.925 -12.608   1.167  0.00  0.00     0.139 C 
ATOM     68  O   UNK d   0      -6.258 -11.374   1.309  0.00  0.00    -0.650 OA
BRANCH  67  69
ATOM     69  O   UNK d   0      -4.858 -12.999   1.975  0.00  0.00    -0.776 OA
ATOM     70  H   UNK d   0      -5.072 -13.109   2.977  0.00  0.00     0.167 HD
ENDBRANCH  67  69
ENDBRANCH  66  67
ENDBRANCH  65  66
ENDBRANCH  14  65
ENDBRANCH   6   7
ENDBRANCH   5   6
ENDBRANCH   2   5
TORSDOF 28
ENDMDL
MODEL 13
REMARK VINA RESULT:      -9.3     27.501     31.480
REMARK  28 active torsions:
REMARK  status: ('A' for Active; 'I' for Inactive)
REMARK    1  A    between atoms: C_2  and  O_3 
REMARK    2  A    between atoms: C_2  and  C_4 
REMARK    3  A    between atoms: C_4  and  C_5 
REMARK    4  A    between atoms: C_5  and  C_6 
REMARK    5  A    between atoms: C_7  and  C_8 
REMARK    6  A    between atoms: C_8  and  C_9 
REMARK    7  A    between atoms: C_9  and  O_11 
REMARK    8  A    between atoms: C_28  and  C_29 
REMARK    9  A    between atoms: C_29  and  C_30 
REMARK   10  A    between atoms: C_30  and  O_32 
REMARK   11  A    between atoms: C_33  and  C_34 
REMARK   12  A    between atoms: C_34  and  C_35 
REMARK   13  A    between atoms: C_35  and  C_36 
REMARK   14  A    between atoms: C_36  and  O_38 
REMARK   15  A    between atoms: C_39  and  C_40 
REMARK   16  A    between atoms: C_40  and  C_41 
REMARK   17  A    between atoms: C_41  and  C_42 
REMARK   18  A    between atoms: C_42  and  O_44 
REMARK   19  A    between atoms: C_45  and  C_46 
REMARK   20  A    between atoms: C_46  and  C_47 
REMARK   21  A    between atoms: C_47  and  O_49 
REMARK   22  A    between atoms: C_50  and  C_51 
REMARK   23  A    between atoms: C_51  and  C_52 
REMARK   24  A    between atoms: C_52  and  O_54 
REMARK   25  A    between atoms: C_55  and  C_56 
REMARK   26  A    between atoms: C_56  and  C_57 
REMARK   27  A    between atoms: C_57  and  C_58 
REMARK   28  A    between atoms: C_58  and  O_60 
ROOT
ATOM      1  O   UNK d   0     -30.614 -13.931  13.821  0.00  0.00    -0.650 OA
ATOM      2  C   UNK d   0     -30.937 -14.601  12.815  0.00  0.00     0.139 C 
ENDROOT
BRANCH   2   3
ATOM      3  O   UNK d   0     -30.084 -14.654  11.738  0.00  0.00    -0.776 OA
ATOM      4  H   UNK d   0     -29.497 -15.473  11.570  0.00  0.00     0.167 HD
ENDBRANCH   2   3
BRANCH   2   5
ATOM      5  C   UNK d   0     -32.235 -15.334  12.788  0.00  0.00     0.115 C 
BRANCH   5   6
ATOM      6  C   UNK d   0     -33.004 -14.979  11.544  0.00  0.00     0.052 C 
BRANCH   6   7
ATOM      7  C   UNK d   0     -34.222 -15.848  11.347  0.00  0.00    -0.020 A 
ATOM      8  C   UNK d   0     -35.445 -15.462  11.086  0.00  0.00    -0.011 A 
ATOM      9  C   UNK d   0     -36.276 -16.650  10.989  0.00  0.00     0.067 A 
ATOM     10  C   UNK d   0     -37.626 -16.923  10.719  0.00  0.00     0.062 C 
ATOM     11  N   UNK d   0     -35.479 -17.716  11.211  0.00  0.00    -0.248 NA
ATOM     12  C   UNK d   0     -38.192 -18.160  10.393  0.00  0.00     0.041 A 
ATOM     13  N   UNK d   0     -37.989 -19.390  10.902  0.00  0.00    -0.355 N 
ATOM     14  C   UNK d   0     -39.103 -18.231   9.322  0.00  0.00    -0.022 A 
ATOM     15  C   UNK d   0     -38.741 -20.240  10.177  0.00  0.00     0.042 A 
ATOM     16  H   UNK d   0     -37.343 -19.649  11.769  0.00  0.00     0.166 HD
ATOM     17  C   UNK d   0     -38.902 -21.636  10.285  0.00  0.00     0.062 C 
ATOM     18  C   UNK d   0     -39.453 -19.550   9.177  0.00  0.00    -0.013 A 
ATOM     19  C   UNK d   0     -37.946 -22.603  10.462  0.00  0.00     0.067 A 
ATOM     20  N   UNK d   0     -36.715 -22.187  10.772  0.00  0.00    -0.248 NA
ATOM     21  C   UNK d   0     -37.901 -24.054  10.386  0.00  0.00    -0.011 A 
ATOM     22  C   UNK d   0     -35.869 -23.261  10.903  0.00  0.00     0.066 A 
ATOM     23  C   UNK d   0     -34.560 -22.974  11.262  0.00  0.00     0.062 C 
ATOM     24  C   UNK d   0     -36.682 -24.432  10.640  0.00  0.00    -0.020 A 
ATOM     25  C   UNK d   0     -34.015 -21.725  11.599  0.00  0.00     0.041 A 
ATOM     26  N   UNK d   0     -34.205 -20.505  11.083  0.00  0.00    -0.355 N 
ATOM     27  C   UNK d   0     -33.105 -21.654  12.676  0.00  0.00    -0.022 A 
ATOM     28  C   UNK d   0     -33.450 -19.657  11.798  0.00  0.00     0.042 A 
ATOM     29  H   UNK d   0     -34.847 -20.248  10.205  0.00  0.00     0.166 HD
ATOM     30  C   UNK d   0     -33.273 -18.268  11.696  0.00  0.00     0.062 C 
ATOM     31  C   UNK d   0     -32.743 -20.349  12.810  0.00  0.00    -0.013 A 
ATOM     32  C   UNK d   0     -34.230 -17.301  11.432  0.00  0.00     0.066 A 
BRANCH   8  33
ATOM     33  C   UNK d   0     -35.919 -14.075  10.920  0.00  0.00     0.151 C 
BRANCH  33  34
ATOM     34  C   UNK d   0     -35.195 -13.119  11.778  0.00  0.00     0.143 C 
ATOM     35  O   UNK d   0     -34.821 -12.024  11.335  0.00  0.00    -0.650 OA
BRANCH  34  36
ATOM     36  O   UNK d   0     -34.932 -13.451  13.087  0.00  0.00    -0.776 OA
ATOM     37  H   UNK d   0     -34.611 -12.745  13.763  0.00  0.00     0.167 HD
ENDBRANCH  34  36
ENDBRANCH  33  34
ENDBRANCH   8  33
BRANCH  31  38
ATOM     38  C   UNK d   0     -31.794 -19.788  13.843  0.00  0.00     0.151 C 
BRANCH  38  39
ATOM     39  C   UNK d   0     -32.473 -19.310  15.028  0.00  0.00     0.143 C 
ATOM     40  O   UNK d   0     -33.365 -19.966  15.594  0.00  0.00    -0.650 OA
BRANCH  39  41
ATOM     41  O   UNK d   0     -32.124 -18.072  15.567  0.00  0.00    -0.776 OA
ATOM     42  H   UNK d   0     -31.924 -18.045  16.571  0.00  0.00     0.167 HD
ENDBRANCH  39  41
ENDBRANCH  38  39
ENDBRANCH  31  38
BRANCH  27  43
ATOM     43  C   UNK d   0     -32.578 -22.757  13.560  0.00  0.00     0.052 C 
BRANCH  43  44
ATOM     44  C   UNK d   0     -31.364 -23.429  13.006  0.00  0.00     0.115 C 
BRANCH  44  45
ATOM     45  C   UNK d   0     -31.093 -24.601  13.879  0.00  0.00     0.139 C 
ATOM     46  O   UNK d   0     -30.117 -25.339  13.593  0.00  0.00    -0.650 OA
BRANCH  45  47
ATOM     47  O   UNK d   0     -31.860 -24.905  14.982  0.00  0.00    -0.776 OA
ATOM     48  H   UNK d   0     -31.458 -25.269  15.862  0.00  0.00     0.167 HD
ENDBRANCH  45  47
ENDBRANCH  44  45
ENDBRANCH  43  44
ENDBRANCH  27  43
BRANCH  24  49
ATOM     49  C   UNK d   0     -36.200 -25.822  10.706  0.00  0.00     0.052 C 
BRANCH  49  50
ATOM     50  C   UNK d   0     -35.180 -26.076   9.626  0.00  0.00     0.115 C 
BRANCH  50  51
ATOM     51  C   UNK d   0     -33.860 -26.524  10.049  0.00  0.00     0.139 C 
ATOM     52  O   UNK d   0     -33.071 -27.123   9.281  0.00  0.00    -0.650 OA
BRANCH  51  53
ATOM     53  O   UNK d   0     -33.441 -26.290  11.350  0.00  0.00    -0.776 OA
ATOM     54  H   UNK d   0     -34.134 -26.050  12.037  0.00  0.00     0.167 HD
ENDBRANCH  51  53
ENDBRANCH  50  51
ENDBRANCH  49  50
ENDBRANCH  24  49
BRANCH  21  55
ATOM     55  C   UNK d   0     -39.082 -24.910  10.070  0.00  0.00     0.151 C 
BRANCH  55  56
ATOM     56  C   UNK d   0     -39.950 -25.105  11.241  0.00  0.00     0.143 C 
ATOM     57  O   UNK d   0     -39.713 -25.953  12.124  0.00  0.00    -0.650 OA
BRANCH  56  58
ATOM     58  O   UNK d   0     -41.082 -24.299  11.352  0.00  0.00    -0.776 OA
ATOM     59  H   UNK d   0     -41.369 -23.828  10.475  0.00  0.00     0.167 HD
ENDBRANCH  56  58
ENDBRANCH  55  56
ENDBRANCH  21  55
BRANCH  18  60
ATOM     60  C   UNK d   0     -40.407 -20.081   8.137  0.00  0.00     0.151 C 
BRANCH  60  61
ATOM     61  C   UNK d   0     -41.757 -19.777   8.634  0.00  0.00     0.143 C 
ATOM     62  O   UNK d   0     -42.663 -19.210   8.022  0.00  0.00    -0.650 OA
BRANCH  61  63
ATOM     63  O   UNK d   0     -42.018 -20.190   9.962  0.00  0.00    -0.776 OA
ATOM     64  H   UNK d   0     -41.598 -19.719  10.744  0.00  0.00     0.167 HD
ENDBRANCH  61  63
ENDBRANCH  60  61
ENDBRANCH  18  60
BRANCH  14  65
ATOM     65  C   UNK d   0     -39.735 -17.145   8.499  0.00  0.00     0.052 C 
BRANCH  65  66
ATOM     66  C   UNK d   0     -40.911 -16.521   9.163  0.00  0.00     0.115 C 
BRANCH  66  67
ATOM     67  C   UNK d   0     -41.427 -15.274   8.673  0.00  0.00     0.139 C 
ATOM     68  O   UNK d   0     -42.047 -14.502   9.492  0.00  0.00    -0.650 OA
BRANCH  67  69
ATOM     69  O   UNK d   0     -41.343 -14.767   7.376  0.00  0.00    -0.776 OA
ATOM     70  H   UNK d   0     -40.394 -14.703   6.981  0.00  0.00     0.167 HD
ENDBRANCH  67  69
ENDBRANCH  66  67
ENDBRANCH  65  66
ENDBRANCH  14  65
ENDBRANCH   6   7
ENDBRANCH   5   6
ENDBRANCH   2   5
TORSDOF 28
ENDMDL
MODEL 14
REMARK VINA RESULT:      -9.2      1.879      8.537
REMARK  28 active torsions:
REMARK  status: ('A' for Active; 'I' for Inactive)
REMARK    1  A    between atoms: C_2  and  O_3 
REMARK    2  A    between atoms: C_2  and  C_4 
REMARK    3  A    between atoms: C_4  and  C_5 
REMARK    4  A    between atoms: C_5  and  C_6 
REMARK    5  A    between atoms: C_7  and  C_8 
REMARK    6  A    between atoms: C_8  and  C_9 
REMARK    7  A    between atoms: C_9  and  O_11 
REMARK    8  A    between atoms: C_28  and  C_29 
REMARK    9  A    between atoms: C_29  and  C_30 
REMARK   10  A    between atoms: C_30  and  O_32 
REMARK   11  A    between atoms: C_33  and  C_34 
REMARK   12  A    between atoms: C_34  and  C_35 
REMARK   13  A    between atoms: C_35  and  C_36 
REMARK   14  A    between atoms: C_36  and  O_38 
REMARK   15  A    between atoms: C_39  and  C_40 
REMARK   16  A    between atoms: C_40  and  C_41 
REMARK   17  A    between atoms: C_41  and  C_42 
REMARK   18  A    between atoms: C_42  and  O_44 
REMARK   19  A    between atoms: C_45  and  C_46 
REMARK   20  A    between atoms: C_46  and  C_47 
REMARK   21  A    between atoms: C_47  and  O_49 
REMARK   22  A    between atoms: C_50  and  C_51 
REMARK   23  A    between atoms: C_51  and  C_52 
REMARK   24  A    between atoms: C_52  and  O_54 
REMARK   25  A    between atoms: C_55  and  C_56 
REMARK   26  A    between atoms: C_56  and  C_57 
REMARK   27  A    between atoms: C_57  and  C_58 
REMARK   28  A    between atoms: C_58  and  O_60 
ROOT
ATOM      1  O   UNK d   0      -5.070 -14.938  -4.854  0.00  0.00    -0.650 OA
ATOM      2  C   UNK d   0      -5.074 -14.911  -3.603  0.00  0.00     0.139 C 
ENDROOT
BRANCH   2   3
ATOM      3  O   UNK d   0      -4.958 -13.704  -2.955  0.00  0.00    -0.776 OA
ATOM      4  H   UNK d   0      -4.734 -13.660  -1.959  0.00  0.00     0.167 HD
ENDBRANCH   2   3
BRANCH   2   5
ATOM      5  C   UNK d   0      -5.203 -16.177  -2.827  0.00  0.00     0.115 C 
BRANCH   5   6
ATOM      6  C   UNK d   0      -6.536 -16.223  -2.130  0.00  0.00     0.052 C 
BRANCH   6   7
ATOM      7  C   UNK d   0      -7.684 -15.878  -3.048  0.00  0.00    -0.020 A 
ATOM      8  C   UNK d   0      -8.071 -16.523  -4.119  0.00  0.00    -0.011 A 
ATOM      9  C   UNK d   0      -9.210 -15.814  -4.678  0.00  0.00     0.067 A 
ATOM     10  C   UNK d   0     -10.074 -15.987  -5.771  0.00  0.00     0.062 C 
ATOM     11  N   UNK d   0      -9.445 -14.746  -3.887  0.00  0.00    -0.248 NA
ATOM     12  C   UNK d   0     -11.298 -15.347  -5.993  0.00  0.00     0.041 A 
ATOM     13  N   UNK d   0     -11.669 -14.063  -5.832  0.00  0.00    -0.355 N 
ATOM     14  C   UNK d   0     -12.402 -16.115  -6.405  0.00  0.00    -0.022 A 
ATOM     15  C   UNK d   0     -12.982 -13.998  -6.125  0.00  0.00     0.042 A 
ATOM     16  H   UNK d   0     -11.012 -13.216  -5.537  0.00  0.00     0.166 HD
ATOM     17  C   UNK d   0     -13.865 -12.900  -6.121  0.00  0.00     0.062 C 
ATOM     18  C   UNK d   0     -13.477 -15.265  -6.488  0.00  0.00    -0.013 A 
ATOM     19  C   UNK d   0     -14.007 -11.910  -5.182  0.00  0.00     0.067 A 
ATOM     20  N   UNK d   0     -13.070 -11.838  -4.233  0.00  0.00    -0.248 NA
ATOM     21  C   UNK d   0     -14.971 -10.857  -4.911  0.00  0.00    -0.011 A 
ATOM     22  C   UNK d   0     -13.352 -10.815  -3.361  0.00  0.00     0.066 A 
ATOM     23  C   UNK d   0     -12.434 -10.603  -2.342  0.00  0.00     0.062 C 
ATOM     24  C   UNK d   0     -14.584 -10.222  -3.842  0.00  0.00    -0.020 A 
ATOM     25  C   UNK d   0     -11.204 -11.248  -2.144  0.00  0.00     0.041 A 
ATOM     26  N   UNK d   0     -10.839 -12.528  -2.289  0.00  0.00    -0.355 N 
ATOM     27  C   UNK d   0     -10.095 -10.476  -1.734  0.00  0.00    -0.022 A 
ATOM     28  C   UNK d   0      -9.532 -12.597  -1.990  0.00  0.00     0.042 A 
ATOM     29  H   UNK d   0     -11.503 -13.380  -2.576  0.00  0.00     0.166 HD
ATOM     30  C   UNK d   0      -8.644 -13.684  -1.980  0.00  0.00     0.062 C 
ATOM     31  C   UNK d   0      -9.033 -11.321  -1.635  0.00  0.00    -0.013 A 
ATOM     32  C   UNK d   0      -8.561 -14.728  -2.888  0.00  0.00     0.066 A 
BRANCH   8  33
ATOM     33  C   UNK d   0      -7.472 -17.748  -4.679  0.00  0.00     0.151 C 
BRANCH  33  34
ATOM     34  C   UNK d   0      -7.201 -17.641  -6.125  0.00  0.00     0.143 C 
ATOM     35  O   UNK d   0      -7.692 -18.450  -6.925  0.00  0.00    -0.650 OA
BRANCH  34  36
ATOM     36  O   UNK d   0      -6.392 -16.629  -6.587  0.00  0.00    -0.776 OA
ATOM     37  H   UNK d   0      -6.789 -15.751  -6.949  0.00  0.00     0.167 HD
ENDBRANCH  34  36
ENDBRANCH  33  34
ENDBRANCH   8  33
BRANCH  31  38
ATOM     38  C   UNK d   0      -7.625 -10.941  -1.239  0.00  0.00     0.151 C 
BRANCH  38  39
ATOM     39  C   UNK d   0      -6.779 -10.657  -2.379  0.00  0.00     0.143 C 
ATOM     40  O   UNK d   0      -7.234 -10.236  -3.457  0.00  0.00    -0.650 OA
BRANCH  39  41
ATOM     41  O   UNK d   0      -5.403 -10.858  -2.279  0.00  0.00    -0.776 OA
ATOM     42  H   UNK d   0      -4.874 -10.875  -3.156  0.00  0.00     0.167 HD
ENDBRANCH  39  41
ENDBRANCH  38  39
ENDBRANCH  31  38
BRANCH  27  43
ATOM     43  C   UNK d   0     -10.013  -8.999  -1.439  0.00  0.00     0.052 C 
BRANCH  43  44
ATOM     44  C   UNK d   0     -10.216  -8.673   0.005  0.00  0.00     0.115 C 
BRANCH  44  45
ATOM     45  C   UNK d   0     -11.381  -7.753   0.073  0.00  0.00     0.139 C 
ATOM     46  O   UNK d   0     -12.373  -8.000  -0.657  0.00  0.00    -0.650 OA
BRANCH  45  47
ATOM     47  O   UNK d   0     -11.417  -6.653   0.901  0.00  0.00    -0.776 OA
ATOM     48  H   UNK d   0     -12.020  -6.601   1.738  0.00  0.00     0.167 HD
ENDBRANCH  45  47
ENDBRANCH  44  45
ENDBRANCH  43  44
ENDBRANCH  27  43
BRANCH  24  49
ATOM     49  C   UNK d   0     -15.250  -9.057  -3.235  0.00  0.00     0.052 C 
BRANCH  49  50
ATOM     50  C   UNK d   0     -15.420  -9.264  -1.752  0.00  0.00     0.115 C 
BRANCH  50  51
ATOM     51  C   UNK d   0     -15.978  -8.157  -0.986  0.00  0.00     0.139 C 
ATOM     52  O   UNK d   0     -16.170  -8.220   0.251  0.00  0.00    -0.650 OA
BRANCH  51  53
ATOM     53  O   UNK d   0     -16.319  -6.979  -1.632  0.00  0.00    -0.776 OA
ATOM     54  H   UNK d   0     -15.967  -6.114  -1.260  0.00  0.00     0.167 HD
ENDBRANCH  51  53
ENDBRANCH  50  51
ENDBRANCH  49  50
ENDBRANCH  24  49
BRANCH  21  55
ATOM     55  C   UNK d   0     -16.175 -10.591  -5.752  0.00  0.00     0.151 C 
BRANCH  55  56
ATOM     56  C   UNK d   0     -16.209  -9.206  -6.247  0.00  0.00     0.143 C 
ATOM     57  O   UNK d   0     -17.076  -8.384  -5.892  0.00  0.00    -0.650 OA
BRANCH  56  58
ATOM     58  O   UNK d   0     -15.221  -8.816  -7.149  0.00  0.00    -0.776 OA
ATOM     59  H   UNK d   0     -14.266  -9.147  -6.921  0.00  0.00     0.167 HD
ENDBRANCH  56  58
ENDBRANCH  55  56
ENDBRANCH  21  55
BRANCH  18  60
ATOM     60  C   UNK d   0     -14.873 -15.673  -6.889  0.00  0.00     0.151 C 
BRANCH  60  61
ATOM     61  C   UNK d   0     -15.058 -15.180  -8.263  0.00  0.00     0.143 C 
ATOM     62  O   UNK d   0     -14.200 -14.691  -8.998  0.00  0.00    -0.650 OA
BRANCH  61  63
ATOM     63  O   UNK d   0     -16.375 -15.294  -8.771  0.00  0.00    -0.776 OA
ATOM     64  H   UNK d   0     -16.721 -14.652  -9.462  0.00  0.00     0.167 HD
ENDBRANCH  61  63
ENDBRANCH  60  61
ENDBRANCH  18  60
BRANCH  14  65
ATOM     65  C   UNK d   0     -12.495 -17.557  -6.818  0.00  0.00     0.052 C 
BRANCH  65  66
ATOM     66  C   UNK d   0     -11.400 -17.971  -7.735  0.00  0.00     0.115 C 
BRANCH  66  67
ATOM     67  C   UNK d   0     -11.641 -18.990  -8.718  0.00  0.00     0.139 C 
ATOM     68  O   UNK d   0     -12.416 -19.968  -8.410  0.00  0.00    -0.650 OA
BRANCH  67  69
ATOM     69  O   UNK d   0     -11.128 -19.065 -10.013  0.00  0.00    -0.776 OA
ATOM     70  H   UNK d   0     -10.442 -19.815 -10.179  0.00  0.00     0.167 HD
ENDBRANCH  67  69
ENDBRANCH  66  67
ENDBRANCH  65  66
ENDBRANCH  14  65
ENDBRANCH   6   7
ENDBRANCH   5   6
ENDBRANCH   2   5
TORSDOF 28
ENDMDL
MODEL 15
REMARK VINA RESULT:      -9.2      1.545      8.140
REMARK  28 active torsions:
REMARK  status: ('A' for Active; 'I' for Inactive)
REMARK    1  A    between atoms: C_2  and  O_3 
REMARK    2  A    between atoms: C_2  and  C_4 
REMARK    3  A    between atoms: C_4  and  C_5 
REMARK    4  A    between atoms: C_5  and  C_6 
REMARK    5  A    between atoms: C_7  and  C_8 
REMARK    6  A    between atoms: C_8  and  C_9 
REMARK    7  A    between atoms: C_9  and  O_11 
REMARK    8  A    between atoms: C_28  and  C_29 
REMARK    9  A    between atoms: C_29  and  C_30 
REMARK   10  A    between atoms: C_30  and  O_32 
REMARK   11  A    between atoms: C_33  and  C_34 
REMARK   12  A    between atoms: C_34  and  C_35 
REMARK   13  A    between atoms: C_35  and  C_36 
REMARK   14  A    between atoms: C_36  and  O_38 
REMARK   15  A    between atoms: C_39  and  C_40 
REMARK   16  A    between atoms: C_40  and  C_41 
REMARK   17  A    between atoms: C_41  and  C_42 
REMARK   18  A    between atoms: C_42  and  O_44 
REMARK   19  A    between atoms: C_45  and  C_46 
REMARK   20  A    between atoms: C_46  and  C_47 
REMARK   21  A    between atoms: C_47  and  O_49 
REMARK   22  A    between atoms: C_50  and  C_51 
REMARK   23  A    between atoms: C_51  and  C_52 
REMARK   24  A    between atoms: C_52  and  O_54 
REMARK   25  A    between atoms: C_55  and  C_56 
REMARK   26  A    between atoms: C_56  and  C_57 
REMARK   27  A    between atoms: C_57  and  C_58 
REMARK   28  A    between atoms: C_58  and  O_60 
ROOT
ATOM      1  O   UNK d   0      -3.957 -14.395  -2.884  0.00  0.00    -0.650 OA
ATOM      2  C   UNK d   0      -4.625 -15.419  -2.620  0.00  0.00     0.139 C 
ENDROOT
BRANCH   2   3
ATOM      3  O   UNK d   0      -4.975 -15.677  -1.316  0.00  0.00    -0.776 OA
ATOM      4  H   UNK d   0      -5.107 -14.918  -0.645  0.00  0.00     0.167 HD
ENDBRANCH   2   3
BRANCH   2   5
ATOM      5  C   UNK d   0      -5.036 -16.347  -3.711  0.00  0.00     0.115 C 
BRANCH   5   6
ATOM      6  C   UNK d   0      -6.277 -17.099  -3.312  0.00  0.00     0.052 C 
BRANCH   6   7
ATOM      7  C   UNK d   0      -7.509 -16.616  -4.040  0.00  0.00    -0.020 A 
ATOM      8  C   UNK d   0      -8.125 -17.197  -5.037  0.00  0.00    -0.011 A 
ATOM      9  C   UNK d   0      -9.252 -16.359  -5.412  0.00  0.00     0.067 A 
ATOM     10  C   UNK d   0     -10.288 -16.419  -6.358  0.00  0.00     0.062 C 
ATOM     11  N   UNK d   0      -9.243 -15.285  -4.595  0.00  0.00    -0.248 NA
ATOM     12  C   UNK d   0     -11.454 -15.646  -6.387  0.00  0.00     0.041 A 
ATOM     13  N   UNK d   0     -11.652 -14.332  -6.171  0.00  0.00    -0.355 N 
ATOM     14  C   UNK d   0     -12.686 -16.283  -6.623  0.00  0.00    -0.022 A 
ATOM     15  C   UNK d   0     -12.979 -14.120  -6.256  0.00  0.00     0.042 A 
ATOM     16  H   UNK d   0     -10.868 -13.566  -5.981  0.00  0.00     0.166 HD
ATOM     17  C   UNK d   0     -13.725 -12.933  -6.115  0.00  0.00     0.062 C 
ATOM     18  C   UNK d   0     -13.660 -15.320  -6.538  0.00  0.00    -0.013 A 
ATOM     19  C   UNK d   0     -13.610 -11.950  -5.165  0.00  0.00     0.067 A 
ATOM     20  N   UNK d   0     -12.536 -11.996  -4.374  0.00  0.00    -0.248 NA
ATOM     21  C   UNK d   0     -14.400 -10.803  -4.748  0.00  0.00    -0.011 A 
ATOM     22  C   UNK d   0     -12.566 -10.963  -3.469  0.00  0.00     0.066 A 
ATOM     23  C   UNK d   0     -11.484 -10.869  -2.605  0.00  0.00     0.062 C 
ATOM     24  C   UNK d   0     -13.785 -10.232  -3.752  0.00  0.00    -0.020 A 
ATOM     25  C   UNK d   0     -10.316 -11.647  -2.601  0.00  0.00     0.041 A 
ATOM     26  N   UNK d   0     -10.121 -12.956  -2.801  0.00  0.00    -0.355 N 
ATOM     27  C   UNK d   0      -9.080 -11.007  -2.368  0.00  0.00    -0.022 A 
ATOM     28  C   UNK d   0      -8.799 -13.172  -2.708  0.00  0.00     0.042 A 
ATOM     29  H   UNK d   0     -10.911 -13.726  -2.980  0.00  0.00     0.166 HD
ATOM     30  C   UNK d   0      -8.045 -14.349  -2.836  0.00  0.00     0.062 C 
ATOM     31  C   UNK d   0      -8.114 -11.964  -2.435  0.00  0.00    -0.013 A 
ATOM     32  C   UNK d   0      -8.219 -15.380  -3.745  0.00  0.00     0.066 A 
BRANCH   8  33
ATOM     33  C   UNK d   0      -7.757 -18.470  -5.684  0.00  0.00     0.151 C 
BRANCH  33  34
ATOM     34  C   UNK d   0      -7.829 -18.404  -7.155  0.00  0.00     0.143 C 
ATOM     35  O   UNK d   0      -8.617 -19.123  -7.787  0.00  0.00    -0.650 OA
BRANCH  34  36
ATOM     36  O   UNK d   0      -7.009 -17.532  -7.833  0.00  0.00    -0.776 OA
ATOM     37  H   UNK d   0      -7.374 -16.656  -8.231  0.00  0.00     0.167 HD
ENDBRANCH  34  36
ENDBRANCH  33  34
ENDBRANCH   8  33
BRANCH  31  38
ATOM     38  C   UNK d   0      -6.629 -11.746  -2.263  0.00  0.00     0.151 C 
BRANCH  38  39
ATOM     39  C   UNK d   0      -6.176 -12.003  -0.913  0.00  0.00     0.143 C 
ATOM     40  O   UNK d   0      -6.090 -13.153  -0.447  0.00  0.00    -0.650 OA
BRANCH  39  41
ATOM     41  O   UNK d   0      -5.818 -10.932  -0.094  0.00  0.00    -0.776 OA
ATOM     42  H   UNK d   0      -4.829 -10.663  -0.092  0.00  0.00     0.167 HD
ENDBRANCH  39  41
ENDBRANCH  38  39
ENDBRANCH  31  38
BRANCH  27  43
ATOM     43  C   UNK d   0      -8.791  -9.553  -2.089  0.00  0.00     0.052 C 
BRANCH  43  44
ATOM     44  C   UNK d   0      -8.865  -9.203  -0.639  0.00  0.00     0.115 C 
BRANCH  44  45
ATOM     45  C   UNK d   0      -7.554  -8.605  -0.278  0.00  0.00     0.139 C 
ATOM     46  O   UNK d   0      -7.241  -8.551   0.937  0.00  0.00    -0.650 OA
BRANCH  45  47
ATOM     47  O   UNK d   0      -6.672  -8.115  -1.218  0.00  0.00    -0.776 OA
ATOM     48  H   UNK d   0      -5.679  -7.926  -1.009  0.00  0.00     0.167 HD
ENDBRANCH  45  47
ENDBRANCH  44  45
ENDBRANCH  43  44
ENDBRANCH  27  43
BRANCH  24  49
ATOM     49  C   UNK d   0     -14.217  -9.012  -3.050  0.00  0.00     0.052 C 
BRANCH  49  50
ATOM     50  C   UNK d   0     -15.205  -9.354  -1.964  0.00  0.00     0.115 C 
BRANCH  50  51
ATOM     51  C   UNK d   0     -15.894  -8.244  -1.319  0.00  0.00     0.139 C 
ATOM     52  O   UNK d   0     -16.264  -8.282  -0.121  0.00  0.00    -0.650 OA
BRANCH  51  53
ATOM     53  O   UNK d   0     -16.164  -7.091  -2.040  0.00  0.00    -0.776 OA
ATOM     54  H   UNK d   0     -15.419  -6.430  -2.174  0.00  0.00     0.167 HD
ENDBRANCH  51  53
ENDBRANCH  50  51
ENDBRANCH  49  50
ENDBRANCH  24  49
BRANCH  21  55
ATOM     55  C   UNK d   0     -15.683 -10.394  -5.391  0.00  0.00     0.151 C 
BRANCH  55  56
ATOM     56  C   UNK d   0     -15.503  -9.259  -6.310  0.00  0.00     0.143 C 
ATOM     57  O   UNK d   0     -14.484  -9.116  -7.013  0.00  0.00    -0.650 OA
BRANCH  56  58
ATOM     58  O   UNK d   0     -16.526  -8.315  -6.384  0.00  0.00    -0.776 OA
ATOM     59  H   UNK d   0     -16.361  -7.546  -7.058  0.00  0.00     0.167 HD
ENDBRANCH  56  58
ENDBRANCH  55  56
ENDBRANCH  21  55
BRANCH  18  60
ATOM     60  C   UNK d   0     -15.138 -15.567  -6.717  0.00  0.00     0.151 C 
BRANCH  60  61
ATOM     61  C   UNK d   0     -15.403 -15.404  -8.154  0.00  0.00     0.143 C 
ATOM     62  O   UNK d   0     -16.439 -15.692  -8.755  0.00  0.00    -0.650 OA
BRANCH  61  63
ATOM     63  O   UNK d   0     -14.336 -14.855  -8.905  0.00  0.00    -0.776 OA
ATOM     64  H   UNK d   0     -14.068 -15.249  -9.790  0.00  0.00     0.167 HD
ENDBRANCH  61  63
ENDBRANCH  60  61
ENDBRANCH  18  60
BRANCH  14  65
ATOM     65  C   UNK d   0     -12.999 -17.699  -7.016  0.00  0.00     0.052 C 
BRANCH  65  66
ATOM     66  C   UNK d   0     -13.788 -18.427  -5.986  0.00  0.00     0.115 C 
BRANCH  66  67
ATOM     67  C   UNK d   0     -14.048 -19.830  -6.149  0.00  0.00     0.139 C 
ATOM     68  O   UNK d   0     -13.048 -20.630  -6.265  0.00  0.00    -0.650 OA
BRANCH  67  69
ATOM     69  O   UNK d   0     -15.287 -20.468  -6.202  0.00  0.00    -0.776 OA
ATOM     70  H   UNK d   0     -16.095 -19.860  -6.398  0.00  0.00     0.167 HD
ENDBRANCH  67  69
ENDBRANCH  66  67
ENDBRANCH  65  66
ENDBRANCH  14  65
ENDBRANCH   6   7
ENDBRANCH   5   6
ENDBRANCH   2   5
TORSDOF 28
ENDMDL
MODEL 16
REMARK VINA RESULT:      -8.9      2.203      8.472
REMARK  28 active torsions:
REMARK  status: ('A' for Active; 'I' for Inactive)
REMARK    1  A    between atoms: C_2  and  O_3 
REMARK    2  A    between atoms: C_2  and  C_4 
REMARK    3  A    between atoms: C_4  and  C_5 
REMARK    4  A    between atoms: C_5  and  C_6 
REMARK    5  A    between atoms: C_7  and  C_8 
REMARK    6  A    between atoms: C_8  and  C_9 
REMARK    7  A    between atoms: C_9  and  O_11 
REMARK    8  A    between atoms: C_28  and  C_29 
REMARK    9  A    between atoms: C_29  and  C_30 
REMARK   10  A    between atoms: C_30  and  O_32 
REMARK   11  A    between atoms: C_33  and  C_34 
REMARK   12  A    between atoms: C_34  and  C_35 
REMARK   13  A    between atoms: C_35  and  C_36 
REMARK   14  A    between atoms: C_36  and  O_38 
REMARK   15  A    between atoms: C_39  and  C_40 
REMARK   16  A    between atoms: C_40  and  C_41 
REMARK   17  A    between atoms: C_41  and  C_42 
REMARK   18  A    between atoms: C_42  and  O_44 
REMARK   19  A    between atoms: C_45  and  C_46 
REMARK   20  A    between atoms: C_46  and  C_47 
REMARK   21  A    between atoms: C_47  and  O_49 
REMARK   22  A    between atoms: C_50  and  C_51 
REMARK   23  A    between atoms: C_51  and  C_52 
REMARK   24  A    between atoms: C_52  and  O_54 
REMARK   25  A    between atoms: C_55  and  C_56 
REMARK   26  A    between atoms: C_56  and  C_57 
REMARK   27  A    between atoms: C_57  and  C_58 
REMARK   28  A    between atoms: C_58  and  O_60 
ROOT
ATOM      1  O   UNK d   0      -7.396  -8.953   1.200  0.00  0.00    -0.650 OA
ATOM      2  C   UNK d   0      -6.494  -9.370   0.440  0.00  0.00     0.139 C 
ENDROOT
BRANCH   2   3
ATOM      3  O   UNK d   0      -5.348  -8.628   0.285  0.00  0.00    -0.776 OA
ATOM      4  H   UNK d   0      -5.243  -7.718   0.740  0.00  0.00     0.167 HD
ENDBRANCH   2   3
BRANCH   2   5
ATOM      5  C   UNK d   0      -6.666 -10.658  -0.290  0.00  0.00     0.115 C 
BRANCH   5   6
ATOM      6  C   UNK d   0      -6.779 -10.404  -1.768  0.00  0.00     0.052 C 
BRANCH   6   7
ATOM      7  C   UNK d   0      -7.968 -11.098  -2.388  0.00  0.00    -0.020 A 
ATOM      8  C   UNK d   0      -9.215 -10.703  -2.383  0.00  0.00    -0.011 A 
ATOM      9  C   UNK d   0     -10.001 -11.698  -3.094  0.00  0.00     0.067 A 
ATOM     10  C   UNK d   0     -11.349 -11.858  -3.450  0.00  0.00     0.062 C 
ATOM     11  N   UNK d   0      -9.151 -12.668  -3.493  0.00  0.00    -0.248 NA
ATOM     12  C   UNK d   0     -11.877 -12.755  -4.385  0.00  0.00     0.041 A 
ATOM     13  N   UNK d   0     -11.603 -14.051  -4.623  0.00  0.00    -0.355 N 
ATOM     14  C   UNK d   0     -12.828 -12.290  -5.312  0.00  0.00    -0.022 A 
ATOM     15  C   UNK d   0     -12.349 -14.419  -5.682  0.00  0.00     0.042 A 
ATOM     16  H   UNK d   0     -10.910 -14.699  -4.042  0.00  0.00     0.166 HD
ATOM     17  C   UNK d   0     -12.449 -15.659  -6.343  0.00  0.00     0.062 C 
ATOM     18  C   UNK d   0     -13.130 -13.341  -6.141  0.00  0.00    -0.013 A 
ATOM     19  C   UNK d   0     -11.447 -16.514  -6.729  0.00  0.00     0.067 A 
ATOM     20  N   UNK d   0     -10.223 -16.261  -6.260  0.00  0.00    -0.248 NA
ATOM     21  C   UNK d   0     -11.347 -17.689  -7.577  0.00  0.00    -0.011 A 
ATOM     22  C   UNK d   0      -9.328 -17.185  -6.741  0.00  0.00     0.066 A 
ATOM     23  C   UNK d   0      -8.018 -17.063  -6.301  0.00  0.00     0.062 C 
ATOM     24  C   UNK d   0     -10.103 -18.075  -7.584  0.00  0.00    -0.020 A 
ATOM     25  C   UNK d   0      -7.510 -16.163  -5.352  0.00  0.00     0.041 A 
ATOM     26  N   UNK d   0      -7.772 -14.870  -5.125  0.00  0.00    -0.355 N 
ATOM     27  C   UNK d   0      -6.560 -16.632  -4.419  0.00  0.00    -0.022 A 
ATOM     28  C   UNK d   0      -7.023 -14.499  -4.075  0.00  0.00     0.042 A 
ATOM     29  H   UNK d   0      -8.460 -14.218  -5.716  0.00  0.00     0.166 HD
ATOM     30  C   UNK d   0      -6.907 -13.266  -3.413  0.00  0.00     0.062 C 
ATOM     31  C   UNK d   0      -6.246 -15.586  -3.607  0.00  0.00    -0.013 A 
ATOM     32  C   UNK d   0      -7.913 -12.366  -3.100  0.00  0.00     0.066 A 
BRANCH   8  33
ATOM     33  C   UNK d   0      -9.751  -9.475  -1.767  0.00  0.00     0.151 C 
BRANCH  33  34
ATOM     34  C   UNK d   0     -11.180  -9.266  -2.062  0.00  0.00     0.143 C 
ATOM     35  O   UNK d   0     -12.054  -9.596  -1.247  0.00  0.00    -0.650 OA
BRANCH  34  36
ATOM     36  O   UNK d   0     -11.546  -8.697  -3.260  0.00  0.00    -0.776 OA
ATOM     37  H   UNK d   0     -12.353  -8.062  -3.326  0.00  0.00     0.167 HD
ENDBRANCH  34  36
ENDBRANCH  33  34
ENDBRANCH   8  33
BRANCH  31  38
ATOM     38  C   UNK d   0      -5.278 -15.616  -2.447  0.00  0.00     0.151 C 
BRANCH  38  39
ATOM     39  C   UNK d   0      -5.941 -15.688  -1.163  0.00  0.00     0.143 C 
ATOM     40  O   UNK d   0      -7.180 -15.705  -1.054  0.00  0.00    -0.650 OA
BRANCH  39  41
ATOM     41  O   UNK d   0      -5.177 -15.741   0.002  0.00  0.00    -0.776 OA
ATOM     42  H   UNK d   0      -5.100 -16.653   0.463  0.00  0.00     0.167 HD
ENDBRANCH  39  41
ENDBRANCH  38  39
ENDBRANCH  31  38
BRANCH  27  43
ATOM     43  C   UNK d   0      -5.952 -18.005  -4.278  0.00  0.00     0.052 C 
BRANCH  43  44
ATOM     44  C   UNK d   0      -6.969 -19.087  -4.112  0.00  0.00     0.115 C 
BRANCH  44  45
ATOM     45  C   UNK d   0      -6.307 -20.179  -3.351  0.00  0.00     0.139 C 
ATOM     46  O   UNK d   0      -6.994 -21.183  -3.040  0.00  0.00    -0.650 OA
BRANCH  45  47
ATOM     47  O   UNK d   0      -4.980 -20.134  -2.982  0.00  0.00    -0.776 OA
ATOM     48  H   UNK d   0      -4.536 -19.290  -2.587  0.00  0.00     0.167 HD
ENDBRANCH  45  47
ENDBRANCH  44  45
ENDBRANCH  43  44
ENDBRANCH  27  43
BRANCH  24  49
ATOM     49  C   UNK d   0      -9.563 -19.252  -8.285  0.00  0.00     0.052 C 
BRANCH  49  50
ATOM     50  C   UNK d   0      -9.594 -20.460  -7.385  0.00  0.00     0.115 C 
BRANCH  50  51
ATOM     51  C   UNK d   0     -10.510 -21.534  -7.744  0.00  0.00     0.139 C 
ATOM     52  O   UNK d   0     -10.288 -22.322  -8.693  0.00  0.00    -0.650 OA
BRANCH  51  53
ATOM     53  O   UNK d   0     -11.680 -21.708  -7.022  0.00  0.00    -0.776 OA
ATOM     54  H   UNK d   0     -11.658 -21.535  -6.032  0.00  0.00     0.167 HD
ENDBRANCH  51  53
ENDBRANCH  50  51
ENDBRANCH  49  50
ENDBRANCH  24  49
BRANCH  21  55
ATOM     55  C   UNK d   0     -12.504 -18.307  -8.289  0.00  0.00     0.151 C 
BRANCH  55  56
ATOM     56  C   UNK d   0     -13.582 -18.687  -7.363  0.00  0.00     0.143 C 
ATOM     57  O   UNK d   0     -13.444 -19.568  -6.492  0.00  0.00    -0.650 OA
BRANCH  56  58
ATOM     58  O   UNK d   0     -14.802 -18.023  -7.480  0.00  0.00    -0.776 OA
ATOM     59  H   UNK d   0     -15.443 -18.144  -6.675  0.00  0.00     0.167 HD
ENDBRANCH  56  58
ENDBRANCH  55  56
ENDBRANCH  21  55
BRANCH  18  60
ATOM     60  C   UNK d   0     -14.105 -13.282  -7.291  0.00  0.00     0.151 C 
BRANCH  60  61
ATOM     61  C   UNK d   0     -15.412 -13.658  -6.732  0.00  0.00     0.143 C 
ATOM     62  O   UNK d   0     -16.257 -12.903  -6.247  0.00  0.00    -0.650 OA
BRANCH  61  63
ATOM     63  O   UNK d   0     -15.707 -15.042  -6.767  0.00  0.00    -0.776 OA
ATOM     64  H   UNK d   0     -15.228 -15.658  -7.399  0.00  0.00     0.167 HD
ENDBRANCH  61  63
ENDBRANCH  60  61
ENDBRANCH  18  60
BRANCH  14  65
ATOM     65  C   UNK d   0     -13.538 -10.969  -5.410  0.00  0.00     0.052 C 
BRANCH  65  66
ATOM     66  C   UNK d   0     -14.747 -10.894  -4.547  0.00  0.00     0.115 C 
BRANCH  66  67
ATOM     67  C   UNK d   0     -14.711 -10.120  -3.338  0.00  0.00     0.139 C 
ATOM     68  O   UNK d   0     -14.481  -8.857  -3.424  0.00  0.00    -0.650 OA
BRANCH  67  69
ATOM     69  O   UNK d   0     -14.898 -10.569  -2.031  0.00  0.00    -0.776 OA
ATOM     70  H   UNK d   0     -15.154 -11.562  -1.931  0.00  0.00     0.167 HD
ENDBRANCH  67  69
ENDBRANCH  66  67
ENDBRANCH  65  66
ENDBRANCH  14  65
ENDBRANCH   6   7
ENDBRANCH   5   6
ENDBRANCH   2   5
TORSDOF 28
ENDMDL
MODEL 17
REMARK VINA RESULT:      -8.5     27.269     30.903
REMARK  28 active torsions:
REMARK  status: ('A' for Active; 'I' for Inactive)
REMARK    1  A    between atoms: C_2  and  O_3 
REMARK    2  A    between atoms: C_2  and  C_4 
REMARK    3  A    between atoms: C_4  and  C_5 
REMARK    4  A    between atoms: C_5  and  C_6 
REMARK    5  A    between atoms: C_7  and  C_8 
REMARK    6  A    between atoms: C_8  and  C_9 
REMARK    7  A    between atoms: C_9  and  O_11 
REMARK    8  A    between atoms: C_28  and  C_29 
REMARK    9  A    between atoms: C_29  and  C_30 
REMARK   10  A    between atoms: C_30  and  O_32 
REMARK   11  A    between atoms: C_33  and  C_34 
REMARK   12  A    between atoms: C_34  and  C_35 
REMARK   13  A    between atoms: C_35  and  C_36 
REMARK   14  A    between atoms: C_36  and  O_38 
REMARK   15  A    between atoms: C_39  and  C_40 
REMARK   16  A    between atoms: C_40  and  C_41 
REMARK   17  A    between atoms: C_41  and  C_42 
REMARK   18  A    between atoms: C_42  and  O_44 
REMARK   19  A    between atoms: C_45  and  C_46 
REMARK   20  A    between atoms: C_46  and  C_47 
REMARK   21  A    between atoms: C_47  and  O_49 
REMARK   22  A    between atoms: C_50  and  C_51 
REMARK   23  A    between atoms: C_51  and  C_52 
REMARK   24  A    between atoms: C_52  and  O_54 
REMARK   25  A    between atoms: C_55  and  C_56 
REMARK   26  A    between atoms: C_56  and  C_57 
REMARK   27  A    between atoms: C_57  and  C_58 
REMARK   28  A    between atoms: C_58  and  O_60 
ROOT
ATOM      1  O   UNK d   0     -40.309 -15.361   5.567  0.00  0.00    -0.650 OA
ATOM      2  C   UNK d   0     -40.570 -16.584   5.601  0.00  0.00     0.139 C 
ENDROOT
BRANCH   2   3
ATOM      3  O   UNK d   0     -41.748 -17.037   5.059  0.00  0.00    -0.776 OA
ATOM      4  H   UNK d   0     -42.435 -17.533   5.630  0.00  0.00     0.167 HD
ENDBRANCH   2   3
BRANCH   2   5
ATOM      5  C   UNK d   0     -39.609 -17.537   6.226  0.00  0.00     0.115 C 
BRANCH   5   6
ATOM      6  C   UNK d   0     -40.349 -18.705   6.819  0.00  0.00     0.052 C 
BRANCH   6   7
ATOM      7  C   UNK d   0     -39.521 -19.469   7.824  0.00  0.00    -0.020 A 
ATOM      8  C   UNK d   0     -39.686 -20.705   8.220  0.00  0.00    -0.011 A 
ATOM      9  C   UNK d   0     -38.655 -20.999   9.201  0.00  0.00     0.067 A 
ATOM     10  C   UNK d   0     -38.275 -22.112   9.968  0.00  0.00     0.062 C 
ATOM     11  N   UNK d   0     -37.909 -19.884   9.345  0.00  0.00    -0.248 NA
ATOM     12  C   UNK d   0     -37.073 -22.294  10.660  0.00  0.00     0.041 A 
ATOM     13  N   UNK d   0     -36.356 -21.451  11.427  0.00  0.00    -0.355 N 
ATOM     14  C   UNK d   0     -36.401 -23.524  10.546  0.00  0.00    -0.022 A 
ATOM     15  C   UNK d   0     -35.242 -22.112  11.796  0.00  0.00     0.042 A 
ATOM     16  H   UNK d   0     -36.640 -20.415  11.718  0.00  0.00     0.166 HD
ATOM     17  C   UNK d   0     -34.159 -21.701  12.597  0.00  0.00     0.062 C 
ATOM     18  C   UNK d   0     -35.235 -23.416  11.262  0.00  0.00    -0.013 A 
ATOM     19  C   UNK d   0     -33.468 -20.516  12.572  0.00  0.00     0.067 A 
ATOM     20  N   UNK d   0     -33.988 -19.529  11.839  0.00  0.00    -0.248 NA
ATOM     21  C   UNK d   0     -32.234 -20.014  13.153  0.00  0.00    -0.011 A 
ATOM     22  C   UNK d   0     -33.184 -18.417  11.897  0.00  0.00     0.066 A 
ATOM     23  C   UNK d   0     -33.627 -17.298  11.207  0.00  0.00     0.062 C 
ATOM     24  C   UNK d   0     -32.072 -18.786  12.750  0.00  0.00    -0.020 A 
ATOM     25  C   UNK d   0     -34.844 -17.132  10.529  0.00  0.00     0.041 A 
ATOM     26  N   UNK d   0     -35.550 -17.965   9.754  0.00  0.00    -0.355 N 
ATOM     27  C   UNK d   0     -35.520 -15.898  10.647  0.00  0.00    -0.022 A 
ATOM     28  C   UNK d   0     -36.656 -17.305   9.377  0.00  0.00     0.042 A 
ATOM     29  H   UNK d   0     -35.258 -19.001   9.454  0.00  0.00     0.166 HD
ATOM     30  C   UNK d   0     -37.737 -17.698   8.573  0.00  0.00     0.062 C 
ATOM     31  C   UNK d   0     -36.668 -15.999   9.922  0.00  0.00    -0.013 A 
ATOM     32  C   UNK d   0     -38.378 -18.927   8.543  0.00  0.00     0.066 A 
BRANCH   8  33
ATOM     33  C   UNK d   0     -40.728 -21.646   7.770  0.00  0.00     0.151 C 
BRANCH  33  34
ATOM     34  C   UNK d   0     -41.855 -21.744   8.716  0.00  0.00     0.143 C 
ATOM     35  O   UNK d   0     -41.734 -22.349   9.790  0.00  0.00    -0.650 OA
BRANCH  34  36
ATOM     36  O   UNK d   0     -43.057 -21.155   8.397  0.00  0.00    -0.776 OA
ATOM     37  H   UNK d   0     -43.790 -21.674   7.895  0.00  0.00     0.167 HD
ENDBRANCH  34  36
ENDBRANCH  33  34
ENDBRANCH   8  33
BRANCH  31  38
ATOM     38  C   UNK d   0     -37.720 -14.926   9.766  0.00  0.00     0.151 C 
BRANCH  38  39
ATOM     39  C   UNK d   0     -39.043 -15.379  10.139  0.00  0.00     0.143 C 
ATOM     40  O   UNK d   0     -39.248 -16.080  11.146  0.00  0.00    -0.650 OA
BRANCH  39  41
ATOM     41  O   UNK d   0     -40.138 -15.024   9.350  0.00  0.00    -0.776 OA
ATOM     42  H   UNK d   0     -40.386 -15.665   8.590  0.00  0.00     0.167 HD
ENDBRANCH  39  41
ENDBRANCH  38  39
ENDBRANCH  31  38
BRANCH  27  43
ATOM     43  C   UNK d   0     -35.122 -14.656  11.405  0.00  0.00     0.052 C 
BRANCH  43  44
ATOM     44  C   UNK d   0     -33.772 -14.758  12.038  0.00  0.00     0.115 C 
BRANCH  44  45
ATOM     45  C   UNK d   0     -32.796 -14.249  11.040  0.00  0.00     0.139 C 
ATOM     46  O   UNK d   0     -31.845 -13.538  11.450  0.00  0.00    -0.650 OA
BRANCH  45  47
ATOM     47  O   UNK d   0     -32.889 -14.529   9.694  0.00  0.00    -0.776 OA
ATOM     48  H   UNK d   0     -32.780 -13.808   8.962  0.00  0.00     0.167 HD
ENDBRANCH  45  47
ENDBRANCH  44  45
ENDBRANCH  43  44
ENDBRANCH  27  43
BRANCH  24  49
ATOM     49  C   UNK d   0     -30.969 -17.886  13.132  0.00  0.00     0.052 C 
BRANCH  49  50
ATOM     50  C   UNK d   0     -31.504 -16.684  13.866  0.00  0.00     0.115 C 
BRANCH  50  51
ATOM     51  C   UNK d   0     -30.577 -15.587  14.110  0.00  0.00     0.139 C 
ATOM     52  O   UNK d   0     -29.363 -15.772  14.364  0.00  0.00    -0.650 OA
BRANCH  51  53
ATOM     53  O   UNK d   0     -31.035 -14.279  14.068  0.00  0.00    -0.776 OA
ATOM     54  H   UNK d   0     -32.009 -14.110  14.250  0.00  0.00     0.167 HD
ENDBRANCH  51  53
ENDBRANCH  50  51
ENDBRANCH  49  50
ENDBRANCH  24  49
BRANCH  21  55
ATOM     55  C   UNK d   0     -31.350 -20.811  14.052  0.00  0.00     0.151 C 
BRANCH  55  56
ATOM     56  C   UNK d   0     -31.649 -22.250  13.987  0.00  0.00     0.143 C 
ATOM     57  O   UNK d   0     -32.403 -22.820  14.800  0.00  0.00    -0.650 OA
BRANCH  56  58
ATOM     58  O   UNK d   0     -31.056 -22.990  12.966  0.00  0.00    -0.776 OA
ATOM     59  H   UNK d   0     -30.319 -23.649  13.276  0.00  0.00     0.167 HD
ENDBRANCH  56  58
ENDBRANCH  55  56
ENDBRANCH  21  55
BRANCH  18  60
ATOM     60  C   UNK d   0     -34.203 -24.506  11.404  0.00  0.00     0.151 C 
BRANCH  60  61
ATOM     61  C   UNK d   0     -33.258 -24.315  10.292  0.00  0.00     0.143 C 
ATOM     62  O   UNK d   0     -32.403 -23.435  10.188  0.00  0.00    -0.650 OA
BRANCH  61  63
ATOM     63  O   UNK d   0     -33.365 -25.258   9.242  0.00  0.00    -0.776 OA
ATOM     64  H   UNK d   0     -32.619 -25.384   8.581  0.00  0.00     0.167 HD
ENDBRANCH  61  63
ENDBRANCH  60  61
ENDBRANCH  18  60
BRANCH  14  65
ATOM     65  C   UNK d   0     -36.820 -24.814   9.899  0.00  0.00     0.052 C 
BRANCH  65  66
ATOM     66  C   UNK d   0     -37.686 -25.649  10.774  0.00  0.00     0.115 C 
BRANCH  66  67
ATOM     67  C   UNK d   0     -37.148 -26.828  11.393  0.00  0.00     0.139 C 
ATOM     68  O   UNK d   0     -37.026 -27.892  10.682  0.00  0.00    -0.650 OA
BRANCH  67  69
ATOM     69  O   UNK d   0     -36.723 -26.981  12.712  0.00  0.00    -0.776 OA
ATOM     70  H   UNK d   0     -36.041 -27.734  12.879  0.00  0.00     0.167 HD
ENDBRANCH  67  69
ENDBRANCH  66  67
ENDBRANCH  65  66
ENDBRANCH  14  65
ENDBRANCH   6   7
ENDBRANCH   5   6
ENDBRANCH   2   5
TORSDOF 28
ENDMDL
