MODEL 1
REMARK VINA RESULT:      -9.4      0.000      0.000
REMARK  28 active torsions:
REMARK  status: ('A' for Active; 'I' for Inactive)
REMARK    1  A    between atoms: C_2  and  O_3 
REMARK    2  A    between atoms: C_2  and  C_4 
REMARK    3  A    between atoms: C_4  and  C_5 
REMARK    4  A    between atoms: C_5  and  C_6 
REMARK    5  A    between atoms: C_7  and  C_8 
REMARK    6  A    between atoms: C_8  and  C_9 
REMARK    7  A    between atoms: C_9  and  O_11 
REMARK    8  A    between atoms: C_28  and  C_29 
REMARK    9  A    between atoms: C_29  and  C_30 
REMARK   10  A    between atoms: C_30  and  O_32 
REMARK   11  A    between atoms: C_33  and  C_34 
REMARK   12  A    between atoms: C_34  and  C_35 
REMARK   13  A    between atoms: C_35  and  C_36 
REMARK   14  A    between atoms: C_36  and  O_38 
REMARK   15  A    between atoms: C_39  and  C_40 
REMARK   16  A    between atoms: C_40  and  C_41 
REMARK   17  A    between atoms: C_41  and  C_42 
REMARK   18  A    between atoms: C_42  and  O_44 
REMARK   19  A    between atoms: C_45  and  C_46 
REMARK   20  A    between atoms: C_46  and  C_47 
REMARK   21  A    between atoms: C_47  and  O_49 
REMARK   22  A    between atoms: C_50  and  C_51 
REMARK   23  A    between atoms: C_51  and  C_52 
REMARK   24  A    between atoms: C_52  and  O_54 
REMARK   25  A    between atoms: C_55  and  C_56 
REMARK   26  A    between atoms: C_56  and  C_57 
REMARK   27  A    between atoms: C_57  and  C_58 
REMARK   28  A    between atoms: C_58  and  O_60 
ROOT
ATOM      1  O   UNK d   0     -17.722 -15.891  26.427  0.00  0.00    -0.650 OA
ATOM      2  C   UNK d   0     -18.484 -16.448  27.248  0.00  0.00     0.139 C 
ENDROOT
BRANCH   2   3
ATOM      3  O   UNK d   0     -18.272 -16.269  28.594  0.00  0.00    -0.776 OA
ATOM      4  H   UNK d   0     -17.624 -16.868  29.110  0.00  0.00     0.167 HD
ENDBRANCH   2   3
BRANCH   2   5
ATOM      5  C   UNK d   0     -19.611 -17.296  26.766  0.00  0.00     0.115 C 
BRANCH   5   6
ATOM      6  C   UNK d   0     -19.990 -16.906  25.363  0.00  0.00     0.052 C 
BRANCH   6   7
ATOM      7  C   UNK d   0     -20.888 -17.922  24.700  0.00  0.00    -0.020 A 
ATOM      8  C   UNK d   0     -21.976 -17.696  24.010  0.00  0.00    -0.011 A 
ATOM      9  C   UNK d   0     -22.504 -18.979  23.577  0.00  0.00     0.067 A 
ATOM     10  C   UNK d   0     -23.596 -19.419  22.813  0.00  0.00     0.062 C 
ATOM     11  N   UNK d   0     -21.678 -19.934  24.054  0.00  0.00    -0.248 NA
ATOM     12  C   UNK d   0     -23.789 -20.692  22.266  0.00  0.00     0.041 A 
ATOM     13  N   UNK d   0     -23.585 -21.919  22.781  0.00  0.00    -0.355 N 
ATOM     14  C   UNK d   0     -24.219 -20.801  20.931  0.00  0.00    -0.022 A 
ATOM     15  C   UNK d   0     -23.866 -22.803  21.806  0.00  0.00     0.042 A 
ATOM     16  H   UNK d   0     -23.267 -22.156  23.821  0.00  0.00     0.166 HD
ATOM     17  C   UNK d   0     -23.821 -24.212  21.808  0.00  0.00     0.062 C 
ATOM     18  C   UNK d   0     -24.267 -22.140  20.630  0.00  0.00    -0.013 A 
ATOM     19  C   UNK d   0     -22.849 -25.042  22.305  0.00  0.00     0.067 A 
ATOM     20  N   UNK d   0     -21.905 -24.482  23.066  0.00  0.00    -0.248 NA
ATOM     21  C   UNK d   0     -22.538 -26.459  22.213  0.00  0.00    -0.011 A 
ATOM     22  C   UNK d   0     -20.998 -25.428  23.476  0.00  0.00     0.066 A 
ATOM     23  C   UNK d   0     -19.980 -24.987  24.307  0.00  0.00     0.062 C 
ATOM     24  C   UNK d   0     -21.452 -26.678  22.896  0.00  0.00    -0.020 A 
ATOM     25  C   UNK d   0     -19.811 -23.707  24.857  0.00  0.00     0.041 A 
ATOM     26  N   UNK d   0     -20.000 -22.487  24.339  0.00  0.00    -0.355 N 
ATOM     27  C   UNK d   0     -19.384 -23.599  26.198  0.00  0.00    -0.022 A 
ATOM     28  C   UNK d   0     -19.712 -21.603  25.308  0.00  0.00     0.042 A 
ATOM     29  H   UNK d   0     -20.309 -22.250  23.291  0.00  0.00     0.166 HD
ATOM     30  C   UNK d   0     -19.744 -20.200  25.316  0.00  0.00     0.062 C 
ATOM     31  C   UNK d   0     -19.319 -22.271  26.492  0.00  0.00    -0.013 A 
ATOM     32  C   UNK d   0     -20.685 -19.363  24.738  0.00  0.00     0.066 A 
BRANCH   8  33
ATOM     33  C   UNK d   0     -22.581 -16.383  23.715  0.00  0.00     0.151 C 
BRANCH  33  34
ATOM     34  C   UNK d   0     -23.790 -16.119  24.516  0.00  0.00     0.143 C 
ATOM     35  O   UNK d   0     -24.916 -16.388  24.075  0.00  0.00    -0.650 OA
BRANCH  34  36
ATOM     36  O   UNK d   0     -23.662 -15.565  25.769  0.00  0.00    -0.776 OA
ATOM     37  H   UNK d   0     -23.424 -14.572  25.892  0.00  0.00     0.167 HD
ENDBRANCH  34  36
ENDBRANCH  33  34
ENDBRANCH   8  33
BRANCH  31  38
ATOM     38  C   UNK d   0     -18.922 -21.671  27.820  0.00  0.00     0.151 C 
BRANCH  38  39
ATOM     39  C   UNK d   0     -17.531 -21.271  27.862  0.00  0.00     0.143 C 
ATOM     40  O   UNK d   0     -16.602 -22.097  27.881  0.00  0.00    -0.650 OA
BRANCH  39  41
ATOM     41  O   UNK d   0     -17.207 -19.915  27.881  0.00  0.00    -0.776 OA
ATOM     42  H   UNK d   0     -16.274 -19.659  27.545  0.00  0.00     0.167 HD
ENDBRANCH  39  41
ENDBRANCH  38  39
ENDBRANCH  31  38
BRANCH  27  43
ATOM     43  C   UNK d   0     -19.042 -24.686  27.186  0.00  0.00     0.052 C 
BRANCH  43  44
ATOM     44  C   UNK d   0     -17.578 -24.974  27.263  0.00  0.00     0.115 C 
BRANCH  44  45
ATOM     45  C   UNK d   0     -17.291 -25.997  26.224  0.00  0.00     0.139 C 
ATOM     46  O   UNK d   0     -17.856 -27.114  26.322  0.00  0.00    -0.650 OA
BRANCH  45  47
ATOM     47  O   UNK d   0     -16.440 -25.768  25.165  0.00  0.00    -0.776 OA
ATOM     48  H   UNK d   0     -15.558 -26.288  25.032  0.00  0.00     0.167 HD
ENDBRANCH  45  47
ENDBRANCH  44  45
ENDBRANCH  43  44
ENDBRANCH  27  43
BRANCH  24  49
ATOM     49  C   UNK d   0     -20.803 -27.984  23.102  0.00  0.00     0.052 C 
BRANCH  49  50
ATOM     50  C   UNK d   0     -19.570 -28.098  22.243  0.00  0.00     0.115 C 
BRANCH  50  51
ATOM     51  C   UNK d   0     -18.281 -27.964  22.909  0.00  0.00     0.139 C 
ATOM     52  O   UNK d   0     -17.451 -27.075  22.604  0.00  0.00    -0.650 OA
BRANCH  51  53
ATOM     53  O   UNK d   0     -17.937 -28.847  23.921  0.00  0.00    -0.776 OA
ATOM     54  H   UNK d   0     -18.026 -28.536  24.873  0.00  0.00     0.167 HD
ENDBRANCH  51  53
ENDBRANCH  50  51
ENDBRANCH  49  50
ENDBRANCH  24  49
BRANCH  21  55
ATOM     55  C   UNK d   0     -23.361 -27.447  21.455  0.00  0.00     0.151 C 
BRANCH  55  56
ATOM     56  C   UNK d   0     -22.986 -27.502  20.034  0.00  0.00     0.143 C 
ATOM     57  O   UNK d   0     -22.297 -28.423  19.553  0.00  0.00    -0.650 OA
BRANCH  56  58
ATOM     58  O   UNK d   0     -23.430 -26.473  19.205  0.00  0.00    -0.776 OA
ATOM     59  H   UNK d   0     -22.680 -25.881  18.805  0.00  0.00     0.167 HD
ENDBRANCH  56  58
ENDBRANCH  55  56
ENDBRANCH  21  55
BRANCH  18  60
ATOM     60  C   UNK d   0     -24.671 -22.712  19.294  0.00  0.00     0.151 C 
BRANCH  60  61
ATOM     61  C   UNK d   0     -23.431 -22.822  18.510  0.00  0.00     0.143 C 
ATOM     62  O   UNK d   0     -22.557 -23.682  18.621  0.00  0.00    -0.650 OA
BRANCH  61  63
ATOM     63  O   UNK d   0     -23.248 -21.819  17.528  0.00  0.00    -0.776 OA
ATOM     64  H   UNK d   0     -23.133 -22.058  16.559  0.00  0.00     0.167 HD
ENDBRANCH  61  63
ENDBRANCH  60  61
ENDBRANCH  18  60
BRANCH  14  65
ATOM     65  C   UNK d   0     -24.677 -19.751  19.959  0.00  0.00     0.052 C 
BRANCH  65  66
ATOM     66  C   UNK d   0     -25.872 -19.002  20.432  0.00  0.00     0.115 C 
BRANCH  66  67
ATOM     67  C   UNK d   0     -25.894 -17.569  20.349  0.00  0.00     0.139 C 
ATOM     68  O   UNK d   0     -26.766 -17.012  19.586  0.00  0.00    -0.650 OA
BRANCH  67  69
ATOM     69  O   UNK d   0     -25.064 -16.663  21.008  0.00  0.00    -0.776 OA
ATOM     70  H   UNK d   0     -24.190 -17.053  21.389  0.00  0.00     0.167 HD
ENDBRANCH  67  69
ENDBRANCH  66  67
ENDBRANCH  65  66
ENDBRANCH  14  65
ENDBRANCH   6   7
ENDBRANCH   5   6
ENDBRANCH   2   5
TORSDOF 28
ENDMDL
MODEL 2
REMARK VINA RESULT:      -9.2      1.688      7.390
REMARK  28 active torsions:
REMARK  status: ('A' for Active; 'I' for Inactive)
REMARK    1  A    between atoms: C_2  and  O_3 
REMARK    2  A    between atoms: C_2  and  C_4 
REMARK    3  A    between atoms: C_4  and  C_5 
REMARK    4  A    between atoms: C_5  and  C_6 
REMARK    5  A    between atoms: C_7  and  C_8 
REMARK    6  A    between atoms: C_8  and  C_9 
REMARK    7  A    between atoms: C_9  and  O_11 
REMARK    8  A    between atoms: C_28  and  C_29 
REMARK    9  A    between atoms: C_29  and  C_30 
REMARK   10  A    between atoms: C_30  and  O_32 
REMARK   11  A    between atoms: C_33  and  C_34 
REMARK   12  A    between atoms: C_34  and  C_35 
REMARK   13  A    between atoms: C_35  and  C_36 
REMARK   14  A    between atoms: C_36  and  O_38 
REMARK   15  A    between atoms: C_39  and  C_40 
REMARK   16  A    between atoms: C_40  and  C_41 
REMARK   17  A    between atoms: C_41  and  C_42 
REMARK   18  A    between atoms: C_42  and  O_44 
REMARK   19  A    between atoms: C_45  and  C_46 
REMARK   20  A    between atoms: C_46  and  C_47 
REMARK   21  A    between atoms: C_47  and  O_49 
REMARK   22  A    between atoms: C_50  and  C_51 
REMARK   23  A    between atoms: C_51  and  C_52 
REMARK   24  A    between atoms: C_52  and  O_54 
REMARK   25  A    between atoms: C_55  and  C_56 
REMARK   26  A    between atoms: C_56  and  C_57 
REMARK   27  A    between atoms: C_57  and  C_58 
REMARK   28  A    between atoms: C_58  and  O_60 
ROOT
ATOM      1  O   UNK d   0     -25.004 -15.064  25.898  0.00  0.00    -0.650 OA
ATOM      2  C   UNK d   0     -24.426 -15.197  24.796  0.00  0.00     0.139 C 
ENDROOT
BRANCH   2   3
ATOM      3  O   UNK d   0     -23.595 -14.199  24.347  0.00  0.00    -0.776 OA
ATOM      4  H   UNK d   0     -23.784 -13.218  24.563  0.00  0.00     0.167 HD
ENDBRANCH   2   3
BRANCH   2   5
ATOM      5  C   UNK d   0     -24.640 -16.427  23.982  0.00  0.00     0.115 C 
BRANCH   5   6
ATOM      6  C   UNK d   0     -23.483 -16.635  23.044  0.00  0.00     0.052 C 
BRANCH   6   7
ATOM      7  C   UNK d   0     -22.595 -17.783  23.461  0.00  0.00    -0.020 A 
ATOM      8  C   UNK d   0     -21.558 -17.741  24.258  0.00  0.00    -0.011 A 
ATOM      9  C   UNK d   0     -21.017 -19.086  24.356  0.00  0.00     0.067 A 
ATOM     10  C   UNK d   0     -19.960 -19.706  25.041  0.00  0.00     0.062 C 
ATOM     11  N   UNK d   0     -21.784 -19.883  23.582  0.00  0.00    -0.248 NA
ATOM     12  C   UNK d   0     -19.761 -21.077  25.230  0.00  0.00     0.041 A 
ATOM     13  N   UNK d   0     -19.896 -22.117  24.385  0.00  0.00    -0.355 N 
ATOM     14  C   UNK d   0     -19.409 -21.544  26.509  0.00  0.00    -0.022 A 
ATOM     15  C   UNK d   0     -19.647 -23.232  25.098  0.00  0.00     0.042 A 
ATOM     16  H   UNK d   0     -20.144 -22.063  23.302  0.00  0.00     0.166 HD
ATOM     17  C   UNK d   0     -19.649 -24.586  24.706  0.00  0.00     0.062 C 
ATOM     18  C   UNK d   0     -19.338 -22.913  26.434  0.00  0.00    -0.013 A 
ATOM     19  C   UNK d   0     -20.562 -25.260  23.937  0.00  0.00     0.067 A 
ATOM     20  N   UNK d   0     -21.476 -24.524  23.299  0.00  0.00    -0.248 NA
ATOM     21  C   UNK d   0     -20.834 -26.652  23.617  0.00  0.00    -0.011 A 
ATOM     22  C   UNK d   0     -22.326 -25.333  22.586  0.00  0.00     0.066 A 
ATOM     23  C   UNK d   0     -23.306 -24.694  21.842  0.00  0.00     0.062 C 
ATOM     24  C   UNK d   0     -21.870 -26.688  22.830  0.00  0.00    -0.020 A 
ATOM     25  C   UNK d   0     -23.481 -23.314  21.655  0.00  0.00     0.041 A 
ATOM     26  N   UNK d   0     -23.362 -22.281  22.498  0.00  0.00    -0.355 N 
ATOM     27  C   UNK d   0     -23.830 -22.846  20.369  0.00  0.00    -0.022 A 
ATOM     28  C   UNK d   0     -23.618 -21.169  21.792  0.00  0.00     0.042 A 
ATOM     29  H   UNK d   0     -23.123 -22.338  23.588  0.00  0.00     0.166 HD
ATOM     30  C   UNK d   0     -23.629 -19.817  22.170  0.00  0.00     0.062 C 
ATOM     31  C   UNK d   0     -23.918 -21.490  20.446  0.00  0.00    -0.013 A 
ATOM     32  C   UNK d   0     -22.751 -19.160  23.017  0.00  0.00     0.066 A 
BRANCH   8  33
ATOM     33  C   UNK d   0     -21.013 -16.552  24.940  0.00  0.00     0.151 C 
BRANCH  33  34
ATOM     34  C   UNK d   0     -21.095 -16.649  26.408  0.00  0.00     0.143 C 
ATOM     35  O   UNK d   0     -22.151 -16.395  27.005  0.00  0.00    -0.650 OA
BRANCH  34  36
ATOM     36  O   UNK d   0     -19.982 -17.026  27.124  0.00  0.00    -0.776 OA
ATOM     37  H   UNK d   0     -19.538 -17.942  26.977  0.00  0.00     0.167 HD
ENDBRANCH  34  36
ENDBRANCH  33  34
ENDBRANCH   8  33
BRANCH  31  38
ATOM     38  C   UNK d   0     -24.254 -20.552  19.310  0.00  0.00     0.151 C 
BRANCH  38  39
ATOM     39  C   UNK d   0     -25.677 -20.338  19.160  0.00  0.00     0.143 C 
ATOM     40  O   UNK d   0     -26.350 -20.920  18.291  0.00  0.00    -0.650 OA
BRANCH  39  41
ATOM     41  O   UNK d   0     -26.332 -19.451  20.015  0.00  0.00    -0.776 OA
ATOM     42  H   UNK d   0     -25.907 -19.298  20.935  0.00  0.00     0.167 HD
ENDBRANCH  39  41
ENDBRANCH  38  39
ENDBRANCH  31  38
BRANCH  27  43
ATOM     43  C   UNK d   0     -24.078 -23.624  19.101  0.00  0.00     0.052 C 
BRANCH  43  44
ATOM     44  C   UNK d   0     -22.848 -24.272  18.554  0.00  0.00     0.115 C 
BRANCH  44  45
ATOM     45  C   UNK d   0     -22.164 -23.249  17.720  0.00  0.00     0.139 C 
ATOM     46  O   UNK d   0     -22.752 -22.836  16.690  0.00  0.00    -0.650 OA
BRANCH  45  47
ATOM     47  O   UNK d   0     -20.924 -22.737  18.034  0.00  0.00    -0.776 OA
ATOM     48  H   UNK d   0     -20.111 -22.812  17.401  0.00  0.00     0.167 HD
ENDBRANCH  45  47
ENDBRANCH  44  45
ENDBRANCH  43  44
ENDBRANCH  27  43
BRANCH  24  49
ATOM     49  C   UNK d   0     -22.465 -27.896  22.232  0.00  0.00     0.052 C 
BRANCH  49  50
ATOM     50  C   UNK d   0     -23.741 -28.261  22.946  0.00  0.00     0.115 C 
BRANCH  50  51
ATOM     51  C   UNK d   0     -23.614 -28.894  24.252  0.00  0.00     0.139 C 
ATOM     52  O   UNK d   0     -22.670 -29.666  24.540  0.00  0.00    -0.650 OA
BRANCH  51  53
ATOM     53  O   UNK d   0     -24.567 -28.647  25.229  0.00  0.00    -0.776 OA
ATOM     54  H   UNK d   0     -24.380 -28.964  26.165  0.00  0.00     0.167 HD
ENDBRANCH  51  53
ENDBRANCH  50  51
ENDBRANCH  49  50
ENDBRANCH  24  49
BRANCH  21  55
ATOM     55  C   UNK d   0     -20.028 -27.799  24.128  0.00  0.00     0.151 C 
BRANCH  55  56
ATOM     56  C   UNK d   0     -18.870 -28.086  23.268  0.00  0.00     0.143 C 
ATOM     57  O   UNK d   0     -18.935 -28.843  22.279  0.00  0.00    -0.650 OA
BRANCH  56  58
ATOM     58  O   UNK d   0     -17.657 -27.477  23.587  0.00  0.00    -0.776 OA
ATOM     59  H   UNK d   0     -17.657 -26.945  24.475  0.00  0.00     0.167 HD
ENDBRANCH  56  58
ENDBRANCH  55  56
ENDBRANCH  21  55
BRANCH  18  60
ATOM     60  C   UNK d   0     -18.997 -23.825  27.586  0.00  0.00     0.151 C 
BRANCH  60  61
ATOM     61  C   UNK d   0     -17.677 -24.394  27.274  0.00  0.00     0.143 C 
ATOM     62  O   UNK d   0     -16.680 -23.785  26.886  0.00  0.00    -0.650 OA
BRANCH  61  63
ATOM     63  O   UNK d   0     -17.568 -25.795  27.447  0.00  0.00    -0.776 OA
ATOM     64  H   UNK d   0     -18.238 -26.421  27.037  0.00  0.00     0.167 HD
ENDBRANCH  61  63
ENDBRANCH  60  61
ENDBRANCH  18  60
BRANCH  14  65
ATOM     65  C   UNK d   0     -19.043 -20.796  27.760  0.00  0.00     0.052 C 
BRANCH  65  66
ATOM     66  C   UNK d   0     -17.576 -20.601  27.912  0.00  0.00     0.115 C 
BRANCH  66  67
ATOM     67  C   UNK d   0     -17.070 -19.838  29.018  0.00  0.00     0.139 C 
ATOM     68  O   UNK d   0     -16.865 -20.440  30.136  0.00  0.00    -0.650 OA
BRANCH  67  69
ATOM     69  O   UNK d   0     -16.760 -18.479  29.047  0.00  0.00    -0.776 OA
ATOM     70  H   UNK d   0     -16.529 -18.053  28.138  0.00  0.00     0.167 HD
ENDBRANCH  67  69
ENDBRANCH  66  67
ENDBRANCH  65  66
ENDBRANCH  14  65
ENDBRANCH   6   7
ENDBRANCH   5   6
ENDBRANCH   2   5
TORSDOF 28
ENDMDL
MODEL 3
REMARK VINA RESULT:      -9.0      1.576      9.700
REMARK  28 active torsions:
REMARK  status: ('A' for Active; 'I' for Inactive)
REMARK    1  A    between atoms: C_2  and  O_3 
REMARK    2  A    between atoms: C_2  and  C_4 
REMARK    3  A    between atoms: C_4  and  C_5 
REMARK    4  A    between atoms: C_5  and  C_6 
REMARK    5  A    between atoms: C_7  and  C_8 
REMARK    6  A    between atoms: C_8  and  C_9 
REMARK    7  A    between atoms: C_9  and  O_11 
REMARK    8  A    between atoms: C_28  and  C_29 
REMARK    9  A    between atoms: C_29  and  C_30 
REMARK   10  A    between atoms: C_30  and  O_32 
REMARK   11  A    between atoms: C_33  and  C_34 
REMARK   12  A    between atoms: C_34  and  C_35 
REMARK   13  A    between atoms: C_35  and  C_36 
REMARK   14  A    between atoms: C_36  and  O_38 
REMARK   15  A    between atoms: C_39  and  C_40 
REMARK   16  A    between atoms: C_40  and  C_41 
REMARK   17  A    between atoms: C_41  and  C_42 
REMARK   18  A    between atoms: C_42  and  O_44 
REMARK   19  A    between atoms: C_45  and  C_46 
REMARK   20  A    between atoms: C_46  and  C_47 
REMARK   21  A    between atoms: C_47  and  O_49 
REMARK   22  A    between atoms: C_50  and  C_51 
REMARK   23  A    between atoms: C_51  and  C_52 
REMARK   24  A    between atoms: C_52  and  O_54 
REMARK   25  A    between atoms: C_55  and  C_56 
REMARK   26  A    between atoms: C_56  and  C_57 
REMARK   27  A    between atoms: C_57  and  C_58 
REMARK   28  A    between atoms: C_58  and  O_60 
ROOT
ATOM      1  O   UNK d   0     -24.558 -22.537  15.770  0.00  0.00    -0.650 OA
ATOM      2  C   UNK d   0     -23.745 -22.576  16.721  0.00  0.00     0.139 C 
ENDROOT
BRANCH   2   3
ATOM      3  O   UNK d   0     -22.549 -23.232  16.558  0.00  0.00    -0.776 OA
ATOM      4  H   UNK d   0     -22.115 -23.317  15.636  0.00  0.00     0.167 HD
ENDBRANCH   2   3
BRANCH   2   5
ATOM      5  C   UNK d   0     -24.077 -21.916  18.015  0.00  0.00     0.115 C 
BRANCH   5   6
ATOM      6  C   UNK d   0     -24.859 -22.857  18.891  0.00  0.00     0.052 C 
BRANCH   6   7
ATOM      7  C   UNK d   0     -24.057 -23.357  20.068  0.00  0.00    -0.020 A 
ATOM      8  C   UNK d   0     -23.828 -24.600  20.408  0.00  0.00    -0.011 A 
ATOM      9  C   UNK d   0     -23.017 -24.589  21.614  0.00  0.00     0.067 A 
ATOM     10  C   UNK d   0     -22.430 -25.554  22.448  0.00  0.00     0.062 C 
ATOM     11  N   UNK d   0     -22.803 -23.298  21.942  0.00  0.00    -0.248 NA
ATOM     12  C   UNK d   0     -21.442 -25.348  23.417  0.00  0.00     0.041 A 
ATOM     13  N   UNK d   0     -21.293 -24.379  24.340  0.00  0.00    -0.355 N 
ATOM     14  C   UNK d   0     -20.347 -26.230  23.470  0.00  0.00    -0.022 A 
ATOM     15  C   UNK d   0     -20.129 -24.619  24.972  0.00  0.00     0.042 A 
ATOM     16  H   UNK d   0     -22.007 -23.553  24.553  0.00  0.00     0.166 HD
ATOM     17  C   UNK d   0     -19.497 -23.919  26.019  0.00  0.00     0.062 C 
ATOM     18  C   UNK d   0     -19.507 -25.772  24.454  0.00  0.00    -0.013 A 
ATOM     19  C   UNK d   0     -19.320 -22.567  26.168  0.00  0.00     0.067 A 
ATOM     20  N   UNK d   0     -19.993 -21.773  25.331  0.00  0.00    -0.248 NA
ATOM     21  C   UNK d   0     -18.537 -21.706  27.039  0.00  0.00    -0.011 A 
ATOM     22  C   UNK d   0     -19.705 -20.455  25.590  0.00  0.00     0.066 A 
ATOM     23  C   UNK d   0     -20.368 -19.516  24.815  0.00  0.00     0.062 C 
ATOM     24  C   UNK d   0     -18.763 -20.472  26.692  0.00  0.00    -0.020 A 
ATOM     25  C   UNK d   0     -21.367 -19.743  23.855  0.00  0.00     0.041 A 
ATOM     26  N   UNK d   0     -21.507 -20.697  22.928  0.00  0.00    -0.355 N 
ATOM     27  C   UNK d   0     -22.468 -18.859  23.805  0.00  0.00    -0.022 A 
ATOM     28  C   UNK d   0     -22.663 -20.455  22.290  0.00  0.00     0.042 A 
ATOM     29  H   UNK d   0     -20.784 -21.520  22.707  0.00  0.00     0.166 HD
ATOM     30  C   UNK d   0     -23.299 -21.138  21.241  0.00  0.00     0.062 C 
ATOM     31  C   UNK d   0     -23.293 -19.303  22.818  0.00  0.00    -0.013 A 
ATOM     32  C   UNK d   0     -23.402 -22.506  21.051  0.00  0.00     0.066 A 
BRANCH   8  33
ATOM     33  C   UNK d   0     -24.304 -25.810  19.712  0.00  0.00     0.151 C 
BRANCH  33  34
ATOM     34  C   UNK d   0     -23.278 -26.404  18.836  0.00  0.00     0.143 C 
ATOM     35  O   UNK d   0     -22.714 -27.463  19.144  0.00  0.00    -0.650 OA
BRANCH  34  36
ATOM     36  O   UNK d   0     -22.943 -25.771  17.661  0.00  0.00    -0.776 OA
ATOM     37  H   UNK d   0     -23.663 -25.489  16.982  0.00  0.00     0.167 HD
ENDBRANCH  34  36
ENDBRANCH  33  34
ENDBRANCH   8  33
BRANCH  31  38
ATOM     38  C   UNK d   0     -24.607 -18.680  22.408  0.00  0.00     0.151 C 
BRANCH  38  39
ATOM     39  C   UNK d   0     -25.754 -19.419  22.892  0.00  0.00     0.143 C 
ATOM     40  O   UNK d   0     -26.853 -19.396  22.311  0.00  0.00    -0.650 OA
BRANCH  39  41
ATOM     41  O   UNK d   0     -25.636 -20.189  24.049  0.00  0.00    -0.776 OA
ATOM     42  H   UNK d   0     -24.779 -20.742  24.150  0.00  0.00     0.167 HD
ENDBRANCH  39  41
ENDBRANCH  38  39
ENDBRANCH  31  38
BRANCH  27  43
ATOM     43  C   UNK d   0     -22.754 -17.637  24.641  0.00  0.00     0.052 C 
BRANCH  43  44
ATOM     44  C   UNK d   0     -22.353 -16.360  23.977  0.00  0.00     0.115 C 
BRANCH  44  45
ATOM     45  C   UNK d   0     -22.993 -15.262  24.747  0.00  0.00     0.139 C 
ATOM     46  O   UNK d   0     -23.475 -15.533  25.875  0.00  0.00    -0.650 OA
BRANCH  45  47
ATOM     47  O   UNK d   0     -23.072 -13.968  24.279  0.00  0.00    -0.776 OA
ATOM     48  H   UNK d   0     -23.544 -13.211  24.801  0.00  0.00     0.167 HD
ENDBRANCH  45  47
ENDBRANCH  44  45
ENDBRANCH  43  44
ENDBRANCH  27  43
BRANCH  24  49
ATOM     49  C   UNK d   0     -18.203 -19.272  27.338  0.00  0.00     0.052 C 
BRANCH  49  50
ATOM     50  C   UNK d   0     -18.898 -18.033  26.834  0.00  0.00     0.115 C 
BRANCH  50  51
ATOM     51  C   UNK d   0     -18.295 -16.750  27.171  0.00  0.00     0.139 C 
ATOM     52  O   UNK d   0     -17.830 -15.973  26.303  0.00  0.00    -0.650 OA
BRANCH  51  53
ATOM     53  O   UNK d   0     -18.222 -16.353  28.497  0.00  0.00    -0.776 OA
ATOM     54  H   UNK d   0     -19.036 -15.938  28.915  0.00  0.00     0.167 HD
ENDBRANCH  51  53
ENDBRANCH  50  51
ENDBRANCH  49  50
ENDBRANCH  24  49
BRANCH  21  55
ATOM     55  C   UNK d   0     -17.648 -22.206  28.128  0.00  0.00     0.151 C 
BRANCH  55  56
ATOM     56  C   UNK d   0     -16.779 -23.302  27.671  0.00  0.00     0.143 C 
ATOM     57  O   UNK d   0     -16.928 -24.482  28.044  0.00  0.00    -0.650 OA
BRANCH  56  58
ATOM     58  O   UNK d   0     -15.750 -22.988  26.784  0.00  0.00    -0.776 OA
ATOM     59  H   UNK d   0     -16.050 -22.485  25.930  0.00  0.00     0.167 HD
ENDBRANCH  56  58
ENDBRANCH  55  56
ENDBRANCH  21  55
BRANCH  18  60
ATOM     60  C   UNK d   0     -18.201 -26.417  24.845  0.00  0.00     0.151 C 
BRANCH  60  61
ATOM     61  C   UNK d   0     -17.144 -25.572  24.266  0.00  0.00     0.143 C 
ATOM     62  O   UNK d   0     -16.119 -25.180  24.824  0.00  0.00    -0.650 OA
BRANCH  61  63
ATOM     63  O   UNK d   0     -17.353 -25.184  22.921  0.00  0.00    -0.776 OA
ATOM     64  H   UNK d   0     -16.677 -24.624  22.432  0.00  0.00     0.167 HD
ENDBRANCH  61  63
ENDBRANCH  60  61
ENDBRANCH  18  60
BRANCH  14  65
ATOM     65  C   UNK d   0     -20.087 -27.516  22.737  0.00  0.00     0.052 C 
BRANCH  65  66
ATOM     66  C   UNK d   0     -20.852 -28.666  23.289  0.00  0.00     0.115 C 
BRANCH  66  67
ATOM     67  C   UNK d   0     -20.149 -29.792  23.835  0.00  0.00     0.139 C 
ATOM     68  O   UNK d   0     -20.771 -30.567  24.650  0.00  0.00    -0.650 OA
BRANCH  67  69
ATOM     69  O   UNK d   0     -18.830 -30.174  23.592  0.00  0.00    -0.776 OA
ATOM     70  H   UNK d   0     -18.527 -30.139  22.608  0.00  0.00     0.167 HD
ENDBRANCH  67  69
ENDBRANCH  66  67
ENDBRANCH  65  66
ENDBRANCH  14  65
ENDBRANCH   6   7
ENDBRANCH   5   6
ENDBRANCH   2   5
TORSDOF 28
ENDMDL
MODEL 4
REMARK VINA RESULT:      -8.9      1.688      7.323
REMARK  28 active torsions:
REMARK  status: ('A' for Active; 'I' for Inactive)
REMARK    1  A    between atoms: C_2  and  O_3 
REMARK    2  A    between atoms: C_2  and  C_4 
REMARK    3  A    between atoms: C_4  and  C_5 
REMARK    4  A    between atoms: C_5  and  C_6 
REMARK    5  A    between atoms: C_7  and  C_8 
REMARK    6  A    between atoms: C_8  and  C_9 
REMARK    7  A    between atoms: C_9  and  O_11 
REMARK    8  A    between atoms: C_28  and  C_29 
REMARK    9  A    between atoms: C_29  and  C_30 
REMARK   10  A    between atoms: C_30  and  O_32 
REMARK   11  A    between atoms: C_33  and  C_34 
REMARK   12  A    between atoms: C_34  and  C_35 
REMARK   13  A    between atoms: C_35  and  C_36 
REMARK   14  A    between atoms: C_36  and  O_38 
REMARK   15  A    between atoms: C_39  and  C_40 
REMARK   16  A    between atoms: C_40  and  C_41 
REMARK   17  A    between atoms: C_41  and  C_42 
REMARK   18  A    between atoms: C_42  and  O_44 
REMARK   19  A    between atoms: C_45  and  C_46 
REMARK   20  A    between atoms: C_46  and  C_47 
REMARK   21  A    between atoms: C_47  and  O_49 
REMARK   22  A    between atoms: C_50  and  C_51 
REMARK   23  A    between atoms: C_51  and  C_52 
REMARK   24  A    between atoms: C_52  and  O_54 
REMARK   25  A    between atoms: C_55  and  C_56 
REMARK   26  A    between atoms: C_56  and  C_57 
REMARK   27  A    between atoms: C_57  and  C_58 
REMARK   28  A    between atoms: C_58  and  O_60 
ROOT
ATOM      1  O   UNK d   0     -27.208 -16.967  19.581  0.00  0.00    -0.650 OA
ATOM      2  C   UNK d   0     -26.262 -17.762  19.770  0.00  0.00     0.139 C 
ENDROOT
BRANCH   2   3
ATOM      3  O   UNK d   0     -26.368 -19.056  19.318  0.00  0.00    -0.776 OA
ATOM      4  H   UNK d   0     -25.556 -19.677  19.303  0.00  0.00     0.167 HD
ENDBRANCH   2   3
BRANCH   2   5
ATOM      5  C   UNK d   0     -25.033 -17.308  20.481  0.00  0.00     0.115 C 
BRANCH   5   6
ATOM      6  C   UNK d   0     -25.163 -17.566  21.957  0.00  0.00     0.052 C 
BRANCH   6   7
ATOM      7  C   UNK d   0     -23.989 -18.330  22.520  0.00  0.00    -0.020 A 
ATOM      8  C   UNK d   0     -23.005 -17.862  23.245  0.00  0.00    -0.011 A 
ATOM      9  C   UNK d   0     -22.109 -18.966  23.544  0.00  0.00     0.067 A 
ATOM     10  C   UNK d   0     -20.920 -19.136  24.271  0.00  0.00     0.062 C 
ATOM     11  N   UNK d   0     -22.620 -20.068  22.957  0.00  0.00    -0.248 NA
ATOM     12  C   UNK d   0     -20.344 -20.343  24.681  0.00  0.00     0.041 A 
ATOM     13  N   UNK d   0     -20.181 -21.513  24.034  0.00  0.00    -0.355 N 
ATOM     14  C   UNK d   0     -19.875 -20.459  26.003  0.00  0.00    -0.022 A 
ATOM     15  C   UNK d   0     -19.628 -22.370  24.913  0.00  0.00     0.042 A 
ATOM     16  H   UNK d   0     -20.433 -21.723  22.971  0.00  0.00     0.166 HD
ATOM     17  C   UNK d   0     -19.249 -23.719  24.759  0.00  0.00     0.062 C 
ATOM     18  C   UNK d   0     -19.422 -21.746  26.159  0.00  0.00    -0.013 A 
ATOM     19  C   UNK d   0     -19.937 -24.745  24.163  0.00  0.00     0.067 A 
ATOM     20  N   UNK d   0     -21.020 -24.416  23.455  0.00  0.00    -0.248 NA
ATOM     21  C   UNK d   0     -19.806 -26.191  24.098  0.00  0.00    -0.011 A 
ATOM     22  C   UNK d   0     -21.609 -25.542  22.933  0.00  0.00     0.066 A 
ATOM     23  C   UNK d   0     -22.729 -25.341  22.140  0.00  0.00     0.062 C 
ATOM     24  C   UNK d   0     -20.790 -26.652  23.381  0.00  0.00    -0.020 A 
ATOM     25  C   UNK d   0     -23.284 -24.120  21.729  0.00  0.00     0.041 A 
ATOM     26  N   UNK d   0     -23.460 -22.962  22.377  0.00  0.00    -0.355 N 
ATOM     27  C   UNK d   0     -23.750 -24.003  20.402  0.00  0.00    -0.022 A 
ATOM     28  C   UNK d   0     -24.019 -22.108  21.505  0.00  0.00     0.042 A 
ATOM     29  H   UNK d   0     -23.215 -22.756  23.448  0.00  0.00     0.166 HD
ATOM     30  C   UNK d   0     -24.409 -20.767  21.648  0.00  0.00     0.062 C 
ATOM     31  C   UNK d   0     -24.216 -22.733  20.251  0.00  0.00    -0.013 A 
ATOM     32  C   UNK d   0     -23.752 -19.752  22.325  0.00  0.00     0.066 A 
BRANCH   8  33
ATOM     33  C   UNK d   0     -22.817 -16.468  23.686  0.00  0.00     0.151 C 
BRANCH  33  34
ATOM     34  C   UNK d   0     -23.447 -16.192  24.990  0.00  0.00     0.143 C 
ATOM     35  O   UNK d   0     -24.661 -15.954  25.072  0.00  0.00    -0.650 OA
BRANCH  34  36
ATOM     36  O   UNK d   0     -22.675 -16.198  26.128  0.00  0.00    -0.776 OA
ATOM     37  H   UNK d   0     -22.164 -15.357  26.432  0.00  0.00     0.167 HD
ENDBRANCH  34  36
ENDBRANCH  33  34
ENDBRANCH   8  33
BRANCH  31  38
ATOM     38  C   UNK d   0     -24.801 -22.142  18.990  0.00  0.00     0.151 C 
BRANCH  38  39
ATOM     39  C   UNK d   0     -23.837 -21.379  18.227  0.00  0.00     0.143 C 
ATOM     40  O   UNK d   0     -23.879 -20.138  18.152  0.00  0.00    -0.650 OA
BRANCH  39  41
ATOM     41  O   UNK d   0     -22.817 -22.045  17.548  0.00  0.00    -0.776 OA
ATOM     42  H   UNK d   0     -22.591 -22.992  17.868  0.00  0.00     0.167 HD
ENDBRANCH  39  41
ENDBRANCH  38  39
ENDBRANCH  31  38
BRANCH  27  43
ATOM     43  C   UNK d   0     -23.770 -25.032  19.299  0.00  0.00     0.052 C 
BRANCH  43  44
ATOM     44  C   UNK d   0     -24.252 -26.372  19.750  0.00  0.00     0.115 C 
BRANCH  44  45
ATOM     45  C   UNK d   0     -23.324 -27.375  19.166  0.00  0.00     0.139 C 
ATOM     46  O   UNK d   0     -22.708 -28.139  19.950  0.00  0.00    -0.650 OA
BRANCH  45  47
ATOM     47  O   UNK d   0     -23.118 -27.503  17.809  0.00  0.00    -0.776 OA
ATOM     48  H   UNK d   0     -23.136 -28.414  17.323  0.00  0.00     0.167 HD
ENDBRANCH  45  47
ENDBRANCH  44  45
ENDBRANCH  43  44
ENDBRANCH  27  43
BRANCH  24  49
ATOM     49  C   UNK d   0     -21.021 -28.063  23.028  0.00  0.00     0.052 C 
BRANCH  49  50
ATOM     50  C   UNK d   0     -21.770 -28.764  24.133  0.00  0.00     0.115 C 
BRANCH  50  51
ATOM     51  C   UNK d   0     -23.224 -28.681  24.107  0.00  0.00     0.139 C 
ATOM     52  O   UNK d   0     -23.862 -28.290  23.100  0.00  0.00    -0.650 OA
BRANCH  51  53
ATOM     53  O   UNK d   0     -23.953 -29.043  25.230  0.00  0.00    -0.776 OA
ATOM     54  H   UNK d   0     -24.928 -29.254  25.116  0.00  0.00     0.167 HD
ENDBRANCH  51  53
ENDBRANCH  50  51
ENDBRANCH  49  50
ENDBRANCH  24  49
BRANCH  21  55
ATOM     55  C   UNK d   0     -18.710 -26.961  24.757  0.00  0.00     0.151 C 
BRANCH  55  56
ATOM     56  C   UNK d   0     -17.402 -26.695  24.139  0.00  0.00     0.143 C 
ATOM     57  O   UNK d   0     -17.198 -26.808  22.914  0.00  0.00    -0.650 OA
BRANCH  56  58
ATOM     58  O   UNK d   0     -16.357 -26.302  24.974  0.00  0.00    -0.776 OA
ATOM     59  H   UNK d   0     -16.291 -25.281  25.138  0.00  0.00     0.167 HD
ENDBRANCH  56  58
ENDBRANCH  55  56
ENDBRANCH  21  55
BRANCH  18  60
ATOM     60  C   UNK d   0     -18.839 -22.309  27.431  0.00  0.00     0.151 C 
BRANCH  60  61
ATOM     61  C   UNK d   0     -19.987 -22.666  28.278  0.00  0.00     0.143 C 
ATOM     62  O   UNK d   0     -20.877 -23.475  28.018  0.00  0.00    -0.650 OA
BRANCH  61  63
ATOM     63  O   UNK d   0     -20.051 -21.992  29.522  0.00  0.00    -0.776 OA
ATOM     64  H   UNK d   0     -19.692 -22.415  30.359  0.00  0.00     0.167 HD
ENDBRANCH  61  63
ENDBRANCH  60  61
ENDBRANCH  18  60
BRANCH  14  65
ATOM     65  C   UNK d   0     -19.734 -19.430  27.087  0.00  0.00     0.052 C 
BRANCH  65  66
ATOM     66  C   UNK d   0     -18.548 -18.551  26.904  0.00  0.00     0.115 C 
BRANCH  66  67
ATOM     67  C   UNK d   0     -18.731 -17.142  26.696  0.00  0.00     0.139 C 
ATOM     68  O   UNK d   0     -19.928 -16.671  26.707  0.00  0.00    -0.650 OA
BRANCH  67  69
ATOM     69  O   UNK d   0     -17.749 -16.177  26.475  0.00  0.00    -0.776 OA
ATOM     70  H   UNK d   0     -17.811 -15.672  25.579  0.00  0.00     0.167 HD
ENDBRANCH  67  69
ENDBRANCH  66  67
ENDBRANCH  65  66
ENDBRANCH  14  65
ENDBRANCH   6   7
ENDBRANCH   5   6
ENDBRANCH   2   5
TORSDOF 28
ENDMDL
MODEL 5
REMARK VINA RESULT:      -8.8      1.832      8.291
REMARK  28 active torsions:
REMARK  status: ('A' for Active; 'I' for Inactive)
REMARK    1  A    between atoms: C_2  and  O_3 
REMARK    2  A    between atoms: C_2  and  C_4 
REMARK    3  A    between atoms: C_4  and  C_5 
REMARK    4  A    between atoms: C_5  and  C_6 
REMARK    5  A    between atoms: C_7  and  C_8 
REMARK    6  A    between atoms: C_8  and  C_9 
REMARK    7  A    between atoms: C_9  and  O_11 
REMARK    8  A    between atoms: C_28  and  C_29 
REMARK    9  A    between atoms: C_29  and  C_30 
REMARK   10  A    between atoms: C_30  and  O_32 
REMARK   11  A    between atoms: C_33  and  C_34 
REMARK   12  A    between atoms: C_34  and  C_35 
REMARK   13  A    between atoms: C_35  and  C_36 
REMARK   14  A    between atoms: C_36  and  O_38 
REMARK   15  A    between atoms: C_39  and  C_40 
REMARK   16  A    between atoms: C_40  and  C_41 
REMARK   17  A    between atoms: C_41  and  C_42 
REMARK   18  A    between atoms: C_42  and  O_44 
REMARK   19  A    between atoms: C_45  and  C_46 
REMARK   20  A    between atoms: C_46  and  C_47 
REMARK   21  A    between atoms: C_47  and  O_49 
REMARK   22  A    between atoms: C_50  and  C_51 
REMARK   23  A    between atoms: C_51  and  C_52 
REMARK   24  A    between atoms: C_52  and  O_54 
REMARK   25  A    between atoms: C_55  and  C_56 
REMARK   26  A    between atoms: C_56  and  C_57 
REMARK   27  A    between atoms: C_57  and  C_58 
REMARK   28  A    between atoms: C_58  and  O_60 
ROOT
ATOM      1  O   UNK d   0     -18.595 -28.778  25.731  0.00  0.00    -0.650 OA
ATOM      2  C   UNK d   0     -17.504 -28.187  25.889  0.00  0.00     0.139 C 
ENDROOT
BRANCH   2   3
ATOM      3  O   UNK d   0     -16.466 -28.843  26.508  0.00  0.00    -0.776 OA
ATOM      4  H   UNK d   0     -15.602 -29.054  26.005  0.00  0.00     0.167 HD
ENDBRANCH   2   3
BRANCH   2   5
ATOM      5  C   UNK d   0     -17.335 -26.786  25.411  0.00  0.00     0.115 C 
BRANCH   5   6
ATOM      6  C   UNK d   0     -17.503 -25.824  26.556  0.00  0.00     0.052 C 
BRANCH   6   7
ATOM      7  C   UNK d   0     -18.318 -24.610  26.180  0.00  0.00    -0.020 A 
ATOM      8  C   UNK d   0     -18.261 -23.415  26.711  0.00  0.00    -0.011 A 
ATOM      9  C   UNK d   0     -19.236 -22.579  26.031  0.00  0.00     0.067 A 
ATOM     10  C   UNK d   0     -19.647 -21.239  26.104  0.00  0.00     0.062 C 
ATOM     11  N   UNK d   0     -19.846 -23.348  25.104  0.00  0.00    -0.248 NA
ATOM     12  C   UNK d   0     -20.415 -20.536  25.169  0.00  0.00     0.041 A 
ATOM     13  N   UNK d   0     -21.514 -20.893  24.476  0.00  0.00    -0.355 N 
ATOM     14  C   UNK d   0     -20.010 -19.244  24.788  0.00  0.00    -0.022 A 
ATOM     15  C   UNK d   0     -21.811 -19.864  23.660  0.00  0.00     0.042 A 
ATOM     16  H   UNK d   0     -22.079 -21.846  24.576  0.00  0.00     0.166 HD
ATOM     17  C   UNK d   0     -22.856 -19.710  22.728  0.00  0.00     0.062 C 
ATOM     18  C   UNK d   0     -20.890 -18.812  23.828  0.00  0.00    -0.013 A 
ATOM     19  C   UNK d   0     -23.321 -20.605  21.798  0.00  0.00     0.067 A 
ATOM     20  N   UNK d   0     -22.879 -21.861  21.894  0.00  0.00    -0.248 NA
ATOM     21  C   UNK d   0     -24.212 -20.551  20.651  0.00  0.00    -0.011 A 
ATOM     22  C   UNK d   0     -23.416 -22.633  20.893  0.00  0.00     0.066 A 
ATOM     23  C   UNK d   0     -23.069 -23.976  20.897  0.00  0.00     0.062 C 
ATOM     24  C   UNK d   0     -24.260 -21.740  20.124  0.00  0.00    -0.020 A 
ATOM     25  C   UNK d   0     -22.306 -24.665  21.852  0.00  0.00     0.041 A 
ATOM     26  N   UNK d   0     -21.206 -24.316  22.530  0.00  0.00    -0.355 N 
ATOM     27  C   UNK d   0     -22.717 -25.960  22.237  0.00  0.00    -0.022 A 
ATOM     28  C   UNK d   0     -20.903 -25.345  23.338  0.00  0.00     0.042 A 
ATOM     29  H   UNK d   0     -20.633 -23.363  22.421  0.00  0.00     0.166 HD
ATOM     30  C   UNK d   0     -19.862 -25.515  24.263  0.00  0.00     0.062 C 
ATOM     31  C   UNK d   0     -21.835 -26.397  23.177  0.00  0.00    -0.013 A 
ATOM     32  C   UNK d   0     -19.338 -24.580  25.143  0.00  0.00     0.066 A 
BRANCH   8  33
ATOM     33  C   UNK d   0     -17.379 -22.975  27.807  0.00  0.00     0.151 C 
BRANCH  33  34
ATOM     34  C   UNK d   0     -18.111 -22.300  28.894  0.00  0.00     0.143 C 
ATOM     35  O   UNK d   0     -17.655 -21.281  29.432  0.00  0.00    -0.650 OA
BRANCH  34  36
ATOM     36  O   UNK d   0     -19.317 -22.811  29.315  0.00  0.00    -0.776 OA
ATOM     37  H   UNK d   0     -19.837 -23.492  28.744  0.00  0.00     0.167 HD
ENDBRANCH  34  36
ENDBRANCH  33  34
ENDBRANCH   8  33
BRANCH  31  38
ATOM     38  C   UNK d   0     -21.879 -27.728  23.890  0.00  0.00     0.151 C 
BRANCH  38  39
ATOM     39  C   UNK d   0     -21.041 -28.729  23.265  0.00  0.00     0.143 C 
ATOM     40  O   UNK d   0     -20.591 -28.595  22.114  0.00  0.00    -0.650 OA
BRANCH  39  41
ATOM     41  O   UNK d   0     -20.717 -29.889  23.968  0.00  0.00    -0.776 OA
ATOM     42  H   UNK d   0     -20.985 -29.920  24.956  0.00  0.00     0.167 HD
ENDBRANCH  39  41
ENDBRANCH  38  39
ENDBRANCH  31  38
BRANCH  27  43
ATOM     43  C   UNK d   0     -23.888 -26.778  21.752  0.00  0.00     0.052 C 
BRANCH  43  44
ATOM     44  C   UNK d   0     -25.202 -26.089  21.927  0.00  0.00     0.115 C 
BRANCH  44  45
ATOM     45  C   UNK d   0     -25.559 -26.213  23.364  0.00  0.00     0.139 C 
ATOM     46  O   UNK d   0     -25.718 -25.159  24.027  0.00  0.00    -0.650 OA
BRANCH  45  47
ATOM     47  O   UNK d   0     -25.726 -27.429  23.990  0.00  0.00    -0.776 OA
ATOM     48  H   UNK d   0     -25.406 -27.611  24.955  0.00  0.00     0.167 HD
ENDBRANCH  45  47
ENDBRANCH  44  45
ENDBRANCH  43  44
ENDBRANCH  27  43
BRANCH  24  49
ATOM     49  C   UNK d   0     -25.075 -22.144  18.964  0.00  0.00     0.052 C 
BRANCH  49  50
ATOM     50  C   UNK d   0     -24.255 -22.082  17.701  0.00  0.00     0.115 C 
BRANCH  50  51
ATOM     51  C   UNK d   0     -24.587 -21.035  16.744  0.00  0.00     0.139 C 
ATOM     52  O   UNK d   0     -25.622 -21.068  16.037  0.00  0.00    -0.650 OA
BRANCH  51  53
ATOM     53  O   UNK d   0     -23.738 -19.950  16.591  0.00  0.00    -0.776 OA
ATOM     54  H   UNK d   0     -23.637 -19.550  15.675  0.00  0.00     0.167 HD
ENDBRANCH  51  53
ENDBRANCH  50  51
ENDBRANCH  49  50
ENDBRANCH  24  49
BRANCH  21  55
ATOM     55  C   UNK d   0     -24.926 -19.318  20.205  0.00  0.00     0.151 C 
BRANCH  55  56
ATOM     56  C   UNK d   0     -25.689 -18.697  21.299  0.00  0.00     0.143 C 
ATOM     57  O   UNK d   0     -25.380 -17.597  21.798  0.00  0.00    -0.650 OA
BRANCH  56  58
ATOM     58  O   UNK d   0     -26.802 -19.382  21.784  0.00  0.00    -0.776 OA
ATOM     59  H   UNK d   0     -27.714 -19.039  21.430  0.00  0.00     0.167 HD
ENDBRANCH  56  58
ENDBRANCH  55  56
ENDBRANCH  21  55
BRANCH  18  60
ATOM     60  C   UNK d   0     -20.823 -17.474  23.133  0.00  0.00     0.151 C 
BRANCH  60  61
ATOM     61  C   UNK d   0     -21.791 -16.610  23.826  0.00  0.00     0.143 C 
ATOM     62  O   UNK d   0     -21.626 -16.019  24.894  0.00  0.00    -0.650 OA
BRANCH  61  63
ATOM     63  O   UNK d   0     -23.038 -16.459  23.174  0.00  0.00    -0.776 OA
ATOM     64  H   UNK d   0     -23.467 -17.229  22.692  0.00  0.00     0.167 HD
ENDBRANCH  61  63
ENDBRANCH  60  61
ENDBRANCH  18  60
BRANCH  14  65
ATOM     65  C   UNK d   0     -18.924 -18.358  25.329  0.00  0.00     0.052 C 
BRANCH  65  66
ATOM     66  C   UNK d   0     -19.309 -17.671  26.591  0.00  0.00     0.115 C 
BRANCH  66  67
ATOM     67  C   UNK d   0     -18.424 -16.700  27.171  0.00  0.00     0.139 C 
ATOM     68  O   UNK d   0     -17.764 -15.925  26.386  0.00  0.00    -0.650 OA
BRANCH  67  69
ATOM     69  O   UNK d   0     -18.174 -16.474  28.524  0.00  0.00    -0.776 OA
ATOM     70  H   UNK d   0     -18.693 -15.694  28.952  0.00  0.00     0.167 HD
ENDBRANCH  67  69
ENDBRANCH  66  67
ENDBRANCH  65  66
ENDBRANCH  14  65
ENDBRANCH   6   7
ENDBRANCH   5   6
ENDBRANCH   2   5
TORSDOF 28
ENDMDL
MODEL 6
REMARK VINA RESULT:      -8.7      1.532      2.511
REMARK  28 active torsions:
REMARK  status: ('A' for Active; 'I' for Inactive)
REMARK    1  A    between atoms: C_2  and  O_3 
REMARK    2  A    between atoms: C_2  and  C_4 
REMARK    3  A    between atoms: C_4  and  C_5 
REMARK    4  A    between atoms: C_5  and  C_6 
REMARK    5  A    between atoms: C_7  and  C_8 
REMARK    6  A    between atoms: C_8  and  C_9 
REMARK    7  A    between atoms: C_9  and  O_11 
REMARK    8  A    between atoms: C_28  and  C_29 
REMARK    9  A    between atoms: C_29  and  C_30 
REMARK   10  A    between atoms: C_30  and  O_32 
REMARK   11  A    between atoms: C_33  and  C_34 
REMARK   12  A    between atoms: C_34  and  C_35 
REMARK   13  A    between atoms: C_35  and  C_36 
REMARK   14  A    between atoms: C_36  and  O_38 
REMARK   15  A    between atoms: C_39  and  C_40 
REMARK   16  A    between atoms: C_40  and  C_41 
REMARK   17  A    between atoms: C_41  and  C_42 
REMARK   18  A    between atoms: C_42  and  O_44 
REMARK   19  A    between atoms: C_45  and  C_46 
REMARK   20  A    between atoms: C_46  and  C_47 
REMARK   21  A    between atoms: C_47  and  O_49 
REMARK   22  A    between atoms: C_50  and  C_51 
REMARK   23  A    between atoms: C_51  and  C_52 
REMARK   24  A    between atoms: C_52  and  O_54 
REMARK   25  A    between atoms: C_55  and  C_56 
REMARK   26  A    between atoms: C_56  and  C_57 
REMARK   27  A    between atoms: C_57  and  C_58 
REMARK   28  A    between atoms: C_58  and  O_60 
ROOT
ATOM      1  O   UNK d   0     -23.690 -14.938  26.549  0.00  0.00    -0.650 OA
ATOM      2  C   UNK d   0     -22.859 -15.029  25.618  0.00  0.00     0.139 C 
ENDROOT
BRANCH   2   3
ATOM      3  O   UNK d   0     -22.902 -14.124  24.586  0.00  0.00    -0.776 OA
ATOM      4  H   UNK d   0     -23.035 -14.431  23.620  0.00  0.00     0.167 HD
ENDBRANCH   2   3
BRANCH   2   5
ATOM      5  C   UNK d   0     -21.834 -16.111  25.634  0.00  0.00     0.115 C 
BRANCH   5   6
ATOM      6  C   UNK d   0     -21.428 -16.459  24.227  0.00  0.00     0.052 C 
BRANCH   6   7
ATOM      7  C   UNK d   0     -22.067 -17.737  23.738  0.00  0.00    -0.020 A 
ATOM      8  C   UNK d   0     -23.131 -17.859  22.985  0.00  0.00    -0.011 A 
ATOM      9  C   UNK d   0     -23.371 -19.278  22.783  0.00  0.00     0.067 A 
ATOM     10  C   UNK d   0     -24.305 -20.057  22.082  0.00  0.00     0.062 C 
ATOM     11  N   UNK d   0     -22.409 -19.947  23.453  0.00  0.00    -0.248 NA
ATOM     12  C   UNK d   0     -24.212 -21.419  21.774  0.00  0.00     0.041 A 
ATOM     13  N   UNK d   0     -23.809 -22.469  22.515  0.00  0.00    -0.355 N 
ATOM     14  C   UNK d   0     -24.523 -21.845  20.471  0.00  0.00    -0.022 A 
ATOM     15  C   UNK d   0     -23.849 -23.550  21.712  0.00  0.00     0.042 A 
ATOM     16  H   UNK d   0     -23.520 -22.451  23.589  0.00  0.00     0.166 HD
ATOM     17  C   UNK d   0     -23.533 -24.897  21.977  0.00  0.00     0.062 C 
ATOM     18  C   UNK d   0     -24.292 -23.198  20.422  0.00  0.00    -0.013 A 
ATOM     19  C   UNK d   0     -22.454 -25.414  22.648  0.00  0.00     0.067 A 
ATOM     20  N   UNK d   0     -21.688 -24.549  23.319  0.00  0.00    -0.248 NA
ATOM     21  C   UNK d   0     -21.870 -26.732  22.829  0.00  0.00    -0.011 A 
ATOM     22  C   UNK d   0     -20.645 -25.206  23.924  0.00  0.00     0.066 A 
ATOM     23  C   UNK d   0     -19.788 -24.429  24.689  0.00  0.00     0.062 C 
ATOM     24  C   UNK d   0     -20.809 -26.603  23.573  0.00  0.00    -0.020 A 
ATOM     25  C   UNK d   0     -19.906 -23.065  24.996  0.00  0.00     0.041 A 
ATOM     26  N   UNK d   0     -20.293 -22.019  24.256  0.00  0.00    -0.355 N 
ATOM     27  C   UNK d   0     -19.598 -22.639  26.306  0.00  0.00    -0.022 A 
ATOM     28  C   UNK d   0     -20.245 -20.939  25.052  0.00  0.00     0.042 A 
ATOM     29  H   UNK d   0     -20.572 -22.037  23.174  0.00  0.00     0.166 HD
ATOM     30  C   UNK d   0     -20.548 -19.592  24.799  0.00  0.00     0.062 C 
ATOM     31  C   UNK d   0     -19.810 -21.295  26.351  0.00  0.00    -0.013 A 
ATOM     32  C   UNK d   0     -21.592 -19.077  24.048  0.00  0.00     0.066 A 
BRANCH   8  33
ATOM     33  C   UNK d   0     -23.956 -16.768  22.435  0.00  0.00     0.151 C 
BRANCH  33  34
ATOM     34  C   UNK d   0     -24.974 -16.288  23.386  0.00  0.00     0.143 C 
ATOM     35  O   UNK d   0     -25.414 -17.029  24.277  0.00  0.00    -0.650 OA
BRANCH  34  36
ATOM     36  O   UNK d   0     -25.442 -14.998  23.281  0.00  0.00    -0.776 OA
ATOM     37  H   UNK d   0     -24.839 -14.238  22.939  0.00  0.00     0.167 HD
ENDBRANCH  34  36
ENDBRANCH  33  34
ENDBRANCH   8  33
BRANCH  31  38
ATOM     38  C   UNK d   0     -19.624 -20.403  27.556  0.00  0.00     0.151 C 
BRANCH  38  39
ATOM     39  C   UNK d   0     -18.457 -19.553  27.451  0.00  0.00     0.143 C 
ATOM     40  O   UNK d   0     -18.534 -18.351  27.141  0.00  0.00    -0.650 OA
BRANCH  39  41
ATOM     41  O   UNK d   0     -17.194 -20.088  27.705  0.00  0.00    -0.776 OA
ATOM     42  H   UNK d   0     -16.578 -19.545  28.317  0.00  0.00     0.167 HD
ENDBRANCH  39  41
ENDBRANCH  38  39
ENDBRANCH  31  38
BRANCH  27  43
ATOM     43  C   UNK d   0     -19.118 -23.444  27.488  0.00  0.00     0.052 C 
BRANCH  43  44
ATOM     44  C   UNK d   0     -17.972 -24.346  27.162  0.00  0.00     0.115 C 
BRANCH  44  45
ATOM     45  C   UNK d   0     -16.734 -23.551  27.367  0.00  0.00     0.139 C 
ATOM     46  O   UNK d   0     -15.776 -23.733  26.575  0.00  0.00    -0.650 OA
BRANCH  45  47
ATOM     47  O   UNK d   0     -16.598 -22.627  28.380  0.00  0.00    -0.776 OA
ATOM     48  H   UNK d   0     -17.132 -22.681  29.263  0.00  0.00     0.167 HD
ENDBRANCH  45  47
ENDBRANCH  44  45
ENDBRANCH  43  44
ENDBRANCH  27  43
BRANCH  24  49
ATOM     49  C   UNK d   0     -19.935 -27.695  24.036  0.00  0.00     0.052 C 
BRANCH  49  50
ATOM     50  C   UNK d   0     -18.548 -27.532  23.469  0.00  0.00     0.115 C 
BRANCH  50  51
ATOM     51  C   UNK d   0     -17.477 -27.235  24.410  0.00  0.00     0.139 C 
ATOM     52  O   UNK d   0     -16.677 -26.283  24.246  0.00  0.00    -0.650 OA
BRANCH  51  53
ATOM     53  O   UNK d   0     -17.314 -28.025  25.538  0.00  0.00    -0.776 OA
ATOM     54  H   UNK d   0     -17.651 -28.971  25.508  0.00  0.00     0.167 HD
ENDBRANCH  51  53
ENDBRANCH  50  51
ENDBRANCH  49  50
ENDBRANCH  24  49
BRANCH  21  55
ATOM     55  C   UNK d   0     -22.435 -27.983  22.243  0.00  0.00     0.151 C 
BRANCH  55  56
ATOM     56  C   UNK d   0     -22.023 -28.173  20.844  0.00  0.00     0.143 C 
ATOM     57  O   UNK d   0     -21.027 -28.850  20.520  0.00  0.00    -0.650 OA
BRANCH  56  58
ATOM     58  O   UNK d   0     -22.789 -27.562  19.853  0.00  0.00    -0.776 OA
ATOM     59  H   UNK d   0     -23.102 -28.193  19.093  0.00  0.00     0.167 HD
ENDBRANCH  56  58
ENDBRANCH  55  56
ENDBRANCH  21  55
BRANCH  18  60
ATOM     60  C   UNK d   0     -24.489 -24.065  19.204  0.00  0.00     0.151 C 
BRANCH  60  61
ATOM     61  C   UNK d   0     -23.166 -24.180  18.571  0.00  0.00     0.143 C 
ATOM     62  O   UNK d   0     -22.227 -23.389  18.666  0.00  0.00    -0.650 OA
BRANCH  61  63
ATOM     63  O   UNK d   0     -22.978 -25.335  17.774  0.00  0.00    -0.776 OA
ATOM     64  H   UNK d   0     -22.490 -26.137  18.130  0.00  0.00     0.167 HD
ENDBRANCH  61  63
ENDBRANCH  60  61
ENDBRANCH  18  60
BRANCH  14  65
ATOM     65  C   UNK d   0     -25.111 -21.097  19.308  0.00  0.00     0.052 C 
BRANCH  65  66
ATOM     66  C   UNK d   0     -24.089 -20.367  18.510  0.00  0.00     0.115 C 
BRANCH  66  67
ATOM     67  C   UNK d   0     -23.931 -20.665  17.114  0.00  0.00     0.139 C 
ATOM     68  O   UNK d   0     -23.110 -19.954  16.424  0.00  0.00    -0.650 OA
BRANCH  67  69
ATOM     69  O   UNK d   0     -24.572 -21.659  16.375  0.00  0.00    -0.776 OA
ATOM     70  H   UNK d   0     -24.252 -21.771  15.403  0.00  0.00     0.167 HD
ENDBRANCH  67  69
ENDBRANCH  66  67
ENDBRANCH  65  66
ENDBRANCH  14  65
ENDBRANCH   6   7
ENDBRANCH   5   6
ENDBRANCH   2   5
TORSDOF 28
ENDMDL
MODEL 7
REMARK VINA RESULT:      -8.6      1.418      7.523
REMARK  28 active torsions:
REMARK  status: ('A' for Active; 'I' for Inactive)
REMARK    1  A    between atoms: C_2  and  O_3 
REMARK    2  A    between atoms: C_2  and  C_4 
REMARK    3  A    between atoms: C_4  and  C_5 
REMARK    4  A    between atoms: C_5  and  C_6 
REMARK    5  A    between atoms: C_7  and  C_8 
REMARK    6  A    between atoms: C_8  and  C_9 
REMARK    7  A    between atoms: C_9  and  O_11 
REMARK    8  A    between atoms: C_28  and  C_29 
REMARK    9  A    between atoms: C_29  and  C_30 
REMARK   10  A    between atoms: C_30  and  O_32 
REMARK   11  A    between atoms: C_33  and  C_34 
REMARK   12  A    between atoms: C_34  and  C_35 
REMARK   13  A    between atoms: C_35  and  C_36 
REMARK   14  A    between atoms: C_36  and  O_38 
REMARK   15  A    between atoms: C_39  and  C_40 
REMARK   16  A    between atoms: C_40  and  C_41 
REMARK   17  A    between atoms: C_41  and  C_42 
REMARK   18  A    between atoms: C_42  and  O_44 
REMARK   19  A    between atoms: C_45  and  C_46 
REMARK   20  A    between atoms: C_46  and  C_47 
REMARK   21  A    between atoms: C_47  and  O_49 
REMARK   22  A    between atoms: C_50  and  C_51 
REMARK   23  A    between atoms: C_51  and  C_52 
REMARK   24  A    between atoms: C_52  and  O_54 
REMARK   25  A    between atoms: C_55  and  C_56 
REMARK   26  A    between atoms: C_56  and  C_57 
REMARK   27  A    between atoms: C_57  and  C_58 
REMARK   28  A    between atoms: C_58  and  O_60 
ROOT
ATOM      1  O   UNK d   0     -24.314 -14.055  25.514  0.00  0.00    -0.650 OA
ATOM      2  C   UNK d   0     -25.267 -14.840  25.311  0.00  0.00     0.139 C 
ENDROOT
BRANCH   2   3
ATOM      3  O   UNK d   0     -26.539 -14.459  25.663  0.00  0.00    -0.776 OA
ATOM      4  H   UNK d   0     -27.352 -15.011  25.381  0.00  0.00     0.167 HD
ENDBRANCH   2   3
BRANCH   2   5
ATOM      5  C   UNK d   0     -25.020 -16.174  24.694  0.00  0.00     0.115 C 
BRANCH   5   6
ATOM      6  C   UNK d   0     -23.788 -16.125  23.832  0.00  0.00     0.052 C 
BRANCH   6   7
ATOM      7  C   UNK d   0     -22.953 -17.379  23.939  0.00  0.00    -0.020 A 
ATOM      8  C   UNK d   0     -21.868 -17.558  24.648  0.00  0.00    -0.011 A 
ATOM      9  C   UNK d   0     -21.413 -18.920  24.429  0.00  0.00     0.067 A 
ATOM     10  C   UNK d   0     -20.358 -19.723  24.892  0.00  0.00     0.062 C 
ATOM     11  N   UNK d   0     -22.276 -19.497  23.567  0.00  0.00    -0.248 NA
ATOM     12  C   UNK d   0     -20.239 -21.112  24.781  0.00  0.00     0.041 A 
ATOM     13  N   UNK d   0     -20.494 -21.944  23.754  0.00  0.00    -0.355 N 
ATOM     14  C   UNK d   0     -19.841 -21.853  25.909  0.00  0.00    -0.022 A 
ATOM     15  C   UNK d   0     -20.275 -23.195  24.203  0.00  0.00     0.042 A 
ATOM     16  H   UNK d   0     -20.803 -21.653  22.726  0.00  0.00     0.166 HD
ATOM     17  C   UNK d   0     -20.390 -24.435  23.543  0.00  0.00     0.062 C 
ATOM     18  C   UNK d   0     -19.865 -23.178  25.550  0.00  0.00    -0.013 A 
ATOM     19  C   UNK d   0     -21.391 -24.886  22.722  0.00  0.00     0.067 A 
ATOM     20  N   UNK d   0     -22.292 -23.987  22.317  0.00  0.00    -0.248 NA
ATOM     21  C   UNK d   0     -21.773 -26.164  22.145  0.00  0.00    -0.011 A 
ATOM     22  C   UNK d   0     -23.236 -24.584  21.518  0.00  0.00     0.066 A 
ATOM     23  C   UNK d   0     -24.216 -23.753  20.995  0.00  0.00     0.062 C 
ATOM     24  C   UNK d   0     -22.856 -25.981  21.445  0.00  0.00    -0.020 A 
ATOM     25  C   UNK d   0     -24.310 -22.357  21.108  0.00  0.00     0.041 A 
ATOM     26  N   UNK d   0     -24.072 -21.531  22.133  0.00  0.00    -0.355 N 
ATOM     27  C   UNK d   0     -24.706 -21.614  19.974  0.00  0.00    -0.022 A 
ATOM     28  C   UNK d   0     -24.298 -20.284  21.691  0.00  0.00     0.042 A 
ATOM     29  H   UNK d   0     -23.771 -21.827  23.169  0.00  0.00     0.166 HD
ATOM     30  C   UNK d   0     -24.196 -19.043  22.338  0.00  0.00     0.062 C 
ATOM     31  C   UNK d   0     -24.700 -20.302  20.334  0.00  0.00    -0.013 A 
ATOM     32  C   UNK d   0     -23.227 -18.623  23.234  0.00  0.00     0.066 A 
BRANCH   8  33
ATOM     33  C   UNK d   0     -21.206 -16.567  25.517  0.00  0.00     0.151 C 
BRANCH  33  34
ATOM     34  C   UNK d   0     -19.796 -16.900  25.789  0.00  0.00     0.143 C 
ATOM     35  O   UNK d   0     -18.924 -16.733  24.924  0.00  0.00    -0.650 OA
BRANCH  34  36
ATOM     36  O   UNK d   0     -19.446 -17.403  27.021  0.00  0.00    -0.776 OA
ATOM     37  H   UNK d   0     -18.475 -17.666  27.234  0.00  0.00     0.167 HD
ENDBRANCH  34  36
ENDBRANCH  33  34
ENDBRANCH   8  33
BRANCH  31  38
ATOM     38  C   UNK d   0     -25.042 -19.131  19.442  0.00  0.00     0.151 C 
BRANCH  38  39
ATOM     39  C   UNK d   0     -26.221 -18.415  19.882  0.00  0.00     0.143 C 
ATOM     40  O   UNK d   0     -27.246 -18.999  20.276  0.00  0.00    -0.650 OA
BRANCH  39  41
ATOM     41  O   UNK d   0     -26.221 -17.021  19.871  0.00  0.00    -0.776 OA
ATOM     42  H   UNK d   0     -27.135 -16.559  19.895  0.00  0.00     0.167 HD
ENDBRANCH  39  41
ENDBRANCH  38  39
ENDBRANCH  31  38
BRANCH  27  43
ATOM     43  C   UNK d   0     -25.082 -22.096  18.596  0.00  0.00     0.052 C 
BRANCH  43  44
ATOM     44  C   UNK d   0     -24.092 -21.713  17.545  0.00  0.00     0.115 C 
BRANCH  44  45
ATOM     45  C   UNK d   0     -23.111 -22.826  17.459  0.00  0.00     0.139 C 
ATOM     46  O   UNK d   0     -23.536 -23.966  17.148  0.00  0.00    -0.650 OA
BRANCH  45  47
ATOM     47  O   UNK d   0     -21.765 -22.656  17.701  0.00  0.00    -0.776 OA
ATOM     48  H   UNK d   0     -21.305 -21.731  17.683  0.00  0.00     0.167 HD
ENDBRANCH  45  47
ENDBRANCH  44  45
ENDBRANCH  43  44
ENDBRANCH  27  43
BRANCH  24  49
ATOM     49  C   UNK d   0     -23.564 -27.005  20.658  0.00  0.00     0.052 C 
BRANCH  49  50
ATOM     50  C   UNK d   0     -23.498 -26.676  19.189  0.00  0.00     0.115 C 
BRANCH  50  51
ATOM     51  C   UNK d   0     -23.325 -27.789  18.265  0.00  0.00     0.139 C 
ATOM     52  O   UNK d   0     -22.687 -27.685  17.191  0.00  0.00    -0.650 OA
BRANCH  51  53
ATOM     53  O   UNK d   0     -23.883 -29.023  18.565  0.00  0.00    -0.776 OA
ATOM     54  H   UNK d   0     -23.273 -29.819  18.623  0.00  0.00     0.167 HD
ENDBRANCH  51  53
ENDBRANCH  50  51
ENDBRANCH  49  50
ENDBRANCH  24  49
BRANCH  21  55
ATOM     55  C   UNK d   0     -21.014 -27.433  22.349  0.00  0.00     0.151 C 
BRANCH  55  56
ATOM     56  C   UNK d   0     -21.116 -27.919  23.733  0.00  0.00     0.143 C 
ATOM     57  O   UNK d   0     -20.131 -28.006  24.492  0.00  0.00    -0.650 OA
BRANCH  56  58
ATOM     58  O   UNK d   0     -22.375 -28.294  24.199  0.00  0.00    -0.776 OA
ATOM     59  H   UNK d   0     -22.663 -29.258  23.951  0.00  0.00     0.167 HD
ENDBRANCH  56  58
ENDBRANCH  55  56
ENDBRANCH  21  55
BRANCH  18  60
ATOM     60  C   UNK d   0     -19.514 -24.327  26.462  0.00  0.00     0.151 C 
BRANCH  60  61
ATOM     61  C   UNK d   0     -18.229 -24.851  25.976  0.00  0.00     0.143 C 
ATOM     62  O   UNK d   0     -17.198 -24.212  25.766  0.00  0.00    -0.650 OA
BRANCH  61  63
ATOM     63  O   UNK d   0     -18.201 -26.245  25.731  0.00  0.00    -0.776 OA
ATOM     64  H   UNK d   0     -17.367 -26.697  25.399  0.00  0.00     0.167 HD
ENDBRANCH  61  63
ENDBRANCH  60  61
ENDBRANCH  18  60
BRANCH  14  65
ATOM     65  C   UNK d   0     -19.350 -21.403  27.255  0.00  0.00     0.052 C 
BRANCH  65  66
ATOM     66  C   UNK d   0     -17.922 -20.987  27.244  0.00  0.00     0.115 C 
BRANCH  66  67
ATOM     67  C   UNK d   0     -16.998 -21.589  28.165  0.00  0.00     0.139 C 
ATOM     68  O   UNK d   0     -16.847 -21.050  29.323  0.00  0.00    -0.650 OA
BRANCH  67  69
ATOM     69  O   UNK d   0     -16.211 -22.723  27.965  0.00  0.00    -0.776 OA
ATOM     70  H   UNK d   0     -16.138 -23.051  26.991  0.00  0.00     0.167 HD
ENDBRANCH  67  69
ENDBRANCH  66  67
ENDBRANCH  65  66
ENDBRANCH  14  65
ENDBRANCH   6   7
ENDBRANCH   5   6
ENDBRANCH   2   5
TORSDOF 28
ENDMDL
MODEL 8
REMARK VINA RESULT:      -8.4      4.189     12.442
REMARK  28 active torsions:
REMARK  status: ('A' for Active; 'I' for Inactive)
REMARK    1  A    between atoms: C_2  and  O_3 
REMARK    2  A    between atoms: C_2  and  C_4 
REMARK    3  A    between atoms: C_4  and  C_5 
REMARK    4  A    between atoms: C_5  and  C_6 
REMARK    5  A    between atoms: C_7  and  C_8 
REMARK    6  A    between atoms: C_8  and  C_9 
REMARK    7  A    between atoms: C_9  and  O_11 
REMARK    8  A    between atoms: C_28  and  C_29 
REMARK    9  A    between atoms: C_29  and  C_30 
REMARK   10  A    between atoms: C_30  and  O_32 
REMARK   11  A    between atoms: C_33  and  C_34 
REMARK   12  A    between atoms: C_34  and  C_35 
REMARK   13  A    between atoms: C_35  and  C_36 
REMARK   14  A    between atoms: C_36  and  O_38 
REMARK   15  A    between atoms: C_39  and  C_40 
REMARK   16  A    between atoms: C_40  and  C_41 
REMARK   17  A    between atoms: C_41  and  C_42 
REMARK   18  A    between atoms: C_42  and  O_44 
REMARK   19  A    between atoms: C_45  and  C_46 
REMARK   20  A    between atoms: C_46  and  C_47 
REMARK   21  A    between atoms: C_47  and  O_49 
REMARK   22  A    between atoms: C_50  and  C_51 
REMARK   23  A    between atoms: C_51  and  C_52 
REMARK   24  A    between atoms: C_52  and  O_54 
REMARK   25  A    between atoms: C_55  and  C_56 
REMARK   26  A    between atoms: C_56  and  C_57 
REMARK   27  A    between atoms: C_57  and  C_58 
REMARK   28  A    between atoms: C_58  and  O_60 
ROOT
ATOM      1  O   UNK d   0     -22.105 -31.563  12.419  0.00  0.00    -0.650 OA
ATOM      2  C   UNK d   0     -21.700 -31.017  13.469  0.00  0.00     0.139 C 
ENDROOT
BRANCH   2   3
ATOM      3  O   UNK d   0     -20.773 -31.663  14.251  0.00  0.00    -0.776 OA
ATOM      4  H   UNK d   0     -20.520 -31.306  15.174  0.00  0.00     0.167 HD
ENDBRANCH   2   3
BRANCH   2   5
ATOM      5  C   UNK d   0     -22.221 -29.678  13.865  0.00  0.00     0.115 C 
BRANCH   5   6
ATOM      6  C   UNK d   0     -21.236 -28.984  14.765  0.00  0.00     0.052 C 
BRANCH   6   7
ATOM      7  C   UNK d   0     -21.883 -28.410  16.002  0.00  0.00    -0.020 A 
ATOM      8  C   UNK d   0     -22.191 -29.039  17.107  0.00  0.00    -0.011 A 
ATOM      9  C   UNK d   0     -22.802 -28.079  18.011  0.00  0.00     0.067 A 
ATOM     10  C   UNK d   0     -23.318 -28.103  19.316  0.00  0.00     0.062 C 
ATOM     11  N   UNK d   0     -22.831 -26.890  17.372  0.00  0.00    -0.248 NA
ATOM     12  C   UNK d   0     -23.615 -27.004  20.130  0.00  0.00     0.041 A 
ATOM     13  N   UNK d   0     -24.220 -25.834  19.853  0.00  0.00    -0.355 N 
ATOM     14  C   UNK d   0     -23.197 -27.020  21.473  0.00  0.00    -0.022 A 
ATOM     15  C   UNK d   0     -24.190 -25.103  20.984  0.00  0.00     0.042 A 
ATOM     16  H   UNK d   0     -24.677 -25.538  18.883  0.00  0.00     0.166 HD
ATOM     17  C   UNK d   0     -24.681 -23.809  21.248  0.00  0.00     0.062 C 
ATOM     18  C   UNK d   0     -23.555 -25.813  22.021  0.00  0.00    -0.013 A 
ATOM     19  C   UNK d   0     -24.571 -22.672  20.489  0.00  0.00     0.067 A 
ATOM     20  N   UNK d   0     -24.115 -22.820  19.242  0.00  0.00    -0.248 NA
ATOM     21  C   UNK d   0     -24.818 -21.254  20.689  0.00  0.00    -0.011 A 
ATOM     22  C   UNK d   0     -24.045 -21.601  18.613  0.00  0.00     0.066 A 
ATOM     23  C   UNK d   0     -23.621 -21.612  17.293  0.00  0.00     0.062 C 
ATOM     24  C   UNK d   0     -24.504 -20.632  19.589  0.00  0.00    -0.020 A 
ATOM     25  C   UNK d   0     -23.340 -22.728  16.489  0.00  0.00     0.041 A 
ATOM     26  N   UNK d   0     -22.725 -23.885  16.760  0.00  0.00    -0.355 N 
ATOM     27  C   UNK d   0     -23.765 -22.713  15.142  0.00  0.00    -0.022 A 
ATOM     28  C   UNK d   0     -22.747 -24.612  15.632  0.00  0.00     0.042 A 
ATOM     29  H   UNK d   0     -22.257 -24.177  17.732  0.00  0.00     0.166 HD
ATOM     30  C   UNK d   0     -22.253 -25.896  15.352  0.00  0.00     0.062 C 
ATOM     31  C   UNK d   0     -23.394 -23.902  14.593  0.00  0.00    -0.013 A 
ATOM     32  C   UNK d   0     -22.292 -27.022  16.160  0.00  0.00     0.066 A 
BRANCH   8  33
ATOM     33  C   UNK d   0     -21.973 -30.467  17.402  0.00  0.00     0.151 C 
BRANCH  33  34
ATOM     34  C   UNK d   0     -20.590 -30.758  17.824  0.00  0.00     0.143 C 
ATOM     35  O   UNK d   0     -20.150 -30.332  18.901  0.00  0.00    -0.650 OA
BRANCH  34  36
ATOM     36  O   UNK d   0     -19.779 -31.511  17.007  0.00  0.00    -0.776 OA
ATOM     37  H   UNK d   0     -20.112 -32.391  16.589  0.00  0.00     0.167 HD
ENDBRANCH  34  36
ENDBRANCH  33  34
ENDBRANCH   8  33
BRANCH  31  38
ATOM     38  C   UNK d   0     -23.649 -24.345  13.171  0.00  0.00     0.151 C 
BRANCH  38  39
ATOM     39  C   UNK d   0     -24.664 -25.372  13.077  0.00  0.00     0.143 C 
ATOM     40  O   UNK d   0     -24.392 -26.555  12.804  0.00  0.00    -0.650 OA
BRANCH  39  41
ATOM     41  O   UNK d   0     -26.000 -25.039  13.298  0.00  0.00    -0.776 OA
ATOM     42  H   UNK d   0     -26.620 -25.051  12.482  0.00  0.00     0.167 HD
ENDBRANCH  39  41
ENDBRANCH  38  39
ENDBRANCH  31  38
BRANCH  27  43
ATOM     43  C   UNK d   0     -24.490 -21.635  14.378  0.00  0.00     0.052 C 
BRANCH  43  44
ATOM     44  C   UNK d   0     -25.968 -21.846  14.316  0.00  0.00     0.115 C 
BRANCH  44  45
ATOM     45  C   UNK d   0     -26.385 -21.532  12.925  0.00  0.00     0.139 C 
ATOM     46  O   UNK d   0     -26.268 -22.431  12.055  0.00  0.00    -0.650 OA
BRANCH  45  47
ATOM     47  O   UNK d   0     -26.895 -20.307  12.556  0.00  0.00    -0.776 OA
ATOM     48  H   UNK d   0     -27.572 -20.190  11.785  0.00  0.00     0.167 HD
ENDBRANCH  45  47
ENDBRANCH  44  45
ENDBRANCH  43  44
ENDBRANCH  27  43
BRANCH  24  49
ATOM     49  C   UNK d   0     -24.637 -19.186  19.341  0.00  0.00     0.052 C 
BRANCH  49  50
ATOM     50  C   UNK d   0     -26.090 -18.808  19.210  0.00  0.00     0.115 C 
BRANCH  50  51
ATOM     51  C   UNK d   0     -26.487 -17.505  19.728  0.00  0.00     0.139 C 
ATOM     52  O   UNK d   0     -27.509 -16.900  19.326  0.00  0.00    -0.650 OA
BRANCH  51  53
ATOM     53  O   UNK d   0     -25.716 -16.890  20.703  0.00  0.00    -0.776 OA
ATOM     54  H   UNK d   0     -25.797 -17.218  21.649  0.00  0.00     0.167 HD
ENDBRANCH  51  53
ENDBRANCH  50  51
ENDBRANCH  49  50
ENDBRANCH  24  49
BRANCH  21  55
ATOM     55  C   UNK d   0     -25.346 -20.669  21.957  0.00  0.00     0.151 C 
BRANCH  55  56
ATOM     56  C   UNK d   0     -24.280 -20.444  22.946  0.00  0.00     0.143 C 
ATOM     57  O   UNK d   0     -23.339 -19.648  22.755  0.00  0.00    -0.650 OA
BRANCH  56  58
ATOM     58  O   UNK d   0     -24.342 -21.158  24.141  0.00  0.00    -0.776 OA
ATOM     59  H   UNK d   0     -25.254 -21.111  24.631  0.00  0.00     0.167 HD
ENDBRANCH  56  58
ENDBRANCH  55  56
ENDBRANCH  21  55
BRANCH  18  60
ATOM     60  C   UNK d   0     -23.290 -25.398  23.447  0.00  0.00     0.151 C 
BRANCH  60  61
ATOM     61  C   UNK d   0     -22.291 -24.321  23.375  0.00  0.00     0.143 C 
ATOM     62  O   UNK d   0     -22.381 -23.192  23.860  0.00  0.00    -0.650 OA
BRANCH  61  63
ATOM     63  O   UNK d   0     -21.108 -24.642  22.667  0.00  0.00    -0.776 OA
ATOM     64  H   UNK d   0     -21.032 -25.497  22.146  0.00  0.00     0.167 HD
ENDBRANCH  61  63
ENDBRANCH  60  61
ENDBRANCH  18  60
BRANCH  14  65
ATOM     65  C   UNK d   0     -22.578 -28.114  22.296  0.00  0.00     0.052 C 
BRANCH  65  66
ATOM     66  C   UNK d   0     -21.103 -27.981  22.427  0.00  0.00     0.115 C 
BRANCH  66  67
ATOM     67  C   UNK d   0     -20.495 -28.046  23.726  0.00  0.00     0.139 C 
ATOM     68  O   UNK d   0     -20.249 -26.946  24.345  0.00  0.00    -0.650 OA
BRANCH  67  69
ATOM     69  O   UNK d   0     -20.119 -29.186  24.435  0.00  0.00    -0.776 OA
ATOM     70  H   UNK d   0     -19.644 -29.018  25.334  0.00  0.00     0.167 HD
ENDBRANCH  67  69
ENDBRANCH  66  67
ENDBRANCH  65  66
ENDBRANCH  14  65
ENDBRANCH   6   7
ENDBRANCH   5   6
ENDBRANCH   2   5
TORSDOF 28
ENDMDL
MODEL 9
REMARK VINA RESULT:      -8.4      1.896      3.141
REMARK  28 active torsions:
REMARK  status: ('A' for Active; 'I' for Inactive)
REMARK    1  A    between atoms: C_2  and  O_3 
REMARK    2  A    between atoms: C_2  and  C_4 
REMARK    3  A    between atoms: C_4  and  C_5 
REMARK    4  A    between atoms: C_5  and  C_6 
REMARK    5  A    between atoms: C_7  and  C_8 
REMARK    6  A    between atoms: C_8  and  C_9 
REMARK    7  A    between atoms: C_9  and  O_11 
REMARK    8  A    between atoms: C_28  and  C_29 
REMARK    9  A    between atoms: C_29  and  C_30 
REMARK   10  A    between atoms: C_30  and  O_32 
REMARK   11  A    between atoms: C_33  and  C_34 
REMARK   12  A    between atoms: C_34  and  C_35 
REMARK   13  A    between atoms: C_35  and  C_36 
REMARK   14  A    between atoms: C_36  and  O_38 
REMARK   15  A    between atoms: C_39  and  C_40 
REMARK   16  A    between atoms: C_40  and  C_41 
REMARK   17  A    between atoms: C_41  and  C_42 
REMARK   18  A    between atoms: C_42  and  O_44 
REMARK   19  A    between atoms: C_45  and  C_46 
REMARK   20  A    between atoms: C_46  and  C_47 
REMARK   21  A    between atoms: C_47  and  O_49 
REMARK   22  A    between atoms: C_50  and  C_51 
REMARK   23  A    between atoms: C_51  and  C_52 
REMARK   24  A    between atoms: C_52  and  O_54 
REMARK   25  A    between atoms: C_55  and  C_56 
REMARK   26  A    between atoms: C_56  and  C_57 
REMARK   27  A    between atoms: C_57  and  C_58 
REMARK   28  A    between atoms: C_58  and  O_60 
ROOT
ATOM      1  O   UNK d   0     -18.842 -16.585  24.458  0.00  0.00    -0.650 OA
ATOM      2  C   UNK d   0     -20.021 -16.838  24.792  0.00  0.00     0.139 C 
ENDROOT
BRANCH   2   3
ATOM      3  O   UNK d   0     -20.331 -16.962  26.125  0.00  0.00    -0.776 OA
ATOM      4  H   UNK d   0     -20.102 -16.221  26.791  0.00  0.00     0.167 HD
ENDBRANCH   2   3
BRANCH   2   5
ATOM      5  C   UNK d   0     -21.075 -17.001  23.752  0.00  0.00     0.115 C 
BRANCH   5   6
ATOM      6  C   UNK d   0     -22.324 -17.574  24.366  0.00  0.00     0.052 C 
BRANCH   6   7
ATOM      7  C   UNK d   0     -22.613 -18.978  23.892  0.00  0.00    -0.020 A 
ATOM      8  C   UNK d   0     -23.616 -19.381  23.154  0.00  0.00    -0.011 A 
ATOM      9  C   UNK d   0     -23.480 -20.815  22.964  0.00  0.00     0.067 A 
ATOM     10  C   UNK d   0     -24.186 -21.817  22.279  0.00  0.00     0.062 C 
ATOM     11  N   UNK d   0     -22.370 -21.204  23.625  0.00  0.00    -0.248 NA
ATOM     12  C   UNK d   0     -23.744 -23.110  21.979  0.00  0.00     0.041 A 
ATOM     13  N   UNK d   0     -23.073 -24.012  22.720  0.00  0.00    -0.355 N 
ATOM     14  C   UNK d   0     -23.948 -23.615  20.682  0.00  0.00    -0.022 A 
ATOM     15  C   UNK d   0     -22.839 -25.073  21.924  0.00  0.00     0.042 A 
ATOM     16  H   UNK d   0     -22.788 -23.909  23.790  0.00  0.00     0.166 HD
ATOM     17  C   UNK d   0     -22.180 -26.288  22.193  0.00  0.00     0.062 C 
ATOM     18  C   UNK d   0     -23.373 -24.860  20.638  0.00  0.00    -0.013 A 
ATOM     19  C   UNK d   0     -20.996 -26.500  22.853  0.00  0.00     0.067 A 
ATOM     20  N   UNK d   0     -20.475 -25.459  23.509  0.00  0.00    -0.248 NA
ATOM     21  C   UNK d   0     -20.086 -27.619  23.035  0.00  0.00    -0.011 A 
ATOM     22  C   UNK d   0     -19.290 -25.816  24.104  0.00  0.00     0.066 A 
ATOM     23  C   UNK d   0     -18.657 -24.836  24.853  0.00  0.00     0.062 C 
ATOM     24  C   UNK d   0     -19.088 -27.211  23.764  0.00  0.00    -0.020 A 
ATOM     25  C   UNK d   0     -19.124 -23.547  25.154  0.00  0.00     0.041 A 
ATOM     26  N   UNK d   0     -19.778 -22.644  24.413  0.00  0.00    -0.355 N 
ATOM     27  C   UNK d   0     -18.922 -23.043  26.457  0.00  0.00    -0.022 A 
ATOM     28  C   UNK d   0     -20.004 -21.582  25.202  0.00  0.00     0.042 A 
ATOM     29  H   UNK d   0     -20.054 -22.745  23.334  0.00  0.00     0.166 HD
ATOM     30  C   UNK d   0     -20.651 -20.363  24.945  0.00  0.00     0.062 C 
ATOM     31  C   UNK d   0     -19.477 -21.801  26.497  0.00  0.00    -0.013 A 
ATOM     32  C   UNK d   0     -21.802 -20.145  24.204  0.00  0.00     0.066 A 
BRANCH   8  33
ATOM     33  C   UNK d   0     -24.703 -18.548  22.608  0.00  0.00     0.151 C 
BRANCH  33  34
ATOM     34  C   UNK d   0     -26.029 -19.179  22.745  0.00  0.00     0.143 C 
ATOM     35  O   UNK d   0     -26.723 -19.424  21.747  0.00  0.00    -0.650 OA
BRANCH  34  36
ATOM     36  O   UNK d   0     -26.500 -19.497  23.997  0.00  0.00    -0.776 OA
ATOM     37  H   UNK d   0     -26.638 -18.774  24.716  0.00  0.00     0.167 HD
ENDBRANCH  34  36
ENDBRANCH  33  34
ENDBRANCH   8  33
BRANCH  31  38
ATOM     38  C   UNK d   0     -19.518 -20.880  27.694  0.00  0.00     0.151 C 
BRANCH  38  39
ATOM     39  C   UNK d   0     -18.440 -19.913  27.695  0.00  0.00     0.143 C 
ATOM     40  O   UNK d   0     -18.604 -18.734  27.334  0.00  0.00    -0.650 OA
BRANCH  39  41
ATOM     41  O   UNK d   0     -17.169 -20.302  28.114  0.00  0.00    -0.776 OA
ATOM     42  H   UNK d   0     -16.378 -19.983  27.547  0.00  0.00     0.167 HD
ENDBRANCH  39  41
ENDBRANCH  38  39
ENDBRANCH  31  38
BRANCH  27  43
ATOM     43  C   UNK d   0     -18.236 -23.684  27.638  0.00  0.00     0.052 C 
BRANCH  43  44
ATOM     44  C   UNK d   0     -16.746 -23.607  27.568  0.00  0.00     0.115 C 
BRANCH  44  45
ATOM     45  C   UNK d   0     -16.238 -24.984  27.799  0.00  0.00     0.139 C 
ATOM     46  O   UNK d   0     -17.074 -25.918  27.874  0.00  0.00    -0.650 OA
BRANCH  45  47
ATOM     47  O   UNK d   0     -14.897 -25.275  27.926  0.00  0.00    -0.776 OA
ATOM     48  H   UNK d   0     -14.161 -24.765  27.410  0.00  0.00     0.167 HD
ENDBRANCH  45  47
ENDBRANCH  44  45
ENDBRANCH  43  44
ENDBRANCH  27  43
BRANCH  24  49
ATOM     49  C   UNK d   0     -17.955 -28.033  24.222  0.00  0.00     0.052 C 
BRANCH  49  50
ATOM     50  C   UNK d   0     -18.239 -28.604  25.588  0.00  0.00     0.115 C 
BRANCH  50  51
ATOM     51  C   UNK d   0     -18.037 -30.036  25.765  0.00  0.00     0.139 C 
ATOM     52  O   UNK d   0     -17.019 -30.633  25.342  0.00  0.00    -0.650 OA
BRANCH  51  53
ATOM     53  O   UNK d   0     -18.999 -30.788  26.422  0.00  0.00    -0.776 OA
ATOM     54  H   UNK d   0     -18.789 -31.748  26.632  0.00  0.00     0.167 HD
ENDBRANCH  51  53
ENDBRANCH  50  51
ENDBRANCH  49  50
ENDBRANCH  24  49
BRANCH  21  55
ATOM     55  C   UNK d   0     -20.312 -28.980  22.464  0.00  0.00     0.151 C 
BRANCH  55  56
ATOM     56  C   UNK d   0     -20.891 -29.903  23.452  0.00  0.00     0.143 C 
ATOM     57  O   UNK d   0     -21.802 -29.569  24.234  0.00  0.00    -0.650 OA
BRANCH  56  58
ATOM     58  O   UNK d   0     -20.387 -31.202  23.500  0.00  0.00    -0.776 OA
ATOM     59  H   UNK d   0     -19.625 -31.348  24.186  0.00  0.00     0.167 HD
ENDBRANCH  56  58
ENDBRANCH  55  56
ENDBRANCH  21  55
BRANCH  18  60
ATOM     60  C   UNK d   0     -23.350 -25.760  19.428  0.00  0.00     0.151 C 
BRANCH  60  61
ATOM     61  C   UNK d   0     -24.308 -26.840  19.710  0.00  0.00     0.143 C 
ATOM     62  O   UNK d   0     -25.326 -26.768  20.399  0.00  0.00    -0.650 OA
BRANCH  61  63
ATOM     63  O   UNK d   0     -24.003 -28.087  19.112  0.00  0.00    -0.776 OA
ATOM     64  H   UNK d   0     -23.846 -28.163  18.123  0.00  0.00     0.167 HD
ENDBRANCH  61  63
ENDBRANCH  60  61
ENDBRANCH  18  60
BRANCH  14  65
ATOM     65  C   UNK d   0     -24.723 -23.056  19.522  0.00  0.00     0.052 C 
BRANCH  65  66
ATOM     66  C   UNK d   0     -24.135 -21.802  18.979  0.00  0.00     0.115 C 
BRANCH  66  67
ATOM     67  C   UNK d   0     -24.992 -20.698  18.649  0.00  0.00     0.139 C 
ATOM     68  O   UNK d   0     -25.831 -20.840  17.686  0.00  0.00    -0.650 OA
BRANCH  67  69
ATOM     69  O   UNK d   0     -25.038 -19.443  19.255  0.00  0.00    -0.776 OA
ATOM     70  H   UNK d   0     -25.356 -19.431  20.235  0.00  0.00     0.167 HD
ENDBRANCH  67  69
ENDBRANCH  66  67
ENDBRANCH  65  66
ENDBRANCH  14  65
ENDBRANCH   6   7
ENDBRANCH   5   6
ENDBRANCH   2   5
TORSDOF 28
ENDMDL
MODEL 10
REMARK VINA RESULT:      -8.4      4.633     12.006
REMARK  28 active torsions:
REMARK  status: ('A' for Active; 'I' for Inactive)
REMARK    1  A    between atoms: C_2  and  O_3 
REMARK    2  A    between atoms: C_2  and  C_4 
REMARK    3  A    between atoms: C_4  and  C_5 
REMARK    4  A    between atoms: C_5  and  C_6 
REMARK    5  A    between atoms: C_7  and  C_8 
REMARK    6  A    between atoms: C_8  and  C_9 
REMARK    7  A    between atoms: C_9  and  O_11 
REMARK    8  A    between atoms: C_28  and  C_29 
REMARK    9  A    between atoms: C_29  and  C_30 
REMARK   10  A    between atoms: C_30  and  O_32 
REMARK   11  A    between atoms: C_33  and  C_34 
REMARK   12  A    between atoms: C_34  and  C_35 
REMARK   13  A    between atoms: C_35  and  C_36 
REMARK   14  A    between atoms: C_36  and  O_38 
REMARK   15  A    between atoms: C_39  and  C_40 
REMARK   16  A    between atoms: C_40  and  C_41 
REMARK   17  A    between atoms: C_41  and  C_42 
REMARK   18  A    between atoms: C_42  and  O_44 
REMARK   19  A    between atoms: C_45  and  C_46 
REMARK   20  A    between atoms: C_46  and  C_47 
REMARK   21  A    between atoms: C_47  and  O_49 
REMARK   22  A    between atoms: C_50  and  C_51 
REMARK   23  A    between atoms: C_51  and  C_52 
REMARK   24  A    between atoms: C_52  and  O_54 
REMARK   25  A    between atoms: C_55  and  C_56 
REMARK   26  A    between atoms: C_56  and  C_57 
REMARK   27  A    between atoms: C_57  and  C_58 
REMARK   28  A    between atoms: C_58  and  O_60 
ROOT
ATOM      1  O   UNK d   0     -24.808 -27.150  12.832  0.00  0.00    -0.650 OA
ATOM      2  C   UNK d   0     -23.604 -27.330  12.543  0.00  0.00     0.139 C 
ENDROOT
BRANCH   2   3
ATOM      3  O   UNK d   0     -22.947 -26.392  11.784  0.00  0.00    -0.776 OA
ATOM      4  H   UNK d   0     -23.292 -25.432  11.715  0.00  0.00     0.167 HD
ENDBRANCH   2   3
BRANCH   2   5
ATOM      5  C   UNK d   0     -22.894 -28.550  13.020  0.00  0.00     0.115 C 
BRANCH   5   6
ATOM      6  C   UNK d   0     -21.680 -28.164  13.820  0.00  0.00     0.052 C 
BRANCH   6   7
ATOM      7  C   UNK d   0     -21.958 -28.095  15.302  0.00  0.00    -0.020 A 
ATOM      8  C   UNK d   0     -21.871 -29.064  16.176  0.00  0.00    -0.011 A 
ATOM      9  C   UNK d   0     -22.243 -28.527  17.475  0.00  0.00     0.067 A 
ATOM     10  C   UNK d   0     -22.335 -29.020  18.786  0.00  0.00     0.062 C 
ATOM     11  N   UNK d   0     -22.548 -27.225  17.297  0.00  0.00    -0.248 NA
ATOM     12  C   UNK d   0     -22.446 -28.275  19.965  0.00  0.00     0.041 A 
ATOM     13  N   UNK d   0     -23.187 -27.191  20.262  0.00  0.00    -0.355 N 
ATOM     14  C   UNK d   0     -21.638 -28.618  21.065  0.00  0.00    -0.022 A 
ATOM     15  C   UNK d   0     -22.864 -26.832  21.519  0.00  0.00     0.042 A 
ATOM     16  H   UNK d   0     -23.937 -26.701  19.603  0.00  0.00     0.166 HD
ATOM     17  C   UNK d   0     -23.341 -25.773  22.317  0.00  0.00     0.062 C 
ATOM     18  C   UNK d   0     -21.896 -27.703  22.055  0.00  0.00    -0.013 A 
ATOM     19  C   UNK d   0     -23.547 -24.461  21.976  0.00  0.00     0.067 A 
ATOM     20  N   UNK d   0     -23.483 -24.157  20.677  0.00  0.00    -0.248 NA
ATOM     21  C   UNK d   0     -23.819 -23.226  22.692  0.00  0.00    -0.011 A 
ATOM     22  C   UNK d   0     -23.693 -22.812  20.492  0.00  0.00     0.066 A 
ATOM     23  C   UNK d   0     -23.691 -22.363  19.179  0.00  0.00     0.062 C 
ATOM     24  C   UNK d   0     -23.899 -22.264  21.818  0.00  0.00    -0.020 A 
ATOM     25  C   UNK d   0     -23.591 -23.129  18.008  0.00  0.00     0.041 A 
ATOM     26  N   UNK d   0     -22.843 -24.198  17.708  0.00  0.00    -0.355 N 
ATOM     27  C   UNK d   0     -24.404 -22.787  16.906  0.00  0.00    -0.022 A 
ATOM     28  C   UNK d   0     -23.156 -24.553  16.451  0.00  0.00     0.042 A 
ATOM     29  H   UNK d   0     -22.082 -24.684  18.367  0.00  0.00     0.166 HD
ATOM     30  C   UNK d   0     -22.683 -25.598  15.642  0.00  0.00     0.062 C 
ATOM     31  C   UNK d   0     -24.137 -23.683  15.917  0.00  0.00    -0.013 A 
ATOM     32  C   UNK d   0     -22.396 -26.902  16.012  0.00  0.00     0.066 A 
BRANCH   8  33
ATOM     33  C   UNK d   0     -21.474 -30.460  15.914  0.00  0.00     0.151 C 
BRANCH  33  34
ATOM     34  C   UNK d   0     -20.055 -30.716  16.217  0.00  0.00     0.143 C 
ATOM     35  O   UNK d   0     -19.185 -30.600  15.342  0.00  0.00    -0.650 OA
BRANCH  34  36
ATOM     36  O   UNK d   0     -19.693 -31.092  17.491  0.00  0.00    -0.776 OA
ATOM     37  H   UNK d   0     -19.915 -32.028  17.855  0.00  0.00     0.167 HD
ENDBRANCH  34  36
ENDBRANCH  33  34
ENDBRANCH   8  33
BRANCH  31  38
ATOM     38  C   UNK d   0     -24.781 -23.722  14.551  0.00  0.00     0.151 C 
BRANCH  38  39
ATOM     39  C   UNK d   0     -23.904 -23.242  13.503  0.00  0.00     0.143 C 
ATOM     40  O   UNK d   0     -23.027 -22.386  13.710  0.00  0.00    -0.650 OA
BRANCH  39  41
ATOM     41  O   UNK d   0     -24.038 -23.750  12.211  0.00  0.00    -0.776 OA
ATOM     42  H   UNK d   0     -23.599 -24.657  12.024  0.00  0.00     0.167 HD
ENDBRANCH  39  41
ENDBRANCH  38  39
ENDBRANCH  31  38
BRANCH  27  43
ATOM     43  C   UNK d   0     -25.402 -21.665  16.763  0.00  0.00     0.052 C 
BRANCH  43  44
ATOM     44  C   UNK d   0     -24.923 -20.558  15.881  0.00  0.00     0.115 C 
BRANCH  44  45
ATOM     45  C   UNK d   0     -23.615 -20.114  16.429  0.00  0.00     0.139 C 
ATOM     46  O   UNK d   0     -23.619 -19.310  17.393  0.00  0.00    -0.650 OA
BRANCH  45  47
ATOM     47  O   UNK d   0     -22.408 -20.552  15.928  0.00  0.00    -0.776 OA
ATOM     48  H   UNK d   0     -21.504 -20.341  16.381  0.00  0.00     0.167 HD
ENDBRANCH  45  47
ENDBRANCH  44  45
ENDBRANCH  43  44
ENDBRANCH  27  43
BRANCH  24  49
ATOM     49  C   UNK d   0     -24.201 -20.851  22.106  0.00  0.00     0.052 C 
BRANCH  49  50
ATOM     50  C   UNK d   0     -25.594 -20.508  21.643  0.00  0.00     0.115 C 
BRANCH  50  51
ATOM     51  C   UNK d   0     -25.743 -19.323  20.809  0.00  0.00     0.139 C 
ATOM     52  O   UNK d   0     -25.833 -18.167  21.286  0.00  0.00    -0.650 OA
BRANCH  51  53
ATOM     53  O   UNK d   0     -25.794 -19.456  19.430  0.00  0.00    -0.776 OA
ATOM     54  H   UNK d   0     -26.557 -19.025  18.939  0.00  0.00     0.167 HD
ENDBRANCH  51  53
ENDBRANCH  50  51
ENDBRANCH  49  50
ENDBRANCH  24  49
BRANCH  21  55
ATOM     55  C   UNK d   0     -23.976 -23.136  24.174  0.00  0.00     0.151 C 
BRANCH  55  56
ATOM     56  C   UNK d   0     -25.387 -23.190  24.584  0.00  0.00     0.143 C 
ATOM     57  O   UNK d   0     -26.115 -24.179  24.368  0.00  0.00    -0.650 OA
BRANCH  56  58
ATOM     58  O   UNK d   0     -25.916 -22.080  25.240  0.00  0.00    -0.776 OA
ATOM     59  H   UNK d   0     -25.518 -21.170  24.946  0.00  0.00     0.167 HD
ENDBRANCH  56  58
ENDBRANCH  55  56
ENDBRANCH  21  55
BRANCH  18  60
ATOM     60  C   UNK d   0     -21.239 -27.691  23.413  0.00  0.00     0.151 C 
BRANCH  60  61
ATOM     61  C   UNK d   0     -21.915 -28.736  24.198  0.00  0.00     0.143 C 
ATOM     62  O   UNK d   0     -23.091 -28.748  24.561  0.00  0.00    -0.650 OA
BRANCH  61  63
ATOM     63  O   UNK d   0     -21.101 -29.836  24.561  0.00  0.00    -0.776 OA
ATOM     64  H   UNK d   0     -21.357 -30.775  24.311  0.00  0.00     0.167 HD
ENDBRANCH  61  63
ENDBRANCH  60  61
ENDBRANCH  18  60
BRANCH  14  65
ATOM     65  C   UNK d   0     -20.725 -29.790  21.284  0.00  0.00     0.052 C 
BRANCH  65  66
ATOM     66  C   UNK d   0     -19.310 -29.499  20.929  0.00  0.00     0.115 C 
BRANCH  66  67
ATOM     67  C   UNK d   0     -18.271 -29.737  21.891  0.00  0.00     0.139 C 
ATOM     68  O   UNK d   0     -17.054 -29.794  21.479  0.00  0.00    -0.650 OA
BRANCH  67  69
ATOM     69  O   UNK d   0     -18.408 -29.923  23.266  0.00  0.00    -0.776 OA
ATOM     70  H   UNK d   0     -18.686 -30.869  23.565  0.00  0.00     0.167 HD
ENDBRANCH  67  69
ENDBRANCH  66  67
ENDBRANCH  65  66
ENDBRANCH  14  65
ENDBRANCH   6   7
ENDBRANCH   5   6
ENDBRANCH   2   5
TORSDOF 28
ENDMDL
MODEL 11
REMARK VINA RESULT:      -8.3      4.302     10.124
REMARK  28 active torsions:
REMARK  status: ('A' for Active; 'I' for Inactive)
REMARK    1  A    between atoms: C_2  and  O_3 
REMARK    2  A    between atoms: C_2  and  C_4 
REMARK    3  A    between atoms: C_4  and  C_5 
REMARK    4  A    between atoms: C_5  and  C_6 
REMARK    5  A    between atoms: C_7  and  C_8 
REMARK    6  A    between atoms: C_8  and  C_9 
REMARK    7  A    between atoms: C_9  and  O_11 
REMARK    8  A    between atoms: C_28  and  C_29 
REMARK    9  A    between atoms: C_29  and  C_30 
REMARK   10  A    between atoms: C_30  and  O_32 
REMARK   11  A    between atoms: C_33  and  C_34 
REMARK   12  A    between atoms: C_34  and  C_35 
REMARK   13  A    between atoms: C_35  and  C_36 
REMARK   14  A    between atoms: C_36  and  O_38 
REMARK   15  A    between atoms: C_39  and  C_40 
REMARK   16  A    between atoms: C_40  and  C_41 
REMARK   17  A    between atoms: C_41  and  C_42 
REMARK   18  A    between atoms: C_42  and  O_44 
REMARK   19  A    between atoms: C_45  and  C_46 
REMARK   20  A    between atoms: C_46  and  C_47 
REMARK   21  A    between atoms: C_47  and  O_49 
REMARK   22  A    between atoms: C_50  and  C_51 
REMARK   23  A    between atoms: C_51  and  C_52 
REMARK   24  A    between atoms: C_52  and  O_54 
REMARK   25  A    between atoms: C_55  and  C_56 
REMARK   26  A    between atoms: C_56  and  C_57 
REMARK   27  A    between atoms: C_57  and  C_58 
REMARK   28  A    between atoms: C_58  and  O_60 
ROOT
ATOM      1  O   UNK d   0     -18.743 -31.788  15.062  0.00  0.00    -0.650 OA
ATOM      2  C   UNK d   0     -19.983 -31.798  15.227  0.00  0.00     0.139 C 
ENDROOT
BRANCH   2   3
ATOM      3  O   UNK d   0     -20.790 -32.298  14.234  0.00  0.00    -0.776 OA
ATOM      4  H   UNK d   0     -21.501 -33.004  14.437  0.00  0.00     0.167 HD
ENDBRANCH   2   3
BRANCH   2   5
ATOM      5  C   UNK d   0     -20.574 -31.272  16.490  0.00  0.00     0.115 C 
BRANCH   5   6
ATOM      6  C   UNK d   0     -21.993 -30.830  16.252  0.00  0.00     0.052 C 
BRANCH   6   7
ATOM      7  C   UNK d   0     -22.163 -29.334  16.374  0.00  0.00    -0.020 A 
ATOM      8  C   UNK d   0     -22.202 -28.454  15.408  0.00  0.00    -0.011 A 
ATOM      9  C   UNK d   0     -22.372 -27.141  16.008  0.00  0.00     0.067 A 
ATOM     10  C   UNK d   0     -22.505 -25.824  15.541  0.00  0.00     0.062 C 
ATOM     11  N   UNK d   0     -22.421 -27.315  17.345  0.00  0.00    -0.248 NA
ATOM     12  C   UNK d   0     -22.942 -24.709  16.265  0.00  0.00     0.041 A 
ATOM     13  N   UNK d   0     -22.658 -24.296  17.515  0.00  0.00    -0.355 N 
ATOM     14  C   UNK d   0     -23.885 -23.844  15.679  0.00  0.00    -0.022 A 
ATOM     15  C   UNK d   0     -23.402 -23.197  17.740  0.00  0.00     0.042 A 
ATOM     16  H   UNK d   0     -21.932 -24.762  18.217  0.00  0.00     0.166 HD
ATOM     17  C   UNK d   0     -23.490 -22.371  18.879  0.00  0.00     0.062 C 
ATOM     18  C   UNK d   0     -24.185 -22.883  16.612  0.00  0.00    -0.013 A 
ATOM     19  C   UNK d   0     -23.588 -22.730  20.199  0.00  0.00     0.067 A 
ATOM     20  N   UNK d   0     -23.379 -24.016  20.493  0.00  0.00    -0.248 NA
ATOM     21  C   UNK d   0     -23.892 -22.050  21.447  0.00  0.00    -0.011 A 
ATOM     22  C   UNK d   0     -23.525 -24.226  21.842  0.00  0.00     0.066 A 
ATOM     23  C   UNK d   0     -23.297 -25.517  22.294  0.00  0.00     0.062 C 
ATOM     24  C   UNK d   0     -23.858 -22.931  22.404  0.00  0.00    -0.020 A 
ATOM     25  C   UNK d   0     -22.846 -26.621  21.552  0.00  0.00     0.041 A 
ATOM     26  N   UNK d   0     -23.139 -27.039  20.316  0.00  0.00    -0.355 N 
ATOM     27  C   UNK d   0     -21.896 -27.485  22.139  0.00  0.00    -0.022 A 
ATOM     28  C   UNK d   0     -22.405 -28.140  20.092  0.00  0.00     0.042 A 
ATOM     29  H   UNK d   0     -23.878 -26.576  19.615  0.00  0.00     0.166 HD
ATOM     30  C   UNK d   0     -22.315 -28.977  18.968  0.00  0.00     0.062 C 
ATOM     31  C   UNK d   0     -21.612 -28.449  21.222  0.00  0.00    -0.013 A 
ATOM     32  C   UNK d   0     -22.302 -28.613  17.631  0.00  0.00     0.066 A 
BRANCH   8  33
ATOM     33  C   UNK d   0     -22.090 -28.721  13.962  0.00  0.00     0.151 C 
BRANCH  33  34
ATOM     34  C   UNK d   0     -20.697 -28.685  13.481  0.00  0.00     0.143 C 
ATOM     35  O   UNK d   0     -20.235 -29.611  12.799  0.00  0.00    -0.650 OA
BRANCH  34  36
ATOM     36  O   UNK d   0     -19.901 -27.609  13.797  0.00  0.00    -0.776 OA
ATOM     37  H   UNK d   0     -19.089 -27.356  13.218  0.00  0.00     0.167 HD
ENDBRANCH  34  36
ENDBRANCH  33  34
ENDBRANCH   8  33
BRANCH  31  38
ATOM     38  C   UNK d   0     -20.635 -29.589  21.400  0.00  0.00     0.151 C 
BRANCH  38  39
ATOM     39  C   UNK d   0     -19.337 -29.310  20.825  0.00  0.00     0.143 C 
ATOM     40  O   UNK d   0     -18.998 -29.739  19.708  0.00  0.00    -0.650 OA
BRANCH  39  41
ATOM     41  O   UNK d   0     -18.423 -28.534  21.537  0.00  0.00    -0.776 OA
ATOM     42  H   UNK d   0     -17.471 -28.904  21.622  0.00  0.00     0.167 HD
ENDBRANCH  39  41
ENDBRANCH  38  39
ENDBRANCH  31  38
BRANCH  27  43
ATOM     43  C   UNK d   0     -21.268 -27.430  23.509  0.00  0.00     0.052 C 
BRANCH  43  44
ATOM     44  C   UNK d   0     -20.138 -26.456  23.602  0.00  0.00     0.115 C 
BRANCH  44  45
ATOM     45  C   UNK d   0     -19.168 -27.023  24.574  0.00  0.00     0.139 C 
ATOM     46  O   UNK d   0     -18.788 -28.209  24.409  0.00  0.00    -0.650 OA
BRANCH  45  47
ATOM     47  O   UNK d   0     -18.668 -26.303  25.638  0.00  0.00    -0.776 OA
ATOM     48  H   UNK d   0     -17.876 -26.631  26.214  0.00  0.00     0.167 HD
ENDBRANCH  45  47
ENDBRANCH  44  45
ENDBRANCH  43  44
ENDBRANCH  27  43
BRANCH  24  49
ATOM     49  C   UNK d   0     -24.069 -22.665  23.837  0.00  0.00     0.052 C 
BRANCH  49  50
ATOM     50  C   UNK d   0     -25.413 -23.188  24.275  0.00  0.00     0.115 C 
BRANCH  50  51
ATOM     51  C   UNK d   0     -26.539 -22.267  24.204  0.00  0.00     0.139 C 
ATOM     52  O   UNK d   0     -26.560 -21.175  24.819  0.00  0.00    -0.650 OA
BRANCH  51  53
ATOM     53  O   UNK d   0     -27.644 -22.592  23.432  0.00  0.00    -0.776 OA
ATOM     54  H   UNK d   0     -28.025 -23.519  23.514  0.00  0.00     0.167 HD
ENDBRANCH  51  53
ENDBRANCH  50  51
ENDBRANCH  49  50
ENDBRANCH  24  49
BRANCH  21  55
ATOM     55  C   UNK d   0     -24.181 -20.589  21.552  0.00  0.00     0.151 C 
BRANCH  55  56
ATOM     56  C   UNK d   0     -25.531 -20.257  21.071  0.00  0.00     0.143 C 
ATOM     57  O   UNK d   0     -25.803 -20.129  19.861  0.00  0.00    -0.650 OA
BRANCH  56  58
ATOM     58  O   UNK d   0     -26.534 -20.082  22.022  0.00  0.00    -0.776 OA
ATOM     59  H   UNK d   0     -27.441 -20.524  21.786  0.00  0.00     0.167 HD
ENDBRANCH  56  58
ENDBRANCH  55  56
ENDBRANCH  21  55
BRANCH  18  60
ATOM     60  C   UNK d   0     -25.163 -21.753  16.405  0.00  0.00     0.151 C 
BRANCH  60  61
ATOM     61  C   UNK d   0     -24.397 -20.666  15.778  0.00  0.00     0.143 C 
ATOM     62  O   UNK d   0     -23.516 -19.981  16.299  0.00  0.00    -0.650 OA
BRANCH  61  63
ATOM     63  O   UNK d   0     -24.728 -20.397  14.427  0.00  0.00    -0.776 OA
ATOM     64  H   UNK d   0     -24.558 -21.077  13.707  0.00  0.00     0.167 HD
ENDBRANCH  61  63
ENDBRANCH  60  61
ENDBRANCH  18  60
BRANCH  14  65
ATOM     65  C   UNK d   0     -24.443 -23.802  14.285  0.00  0.00     0.052 C 
BRANCH  65  66
ATOM     66  C   UNK d   0     -25.742 -24.516  14.157  0.00  0.00     0.115 C 
BRANCH  66  67
ATOM     67  C   UNK d   0     -26.959 -23.764  14.034  0.00  0.00     0.139 C 
ATOM     68  O   UNK d   0     -26.910 -22.604  13.482  0.00  0.00    -0.650 OA
BRANCH  67  69
ATOM     69  O   UNK d   0     -28.237 -24.136  14.448  0.00  0.00    -0.776 OA
ATOM     70  H   UNK d   0     -28.338 -25.109  14.772  0.00  0.00     0.167 HD
ENDBRANCH  67  69
ENDBRANCH  66  67
ENDBRANCH  65  66
ENDBRANCH  14  65
ENDBRANCH   6   7
ENDBRANCH   5   6
ENDBRANCH   2   5
TORSDOF 28
ENDMDL
MODEL 12
REMARK VINA RESULT:      -8.2      4.074      9.969
REMARK  28 active torsions:
REMARK  status: ('A' for Active; 'I' for Inactive)
REMARK    1  A    between atoms: C_2  and  O_3 
REMARK    2  A    between atoms: C_2  and  C_4 
REMARK    3  A    between atoms: C_4  and  C_5 
REMARK    4  A    between atoms: C_5  and  C_6 
REMARK    5  A    between atoms: C_7  and  C_8 
REMARK    6  A    between atoms: C_8  and  C_9 
REMARK    7  A    between atoms: C_9  and  O_11 
REMARK    8  A    between atoms: C_28  and  C_29 
REMARK    9  A    between atoms: C_29  and  C_30 
REMARK   10  A    between atoms: C_30  and  O_32 
REMARK   11  A    between atoms: C_33  and  C_34 
REMARK   12  A    between atoms: C_34  and  C_35 
REMARK   13  A    between atoms: C_35  and  C_36 
REMARK   14  A    between atoms: C_36  and  O_38 
REMARK   15  A    between atoms: C_39  and  C_40 
REMARK   16  A    between atoms: C_40  and  C_41 
REMARK   17  A    between atoms: C_41  and  C_42 
REMARK   18  A    between atoms: C_42  and  O_44 
REMARK   19  A    between atoms: C_45  and  C_46 
REMARK   20  A    between atoms: C_46  and  C_47 
REMARK   21  A    between atoms: C_47  and  O_49 
REMARK   22  A    between atoms: C_50  and  C_51 
REMARK   23  A    between atoms: C_51  and  C_52 
REMARK   24  A    between atoms: C_52  and  O_54 
REMARK   25  A    between atoms: C_55  and  C_56 
REMARK   26  A    between atoms: C_56  and  C_57 
REMARK   27  A    between atoms: C_57  and  C_58 
REMARK   28  A    between atoms: C_58  and  O_60 
ROOT
ATOM      1  O   UNK d   0     -19.440 -32.261  16.181  0.00  0.00    -0.650 OA
ATOM      2  C   UNK d   0     -20.478 -32.196  16.876  0.00  0.00     0.139 C 
ENDROOT
BRANCH   2   3
ATOM      3  O   UNK d   0     -21.337 -33.268  16.907  0.00  0.00    -0.776 OA
ATOM      4  H   UNK d   0     -20.994 -34.222  16.776  0.00  0.00     0.167 HD
ENDBRANCH   2   3
BRANCH   2   5
ATOM      5  C   UNK d   0     -20.776 -30.965  17.662  0.00  0.00     0.115 C 
BRANCH   5   6
ATOM      6  C   UNK d   0     -22.232 -30.607  17.530  0.00  0.00     0.052 C 
BRANCH   6   7
ATOM      7  C   UNK d   0     -22.453 -29.122  17.367  0.00  0.00    -0.020 A 
ATOM      8  C   UNK d   0     -22.529 -28.444  16.251  0.00  0.00    -0.011 A 
ATOM      9  C   UNK d   0     -22.739 -27.047  16.592  0.00  0.00     0.067 A 
ATOM     10  C   UNK d   0     -22.921 -25.848  15.885  0.00  0.00     0.062 C 
ATOM     11  N   UNK d   0     -22.773 -26.964  17.939  0.00  0.00    -0.248 NA
ATOM     12  C   UNK d   0     -23.390 -24.630  16.388  0.00  0.00     0.041 A 
ATOM     13  N   UNK d   0     -23.112 -23.977  17.533  0.00  0.00    -0.355 N 
ATOM     14  C   UNK d   0     -24.366 -23.924  15.661  0.00  0.00    -0.022 A 
ATOM     15  C   UNK d   0     -23.891 -22.880  17.554  0.00  0.00     0.042 A 
ATOM     16  H   UNK d   0     -22.365 -24.276  18.301  0.00  0.00     0.166 HD
ATOM     17  C   UNK d   0     -23.999 -21.855  18.515  0.00  0.00     0.062 C 
ATOM     18  C   UNK d   0     -24.692 -22.812  16.398  0.00  0.00    -0.013 A 
ATOM     19  C   UNK d   0     -24.075 -21.958  19.881  0.00  0.00     0.067 A 
ATOM     20  N   UNK d   0     -23.820 -23.156  20.412  0.00  0.00    -0.248 NA
ATOM     21  C   UNK d   0     -24.393 -21.062  20.980  0.00  0.00    -0.011 A 
ATOM     22  C   UNK d   0     -23.949 -23.109  21.779  0.00  0.00     0.066 A 
ATOM     23  C   UNK d   0     -23.673 -24.283  22.465  0.00  0.00     0.062 C 
ATOM     24  C   UNK d   0     -24.322 -21.743  22.088  0.00  0.00    -0.020 A 
ATOM     25  C   UNK d   0     -23.190 -25.492  21.941  0.00  0.00     0.041 A 
ATOM     26  N   UNK d   0     -23.478 -26.148  20.811  0.00  0.00    -0.355 N 
ATOM     27  C   UNK d   0     -22.207 -26.198  22.670  0.00  0.00    -0.022 A 
ATOM     28  C   UNK d   0     -22.708 -27.248  20.792  0.00  0.00     0.042 A 
ATOM     29  H   UNK d   0     -24.237 -25.852  20.046  0.00  0.00     0.166 HD
ATOM     30  C   UNK d   0     -22.597 -28.280  19.847  0.00  0.00     0.062 C 
ATOM     31  C   UNK d   0     -21.896 -27.310  21.949  0.00  0.00    -0.013 A 
ATOM     32  C   UNK d   0     -22.607 -28.178  18.465  0.00  0.00     0.066 A 
BRANCH   8  33
ATOM     33  C   UNK d   0     -22.418 -28.979  14.881  0.00  0.00     0.151 C 
BRANCH  33  34
ATOM     34  C   UNK d   0     -21.059 -28.848  14.325  0.00  0.00     0.143 C 
ATOM     35  O   UNK d   0     -20.669 -27.775  13.844  0.00  0.00    -0.650 OA
BRANCH  34  36
ATOM     36  O   UNK d   0     -20.215 -29.934  14.341  0.00  0.00    -0.776 OA
ATOM     37  H   UNK d   0     -19.334 -29.934  13.810  0.00  0.00     0.167 HD
ENDBRANCH  34  36
ENDBRANCH  33  34
ENDBRANCH   8  33
BRANCH  31  38
ATOM     38  C   UNK d   0     -20.880 -28.362  22.327  0.00  0.00     0.151 C 
BRANCH  38  39
ATOM     39  C   UNK d   0     -21.115 -28.922  23.642  0.00  0.00     0.143 C 
ATOM     40  O   UNK d   0     -22.248 -29.250  24.033  0.00  0.00    -0.650 OA
BRANCH  39  41
ATOM     41  O   UNK d   0     -20.039 -29.105  24.511  0.00  0.00    -0.776 OA
ATOM     42  H   UNK d   0     -19.475 -29.950  24.374  0.00  0.00     0.167 HD
ENDBRANCH  39  41
ENDBRANCH  38  39
ENDBRANCH  31  38
BRANCH  27  43
ATOM     43  C   UNK d   0     -21.571 -25.861  23.995  0.00  0.00     0.052 C 
BRANCH  43  44
ATOM     44  C   UNK d   0     -20.504 -24.821  23.891  0.00  0.00     0.115 C 
BRANCH  44  45
ATOM     45  C   UNK d   0     -19.230 -25.478  24.283  0.00  0.00     0.139 C 
ATOM     46  O   UNK d   0     -19.279 -26.410  25.124  0.00  0.00    -0.650 OA
BRANCH  45  47
ATOM     47  O   UNK d   0     -18.008 -25.113  23.760  0.00  0.00    -0.776 OA
ATOM     48  H   UNK d   0     -17.193 -25.746  23.746  0.00  0.00     0.167 HD
ENDBRANCH  45  47
ENDBRANCH  44  45
ENDBRANCH  43  44
ENDBRANCH  27  43
BRANCH  24  49
ATOM     49  C   UNK d   0     -24.531 -21.215  23.447  0.00  0.00     0.052 C 
BRANCH  49  50
ATOM     50  C   UNK d   0     -25.631 -21.976  24.141  0.00  0.00     0.115 C 
BRANCH  50  51
ATOM     51  C   UNK d   0     -26.969 -21.879  23.573  0.00  0.00     0.139 C 
ATOM     52  O   UNK d   0     -27.553 -20.783  23.401  0.00  0.00    -0.650 OA
BRANCH  51  53
ATOM     53  O   UNK d   0     -27.642 -23.033  23.201  0.00  0.00    -0.776 OA
ATOM     54  H   UNK d   0     -27.493 -23.393  22.275  0.00  0.00     0.167 HD
ENDBRANCH  51  53
ENDBRANCH  50  51
ENDBRANCH  49  50
ENDBRANCH  24  49
BRANCH  21  55
ATOM     55  C   UNK d   0     -24.731 -19.618  20.809  0.00  0.00     0.151 C 
BRANCH  55  56
ATOM     56  C   UNK d   0     -26.112 -19.426  20.341  0.00  0.00     0.143 C 
ATOM     57  O   UNK d   0     -26.433 -19.498  19.138  0.00  0.00    -0.650 OA
BRANCH  56  58
ATOM     58  O   UNK d   0     -27.090 -19.154  21.296  0.00  0.00    -0.776 OA
ATOM     59  H   UNK d   0     -27.137 -18.166  21.603  0.00  0.00     0.167 HD
ENDBRANCH  56  58
ENDBRANCH  55  56
ENDBRANCH  21  55
BRANCH  18  60
ATOM     60  C   UNK d   0     -25.710 -21.775  15.993  0.00  0.00     0.151 C 
BRANCH  60  61
ATOM     61  C   UNK d   0     -24.939 -20.605  15.547  0.00  0.00     0.143 C 
ATOM     62  O   UNK d   0     -24.166 -19.924  16.223  0.00  0.00    -0.650 OA
BRANCH  61  63
ATOM     63  O   UNK d   0     -25.122 -20.243  14.191  0.00  0.00    -0.776 OA
ATOM     64  H   UNK d   0     -24.780 -19.367  13.837  0.00  0.00     0.167 HD
ENDBRANCH  61  63
ENDBRANCH  60  61
ENDBRANCH  18  60
BRANCH  14  65
ATOM     65  C   UNK d   0     -24.936 -24.167  14.293  0.00  0.00     0.052 C 
BRANCH  65  66
ATOM     66  C   UNK d   0     -24.209 -23.434  13.222  0.00  0.00     0.115 C 
BRANCH  66  67
ATOM     67  C   UNK d   0     -24.923 -22.970  12.066  0.00  0.00     0.139 C 
ATOM     68  O   UNK d   0     -24.926 -23.705  11.010  0.00  0.00    -0.650 OA
BRANCH  67  69
ATOM     69  O   UNK d   0     -25.642 -21.783  11.926  0.00  0.00    -0.776 OA
ATOM     70  H   UNK d   0     -26.657 -21.854  12.082  0.00  0.00     0.167 HD
ENDBRANCH  67  69
ENDBRANCH  66  67
ENDBRANCH  65  66
ENDBRANCH  14  65
ENDBRANCH   6   7
ENDBRANCH   5   6
ENDBRANCH   2   5
TORSDOF 28
ENDMDL
MODEL 13
REMARK VINA RESULT:      -8.0      1.826      3.861
REMARK  28 active torsions:
REMARK  status: ('A' for Active; 'I' for Inactive)
REMARK    1  A    between atoms: C_2  and  O_3 
REMARK    2  A    between atoms: C_2  and  C_4 
REMARK    3  A    between atoms: C_4  and  C_5 
REMARK    4  A    between atoms: C_5  and  C_6 
REMARK    5  A    between atoms: C_7  and  C_8 
REMARK    6  A    between atoms: C_8  and  C_9 
REMARK    7  A    between atoms: C_9  and  O_11 
REMARK    8  A    between atoms: C_28  and  C_29 
REMARK    9  A    between atoms: C_29  and  C_30 
REMARK   10  A    between atoms: C_30  and  O_32 
REMARK   11  A    between atoms: C_33  and  C_34 
REMARK   12  A    between atoms: C_34  and  C_35 
REMARK   13  A    between atoms: C_35  and  C_36 
REMARK   14  A    between atoms: C_36  and  O_38 
REMARK   15  A    between atoms: C_39  and  C_40 
REMARK   16  A    between atoms: C_40  and  C_41 
REMARK   17  A    between atoms: C_41  and  C_42 
REMARK   18  A    between atoms: C_42  and  O_44 
REMARK   19  A    between atoms: C_45  and  C_46 
REMARK   20  A    between atoms: C_46  and  C_47 
REMARK   21  A    between atoms: C_47  and  O_49 
REMARK   22  A    between atoms: C_50  and  C_51 
REMARK   23  A    between atoms: C_51  and  C_52 
REMARK   24  A    between atoms: C_52  and  O_54 
REMARK   25  A    between atoms: C_55  and  C_56 
REMARK   26  A    between atoms: C_56  and  C_57 
REMARK   27  A    between atoms: C_57  and  C_58 
REMARK   28  A    between atoms: C_58  and  O_60 
ROOT
ATOM      1  O   UNK d   0     -23.218 -15.093  26.320  0.00  0.00    -0.650 OA
ATOM      2  C   UNK d   0     -23.152 -15.352  25.097  0.00  0.00     0.139 C 
ENDROOT
BRANCH   2   3
ATOM      3  O   UNK d   0     -22.739 -14.375  24.223  0.00  0.00    -0.776 OA
ATOM      4  H   UNK d   0     -23.399 -13.925  23.586  0.00  0.00     0.167 HD
ENDBRANCH   2   3
BRANCH   2   5
ATOM      5  C   UNK d   0     -23.521 -16.707  24.598  0.00  0.00     0.115 C 
BRANCH   5   6
ATOM      6  C   UNK d   0     -22.342 -17.345  23.915  0.00  0.00     0.052 C 
BRANCH   6   7
ATOM      7  C   UNK d   0     -22.608 -18.777  23.515  0.00  0.00    -0.020 A 
ATOM      8  C   UNK d   0     -23.589 -19.232  22.779  0.00  0.00    -0.011 A 
ATOM      9  C   UNK d   0     -23.435 -20.673  22.674  0.00  0.00     0.067 A 
ATOM     10  C   UNK d   0     -24.116 -21.720  22.031  0.00  0.00     0.062 C 
ATOM     11  N   UNK d   0     -22.337 -21.012  23.381  0.00  0.00    -0.248 NA
ATOM     12  C   UNK d   0     -23.655 -23.023  21.815  0.00  0.00     0.041 A 
ATOM     13  N   UNK d   0     -22.993 -23.874  22.622  0.00  0.00    -0.355 N 
ATOM     14  C   UNK d   0     -23.823 -23.603  20.545  0.00  0.00    -0.022 A 
ATOM     15  C   UNK d   0     -22.730 -24.976  21.894  0.00  0.00     0.042 A 
ATOM     16  H   UNK d   0     -22.734 -23.708  23.691  0.00  0.00     0.166 HD
ATOM     17  C   UNK d   0     -22.066 -26.167  22.247  0.00  0.00     0.062 C 
ATOM     18  C   UNK d   0     -23.235 -24.843  20.586  0.00  0.00    -0.013 A 
ATOM     19  C   UNK d   0     -20.897 -26.328  22.945  0.00  0.00     0.067 A 
ATOM     20  N   UNK d   0     -20.401 -25.247  23.552  0.00  0.00    -0.248 NA
ATOM     21  C   UNK d   0     -19.981 -27.426  23.211  0.00  0.00    -0.011 A 
ATOM     22  C   UNK d   0     -19.227 -25.557  24.194  0.00  0.00     0.066 A 
ATOM     23  C   UNK d   0     -18.621 -24.529  24.900  0.00  0.00     0.062 C 
ATOM     24  C   UNK d   0     -19.004 -26.967  23.938  0.00  0.00    -0.020 A 
ATOM     25  C   UNK d   0     -19.107 -23.230  25.116  0.00  0.00     0.041 A 
ATOM     26  N   UNK d   0     -19.751 -22.378  24.310  0.00  0.00    -0.355 N 
ATOM     27  C   UNK d   0     -18.941 -22.651  26.393  0.00  0.00    -0.022 A 
ATOM     28  C   UNK d   0     -20.006 -21.275  25.031  0.00  0.00     0.042 A 
ATOM     29  H   UNK d   0     -20.001 -22.542  23.233  0.00  0.00     0.166 HD
ATOM     30  C   UNK d   0     -20.658 -20.079  24.690  0.00  0.00     0.062 C 
ATOM     31  C   UNK d   0     -19.508 -21.414  26.348  0.00  0.00    -0.013 A 
ATOM     32  C   UNK d   0     -21.793 -19.916  23.912  0.00  0.00     0.066 A 
BRANCH   8  33
ATOM     33  C   UNK d   0     -24.671 -18.443  22.161  0.00  0.00     0.151 C 
BRANCH  33  34
ATOM     34  C   UNK d   0     -26.011 -18.972  22.471  0.00  0.00     0.143 C 
ATOM     35  O   UNK d   0     -26.809 -19.256  21.566  0.00  0.00    -0.650 OA
BRANCH  34  36
ATOM     36  O   UNK d   0     -26.380 -19.151  23.785  0.00  0.00    -0.776 OA
ATOM     37  H   UNK d   0     -26.837 -18.399  24.318  0.00  0.00     0.167 HD
ENDBRANCH  34  36
ENDBRANCH  33  34
ENDBRANCH   8  33
BRANCH  31  38
ATOM     38  C   UNK d   0     -19.585 -20.427  27.490  0.00  0.00     0.151 C 
BRANCH  38  39
ATOM     39  C   UNK d   0     -18.427 -19.561  27.563  0.00  0.00     0.143 C 
ATOM     40  O   UNK d   0     -17.584 -19.653  28.472  0.00  0.00    -0.650 OA
BRANCH  39  41
ATOM     41  O   UNK d   0     -18.237 -18.586  26.584  0.00  0.00    -0.776 OA
ATOM     42  H   UNK d   0     -19.023 -17.953  26.405  0.00  0.00     0.167 HD
ENDBRANCH  39  41
ENDBRANCH  38  39
ENDBRANCH  31  38
BRANCH  27  43
ATOM     43  C   UNK d   0     -18.277 -23.217  27.623  0.00  0.00     0.052 C 
BRANCH  43  44
ATOM     44  C   UNK d   0     -18.983 -22.863  28.892  0.00  0.00     0.115 C 
BRANCH  44  45
ATOM     45  C   UNK d   0     -19.874 -24.008  29.215  0.00  0.00     0.139 C 
ATOM     46  O   UNK d   0     -21.109 -23.864  29.042  0.00  0.00    -0.650 OA
BRANCH  45  47
ATOM     47  O   UNK d   0     -19.400 -25.212  29.688  0.00  0.00    -0.776 OA
ATOM     48  H   UNK d   0     -20.021 -25.994  29.953  0.00  0.00     0.167 HD
ENDBRANCH  45  47
ENDBRANCH  44  45
ENDBRANCH  43  44
ENDBRANCH  27  43
BRANCH  24  49
ATOM     49  C   UNK d   0     -17.874 -27.749  24.469  0.00  0.00     0.052 C 
BRANCH  49  50
ATOM     50  C   UNK d   0     -18.051 -27.991  25.946  0.00  0.00     0.115 C 
BRANCH  50  51
ATOM     51  C   UNK d   0     -17.026 -27.459  26.834  0.00  0.00     0.139 C 
ATOM     52  O   UNK d   0     -15.851 -27.896  26.849  0.00  0.00    -0.650 OA
BRANCH  51  53
ATOM     53  O   UNK d   0     -17.342 -26.430  27.708  0.00  0.00    -0.776 OA
ATOM     54  H   UNK d   0     -16.596 -25.845  28.042  0.00  0.00     0.167 HD
ENDBRANCH  51  53
ENDBRANCH  50  51
ENDBRANCH  49  50
ENDBRANCH  24  49
BRANCH  21  55
ATOM     55  C   UNK d   0     -20.181 -28.819  22.713  0.00  0.00     0.151 C 
BRANCH  55  56
ATOM     56  C   UNK d   0     -20.924 -29.647  23.675  0.00  0.00     0.143 C 
ATOM     57  O   UNK d   0     -21.943 -29.242  24.268  0.00  0.00    -0.650 OA
BRANCH  56  58
ATOM     58  O   UNK d   0     -20.454 -30.936  23.922  0.00  0.00    -0.776 OA
ATOM     59  H   UNK d   0     -20.734 -31.644  23.219  0.00  0.00     0.167 HD
ENDBRANCH  56  58
ENDBRANCH  55  56
ENDBRANCH  21  55
BRANCH  18  60
ATOM     60  C   UNK d   0     -23.176 -25.810  19.429  0.00  0.00     0.151 C 
BRANCH  60  61
ATOM     61  C   UNK d   0     -24.206 -26.825  19.699  0.00  0.00     0.143 C 
ATOM     62  O   UNK d   0     -25.172 -26.719  20.455  0.00  0.00    -0.650 OA
BRANCH  61  63
ATOM     63  O   UNK d   0     -24.046 -28.045  18.999  0.00  0.00    -0.776 OA
ATOM     64  H   UNK d   0     -24.593 -28.854  19.236  0.00  0.00     0.167 HD
ENDBRANCH  61  63
ENDBRANCH  60  61
ENDBRANCH  18  60
BRANCH  14  65
ATOM     65  C   UNK d   0     -24.576 -23.119  19.338  0.00  0.00     0.052 C 
BRANCH  65  66
ATOM     66  C   UNK d   0     -23.807 -22.136  18.529  0.00  0.00     0.115 C 
BRANCH  66  67
ATOM     67  C   UNK d   0     -22.839 -22.600  17.576  0.00  0.00     0.139 C 
ATOM     68  O   UNK d   0     -21.604 -22.649  17.930  0.00  0.00    -0.650 OA
BRANCH  67  69
ATOM     69  O   UNK d   0     -23.065 -23.022  16.266  0.00  0.00    -0.776 OA
ATOM     70  H   UNK d   0     -22.449 -22.611  15.550  0.00  0.00     0.167 HD
ENDBRANCH  67  69
ENDBRANCH  66  67
ENDBRANCH  65  66
ENDBRANCH  14  65
ENDBRANCH   6   7
ENDBRANCH   5   6
ENDBRANCH   2   5
TORSDOF 28
ENDMDL
MODEL 14
REMARK VINA RESULT:      -7.9      2.012      7.695
REMARK  28 active torsions:
REMARK  status: ('A' for Active; 'I' for Inactive)
REMARK    1  A    between atoms: C_2  and  O_3 
REMARK    2  A    between atoms: C_2  and  C_4 
REMARK    3  A    between atoms: C_4  and  C_5 
REMARK    4  A    between atoms: C_5  and  C_6 
REMARK    5  A    between atoms: C_7  and  C_8 
REMARK    6  A    between atoms: C_8  and  C_9 
REMARK    7  A    between atoms: C_9  and  O_11 
REMARK    8  A    between atoms: C_28  and  C_29 
REMARK    9  A    between atoms: C_29  and  C_30 
REMARK   10  A    between atoms: C_30  and  O_32 
REMARK   11  A    between atoms: C_33  and  C_34 
REMARK   12  A    between atoms: C_34  and  C_35 
REMARK   13  A    between atoms: C_35  and  C_36 
REMARK   14  A    between atoms: C_36  and  O_38 
REMARK   15  A    between atoms: C_39  and  C_40 
REMARK   16  A    between atoms: C_40  and  C_41 
REMARK   17  A    between atoms: C_41  and  C_42 
REMARK   18  A    between atoms: C_42  and  O_44 
REMARK   19  A    between atoms: C_45  and  C_46 
REMARK   20  A    between atoms: C_46  and  C_47 
REMARK   21  A    between atoms: C_47  and  O_49 
REMARK   22  A    between atoms: C_50  and  C_51 
REMARK   23  A    between atoms: C_51  and  C_52 
REMARK   24  A    between atoms: C_52  and  O_54 
REMARK   25  A    between atoms: C_55  and  C_56 
REMARK   26  A    between atoms: C_56  and  C_57 
REMARK   27  A    between atoms: C_57  and  C_58 
REMARK   28  A    between atoms: C_58  and  O_60 
ROOT
ATOM      1  O   UNK d   0     -27.494 -20.911  23.206  0.00  0.00    -0.650 OA
ATOM      2  C   UNK d   0     -26.861 -19.892  22.849  0.00  0.00     0.139 C 
ENDROOT
BRANCH   2   3
ATOM      3  O   UNK d   0     -27.101 -19.350  21.610  0.00  0.00    -0.776 OA
ATOM      4  H   UNK d   0     -26.668 -18.469  21.326  0.00  0.00     0.167 HD
ENDBRANCH   2   3
BRANCH   2   5
ATOM      5  C   UNK d   0     -25.857 -19.277  23.763  0.00  0.00     0.115 C 
BRANCH   5   6
ATOM      6  C   UNK d   0     -24.619 -18.903  22.994  0.00  0.00     0.052 C 
BRANCH   6   7
ATOM      7  C   UNK d   0     -23.423 -19.744  23.372  0.00  0.00    -0.020 A 
ATOM      8  C   UNK d   0     -22.384 -19.381  24.079  0.00  0.00    -0.011 A 
ATOM      9  C   UNK d   0     -21.489 -20.523  24.173  0.00  0.00     0.067 A 
ATOM     10  C   UNK d   0     -20.257 -20.796  24.788  0.00  0.00     0.062 C 
ATOM     11  N   UNK d   0     -22.060 -21.536  23.490  0.00  0.00    -0.248 NA
ATOM     12  C   UNK d   0     -19.677 -22.051  25.002  0.00  0.00     0.041 A 
ATOM     13  N   UNK d   0     -19.580 -23.130  24.203  0.00  0.00    -0.355 N 
ATOM     14  C   UNK d   0     -19.121 -22.338  26.262  0.00  0.00    -0.022 A 
ATOM     15  C   UNK d   0     -18.985 -24.098  24.926  0.00  0.00     0.042 A 
ATOM     16  H   UNK d   0     -19.909 -23.201  23.142  0.00  0.00     0.166 HD
ATOM     17  C   UNK d   0     -18.643 -25.419  24.577  0.00  0.00     0.062 C 
ATOM     18  C   UNK d   0     -18.683 -23.638  26.222  0.00  0.00    -0.013 A 
ATOM     19  C   UNK d   0     -19.388 -26.355  23.907  0.00  0.00     0.067 A 
ATOM     20  N   UNK d   0     -20.511 -25.928  23.323  0.00  0.00    -0.248 NA
ATOM     21  C   UNK d   0     -19.290 -27.782  23.652  0.00  0.00    -0.011 A 
ATOM     22  C   UNK d   0     -21.155 -26.973  22.707  0.00  0.00     0.066 A 
ATOM     23  C   UNK d   0     -22.323 -26.662  22.026  0.00  0.00     0.062 C 
ATOM     24  C   UNK d   0     -20.329 -28.139  22.953  0.00  0.00    -0.020 A 
ATOM     25  C   UNK d   0     -22.882 -25.393  21.812  0.00  0.00     0.041 A 
ATOM     26  N   UNK d   0     -22.992 -24.325  22.611  0.00  0.00    -0.355 N 
ATOM     27  C   UNK d   0     -23.436 -25.105  20.546  0.00  0.00    -0.022 A 
ATOM     28  C   UNK d   0     -23.593 -23.362  21.895  0.00  0.00     0.042 A 
ATOM     29  H   UNK d   0     -22.671 -24.259  23.680  0.00  0.00     0.166 HD
ATOM     30  C   UNK d   0     -23.948 -22.046  22.232  0.00  0.00     0.062 C 
ATOM     31  C   UNK d   0     -23.887 -23.821  20.589  0.00  0.00    -0.013 A 
ATOM     32  C   UNK d   0     -23.226 -21.132  22.983  0.00  0.00     0.066 A 
BRANCH   8  33
ATOM     33  C   UNK d   0     -22.140 -18.056  24.678  0.00  0.00     0.151 C 
BRANCH  33  34
ATOM     34  C   UNK d   0     -21.289 -18.121  25.880  0.00  0.00     0.143 C 
ATOM     35  O   UNK d   0     -20.109 -17.745  25.846  0.00  0.00    -0.650 OA
BRANCH  34  36
ATOM     36  O   UNK d   0     -21.816 -18.607  27.054  0.00  0.00    -0.776 OA
ATOM     37  H   UNK d   0     -21.812 -18.044  27.915  0.00  0.00     0.167 HD
ENDBRANCH  34  36
ENDBRANCH  33  34
ENDBRANCH   8  33
BRANCH  31  38
ATOM     38  C   UNK d   0     -24.546 -23.069  19.456  0.00  0.00     0.151 C 
BRANCH  38  39
ATOM     39  C   UNK d   0     -23.591 -22.475  18.546  0.00  0.00     0.143 C 
ATOM     40  O   UNK d   0     -22.505 -22.007  18.933  0.00  0.00    -0.650 OA
BRANCH  39  41
ATOM     41  O   UNK d   0     -23.884 -22.418  17.184  0.00  0.00    -0.776 OA
ATOM     42  H   UNK d   0     -24.808 -22.755  16.896  0.00  0.00     0.167 HD
ENDBRANCH  39  41
ENDBRANCH  38  39
ENDBRANCH  31  38
BRANCH  27  43
ATOM     43  C   UNK d   0     -23.550 -25.985  19.326  0.00  0.00     0.052 C 
BRANCH  43  44
ATOM     44  C   UNK d   0     -23.893 -27.403  19.651  0.00  0.00     0.115 C 
BRANCH  44  45
ATOM     45  C   UNK d   0     -23.574 -28.204  18.441  0.00  0.00     0.139 C 
ATOM     46  O   UNK d   0     -24.085 -29.347  18.337  0.00  0.00    -0.650 OA
BRANCH  45  47
ATOM     47  O   UNK d   0     -22.752 -27.745  17.435  0.00  0.00    -0.776 OA
ATOM     48  H   UNK d   0     -22.017 -28.327  17.003  0.00  0.00     0.167 HD
ENDBRANCH  45  47
ENDBRANCH  44  45
ENDBRANCH  43  44
ENDBRANCH  27  43
BRANCH  24  49
ATOM     49  C   UNK d   0     -20.610 -29.492  22.443  0.00  0.00     0.052 C 
BRANCH  49  50
ATOM     50  C   UNK d   0     -19.977 -29.683  21.089  0.00  0.00     0.115 C 
BRANCH  50  51
ATOM     51  C   UNK d   0     -19.038 -30.787  20.944  0.00  0.00     0.139 C 
ATOM     52  O   UNK d   0     -19.408 -31.968  20.739  0.00  0.00    -0.650 OA
BRANCH  51  53
ATOM     53  O   UNK d   0     -17.676 -30.546  21.035  0.00  0.00    -0.776 OA
ATOM     54  H   UNK d   0     -17.088 -30.851  20.279  0.00  0.00     0.167 HD
ENDBRANCH  51  53
ENDBRANCH  50  51
ENDBRANCH  49  50
ENDBRANCH  24  49
BRANCH  21  55
ATOM     55  C   UNK d   0     -18.166 -28.640  24.130  0.00  0.00     0.151 C 
BRANCH  55  56
ATOM     56  C   UNK d   0     -18.294 -28.973  25.557  0.00  0.00     0.143 C 
ATOM     57  O   UNK d   0     -19.014 -29.902  25.971  0.00  0.00    -0.650 OA
BRANCH  56  58
ATOM     58  O   UNK d   0     -17.572 -28.206  26.470  0.00  0.00    -0.776 OA
ATOM     59  H   UNK d   0     -17.614 -28.540  27.450  0.00  0.00     0.167 HD
ENDBRANCH  56  58
ENDBRANCH  55  56
ENDBRANCH  21  55
BRANCH  18  60
ATOM     60  C   UNK d   0     -18.024 -24.363  27.370  0.00  0.00     0.151 C 
BRANCH  60  61
ATOM     61  C   UNK d   0     -16.602 -24.479  27.012  0.00  0.00     0.143 C 
ATOM     62  O   UNK d   0     -15.991 -25.508  26.721  0.00  0.00    -0.650 OA
BRANCH  61  63
ATOM     63  O   UNK d   0     -15.881 -23.261  27.007  0.00  0.00    -0.776 OA
ATOM     64  H   UNK d   0     -16.256 -22.435  27.439  0.00  0.00     0.167 HD
ENDBRANCH  61  63
ENDBRANCH  60  61
ENDBRANCH  18  60
BRANCH  14  65
ATOM     65  C   UNK d   0     -18.887 -21.455  27.455  0.00  0.00     0.052 C 
BRANCH  65  66
ATOM     66  C   UNK d   0     -20.004 -21.494  28.436  0.00  0.00     0.115 C 
BRANCH  66  67
ATOM     67  C   UNK d   0     -19.827 -22.171  29.690  0.00  0.00     0.139 C 
ATOM     68  O   UNK d   0     -19.374 -21.501  30.689  0.00  0.00    -0.650 OA
BRANCH  67  69
ATOM     69  O   UNK d   0     -20.090 -23.509  29.982  0.00  0.00    -0.776 OA
ATOM     70  H   UNK d   0     -20.932 -23.907  29.541  0.00  0.00     0.167 HD
ENDBRANCH  67  69
ENDBRANCH  66  67
ENDBRANCH  65  66
ENDBRANCH  14  65
ENDBRANCH   6   7
ENDBRANCH   5   6
ENDBRANCH   2   5
TORSDOF 28
ENDMDL
MODEL 15
REMARK VINA RESULT:      -7.9      4.552     10.547
REMARK  28 active torsions:
REMARK  status: ('A' for Active; 'I' for Inactive)
REMARK    1  A    between atoms: C_2  and  O_3 
REMARK    2  A    between atoms: C_2  and  C_4 
REMARK    3  A    between atoms: C_4  and  C_5 
REMARK    4  A    between atoms: C_5  and  C_6 
REMARK    5  A    between atoms: C_7  and  C_8 
REMARK    6  A    between atoms: C_8  and  C_9 
REMARK    7  A    between atoms: C_9  and  O_11 
REMARK    8  A    between atoms: C_28  and  C_29 
REMARK    9  A    between atoms: C_29  and  C_30 
REMARK   10  A    between atoms: C_30  and  O_32 
REMARK   11  A    between atoms: C_33  and  C_34 
REMARK   12  A    between atoms: C_34  and  C_35 
REMARK   13  A    between atoms: C_35  and  C_36 
REMARK   14  A    between atoms: C_36  and  O_38 
REMARK   15  A    between atoms: C_39  and  C_40 
REMARK   16  A    between atoms: C_40  and  C_41 
REMARK   17  A    between atoms: C_41  and  C_42 
REMARK   18  A    between atoms: C_42  and  O_44 
REMARK   19  A    between atoms: C_45  and  C_46 
REMARK   20  A    between atoms: C_46  and  C_47 
REMARK   21  A    between atoms: C_47  and  O_49 
REMARK   22  A    between atoms: C_50  and  C_51 
REMARK   23  A    between atoms: C_51  and  C_52 
REMARK   24  A    between atoms: C_52  and  O_54 
REMARK   25  A    between atoms: C_55  and  C_56 
REMARK   26  A    between atoms: C_56  and  C_57 
REMARK   27  A    between atoms: C_57  and  C_58 
REMARK   28  A    between atoms: C_58  and  O_60 
ROOT
ATOM      1  O   UNK d   0     -25.743 -29.082  11.435  0.00  0.00    -0.650 OA
ATOM      2  C   UNK d   0     -24.747 -29.661  11.923  0.00  0.00     0.139 C 
ENDROOT
BRANCH   2   3
ATOM      3  O   UNK d   0     -23.905 -30.364  11.095  0.00  0.00    -0.776 OA
ATOM      4  H   UNK d   0     -23.041 -29.946  10.743  0.00  0.00     0.167 HD
ENDBRANCH   2   3
BRANCH   2   5
ATOM      5  C   UNK d   0     -24.480 -29.587  13.387  0.00  0.00     0.115 C 
BRANCH   5   6
ATOM      6  C   UNK d   0     -23.058 -29.159  13.633  0.00  0.00     0.052 C 
BRANCH   6   7
ATOM      7  C   UNK d   0     -22.965 -27.798  14.281  0.00  0.00    -0.020 A 
ATOM      8  C   UNK d   0     -22.847 -26.638  13.687  0.00  0.00    -0.011 A 
ATOM      9  C   UNK d   0     -22.785 -25.615  14.718  0.00  0.00     0.067 A 
ATOM     10  C   UNK d   0     -22.684 -24.216  14.751  0.00  0.00     0.062 C 
ATOM     11  N   UNK d   0     -22.866 -26.242  15.910  0.00  0.00    -0.248 NA
ATOM     12  C   UNK d   0     -22.920 -23.375  15.844  0.00  0.00     0.041 A 
ATOM     13  N   UNK d   0     -22.571 -23.485  17.139  0.00  0.00    -0.355 N 
ATOM     14  C   UNK d   0     -23.696 -22.216  15.656  0.00  0.00    -0.022 A 
ATOM     15  C   UNK d   0     -23.111 -22.431  17.780  0.00  0.00     0.042 A 
ATOM     16  H   UNK d   0     -21.938 -24.282  17.589  0.00  0.00     0.166 HD
ATOM     17  C   UNK d   0     -23.055 -22.061  19.138  0.00  0.00     0.062 C 
ATOM     18  C   UNK d   0     -23.824 -21.613  16.882  0.00  0.00    -0.013 A 
ATOM     19  C   UNK d   0     -23.216 -22.844  20.253  0.00  0.00     0.067 A 
ATOM     20  N   UNK d   0     -23.236 -24.166  20.065  0.00  0.00    -0.248 NA
ATOM     21  C   UNK d   0     -23.398 -22.611  21.676  0.00  0.00    -0.011 A 
ATOM     22  C   UNK d   0     -23.419 -24.814  21.262  0.00  0.00     0.066 A 
ATOM     23  C   UNK d   0     -23.422 -26.201  21.218  0.00  0.00     0.062 C 
ATOM     24  C   UNK d   0     -23.521 -23.767  22.260  0.00  0.00    -0.020 A 
ATOM     25  C   UNK d   0     -23.170 -27.027  20.112  0.00  0.00     0.041 A 
ATOM     26  N   UNK d   0     -23.530 -26.925  18.827  0.00  0.00    -0.355 N 
ATOM     27  C   UNK d   0     -22.388 -28.187  20.301  0.00  0.00    -0.022 A 
ATOM     28  C   UNK d   0     -23.000 -27.979  18.188  0.00  0.00     0.042 A 
ATOM     29  H   UNK d   0     -24.175 -26.129  18.379  0.00  0.00     0.166 HD
ATOM     30  C   UNK d   0     -23.056 -28.365  16.840  0.00  0.00     0.062 C 
ATOM     31  C   UNK d   0     -22.275 -28.796  19.089  0.00  0.00    -0.013 A 
ATOM     32  C   UNK d   0     -22.977 -27.557  15.716  0.00  0.00     0.066 A 
BRANCH   8  33
ATOM     33  C   UNK d   0     -22.781 -26.390  12.235  0.00  0.00     0.151 C 
BRANCH  33  34
ATOM     34  C   UNK d   0     -24.020 -25.796  11.701  0.00  0.00     0.143 C 
ATOM     35  O   UNK d   0     -23.981 -24.947  10.799  0.00  0.00    -0.650 OA
BRANCH  34  36
ATOM     36  O   UNK d   0     -25.234 -26.190  12.214  0.00  0.00    -0.776 OA
ATOM     37  H   UNK d   0     -26.098 -26.113  11.661  0.00  0.00     0.167 HD
ENDBRANCH  34  36
ENDBRANCH  33  34
ENDBRANCH   8  33
BRANCH  31  38
ATOM     38  C   UNK d   0     -21.514 -30.068  18.797  0.00  0.00     0.151 C 
BRANCH  38  39
ATOM     39  C   UNK d   0     -20.129 -29.827  18.450  0.00  0.00     0.143 C 
ATOM     40  O   UNK d   0     -19.235 -29.729  19.309  0.00  0.00    -0.650 OA
BRANCH  39  41
ATOM     41  O   UNK d   0     -19.771 -29.699  17.109  0.00  0.00    -0.776 OA
ATOM     42  H   UNK d   0     -20.280 -29.000  16.559  0.00  0.00     0.167 HD
ENDBRANCH  39  41
ENDBRANCH  38  39
ENDBRANCH  31  38
BRANCH  27  43
ATOM     43  C   UNK d   0     -21.762 -28.726  21.563  0.00  0.00     0.052 C 
BRANCH  43  44
ATOM     44  C   UNK d   0     -20.611 -27.905  22.049  0.00  0.00     0.115 C 
BRANCH  44  45
ATOM     45  C   UNK d   0     -20.842 -27.666  23.497  0.00  0.00     0.139 C 
ATOM     46  O   UNK d   0     -20.107 -26.834  24.084  0.00  0.00    -0.650 OA
BRANCH  45  47
ATOM     47  O   UNK d   0     -21.827 -28.311  24.213  0.00  0.00    -0.776 OA
ATOM     48  H   UNK d   0     -22.669 -27.830  24.568  0.00  0.00     0.167 HD
ENDBRANCH  45  47
ENDBRANCH  44  45
ENDBRANCH  43  44
ENDBRANCH  27  43
BRANCH  24  49
ATOM     49  C   UNK d   0     -23.685 -23.997  23.706  0.00  0.00     0.052 C 
BRANCH  49  50
ATOM     50  C   UNK d   0     -25.116 -24.348  24.023  0.00  0.00     0.115 C 
BRANCH  50  51
ATOM     51  C   UNK d   0     -26.059 -23.245  24.147  0.00  0.00     0.139 C 
ATOM     52  O   UNK d   0     -25.868 -22.276  24.920  0.00  0.00    -0.650 OA
BRANCH  51  53
ATOM     53  O   UNK d   0     -27.221 -23.247  23.392  0.00  0.00    -0.776 OA
ATOM     54  H   UNK d   0     -28.045 -22.827  23.785  0.00  0.00     0.167 HD
ENDBRANCH  51  53
ENDBRANCH  50  51
ENDBRANCH  49  50
ENDBRANCH  24  49
BRANCH  21  55
ATOM     55  C   UNK d   0     -23.427 -21.256  22.303  0.00  0.00     0.151 C 
BRANCH  55  56
ATOM     56  C   UNK d   0     -24.673 -20.535  22.002  0.00  0.00     0.143 C 
ATOM     57  O   UNK d   0     -25.707 -21.109  21.610  0.00  0.00    -0.650 OA
BRANCH  56  58
ATOM     58  O   UNK d   0     -24.677 -19.151  22.167  0.00  0.00    -0.776 OA
ATOM     59  H   UNK d   0     -24.898 -18.827  23.126  0.00  0.00     0.167 HD
ENDBRANCH  56  58
ENDBRANCH  55  56
ENDBRANCH  21  55
BRANCH  18  60
ATOM     60  C   UNK d   0     -24.589 -20.339  17.144  0.00  0.00     0.151 C 
BRANCH  60  61
ATOM     61  C   UNK d   0     -25.780 -20.734  17.910  0.00  0.00     0.143 C 
ATOM     62  O   UNK d   0     -26.433 -21.770  17.785  0.00  0.00    -0.650 OA
BRANCH  61  63
ATOM     63  O   UNK d   0     -26.201 -19.804  18.891  0.00  0.00    -0.776 OA
ATOM     64  H   UNK d   0     -27.170 -19.718  19.143  0.00  0.00     0.167 HD
ENDBRANCH  61  63
ENDBRANCH  60  61
ENDBRANCH  18  60
BRANCH  14  65
ATOM     65  C   UNK d   0     -24.236 -21.590  14.401  0.00  0.00     0.052 C 
BRANCH  65  66
ATOM     66  C   UNK d   0     -25.574 -22.115  14.019  0.00  0.00     0.115 C 
BRANCH  66  67
ATOM     67  C   UNK d   0     -25.786 -22.626  12.694  0.00  0.00     0.139 C 
ATOM     68  O   UNK d   0     -26.617 -23.594  12.535  0.00  0.00    -0.650 OA
BRANCH  67  69
ATOM     69  O   UNK d   0     -25.188 -22.199  11.509  0.00  0.00    -0.776 OA
ATOM     70  H   UNK d   0     -25.011 -21.187  11.436  0.00  0.00     0.167 HD
ENDBRANCH  67  69
ENDBRANCH  66  67
ENDBRANCH  65  66
ENDBRANCH  14  65
ENDBRANCH   6   7
ENDBRANCH   5   6
ENDBRANCH   2   5
TORSDOF 28
ENDMDL
MODEL 16
REMARK VINA RESULT:      -7.8      2.143     10.308
REMARK  28 active torsions:
REMARK  status: ('A' for Active; 'I' for Inactive)
REMARK    1  A    between atoms: C_2  and  O_3 
REMARK    2  A    between atoms: C_2  and  C_4 
REMARK    3  A    between atoms: C_4  and  C_5 
REMARK    4  A    between atoms: C_5  and  C_6 
REMARK    5  A    between atoms: C_7  and  C_8 
REMARK    6  A    between atoms: C_8  and  C_9 
REMARK    7  A    between atoms: C_9  and  O_11 
REMARK    8  A    between atoms: C_28  and  C_29 
REMARK    9  A    between atoms: C_29  and  C_30 
REMARK   10  A    between atoms: C_30  and  O_32 
REMARK   11  A    between atoms: C_33  and  C_34 
REMARK   12  A    between atoms: C_34  and  C_35 
REMARK   13  A    between atoms: C_35  and  C_36 
REMARK   14  A    between atoms: C_36  and  O_38 
REMARK   15  A    between atoms: C_39  and  C_40 
REMARK   16  A    between atoms: C_40  and  C_41 
REMARK   17  A    between atoms: C_41  and  C_42 
REMARK   18  A    between atoms: C_42  and  O_44 
REMARK   19  A    between atoms: C_45  and  C_46 
REMARK   20  A    between atoms: C_46  and  C_47 
REMARK   21  A    between atoms: C_47  and  O_49 
REMARK   22  A    between atoms: C_50  and  C_51 
REMARK   23  A    between atoms: C_51  and  C_52 
REMARK   24  A    between atoms: C_52  and  O_54 
REMARK   25  A    between atoms: C_55  and  C_56 
REMARK   26  A    between atoms: C_56  and  C_57 
REMARK   27  A    between atoms: C_57  and  C_58 
REMARK   28  A    between atoms: C_58  and  O_60 
ROOT
ATOM      1  O   UNK d   0     -26.014 -26.552  22.493  0.00  0.00    -0.650 OA
ATOM      2  C   UNK d   0     -26.144 -25.391  22.045  0.00  0.00     0.139 C 
ENDROOT
BRANCH   2   3
ATOM      3  O   UNK d   0     -26.716 -24.425  22.837  0.00  0.00    -0.776 OA
ATOM      4  H   UNK d   0     -27.234 -23.645  22.427  0.00  0.00     0.167 HD
ENDBRANCH   2   3
BRANCH   2   5
ATOM      5  C   UNK d   0     -25.683 -25.064  20.666  0.00  0.00     0.115 C 
BRANCH   5   6
ATOM      6  C   UNK d   0     -24.339 -25.688  20.408  0.00  0.00     0.052 C 
BRANCH   6   7
ATOM      7  C   UNK d   0     -23.366 -25.461  21.540  0.00  0.00    -0.020 A 
ATOM      8  C   UNK d   0     -22.706 -26.364  22.220  0.00  0.00    -0.011 A 
ATOM      9  C   UNK d   0     -21.900 -25.673  23.213  0.00  0.00     0.067 A 
ATOM     10  C   UNK d   0     -20.982 -26.044  24.208  0.00  0.00     0.062 C 
ATOM     11  N   UNK d   0     -22.135 -24.352  23.070  0.00  0.00    -0.248 NA
ATOM     12  C   UNK d   0     -20.088 -25.211  24.888  0.00  0.00     0.041 A 
ATOM     13  N   UNK d   0     -20.248 -23.982  25.416  0.00  0.00    -0.355 N 
ATOM     14  C   UNK d   0     -18.754 -25.629  25.047  0.00  0.00    -0.022 A 
ATOM     15  C   UNK d   0     -19.048 -23.606  25.898  0.00  0.00     0.042 A 
ATOM     16  H   UNK d   0     -21.194 -23.400  25.464  0.00  0.00     0.166 HD
ATOM     17  C   UNK d   0     -18.656 -22.420  26.549  0.00  0.00     0.062 C 
ATOM     18  C   UNK d   0     -18.086 -24.613  25.685  0.00  0.00    -0.013 A 
ATOM     19  C   UNK d   0     -18.953 -21.121  26.227  0.00  0.00     0.067 A 
ATOM     20  N   UNK d   0     -19.893 -20.928  25.298  0.00  0.00    -0.248 NA
ATOM     21  C   UNK d   0     -18.483 -19.808  26.639  0.00  0.00    -0.011 A 
ATOM     22  C   UNK d   0     -20.070 -19.585  25.071  0.00  0.00     0.066 A 
ATOM     23  C   UNK d   0     -21.049 -19.239  24.151  0.00  0.00     0.062 C 
ATOM     24  C   UNK d   0     -19.138 -18.914  25.955  0.00  0.00    -0.020 A 
ATOM     25  C   UNK d   0     -21.946 -20.091  23.488  0.00  0.00     0.041 A 
ATOM     26  N   UNK d   0     -21.784 -21.306  22.950  0.00  0.00    -0.355 N 
ATOM     27  C   UNK d   0     -23.286 -19.673  23.333  0.00  0.00    -0.022 A 
ATOM     28  C   UNK d   0     -22.977 -21.679  22.461  0.00  0.00     0.042 A 
ATOM     29  H   UNK d   0     -20.829 -21.885  22.893  0.00  0.00     0.166 HD
ATOM     30  C   UNK d   0     -23.379 -22.852  21.803  0.00  0.00     0.062 C 
ATOM     31  C   UNK d   0     -23.945 -20.671  22.685  0.00  0.00    -0.013 A 
ATOM     32  C   UNK d   0     -23.007 -24.158  22.080  0.00  0.00     0.066 A 
BRANCH   8  33
ATOM     33  C   UNK d   0     -22.760 -27.826  22.033  0.00  0.00     0.151 C 
BRANCH  33  34
ATOM     34  C   UNK d   0     -23.070 -28.549  23.280  0.00  0.00     0.143 C 
ATOM     35  O   UNK d   0     -22.199 -29.206  23.868  0.00  0.00    -0.650 OA
BRANCH  34  36
ATOM     36  O   UNK d   0     -24.345 -28.493  23.794  0.00  0.00    -0.776 OA
ATOM     37  H   UNK d   0     -25.118 -29.018  23.364  0.00  0.00     0.167 HD
ENDBRANCH  34  36
ENDBRANCH  33  34
ENDBRANCH   8  33
BRANCH  31  38
ATOM     38  C   UNK d   0     -25.409 -20.677  22.312  0.00  0.00     0.151 C 
BRANCH  38  39
ATOM     39  C   UNK d   0     -26.254 -21.205  23.362  0.00  0.00     0.143 C 
ATOM     40  O   UNK d   0     -27.446 -21.502  23.170  0.00  0.00    -0.650 OA
BRANCH  39  41
ATOM     41  O   UNK d   0     -25.726 -21.394  24.639  0.00  0.00    -0.776 OA
ATOM     42  H   UNK d   0     -24.812 -21.854  24.697  0.00  0.00     0.167 HD
ENDBRANCH  39  41
ENDBRANCH  38  39
ENDBRANCH  31  38
BRANCH  27  43
ATOM     43  C   UNK d   0     -23.944 -18.387  23.767  0.00  0.00     0.052 C 
BRANCH  43  44
ATOM     44  C   UNK d   0     -23.533 -17.207  22.948  0.00  0.00     0.115 C 
BRANCH  44  45
ATOM     45  C   UNK d   0     -24.659 -16.238  23.004  0.00  0.00     0.139 C 
ATOM     46  O   UNK d   0     -24.974 -15.761  24.122  0.00  0.00    -0.650 OA
BRANCH  45  47
ATOM     47  O   UNK d   0     -25.360 -15.843  21.886  0.00  0.00    -0.776 OA
ATOM     48  H   UNK d   0     -26.135 -15.161  21.922  0.00  0.00     0.167 HD
ENDBRANCH  45  47
ENDBRANCH  44  45
ENDBRANCH  43  44
ENDBRANCH  27  43
BRANCH  24  49
ATOM     49  C   UNK d   0     -19.003 -17.453  26.084  0.00  0.00     0.052 C 
BRANCH  49  50
ATOM     50  C   UNK d   0     -19.180 -17.034  27.521  0.00  0.00     0.115 C 
BRANCH  50  51
ATOM     51  C   UNK d   0     -18.229 -16.067  28.053  0.00  0.00     0.139 C 
ATOM     52  O   UNK d   0     -18.587 -15.029  28.658  0.00  0.00    -0.650 OA
BRANCH  51  53
ATOM     53  O   UNK d   0     -16.869 -16.283  27.894  0.00  0.00    -0.776 OA
ATOM     54  H   UNK d   0     -16.573 -17.103  27.394  0.00  0.00     0.167 HD
ENDBRANCH  51  53
ENDBRANCH  50  51
ENDBRANCH  49  50
ENDBRANCH  24  49
BRANCH  21  55
ATOM     55  C   UNK d   0     -17.432 -19.585  27.675  0.00  0.00     0.151 C 
BRANCH  55  56
ATOM     56  C   UNK d   0     -17.447 -20.630  28.710  0.00  0.00     0.143 C 
ATOM     57  O   UNK d   0     -18.327 -20.695  29.591  0.00  0.00    -0.650 OA
BRANCH  56  58
ATOM     58  O   UNK d   0     -16.426 -21.579  28.689  0.00  0.00    -0.776 OA
ATOM     59  H   UNK d   0     -16.739 -22.559  28.815  0.00  0.00     0.167 HD
ENDBRANCH  56  58
ENDBRANCH  55  56
ENDBRANCH  21  55
BRANCH  18  60
ATOM     60  C   UNK d   0     -16.622 -24.636  26.048  0.00  0.00     0.151 C 
BRANCH  60  61
ATOM     61  C   UNK d   0     -16.560 -25.092  27.445  0.00  0.00     0.143 C 
ATOM     62  O   UNK d   0     -17.476 -25.582  28.107  0.00  0.00    -0.650 OA
BRANCH  61  63
ATOM     63  O   UNK d   0     -15.300 -24.942  28.073  0.00  0.00    -0.776 OA
ATOM     64  H   UNK d   0     -14.602 -24.328  27.692  0.00  0.00     0.167 HD
ENDBRANCH  61  63
ENDBRANCH  60  61
ENDBRANCH  18  60
BRANCH  14  65
ATOM     65  C   UNK d   0     -18.094 -26.941  24.733  0.00  0.00     0.052 C 
BRANCH  65  66
ATOM     66  C   UNK d   0     -18.133 -27.280  23.285  0.00  0.00     0.115 C 
BRANCH  66  67
ATOM     67  C   UNK d   0     -17.036 -26.907  22.437  0.00  0.00     0.139 C 
ATOM     68  O   UNK d   0     -16.874 -27.539  21.329  0.00  0.00    -0.650 OA
BRANCH  67  69
ATOM     69  O   UNK d   0     -16.085 -25.912  22.660  0.00  0.00    -0.776 OA
ATOM     70  H   UNK d   0     -16.208 -25.045  22.118  0.00  0.00     0.167 HD
ENDBRANCH  67  69
ENDBRANCH  66  67
ENDBRANCH  65  66
ENDBRANCH  14  65
ENDBRANCH   6   7
ENDBRANCH   5   6
ENDBRANCH   2   5
TORSDOF 28
ENDMDL
MODEL 17
REMARK VINA RESULT:      -7.8      4.958     10.423
REMARK  28 active torsions:
REMARK  status: ('A' for Active; 'I' for Inactive)
REMARK    1  A    between atoms: C_2  and  O_3 
REMARK    2  A    between atoms: C_2  and  C_4 
REMARK    3  A    between atoms: C_4  and  C_5 
REMARK    4  A    between atoms: C_5  and  C_6 
REMARK    5  A    between atoms: C_7  and  C_8 
REMARK    6  A    between atoms: C_8  and  C_9 
REMARK    7  A    between atoms: C_9  and  O_11 
REMARK    8  A    between atoms: C_28  and  C_29 
REMARK    9  A    between atoms: C_29  and  C_30 
REMARK   10  A    between atoms: C_30  and  O_32 
REMARK   11  A    between atoms: C_33  and  C_34 
REMARK   12  A    between atoms: C_34  and  C_35 
REMARK   13  A    between atoms: C_35  and  C_36 
REMARK   14  A    between atoms: C_36  and  O_38 
REMARK   15  A    between atoms: C_39  and  C_40 
REMARK   16  A    between atoms: C_40  and  C_41 
REMARK   17  A    between atoms: C_41  and  C_42 
REMARK   18  A    between atoms: C_42  and  O_44 
REMARK   19  A    between atoms: C_45  and  C_46 
REMARK   20  A    between atoms: C_46  and  C_47 
REMARK   21  A    between atoms: C_47  and  O_49 
REMARK   22  A    between atoms: C_50  and  C_51 
REMARK   23  A    between atoms: C_51  and  C_52 
REMARK   24  A    between atoms: C_52  and  O_54 
REMARK   25  A    between atoms: C_55  and  C_56 
REMARK   26  A    between atoms: C_56  and  C_57 
REMARK   27  A    between atoms: C_57  and  C_58 
REMARK   28  A    between atoms: C_58  and  O_60 
ROOT
ATOM      1  O   UNK d   0     -18.745 -30.680  15.995  0.00  0.00    -0.650 OA
ATOM      2  C   UNK d   0     -19.755 -31.378  15.754  0.00  0.00     0.139 C 
ENDROOT
BRANCH   2   3
ATOM      3  O   UNK d   0     -20.077 -32.412  16.599  0.00  0.00    -0.776 OA
ATOM      4  H   UNK d   0     -21.009 -32.488  17.010  0.00  0.00     0.167 HD
ENDBRANCH   2   3
BRANCH   2   5
ATOM      5  C   UNK d   0     -20.598 -31.087  14.560  0.00  0.00     0.115 C 
BRANCH   5   6
ATOM      6  C   UNK d   0     -21.997 -30.733  14.987  0.00  0.00     0.052 C 
BRANCH   6   7
ATOM      7  C   UNK d   0     -22.153 -29.266  15.309  0.00  0.00    -0.020 A 
ATOM      8  C   UNK d   0     -22.227 -28.268  14.466  0.00  0.00    -0.011 A 
ATOM      9  C   UNK d   0     -22.363 -27.043  15.237  0.00  0.00     0.067 A 
ATOM     10  C   UNK d   0     -22.508 -25.677  14.951  0.00  0.00     0.062 C 
ATOM     11  N   UNK d   0     -22.357 -27.389  16.542  0.00  0.00    -0.248 NA
ATOM     12  C   UNK d   0     -22.907 -24.664  15.830  0.00  0.00     0.041 A 
ATOM     13  N   UNK d   0     -22.568 -24.417  17.110  0.00  0.00    -0.355 N 
ATOM     14  C   UNK d   0     -23.868 -23.731  15.401  0.00  0.00    -0.022 A 
ATOM     15  C   UNK d   0     -23.295 -23.355  17.506  0.00  0.00     0.042 A 
ATOM     16  H   UNK d   0     -21.815 -24.970  17.714  0.00  0.00     0.166 HD
ATOM     17  C   UNK d   0     -23.330 -22.683  18.744  0.00  0.00     0.062 C 
ATOM     18  C   UNK d   0     -24.122 -22.897  16.462  0.00  0.00    -0.013 A 
ATOM     19  C   UNK d   0     -23.374 -23.210  20.010  0.00  0.00     0.067 A 
ATOM     20  N   UNK d   0     -23.161 -24.523  20.127  0.00  0.00    -0.248 NA
ATOM     21  C   UNK d   0     -23.621 -22.696  21.347  0.00  0.00    -0.011 A 
ATOM     22  C   UNK d   0     -23.252 -24.905  21.443  0.00  0.00     0.066 A 
ATOM     23  C   UNK d   0     -23.013 -26.245  21.714  0.00  0.00     0.062 C 
ATOM     24  C   UNK d   0     -23.552 -23.694  22.180  0.00  0.00    -0.020 A 
ATOM     25  C   UNK d   0     -22.600 -27.243  20.818  0.00  0.00     0.041 A 
ATOM     26  N   UNK d   0     -22.948 -27.498  19.551  0.00  0.00    -0.355 N 
ATOM     27  C   UNK d   0     -21.632 -28.177  21.247  0.00  0.00    -0.022 A 
ATOM     28  C   UNK d   0     -22.231 -28.562  19.156  0.00  0.00     0.042 A 
ATOM     29  H   UNK d   0     -23.712 -26.948  18.948  0.00  0.00     0.166 HD
ATOM     30  C   UNK d   0     -22.193 -29.246  17.931  0.00  0.00     0.062 C 
ATOM     31  C   UNK d   0     -21.393 -29.015  20.202  0.00  0.00    -0.013 A 
ATOM     32  C   UNK d   0     -22.234 -28.712  16.652  0.00  0.00     0.066 A 
BRANCH   8  33
ATOM     33  C   UNK d   0     -22.178 -28.346  12.994  0.00  0.00     0.151 C 
BRANCH  33  34
ATOM     34  C   UNK d   0     -20.819 -28.151  12.458  0.00  0.00     0.143 C 
ATOM     35  O   UNK d   0     -19.927 -27.644  13.153  0.00  0.00    -0.650 OA
BRANCH  34  36
ATOM     36  O   UNK d   0     -20.540 -28.537  11.167  0.00  0.00    -0.776 OA
ATOM     37  H   UNK d   0     -21.113 -29.244  10.685  0.00  0.00     0.167 HD
ENDBRANCH  34  36
ENDBRANCH  33  34
ENDBRANCH   8  33
BRANCH  31  38
ATOM     38  C   UNK d   0     -20.417 -30.168  20.190  0.00  0.00     0.151 C 
BRANCH  38  39
ATOM     39  C   UNK d   0     -19.058 -29.752  19.915  0.00  0.00     0.143 C 
ATOM     40  O   UNK d   0     -18.299 -29.328  20.804  0.00  0.00    -0.650 OA
BRANCH  39  41
ATOM     41  O   UNK d   0     -18.569 -29.823  18.611  0.00  0.00    -0.776 OA
ATOM     42  H   UNK d   0     -17.597 -29.534  18.466  0.00  0.00     0.167 HD
ENDBRANCH  39  41
ENDBRANCH  38  39
ENDBRANCH  31  38
BRANCH  27  43
ATOM     43  C   UNK d   0     -20.946 -28.300  22.585  0.00  0.00     0.052 C 
BRANCH  43  44
ATOM     44  C   UNK d   0     -21.627 -29.252  23.513  0.00  0.00     0.115 C 
BRANCH  44  45
ATOM     45  C   UNK d   0     -20.587 -30.204  23.983  0.00  0.00     0.139 C 
ATOM     46  O   UNK d   0     -19.858 -29.856  24.945  0.00  0.00    -0.650 OA
BRANCH  45  47
ATOM     47  O   UNK d   0     -20.397 -31.444  23.414  0.00  0.00    -0.776 OA
ATOM     48  H   UNK d   0     -21.155 -32.139  23.318  0.00  0.00     0.167 HD
ENDBRANCH  45  47
ENDBRANCH  44  45
ENDBRANCH  43  44
ENDBRANCH  27  43
BRANCH  24  49
ATOM     49  C   UNK d   0     -23.701 -23.615  23.644  0.00  0.00     0.052 C 
BRANCH  49  50
ATOM     50  C   UNK d   0     -25.038 -24.168  24.065  0.00  0.00     0.115 C 
BRANCH  50  51
ATOM     51  C   UNK d   0     -26.152 -23.233  24.138  0.00  0.00     0.139 C 
ATOM     52  O   UNK d   0     -27.155 -23.315  23.389  0.00  0.00    -0.650 OA
BRANCH  51  53
ATOM     53  O   UNK d   0     -26.122 -22.200  25.062  0.00  0.00    -0.776 OA
ATOM     54  H   UNK d   0     -26.088 -22.437  26.038  0.00  0.00     0.167 HD
ENDBRANCH  51  53
ENDBRANCH  50  51
ENDBRANCH  49  50
ENDBRANCH  24  49
BRANCH  21  55
ATOM     55  C   UNK d   0     -23.896 -21.261  21.653  0.00  0.00     0.151 C 
BRANCH  55  56
ATOM     56  C   UNK d   0     -25.262 -20.868  21.273  0.00  0.00     0.143 C 
ATOM     57  O   UNK d   0     -25.588 -20.612  20.097  0.00  0.00    -0.650 OA
BRANCH  56  58
ATOM     58  O   UNK d   0     -26.218 -20.783  22.284  0.00  0.00    -0.776 OA
ATOM     59  H   UNK d   0     -26.362 -21.657  22.822  0.00  0.00     0.167 HD
ENDBRANCH  56  58
ENDBRANCH  55  56
ENDBRANCH  21  55
BRANCH  18  60
ATOM     60  C   UNK d   0     -25.101 -21.750  16.445  0.00  0.00     0.151 C 
BRANCH  60  61
ATOM     61  C   UNK d   0     -24.358 -20.593  15.921  0.00  0.00     0.143 C 
ATOM     62  O   UNK d   0     -23.518 -19.919  16.517  0.00  0.00    -0.650 OA
BRANCH  61  63
ATOM     63  O   UNK d   0     -24.661 -20.238  14.584  0.00  0.00    -0.776 OA
ATOM     64  H   UNK d   0     -24.522 -19.300  14.253  0.00  0.00     0.167 HD
ENDBRANCH  61  63
ENDBRANCH  60  61
ENDBRANCH  18  60
BRANCH  14  65
ATOM     65  C   UNK d   0     -24.484 -23.508  14.050  0.00  0.00     0.052 C 
BRANCH  65  66
ATOM     66  C   UNK d   0     -25.834 -24.119  13.918  0.00  0.00     0.115 C 
BRANCH  66  67
ATOM     67  C   UNK d   0     -26.043 -25.188  12.982  0.00  0.00     0.139 C 
ATOM     68  O   UNK d   0     -27.244 -25.443  12.601  0.00  0.00    -0.650 OA
BRANCH  67  69
ATOM     69  O   UNK d   0     -25.082 -26.020  12.408  0.00  0.00    -0.776 OA
ATOM     70  H   UNK d   0     -25.444 -26.780  11.815  0.00  0.00     0.167 HD
ENDBRANCH  67  69
ENDBRANCH  66  67
ENDBRANCH  65  66
ENDBRANCH  14  65
ENDBRANCH   6   7
ENDBRANCH   5   6
ENDBRANCH   2   5
TORSDOF 28
ENDMDL
MODEL 18
REMARK VINA RESULT:      -7.8      4.258     10.262
REMARK  28 active torsions:
REMARK  status: ('A' for Active; 'I' for Inactive)
REMARK    1  A    between atoms: C_2  and  O_3 
REMARK    2  A    between atoms: C_2  and  C_4 
REMARK    3  A    between atoms: C_4  and  C_5 
REMARK    4  A    between atoms: C_5  and  C_6 
REMARK    5  A    between atoms: C_7  and  C_8 
REMARK    6  A    between atoms: C_8  and  C_9 
REMARK    7  A    between atoms: C_9  and  O_11 
REMARK    8  A    between atoms: C_28  and  C_29 
REMARK    9  A    between atoms: C_29  and  C_30 
REMARK   10  A    between atoms: C_30  and  O_32 
REMARK   11  A    between atoms: C_33  and  C_34 
REMARK   12  A    between atoms: C_34  and  C_35 
REMARK   13  A    between atoms: C_35  and  C_36 
REMARK   14  A    between atoms: C_36  and  O_38 
REMARK   15  A    between atoms: C_39  and  C_40 
REMARK   16  A    between atoms: C_40  and  C_41 
REMARK   17  A    between atoms: C_41  and  C_42 
REMARK   18  A    between atoms: C_42  and  O_44 
REMARK   19  A    between atoms: C_45  and  C_46 
REMARK   20  A    between atoms: C_46  and  C_47 
REMARK   21  A    between atoms: C_47  and  O_49 
REMARK   22  A    between atoms: C_50  and  C_51 
REMARK   23  A    between atoms: C_51  and  C_52 
REMARK   24  A    between atoms: C_52  and  O_54 
REMARK   25  A    between atoms: C_55  and  C_56 
REMARK   26  A    between atoms: C_56  and  C_57 
REMARK   27  A    between atoms: C_57  and  C_58 
REMARK   28  A    between atoms: C_58  and  O_60 
ROOT
ATOM      1  O   UNK d   0     -18.809 -32.070  16.045  0.00  0.00    -0.650 OA
ATOM      2  C   UNK d   0     -19.209 -31.477  17.071  0.00  0.00     0.139 C 
ENDROOT
BRANCH   2   3
ATOM      3  O   UNK d   0     -18.521 -30.377  17.525  0.00  0.00    -0.776 OA
ATOM      4  H   UNK d   0     -17.978 -29.794  16.885  0.00  0.00     0.167 HD
ENDBRANCH   2   3
BRANCH   2   5
ATOM      5  C   UNK d   0     -20.419 -31.963  17.793  0.00  0.00     0.115 C 
BRANCH   5   6
ATOM      6  C   UNK d   0     -21.661 -31.595  17.027  0.00  0.00     0.052 C 
BRANCH   6   7
ATOM      7  C   UNK d   0     -21.821 -30.103  16.860  0.00  0.00    -0.020 A 
ATOM      8  C   UNK d   0     -21.810 -29.418  15.745  0.00  0.00    -0.011 A 
ATOM      9  C   UNK d   0     -21.991 -28.016  16.082  0.00  0.00     0.067 A 
ATOM     10  C   UNK d   0     -22.090 -26.809  15.373  0.00  0.00     0.062 C 
ATOM     11  N   UNK d   0     -22.097 -27.937  17.426  0.00  0.00    -0.248 NA
ATOM     12  C   UNK d   0     -22.545 -25.577  15.857  0.00  0.00     0.041 A 
ATOM     13  N   UNK d   0     -22.308 -24.939  17.019  0.00  0.00    -0.355 N 
ATOM     14  C   UNK d   0     -23.453 -24.834  15.080  0.00  0.00    -0.022 A 
ATOM     15  C   UNK d   0     -23.049 -23.815  17.003  0.00  0.00     0.042 A 
ATOM     16  H   UNK d   0     -21.617 -25.267  17.826  0.00  0.00     0.166 HD
ATOM     17  C   UNK d   0     -23.175 -22.791  17.963  0.00  0.00     0.062 C 
ATOM     18  C   UNK d   0     -23.781 -23.715  15.804  0.00  0.00    -0.013 A 
ATOM     19  C   UNK d   0     -23.332 -22.896  19.321  0.00  0.00     0.067 A 
ATOM     20  N   UNK d   0     -23.149 -24.105  19.859  0.00  0.00    -0.248 NA
ATOM     21  C   UNK d   0     -23.680 -21.994  20.406  0.00  0.00    -0.011 A 
ATOM     22  C   UNK d   0     -23.353 -24.059  21.216  0.00  0.00     0.066 A 
ATOM     23  C   UNK d   0     -23.157 -25.244  21.910  0.00  0.00     0.062 C 
ATOM     24  C   UNK d   0     -23.694 -22.681  21.512  0.00  0.00    -0.020 A 
ATOM     25  C   UNK d   0     -22.688 -26.467  21.407  0.00  0.00     0.041 A 
ATOM     26  N   UNK d   0     -22.934 -27.109  20.259  0.00  0.00    -0.355 N 
ATOM     27  C   UNK d   0     -21.773 -27.210  22.185  0.00  0.00    -0.022 A 
ATOM     28  C   UNK d   0     -22.204 -28.235  20.276  0.00  0.00     0.042 A 
ATOM     29  H   UNK d   0     -23.638 -26.783  19.454  0.00  0.00     0.166 HD
ATOM     30  C   UNK d   0     -22.076 -29.266  19.333  0.00  0.00     0.062 C 
ATOM     31  C   UNK d   0     -21.461 -28.329  21.477  0.00  0.00    -0.013 A 
ATOM     32  C   UNK d   0     -22.003 -29.159  17.953  0.00  0.00     0.066 A 
BRANCH   8  33
ATOM     33  C   UNK d   0     -21.642 -29.951  14.381  0.00  0.00     0.151 C 
BRANCH  33  34
ATOM     34  C   UNK d   0     -20.361 -29.554  13.768  0.00  0.00     0.143 C 
ATOM     35  O   UNK d   0     -20.296 -29.260  12.565  0.00  0.00    -0.650 OA
BRANCH  34  36
ATOM     36  O   UNK d   0     -19.225 -29.512  14.542  0.00  0.00    -0.776 OA
ATOM     37  H   UNK d   0     -18.845 -30.363  14.980  0.00  0.00     0.167 HD
ENDBRANCH  34  36
ENDBRANCH  33  34
ENDBRANCH   8  33
BRANCH  31  38
ATOM     38  C   UNK d   0     -20.505 -29.418  21.905  0.00  0.00     0.151 C 
BRANCH  38  39
ATOM     39  C   UNK d   0     -19.146 -29.175  21.470  0.00  0.00     0.143 C 
ATOM     40  O   UNK d   0     -18.775 -29.378  20.300  0.00  0.00    -0.650 OA
BRANCH  39  41
ATOM     41  O   UNK d   0     -18.208 -28.697  22.384  0.00  0.00    -0.776 OA
ATOM     42  H   UNK d   0     -17.245 -28.595  22.047  0.00  0.00     0.167 HD
ENDBRANCH  39  41
ENDBRANCH  38  39
ENDBRANCH  31  38
BRANCH  27  43
ATOM     43  C   UNK d   0     -21.201 -26.901  23.546  0.00  0.00     0.052 C 
BRANCH  43  44
ATOM     44  C   UNK d   0     -20.049 -25.950  23.501  0.00  0.00     0.115 C 
BRANCH  44  45
ATOM     45  C   UNK d   0     -19.242 -26.203  24.723  0.00  0.00     0.139 C 
ATOM     46  O   UNK d   0     -18.646 -27.304  24.822  0.00  0.00    -0.650 OA
BRANCH  45  47
ATOM     47  O   UNK d   0     -19.118 -25.281  25.740  0.00  0.00    -0.776 OA
ATOM     48  H   UNK d   0     -18.663 -24.363  25.612  0.00  0.00     0.167 HD
ENDBRANCH  45  47
ENDBRANCH  44  45
ENDBRANCH  43  44
ENDBRANCH  27  43
BRANCH  24  49
ATOM     49  C   UNK d   0     -23.962 -22.151  22.860  0.00  0.00     0.052 C 
BRANCH  49  50
ATOM     50  C   UNK d   0     -25.441 -22.175  23.149  0.00  0.00     0.115 C 
BRANCH  50  51
ATOM     51  C   UNK d   0     -25.942 -23.277  23.960  0.00  0.00     0.139 C 
ATOM     52  O   UNK d   0     -26.532 -24.266  23.467  0.00  0.00    -0.650 OA
BRANCH  51  53
ATOM     53  O   UNK d   0     -25.772 -23.248  25.336  0.00  0.00    -0.776 OA
ATOM     54  H   UNK d   0     -25.142 -23.913  25.751  0.00  0.00     0.167 HD
ENDBRANCH  51  53
ENDBRANCH  50  51
ENDBRANCH  49  50
ENDBRANCH  24  49
BRANCH  21  55
ATOM     55  C   UNK d   0     -23.957 -20.538  20.225  0.00  0.00     0.151 C 
BRANCH  55  56
ATOM     56  C   UNK d   0     -25.347 -20.288  19.813  0.00  0.00     0.143 C 
ATOM     57  O   UNK d   0     -26.240 -19.958  20.617  0.00  0.00    -0.650 OA
BRANCH  56  58
ATOM     58  O   UNK d   0     -25.659 -20.432  18.462  0.00  0.00    -0.776 OA
ATOM     59  H   UNK d   0     -26.636 -20.197  18.212  0.00  0.00     0.167 HD
ENDBRANCH  56  58
ENDBRANCH  55  56
ENDBRANCH  21  55
BRANCH  18  60
ATOM     60  C   UNK d   0     -24.738 -22.641  15.349  0.00  0.00     0.151 C 
BRANCH  60  61
ATOM     61  C   UNK d   0     -23.904 -21.487  14.980  0.00  0.00     0.143 C 
ATOM     62  O   UNK d   0     -23.018 -21.454  14.125  0.00  0.00    -0.650 OA
BRANCH  61  63
ATOM     63  O   UNK d   0     -24.168 -20.297  15.701  0.00  0.00    -0.776 OA
ATOM     64  H   UNK d   0     -24.871 -19.649  15.392  0.00  0.00     0.167 HD
ENDBRANCH  61  63
ENDBRANCH  60  61
ENDBRANCH  18  60
BRANCH  14  65
ATOM     65  C   UNK d   0     -23.953 -25.051  13.681  0.00  0.00     0.052 C 
BRANCH  65  66
ATOM     66  C   UNK d   0     -23.022 -24.532  12.643  0.00  0.00     0.115 C 
BRANCH  66  67
ATOM     67  C   UNK d   0     -22.417 -25.440  11.710  0.00  0.00     0.139 C 
ATOM     68  O   UNK d   0     -22.605 -26.702  11.873  0.00  0.00    -0.650 OA
BRANCH  67  69
ATOM     69  O   UNK d   0     -21.622 -25.128  10.608  0.00  0.00    -0.776 OA
ATOM     70  H   UNK d   0     -21.784 -25.694   9.764  0.00  0.00     0.167 HD
ENDBRANCH  67  69
ENDBRANCH  66  67
ENDBRANCH  65  66
ENDBRANCH  14  65
ENDBRANCH   6   7
ENDBRANCH   5   6
ENDBRANCH   2   5
TORSDOF 28
ENDMDL
MODEL 19
REMARK VINA RESULT:      -7.7      5.935     11.802
REMARK  28 active torsions:
REMARK  status: ('A' for Active; 'I' for Inactive)
REMARK    1  A    between atoms: C_2  and  O_3 
REMARK    2  A    between atoms: C_2  and  C_4 
REMARK    3  A    between atoms: C_4  and  C_5 
REMARK    4  A    between atoms: C_5  and  C_6 
REMARK    5  A    between atoms: C_7  and  C_8 
REMARK    6  A    between atoms: C_8  and  C_9 
REMARK    7  A    between atoms: C_9  and  O_11 
REMARK    8  A    between atoms: C_28  and  C_29 
REMARK    9  A    between atoms: C_29  and  C_30 
REMARK   10  A    between atoms: C_30  and  O_32 
REMARK   11  A    between atoms: C_33  and  C_34 
REMARK   12  A    between atoms: C_34  and  C_35 
REMARK   13  A    between atoms: C_35  and  C_36 
REMARK   14  A    between atoms: C_36  and  O_38 
REMARK   15  A    between atoms: C_39  and  C_40 
REMARK   16  A    between atoms: C_40  and  C_41 
REMARK   17  A    between atoms: C_41  and  C_42 
REMARK   18  A    between atoms: C_42  and  O_44 
REMARK   19  A    between atoms: C_45  and  C_46 
REMARK   20  A    between atoms: C_46  and  C_47 
REMARK   21  A    between atoms: C_47  and  O_49 
REMARK   22  A    between atoms: C_50  and  C_51 
REMARK   23  A    between atoms: C_51  and  C_52 
REMARK   24  A    between atoms: C_52  and  O_54 
REMARK   25  A    between atoms: C_55  and  C_56 
REMARK   26  A    between atoms: C_56  and  C_57 
REMARK   27  A    between atoms: C_57  and  C_58 
REMARK   28  A    between atoms: C_58  and  O_60 
ROOT
ATOM      1  O   UNK d   0     -24.362 -32.042  10.015  0.00  0.00    -0.650 OA
ATOM      2  C   UNK d   0     -23.652 -31.122  10.478  0.00  0.00     0.139 C 
ENDROOT
BRANCH   2   3
ATOM      3  O   UNK d   0     -22.464 -31.433  11.094  0.00  0.00    -0.776 OA
ATOM      4  H   UNK d   0     -22.440 -31.742  12.068  0.00  0.00     0.167 HD
ENDBRANCH   2   3
BRANCH   2   5
ATOM      5  C   UNK d   0     -24.096 -29.704  10.361  0.00  0.00     0.115 C 
BRANCH   5   6
ATOM      6  C   UNK d   0     -22.901 -28.791  10.309  0.00  0.00     0.052 C 
BRANCH   6   7
ATOM      7  C   UNK d   0     -22.928 -27.736  11.389  0.00  0.00    -0.020 A 
ATOM      8  C   UNK d   0     -23.015 -26.439  11.237  0.00  0.00    -0.011 A 
ATOM      9  C   UNK d   0     -22.996 -25.834  12.558  0.00  0.00     0.067 A 
ATOM     10  C   UNK d   0     -23.076 -24.531  13.076  0.00  0.00     0.062 C 
ATOM     11  N   UNK d   0     -22.889 -26.835  13.456  0.00  0.00    -0.248 NA
ATOM     12  C   UNK d   0     -23.322 -24.161  14.402  0.00  0.00     0.041 A 
ATOM     13  N   UNK d   0     -22.847 -24.653  15.563  0.00  0.00    -0.355 N 
ATOM     14  C   UNK d   0     -24.255 -23.141  14.662  0.00  0.00    -0.022 A 
ATOM     15  C   UNK d   0     -23.461 -23.977  16.552  0.00  0.00     0.042 A 
ATOM     16  H   UNK d   0     -22.079 -25.449  15.680  0.00  0.00     0.166 HD
ATOM     17  C   UNK d   0     -23.334 -24.089  17.951  0.00  0.00     0.062 C 
ATOM     18  C   UNK d   0     -24.351 -23.021  16.026  0.00  0.00    -0.013 A 
ATOM     19  C   UNK d   0     -23.293 -25.221  18.725  0.00  0.00     0.067 A 
ATOM     20  N   UNK d   0     -23.157 -26.386  18.086  0.00  0.00    -0.248 NA
ATOM     21  C   UNK d   0     -23.377 -25.519  20.145  0.00  0.00    -0.011 A 
ATOM     22  C   UNK d   0     -23.148 -27.424  18.986  0.00  0.00     0.066 A 
ATOM     23  C   UNK d   0     -22.974 -28.695  18.458  0.00  0.00     0.062 C 
ATOM     24  C   UNK d   0     -23.296 -26.810  20.291  0.00  0.00    -0.020 A 
ATOM     25  C   UNK d   0     -22.715 -29.044  17.124  0.00  0.00     0.041 A 
ATOM     26  N   UNK d   0     -23.198 -28.566  15.971  0.00  0.00    -0.355 N 
ATOM     27  C   UNK d   0     -21.775 -30.065  16.864  0.00  0.00    -0.022 A 
ATOM     28  C   UNK d   0     -22.594 -29.244  14.983  0.00  0.00     0.042 A 
ATOM     29  H   UNK d   0     -23.977 -27.773  15.855  0.00  0.00     0.166 HD
ATOM     30  C   UNK d   0     -22.718 -29.149  13.588  0.00  0.00     0.062 C 
ATOM     31  C   UNK d   0     -21.692 -30.198  15.512  0.00  0.00    -0.013 A 
ATOM     32  C   UNK d   0     -22.844 -28.005  12.817  0.00  0.00     0.066 A 
BRANCH   8  33
ATOM     33  C   UNK d   0     -23.111 -25.703   9.963  0.00  0.00     0.151 C 
BRANCH  33  34
ATOM     34  C   UNK d   0     -24.451 -25.132   9.733  0.00  0.00     0.143 C 
ATOM     35  O   UNK d   0     -25.373 -25.831   9.291  0.00  0.00    -0.650 OA
BRANCH  34  36
ATOM     36  O   UNK d   0     -24.676 -23.804  10.013  0.00  0.00    -0.776 OA
ATOM     37  H   UNK d   0     -24.860 -23.124   9.263  0.00  0.00     0.167 HD
ENDBRANCH  34  36
ENDBRANCH  33  34
ENDBRANCH   8  33
BRANCH  31  38
ATOM     38  C   UNK d   0     -20.800 -31.162  14.764  0.00  0.00     0.151 C 
BRANCH  38  39
ATOM     39  C   UNK d   0     -19.506 -30.597  14.445  0.00  0.00     0.143 C 
ATOM     40  O   UNK d   0     -19.355 -29.740  13.556  0.00  0.00    -0.650 OA
BRANCH  39  41
ATOM     41  O   UNK d   0     -18.380 -31.020  15.151  0.00  0.00    -0.776 OA
ATOM     42  H   UNK d   0     -18.531 -31.336  16.114  0.00  0.00     0.167 HD
ENDBRANCH  39  41
ENDBRANCH  38  39
ENDBRANCH  31  38
BRANCH  27  43
ATOM     43  C   UNK d   0     -20.975 -30.901  17.832  0.00  0.00     0.052 C 
BRANCH  43  44
ATOM     44  C   UNK d   0     -19.728 -30.225  18.304  0.00  0.00     0.115 C 
BRANCH  44  45
ATOM     45  C   UNK d   0     -18.748 -31.302  18.599  0.00  0.00     0.139 C 
ATOM     46  O   UNK d   0     -18.144 -31.268  19.700  0.00  0.00    -0.650 OA
BRANCH  45  47
ATOM     47  O   UNK d   0     -18.482 -32.331  17.722  0.00  0.00    -0.776 OA
ATOM     48  H   UNK d   0     -19.060 -32.520  16.887  0.00  0.00     0.167 HD
ENDBRANCH  45  47
ENDBRANCH  44  45
ENDBRANCH  43  44
ENDBRANCH  27  43
BRANCH  24  49
ATOM     49  C   UNK d   0     -23.300 -27.541  21.569  0.00  0.00     0.052 C 
BRANCH  49  50
ATOM     50  C   UNK d   0     -21.906 -28.000  21.915  0.00  0.00     0.115 C 
BRANCH  50  51
ATOM     51  C   UNK d   0     -21.346 -27.532  23.175  0.00  0.00     0.139 C 
ATOM     52  O   UNK d   0     -21.002 -26.341  23.362  0.00  0.00    -0.650 OA
BRANCH  51  53
ATOM     53  O   UNK d   0     -21.175 -28.424  24.224  0.00  0.00    -0.776 OA
ATOM     54  H   UNK d   0     -21.661 -29.302  24.184  0.00  0.00     0.167 HD
ENDBRANCH  51  53
ENDBRANCH  50  51
ENDBRANCH  49  50
ENDBRANCH  24  49
BRANCH  21  55
ATOM     55  C   UNK d   0     -23.526 -24.481  21.208  0.00  0.00     0.151 C 
BRANCH  55  56
ATOM     56  C   UNK d   0     -24.878 -23.902  21.228  0.00  0.00     0.143 C 
ATOM     57  O   UNK d   0     -25.860 -24.497  21.714  0.00  0.00    -0.650 OA
BRANCH  56  58
ATOM     58  O   UNK d   0     -25.048 -22.633  20.677  0.00  0.00    -0.776 OA
ATOM     59  H   UNK d   0     -24.865 -22.571  19.659  0.00  0.00     0.167 HD
ENDBRANCH  56  58
ENDBRANCH  55  56
ENDBRANCH  21  55
BRANCH  18  60
ATOM     60  C   UNK d   0     -25.249 -22.045  16.747  0.00  0.00     0.151 C 
BRANCH  60  61
ATOM     61  C   UNK d   0     -24.398 -20.901  17.105  0.00  0.00     0.143 C 
ATOM     62  O   UNK d   0     -23.866 -20.102  16.333  0.00  0.00    -0.650 OA
BRANCH  61  63
ATOM     63  O   UNK d   0     -24.182 -20.721  18.492  0.00  0.00    -0.776 OA
ATOM     64  H   UNK d   0     -23.317 -20.995  18.922  0.00  0.00     0.167 HD
ENDBRANCH  61  63
ENDBRANCH  60  61
ENDBRANCH  18  60
BRANCH  14  65
ATOM     65  C   UNK d   0     -24.981 -22.214  13.729  0.00  0.00     0.052 C 
BRANCH  65  66
ATOM     66  C   UNK d   0     -26.443 -22.480  13.666  0.00  0.00     0.115 C 
BRANCH  66  67
ATOM     67  C   UNK d   0     -26.914 -23.816  13.430  0.00  0.00     0.139 C 
ATOM     68  O   UNK d   0     -26.543 -24.418  12.356  0.00  0.00    -0.650 OA
BRANCH  67  69
ATOM     69  O   UNK d   0     -27.753 -24.580  14.241  0.00  0.00    -0.776 OA
ATOM     70  H   UNK d   0     -27.784 -25.588  14.029  0.00  0.00     0.167 HD
ENDBRANCH  67  69
ENDBRANCH  66  67
ENDBRANCH  65  66
ENDBRANCH  14  65
ENDBRANCH   6   7
ENDBRANCH   5   6
ENDBRANCH   2   5
TORSDOF 28
ENDMDL
MODEL 20
REMARK VINA RESULT:      -7.6      2.433      4.460
REMARK  28 active torsions:
REMARK  status: ('A' for Active; 'I' for Inactive)
REMARK    1  A    between atoms: C_2  and  O_3 
REMARK    2  A    between atoms: C_2  and  C_4 
REMARK    3  A    between atoms: C_4  and  C_5 
REMARK    4  A    between atoms: C_5  and  C_6 
REMARK    5  A    between atoms: C_7  and  C_8 
REMARK    6  A    between atoms: C_8  and  C_9 
REMARK    7  A    between atoms: C_9  and  O_11 
REMARK    8  A    between atoms: C_28  and  C_29 
REMARK    9  A    between atoms: C_29  and  C_30 
REMARK   10  A    between atoms: C_30  and  O_32 
REMARK   11  A    between atoms: C_33  and  C_34 
REMARK   12  A    between atoms: C_34  and  C_35 
REMARK   13  A    between atoms: C_35  and  C_36 
REMARK   14  A    between atoms: C_36  and  O_38 
REMARK   15  A    between atoms: C_39  and  C_40 
REMARK   16  A    between atoms: C_40  and  C_41 
REMARK   17  A    between atoms: C_41  and  C_42 
REMARK   18  A    between atoms: C_42  and  O_44 
REMARK   19  A    between atoms: C_45  and  C_46 
REMARK   20  A    between atoms: C_46  and  C_47 
REMARK   21  A    between atoms: C_47  and  O_49 
REMARK   22  A    between atoms: C_50  and  C_51 
REMARK   23  A    between atoms: C_51  and  C_52 
REMARK   24  A    between atoms: C_52  and  O_54 
REMARK   25  A    between atoms: C_55  and  C_56 
REMARK   26  A    between atoms: C_56  and  C_57 
REMARK   27  A    between atoms: C_57  and  C_58 
REMARK   28  A    between atoms: C_58  and  O_60 
ROOT
ATOM      1  O   UNK d   0     -19.085 -16.977  23.615  0.00  0.00    -0.650 OA
ATOM      2  C   UNK d   0     -20.251 -17.394  23.434  0.00  0.00     0.139 C 
ENDROOT
BRANCH   2   3
ATOM      3  O   UNK d   0     -21.290 -16.495  23.401  0.00  0.00    -0.776 OA
ATOM      4  H   UNK d   0     -21.130 -15.498  23.560  0.00  0.00     0.167 HD
ENDBRANCH   2   3
BRANCH   2   5
ATOM      5  C   UNK d   0     -20.505 -18.852  23.257  0.00  0.00     0.115 C 
BRANCH   5   6
ATOM      6  C   UNK d   0     -21.441 -19.347  24.326  0.00  0.00     0.052 C 
BRANCH   6   7
ATOM      7  C   UNK d   0     -21.914 -20.759  24.076  0.00  0.00    -0.020 A 
ATOM      8  C   UNK d   0     -23.057 -21.140  23.566  0.00  0.00    -0.011 A 
ATOM      9  C   UNK d   0     -23.065 -22.593  23.527  0.00  0.00     0.067 A 
ATOM     10  C   UNK d   0     -23.953 -23.589  23.091  0.00  0.00     0.062 C 
ATOM     11  N   UNK d   0     -21.889 -23.014  24.037  0.00  0.00    -0.248 NA
ATOM     12  C   UNK d   0     -23.669 -24.942  22.877  0.00  0.00     0.041 A 
ATOM     13  N   UNK d   0     -22.949 -25.822  23.598  0.00  0.00    -0.355 N 
ATOM     14  C   UNK d   0     -24.134 -25.556  21.700  0.00  0.00    -0.022 A 
ATOM     15  C   UNK d   0     -22.938 -26.976  22.905  0.00  0.00     0.042 A 
ATOM     16  H   UNK d   0     -22.474 -25.636  24.587  0.00  0.00     0.166 HD
ATOM     17  C   UNK d   0     -22.335 -28.215  23.204  0.00  0.00     0.062 C 
ATOM     18  C   UNK d   0     -23.670 -26.849  21.709  0.00  0.00    -0.013 A 
ATOM     19  C   UNK d   0     -21.074 -28.467  23.680  0.00  0.00     0.067 A 
ATOM     20  N   UNK d   0     -20.370 -27.419  24.113  0.00  0.00    -0.248 NA
ATOM     21  C   UNK d   0     -20.234 -29.642  23.839  0.00  0.00    -0.011 A 
ATOM     22  C   UNK d   0     -19.130 -27.822  24.542  0.00  0.00     0.066 A 
ATOM     23  C   UNK d   0     -18.303 -26.834  25.056  0.00  0.00     0.062 C 
ATOM     24  C   UNK d   0     -19.096 -29.258  24.341  0.00  0.00    -0.020 A 
ATOM     25  C   UNK d   0     -18.612 -25.482  25.275  0.00  0.00     0.041 A 
ATOM     26  N   UNK d   0     -19.315 -24.604  24.551  0.00  0.00    -0.355 N 
ATOM     27  C   UNK d   0     -18.149 -24.867  26.459  0.00  0.00    -0.022 A 
ATOM     28  C   UNK d   0     -19.320 -23.449  25.235  0.00  0.00     0.042 A 
ATOM     29  H   UNK d   0     -19.783 -24.789  23.552  0.00  0.00     0.166 HD
ATOM     30  C   UNK d   0     -19.908 -22.207  24.946  0.00  0.00     0.062 C 
ATOM     31  C   UNK d   0     -18.593 -23.581  26.442  0.00  0.00    -0.013 A 
ATOM     32  C   UNK d   0     -21.151 -21.959  24.385  0.00  0.00     0.066 A 
BRANCH   8  33
ATOM     33  C   UNK d   0     -24.157 -20.269  23.113  0.00  0.00     0.151 C 
BRANCH  33  34
ATOM     34  C   UNK d   0     -24.502 -20.477  21.695  0.00  0.00     0.143 C 
ATOM     35  O   UNK d   0     -23.621 -20.518  20.825  0.00  0.00    -0.650 OA
BRANCH  34  36
ATOM     36  O   UNK d   0     -25.822 -20.627  21.336  0.00  0.00    -0.776 OA
ATOM     37  H   UNK d   0     -26.446 -21.263  21.849  0.00  0.00     0.167 HD
ENDBRANCH  34  36
ENDBRANCH  33  34
ENDBRANCH   8  33
BRANCH  31  38
ATOM     38  C   UNK d   0     -18.354 -22.542  27.512  0.00  0.00     0.151 C 
BRANCH  38  39
ATOM     39  C   UNK d   0     -19.450 -22.442  28.453  0.00  0.00     0.143 C 
ATOM     40  O   UNK d   0     -19.683 -21.404  29.096  0.00  0.00    -0.650 OA
BRANCH  39  41
ATOM     41  O   UNK d   0     -20.282 -23.543  28.656  0.00  0.00    -0.776 OA
ATOM     42  H   UNK d   0     -19.850 -24.469  28.579  0.00  0.00     0.167 HD
ENDBRANCH  39  41
ENDBRANCH  38  39
ENDBRANCH  31  38
BRANCH  27  43
ATOM     43  C   UNK d   0     -17.318 -25.445  27.577  0.00  0.00     0.052 C 
BRANCH  43  44
ATOM     44  C   UNK d   0     -15.847 -25.304  27.354  0.00  0.00     0.115 C 
BRANCH  44  45
ATOM     45  C   UNK d   0     -15.231 -26.596  27.752  0.00  0.00     0.139 C 
ATOM     46  O   UNK d   0     -14.263 -26.569  28.551  0.00  0.00    -0.650 OA
BRANCH  45  47
ATOM     47  O   UNK d   0     -15.681 -27.813  27.287  0.00  0.00    -0.776 OA
ATOM     48  H   UNK d   0     -15.054 -28.520  26.871  0.00  0.00     0.167 HD
ENDBRANCH  45  47
ENDBRANCH  44  45
ENDBRANCH  43  44
ENDBRANCH  27  43
BRANCH  24  49
ATOM     49  C   UNK d   0     -17.965 -30.131  24.699  0.00  0.00     0.052 C 
BRANCH  49  50
ATOM     50  C   UNK d   0     -18.395 -31.153  25.721  0.00  0.00     0.115 C 
BRANCH  50  51
ATOM     51  C   UNK d   0     -17.751 -32.458  25.666  0.00  0.00     0.139 C 
ATOM     52  O   UNK d   0     -18.241 -33.428  25.041  0.00  0.00    -0.650 OA
BRANCH  51  53
ATOM     53  O   UNK d   0     -16.550 -32.659  26.327  0.00  0.00    -0.776 OA
ATOM     54  H   UNK d   0     -15.773 -33.023  25.803  0.00  0.00     0.167 HD
ENDBRANCH  51  53
ENDBRANCH  50  51
ENDBRANCH  49  50
ENDBRANCH  24  49
BRANCH  21  55
ATOM     55  C   UNK d   0     -20.658 -31.027  23.478  0.00  0.00     0.151 C 
BRANCH  55  56
ATOM     56  C   UNK d   0     -19.900 -31.555  22.333  0.00  0.00     0.143 C 
ATOM     57  O   UNK d   0     -19.719 -30.904  21.286  0.00  0.00    -0.650 OA
BRANCH  56  58
ATOM     58  O   UNK d   0     -19.369 -32.839  22.443  0.00  0.00    -0.776 OA
ATOM     59  H   UNK d   0     -19.679 -33.370  23.276  0.00  0.00     0.167 HD
ENDBRANCH  56  58
ENDBRANCH  55  56
ENDBRANCH  21  55
BRANCH  18  60
ATOM     60  C   UNK d   0     -23.927 -27.867  20.627  0.00  0.00     0.151 C 
BRANCH  60  61
ATOM     61  C   UNK d   0     -22.738 -27.846  19.761  0.00  0.00     0.143 C 
ATOM     62  O   UNK d   0     -21.670 -28.427  19.953  0.00  0.00    -0.650 OA
BRANCH  61  63
ATOM     63  O   UNK d   0     -22.862 -27.065  18.587  0.00  0.00    -0.776 OA
ATOM     64  H   UNK d   0     -22.594 -27.431  17.690  0.00  0.00     0.167 HD
ENDBRANCH  61  63
ENDBRANCH  60  61
ENDBRANCH  18  60
BRANCH  14  65
ATOM     65  C   UNK d   0     -25.055 -25.050  20.626  0.00  0.00     0.052 C 
BRANCH  65  66
ATOM     66  C   UNK d   0     -24.576 -23.790  19.996  0.00  0.00     0.115 C 
BRANCH  66  67
ATOM     67  C   UNK d   0     -23.245 -23.723  19.462  0.00  0.00     0.139 C 
ATOM     68  O   UNK d   0     -22.983 -24.370  18.383  0.00  0.00    -0.650 OA
BRANCH  67  69
ATOM     69  O   UNK d   0     -22.154 -23.023  19.977  0.00  0.00    -0.776 OA
ATOM     70  H   UNK d   0     -21.272 -23.552  20.040  0.00  0.00     0.167 HD
ENDBRANCH  67  69
ENDBRANCH  66  67
ENDBRANCH  65  66
ENDBRANCH  14  65
ENDBRANCH   6   7
ENDBRANCH   5   6
ENDBRANCH   2   5
TORSDOF 28
ENDMDL
