MODEL 1
REMARK VINA RESULT:      -9.6      0.000      0.000
REMARK  28 active torsions:
REMARK  status: ('A' for Active; 'I' for Inactive)
REMARK    1  A    between atoms: C_2  and  O_3 
REMARK    2  A    between atoms: C_2  and  C_4 
REMARK    3  A    between atoms: C_4  and  C_5 
REMARK    4  A    between atoms: C_5  and  C_6 
REMARK    5  A    between atoms: C_7  and  C_8 
REMARK    6  A    between atoms: C_8  and  C_9 
REMARK    7  A    between atoms: C_9  and  O_11 
REMARK    8  A    between atoms: C_28  and  C_29 
REMARK    9  A    between atoms: C_29  and  C_30 
REMARK   10  A    between atoms: C_30  and  O_32 
REMARK   11  A    between atoms: C_33  and  C_34 
REMARK   12  A    between atoms: C_34  and  C_35 
REMARK   13  A    between atoms: C_35  and  C_36 
REMARK   14  A    between atoms: C_36  and  O_38 
REMARK   15  A    between atoms: C_39  and  C_40 
REMARK   16  A    between atoms: C_40  and  C_41 
REMARK   17  A    between atoms: C_41  and  C_42 
REMARK   18  A    between atoms: C_42  and  O_44 
REMARK   19  A    between atoms: C_45  and  C_46 
REMARK   20  A    between atoms: C_46  and  C_47 
REMARK   21  A    between atoms: C_47  and  O_49 
REMARK   22  A    between atoms: C_50  and  C_51 
REMARK   23  A    between atoms: C_51  and  C_52 
REMARK   24  A    between atoms: C_52  and  O_54 
REMARK   25  A    between atoms: C_55  and  C_56 
REMARK   26  A    between atoms: C_56  and  C_57 
REMARK   27  A    between atoms: C_57  and  C_58 
REMARK   28  A    between atoms: C_58  and  O_60 
ROOT
ATOM      1  O   UNK d   0     -24.750  -2.117   5.502  0.00  0.00    -0.650 OA
ATOM      2  C   UNK d   0     -25.864  -2.120   4.932  0.00  0.00     0.139 C 
ENDROOT
BRANCH   2   3
ATOM      3  O   UNK d   0     -26.994  -1.847   5.664  0.00  0.00    -0.776 OA
ATOM      4  H   UNK d   0     -27.506  -2.592   6.141  0.00  0.00     0.167 HD
ENDBRANCH   2   3
BRANCH   2   5
ATOM      5  C   UNK d   0     -25.958  -2.418   3.475  0.00  0.00     0.115 C 
BRANCH   5   6
ATOM      6  C   UNK d   0     -26.045  -3.903   3.255  0.00  0.00     0.052 C 
BRANCH   6   7
ATOM      7  C   UNK d   0     -24.906  -4.434   2.417  0.00  0.00    -0.020 A 
ATOM      8  C   UNK d   0     -24.875  -4.590   1.119  0.00  0.00    -0.011 A 
ATOM      9  C   UNK d   0     -23.576  -5.139   0.767  0.00  0.00     0.067 A 
ATOM     10  C   UNK d   0     -22.919  -5.506  -0.417  0.00  0.00     0.062 C 
ATOM     11  N   UNK d   0     -22.882  -5.290   1.914  0.00  0.00    -0.248 NA
ATOM     12  C   UNK d   0     -21.553  -5.758  -0.585  0.00  0.00     0.041 A 
ATOM     13  N   UNK d   0     -20.678  -6.441   0.177  0.00  0.00    -0.355 N 
ATOM     14  C   UNK d   0     -20.886  -5.194  -1.688  0.00  0.00    -0.022 A 
ATOM     15  C   UNK d   0     -19.472  -6.318  -0.409  0.00  0.00     0.042 A 
ATOM     16  H   UNK d   0     -20.911  -7.016   1.101  0.00  0.00     0.166 HD
ATOM     17  C   UNK d   0     -18.216  -6.833  -0.032  0.00  0.00     0.062 C 
ATOM     18  C   UNK d   0     -19.563  -5.542  -1.581  0.00  0.00    -0.013 A 
ATOM     19  C   UNK d   0     -17.630  -6.857   1.208  0.00  0.00     0.067 A 
ATOM     20  N   UNK d   0     -18.404  -6.537   2.248  0.00  0.00    -0.248 NA
ATOM     21  C   UNK d   0     -16.305  -7.143   1.732  0.00  0.00    -0.011 A 
ATOM     22  C   UNK d   0     -17.681  -6.590   3.415  0.00  0.00     0.066 A 
ATOM     23  C   UNK d   0     -18.375  -6.315   4.584  0.00  0.00     0.062 C 
ATOM     24  C   UNK d   0     -16.340  -6.980   3.024  0.00  0.00    -0.020 A 
ATOM     25  C   UNK d   0     -19.750  -6.076   4.732  0.00  0.00     0.041 A 
ATOM     26  N   UNK d   0     -20.616  -5.385   3.982  0.00  0.00    -0.355 N 
ATOM     27  C   UNK d   0     -20.418  -6.647   5.837  0.00  0.00    -0.022 A 
ATOM     28  C   UNK d   0     -21.818  -5.499   4.570  0.00  0.00     0.042 A 
ATOM     29  H   UNK d   0     -20.378  -4.799   3.060  0.00  0.00     0.166 HD
ATOM     30  C   UNK d   0     -23.074  -4.984   4.211  0.00  0.00     0.062 C 
ATOM     31  C   UNK d   0     -21.728  -6.288   5.741  0.00  0.00    -0.013 A 
ATOM     32  C   UNK d   0     -23.626  -4.884   2.944  0.00  0.00     0.066 A 
BRANCH   8  33
ATOM     33  C   UNK d   0     -25.955  -4.278   0.164  0.00  0.00     0.151 C 
BRANCH  33  34
ATOM     34  C   UNK d   0     -26.441  -5.469  -0.556  0.00  0.00     0.143 C 
ATOM     35  O   UNK d   0     -27.027  -6.381   0.044  0.00  0.00    -0.650 OA
BRANCH  34  36
ATOM     36  O   UNK d   0     -26.240  -5.566  -1.914  0.00  0.00    -0.776 OA
ATOM     37  H   UNK d   0     -26.122  -4.727  -2.498  0.00  0.00     0.167 HD
ENDBRANCH  34  36
ENDBRANCH  33  34
ENDBRANCH   8  33
BRANCH  31  38
ATOM     38  C   UNK d   0     -22.831  -6.679   6.696  0.00  0.00     0.151 C 
BRANCH  38  39
ATOM     39  C   UNK d   0     -23.575  -7.838   6.251  0.00  0.00     0.143 C 
ATOM     40  O   UNK d   0     -24.817  -7.852   6.199  0.00  0.00    -0.650 OA
BRANCH  39  41
ATOM     41  O   UNK d   0     -22.887  -8.986   5.861  0.00  0.00    -0.776 OA
ATOM     42  H   UNK d   0     -23.410  -9.868   5.883  0.00  0.00     0.167 HD
ENDBRANCH  39  41
ENDBRANCH  38  39
ENDBRANCH  31  38
BRANCH  27  43
ATOM     43  C   UNK d   0     -19.870  -7.499   6.953  0.00  0.00     0.052 C 
BRANCH  43  44
ATOM     44  C   UNK d   0     -19.281  -6.701   8.071  0.00  0.00     0.115 C 
BRANCH  44  45
ATOM     45  C   UNK d   0     -17.840  -7.059   8.135  0.00  0.00     0.139 C 
ATOM     46  O   UNK d   0     -17.535  -8.276   8.198  0.00  0.00    -0.650 OA
BRANCH  45  47
ATOM     47  O   UNK d   0     -16.835  -6.117   8.121  0.00  0.00    -0.776 OA
ATOM     48  H   UNK d   0     -16.340  -5.813   8.976  0.00  0.00     0.167 HD
ENDBRANCH  45  47
ENDBRANCH  44  45
ENDBRANCH  43  44
ENDBRANCH  27  43
BRANCH  24  49
ATOM     49  C   UNK d   0     -15.223  -7.203   3.957  0.00  0.00     0.052 C 
BRANCH  49  50
ATOM     50  C   UNK d   0     -14.798  -5.900   4.586  0.00  0.00     0.115 C 
BRANCH  50  51
ATOM     51  C   UNK d   0     -14.029  -4.982   3.758  0.00  0.00     0.139 C 
ATOM     52  O   UNK d   0     -12.780  -5.043   3.660  0.00  0.00    -0.650 OA
BRANCH  51  53
ATOM     53  O   UNK d   0     -14.683  -3.991   3.043  0.00  0.00    -0.776 OA
ATOM     54  H   UNK d   0     -14.929  -3.142   3.522  0.00  0.00     0.167 HD
ENDBRANCH  51  53
ENDBRANCH  50  51
ENDBRANCH  49  50
ENDBRANCH  24  49
BRANCH  21  55
ATOM     55  C   UNK d   0     -15.144  -7.552   0.889  0.00  0.00     0.151 C 
BRANCH  55  56
ATOM     56  C   UNK d   0     -14.580  -6.419   0.140  0.00  0.00     0.143 C 
ATOM     57  O   UNK d   0     -14.976  -6.097  -0.998  0.00  0.00    -0.650 OA
BRANCH  56  58
ATOM     58  O   UNK d   0     -13.560  -5.684   0.744  0.00  0.00    -0.776 OA
ATOM     59  H   UNK d   0     -12.608  -5.889   0.391  0.00  0.00     0.167 HD
ENDBRANCH  56  58
ENDBRANCH  55  56
ENDBRANCH  21  55
BRANCH  18  60
ATOM     60  C   UNK d   0     -18.482  -5.139  -2.553  0.00  0.00     0.151 C 
BRANCH  60  61
ATOM     61  C   UNK d   0     -18.032  -6.383  -3.196  0.00  0.00     0.143 C 
ATOM     62  O   UNK d   0     -18.722  -7.363  -3.480  0.00  0.00    -0.650 OA
BRANCH  61  63
ATOM     63  O   UNK d   0     -16.653  -6.434  -3.512  0.00  0.00    -0.776 OA
ATOM     64  H   UNK d   0     -16.343  -6.612  -4.451  0.00  0.00     0.167 HD
ENDBRANCH  61  63
ENDBRANCH  60  61
ENDBRANCH  18  60
BRANCH  14  65
ATOM     65  C   UNK d   0     -21.417  -4.441  -2.874  0.00  0.00     0.052 C 
BRANCH  65  66
ATOM     66  C   UNK d   0     -21.577  -5.296  -4.081  0.00  0.00     0.115 C 
BRANCH  66  67
ATOM     67  C   UNK d   0     -21.222  -4.777  -5.372  0.00  0.00     0.139 C 
ATOM     68  O   UNK d   0     -19.984  -4.529  -5.615  0.00  0.00    -0.650 OA
BRANCH  67  69
ATOM     69  O   UNK d   0     -22.072  -4.495  -6.442  0.00  0.00    -0.776 OA
ATOM     70  H   UNK d   0     -22.089  -3.513  -6.753  0.00  0.00     0.167 HD
ENDBRANCH  67  69
ENDBRANCH  66  67
ENDBRANCH  65  66
ENDBRANCH  14  65
ENDBRANCH   6   7
ENDBRANCH   5   6
ENDBRANCH   2   5
TORSDOF 28
ENDMDL
MODEL 2
REMARK VINA RESULT:      -9.4      1.984      7.903
REMARK  28 active torsions:
REMARK  status: ('A' for Active; 'I' for Inactive)
REMARK    1  A    between atoms: C_2  and  O_3 
REMARK    2  A    between atoms: C_2  and  C_4 
REMARK    3  A    between atoms: C_4  and  C_5 
REMARK    4  A    between atoms: C_5  and  C_6 
REMARK    5  A    between atoms: C_7  and  C_8 
REMARK    6  A    between atoms: C_8  and  C_9 
REMARK    7  A    between atoms: C_9  and  O_11 
REMARK    8  A    between atoms: C_28  and  C_29 
REMARK    9  A    between atoms: C_29  and  C_30 
REMARK   10  A    between atoms: C_30  and  O_32 
REMARK   11  A    between atoms: C_33  and  C_34 
REMARK   12  A    between atoms: C_34  and  C_35 
REMARK   13  A    between atoms: C_35  and  C_36 
REMARK   14  A    between atoms: C_36  and  O_38 
REMARK   15  A    between atoms: C_39  and  C_40 
REMARK   16  A    between atoms: C_40  and  C_41 
REMARK   17  A    between atoms: C_41  and  C_42 
REMARK   18  A    between atoms: C_42  and  O_44 
REMARK   19  A    between atoms: C_45  and  C_46 
REMARK   20  A    between atoms: C_46  and  C_47 
REMARK   21  A    between atoms: C_47  and  O_49 
REMARK   22  A    between atoms: C_50  and  C_51 
REMARK   23  A    between atoms: C_51  and  C_52 
REMARK   24  A    between atoms: C_52  and  O_54 
REMARK   25  A    between atoms: C_55  and  C_56 
REMARK   26  A    between atoms: C_56  and  C_57 
REMARK   27  A    between atoms: C_57  and  C_58 
REMARK   28  A    between atoms: C_58  and  O_60 
ROOT
ATOM      1  O   UNK d   0     -27.198  -5.264   1.762  0.00  0.00    -0.650 OA
ATOM      2  C   UNK d   0     -26.544  -4.201   1.851  0.00  0.00     0.139 C 
ENDROOT
BRANCH   2   3
ATOM      3  O   UNK d   0     -26.693  -3.236   0.884  0.00  0.00    -0.776 OA
ATOM      4  H   UNK d   0     -25.997  -3.118   0.145  0.00  0.00     0.167 HD
ENDBRANCH   2   3
BRANCH   2   5
ATOM      5  C   UNK d   0     -25.613  -3.988   2.995  0.00  0.00     0.115 C 
BRANCH   5   6
ATOM      6  C   UNK d   0     -25.000  -5.297   3.414  0.00  0.00     0.052 C 
BRANCH   6   7
ATOM      7  C   UNK d   0     -23.490  -5.262   3.400  0.00  0.00    -0.020 A 
ATOM      8  C   UNK d   0     -22.684  -5.188   4.428  0.00  0.00    -0.011 A 
ATOM      9  C   UNK d   0     -21.321  -5.174   3.924  0.00  0.00     0.067 A 
ATOM     10  C   UNK d   0     -20.035  -5.130   4.485  0.00  0.00     0.062 C 
ATOM     11  N   UNK d   0     -21.391  -5.236   2.578  0.00  0.00    -0.248 NA
ATOM     12  C   UNK d   0     -18.822  -5.406   3.845  0.00  0.00     0.041 A 
ATOM     13  N   UNK d   0     -18.363  -5.059   2.627  0.00  0.00    -0.355 N 
ATOM     14  C   UNK d   0     -17.881  -6.226   4.494  0.00  0.00    -0.022 A 
ATOM     15  C   UNK d   0     -17.159  -5.645   2.483  0.00  0.00     0.042 A 
ATOM     16  H   UNK d   0     -18.872  -4.398   1.891  0.00  0.00     0.166 HD
ATOM     17  C   UNK d   0     -16.250  -5.612   1.408  0.00  0.00     0.062 C 
ATOM     18  C   UNK d   0     -16.824  -6.386   3.633  0.00  0.00    -0.013 A 
ATOM     19  C   UNK d   0     -16.496  -5.748   0.065  0.00  0.00     0.067 A 
ATOM     20  N   UNK d   0     -17.774  -5.713  -0.321  0.00  0.00    -0.248 NA
ATOM     21  C   UNK d   0     -15.693  -5.947  -1.129  0.00  0.00    -0.011 A 
ATOM     22  C   UNK d   0     -17.865  -5.876  -1.682  0.00  0.00     0.066 A 
ATOM     23  C   UNK d   0     -19.140  -5.823  -2.226  0.00  0.00     0.062 C 
ATOM     24  C   UNK d   0     -16.500  -6.026  -2.148  0.00  0.00    -0.020 A 
ATOM     25  C   UNK d   0     -20.344  -5.531  -1.567  0.00  0.00     0.041 A 
ATOM     26  N   UNK d   0     -20.807  -5.888  -0.363  0.00  0.00    -0.355 N 
ATOM     27  C   UNK d   0     -21.286  -4.704  -2.217  0.00  0.00    -0.022 A 
ATOM     28  C   UNK d   0     -22.011  -5.312  -0.221  0.00  0.00     0.042 A 
ATOM     29  H   UNK d   0     -20.299  -6.562   0.371  0.00  0.00     0.166 HD
ATOM     30  C   UNK d   0     -22.930  -5.344   0.839  0.00  0.00     0.062 C 
ATOM     31  C   UNK d   0     -22.343  -4.560  -1.372  0.00  0.00    -0.013 A 
ATOM     32  C   UNK d   0     -22.668  -5.292   2.199  0.00  0.00     0.066 A 
BRANCH   8  33
ATOM     33  C   UNK d   0     -23.068  -5.124   5.850  0.00  0.00     0.151 C 
BRANCH  33  34
ATOM     34  C   UNK d   0     -23.147  -6.455   6.480  0.00  0.00     0.143 C 
ATOM     35  O   UNK d   0     -22.926  -7.483   5.825  0.00  0.00    -0.650 OA
BRANCH  34  36
ATOM     36  O   UNK d   0     -23.473  -6.552   7.813  0.00  0.00    -0.776 OA
ATOM     37  H   UNK d   0     -24.348  -7.001   8.118  0.00  0.00     0.167 HD
ENDBRANCH  34  36
ENDBRANCH  33  34
ENDBRANCH   8  33
BRANCH  31  38
ATOM     38  C   UNK d   0     -23.589  -3.746  -1.634  0.00  0.00     0.151 C 
BRANCH  38  39
ATOM     39  C   UNK d   0     -23.534  -2.427  -1.040  0.00  0.00     0.143 C 
ATOM     40  O   UNK d   0     -22.840  -1.511  -1.516  0.00  0.00    -0.650 OA
BRANCH  39  41
ATOM     41  O   UNK d   0     -24.281  -2.160   0.107  0.00  0.00    -0.776 OA
ATOM     42  H   UNK d   0     -24.568  -1.187   0.254  0.00  0.00     0.167 HD
ENDBRANCH  39  41
ENDBRANCH  38  39
ENDBRANCH  31  38
BRANCH  27  43
ATOM     43  C   UNK d   0     -21.218  -4.063  -3.581  0.00  0.00     0.052 C 
BRANCH  43  44
ATOM     44  C   UNK d   0     -21.797  -4.916  -4.664  0.00  0.00     0.115 C 
BRANCH  44  45
ATOM     45  C   UNK d   0     -21.117  -4.520  -5.924  0.00  0.00     0.139 C 
ATOM     46  O   UNK d   0     -19.862  -4.535  -5.950  0.00  0.00    -0.650 OA
BRANCH  45  47
ATOM     47  O   UNK d   0     -21.805  -4.145  -7.058  0.00  0.00    -0.776 OA
ATOM     48  H   UNK d   0     -22.375  -4.805  -7.611  0.00  0.00     0.167 HD
ENDBRANCH  45  47
ENDBRANCH  44  45
ENDBRANCH  43  44
ENDBRANCH  27  43
BRANCH  24  49
ATOM     49  C   UNK d   0     -16.106  -6.188  -3.558  0.00  0.00     0.052 C 
BRANCH  49  50
ATOM     50  C   UNK d   0     -15.551  -4.896  -4.099  0.00  0.00     0.115 C 
BRANCH  50  51
ATOM     51  C   UNK d   0     -14.366  -4.982  -4.943  0.00  0.00     0.139 C 
ATOM     52  O   UNK d   0     -13.206  -5.058  -4.473  0.00  0.00    -0.650 OA
BRANCH  51  53
ATOM     53  O   UNK d   0     -14.504  -4.980  -6.322  0.00  0.00    -0.776 OA
ATOM     54  H   UNK d   0     -14.642  -5.860  -6.787  0.00  0.00     0.167 HD
ENDBRANCH  51  53
ENDBRANCH  50  51
ENDBRANCH  49  50
ENDBRANCH  24  49
BRANCH  21  55
ATOM     55  C   UNK d   0     -14.203  -6.034  -1.129  0.00  0.00     0.151 C 
BRANCH  55  56
ATOM     56  C   UNK d   0     -13.687  -6.646   0.105  0.00  0.00     0.143 C 
ATOM     57  O   UNK d   0     -13.877  -7.843   0.396  0.00  0.00    -0.650 OA
BRANCH  56  58
ATOM     58  O   UNK d   0     -12.955  -5.837   0.974  0.00  0.00    -0.776 OA
ATOM     59  H   UNK d   0     -11.929  -5.976   0.939  0.00  0.00     0.167 HD
ENDBRANCH  56  58
ENDBRANCH  55  56
ENDBRANCH  21  55
BRANCH  18  60
ATOM     60  C   UNK d   0     -15.589  -7.203   3.923  0.00  0.00     0.151 C 
BRANCH  60  61
ATOM     61  C   UNK d   0     -14.565  -6.245   4.366  0.00  0.00     0.143 C 
ATOM     62  O   UNK d   0     -13.724  -5.680   3.666  0.00  0.00    -0.650 OA
BRANCH  61  63
ATOM     63  O   UNK d   0     -14.569  -5.957   5.752  0.00  0.00    -0.776 OA
ATOM     64  H   UNK d   0     -13.712  -5.903   6.273  0.00  0.00     0.167 HD
ENDBRANCH  61  63
ENDBRANCH  60  61
ENDBRANCH  18  60
BRANCH  14  65
ATOM     65  C   UNK d   0     -17.863  -6.784   5.888  0.00  0.00     0.052 C 
BRANCH  65  66
ATOM     66  C   UNK d   0     -19.217  -6.868   6.499  0.00  0.00     0.115 C 
BRANCH  66  67
ATOM     67  C   UNK d   0     -19.388  -6.574   7.894  0.00  0.00     0.139 C 
ATOM     68  O   UNK d   0     -20.551  -6.214   8.307  0.00  0.00    -0.650 OA
BRANCH  67  69
ATOM     69  O   UNK d   0     -18.425  -6.628   8.901  0.00  0.00    -0.776 OA
ATOM     70  H   UNK d   0     -18.692  -7.150   9.749  0.00  0.00     0.167 HD
ENDBRANCH  67  69
ENDBRANCH  66  67
ENDBRANCH  65  66
ENDBRANCH  14  65
ENDBRANCH   6   7
ENDBRANCH   5   6
ENDBRANCH   2   5
TORSDOF 28
ENDMDL
MODEL 3
REMARK VINA RESULT:      -8.9      3.057      6.959
REMARK  28 active torsions:
REMARK  status: ('A' for Active; 'I' for Inactive)
REMARK    1  A    between atoms: C_2  and  O_3 
REMARK    2  A    between atoms: C_2  and  C_4 
REMARK    3  A    between atoms: C_4  and  C_5 
REMARK    4  A    between atoms: C_5  and  C_6 
REMARK    5  A    between atoms: C_7  and  C_8 
REMARK    6  A    between atoms: C_8  and  C_9 
REMARK    7  A    between atoms: C_9  and  O_11 
REMARK    8  A    between atoms: C_28  and  C_29 
REMARK    9  A    between atoms: C_29  and  C_30 
REMARK   10  A    between atoms: C_30  and  O_32 
REMARK   11  A    between atoms: C_33  and  C_34 
REMARK   12  A    between atoms: C_34  and  C_35 
REMARK   13  A    between atoms: C_35  and  C_36 
REMARK   14  A    between atoms: C_36  and  O_38 
REMARK   15  A    between atoms: C_39  and  C_40 
REMARK   16  A    between atoms: C_40  and  C_41 
REMARK   17  A    between atoms: C_41  and  C_42 
REMARK   18  A    between atoms: C_42  and  O_44 
REMARK   19  A    between atoms: C_45  and  C_46 
REMARK   20  A    between atoms: C_46  and  C_47 
REMARK   21  A    between atoms: C_47  and  O_49 
REMARK   22  A    between atoms: C_50  and  C_51 
REMARK   23  A    between atoms: C_51  and  C_52 
REMARK   24  A    between atoms: C_52  and  O_54 
REMARK   25  A    between atoms: C_55  and  C_56 
REMARK   26  A    between atoms: C_56  and  C_57 
REMARK   27  A    between atoms: C_57  and  C_58 
REMARK   28  A    between atoms: C_58  and  O_60 
ROOT
ATOM      1  O   UNK d   0     -27.197  -1.279   4.392  0.00  0.00    -0.650 OA
ATOM      2  C   UNK d   0     -26.715  -2.415   4.185  0.00  0.00     0.139 C 
ENDROOT
BRANCH   2   3
ATOM      3  O   UNK d   0     -27.318  -3.515   4.746  0.00  0.00    -0.776 OA
ATOM      4  H   UNK d   0     -27.228  -4.440   4.321  0.00  0.00     0.167 HD
ENDBRANCH   2   3
BRANCH   2   5
ATOM      5  C   UNK d   0     -25.497  -2.569   3.339  0.00  0.00     0.115 C 
BRANCH   5   6
ATOM      6  C   UNK d   0     -25.363  -3.995   2.881  0.00  0.00     0.052 C 
BRANCH   6   7
ATOM      7  C   UNK d   0     -24.044  -4.613   3.282  0.00  0.00    -0.020 A 
ATOM      8  C   UNK d   0     -23.051  -4.952   2.501  0.00  0.00    -0.011 A 
ATOM      9  C   UNK d   0     -22.001  -5.513   3.334  0.00  0.00     0.067 A 
ATOM     10  C   UNK d   0     -20.712  -6.030   3.128  0.00  0.00     0.062 C 
ATOM     11  N   UNK d   0     -22.442  -5.482   4.609  0.00  0.00    -0.248 NA
ATOM     12  C   UNK d   0     -19.731  -6.271   4.097  0.00  0.00     0.041 A 
ATOM     13  N   UNK d   0     -19.814  -6.816   5.325  0.00  0.00    -0.355 N 
ATOM     14  C   UNK d   0     -18.411  -5.853   3.847  0.00  0.00    -0.022 A 
ATOM     15  C   UNK d   0     -18.582  -6.748   5.864  0.00  0.00     0.042 A 
ATOM     16  H   UNK d   0     -20.720  -7.258   5.794  0.00  0.00     0.166 HD
ATOM     17  C   UNK d   0     -18.110  -7.174   7.122  0.00  0.00     0.062 C 
ATOM     18  C   UNK d   0     -17.676  -6.150   4.967  0.00  0.00    -0.013 A 
ATOM     19  C   UNK d   0     -18.680  -7.007   8.358  0.00  0.00     0.067 A 
ATOM     20  N   UNK d   0     -19.938  -6.559   8.389  0.00  0.00    -0.248 NA
ATOM     21  C   UNK d   0     -18.255  -7.182   9.737  0.00  0.00    -0.011 A 
ATOM     22  C   UNK d   0     -20.366  -6.428   9.687  0.00  0.00     0.066 A 
ATOM     23  C   UNK d   0     -21.675  -6.005   9.865  0.00  0.00     0.062 C 
ATOM     24  C   UNK d   0     -19.245  -6.838  10.510  0.00  0.00    -0.020 A 
ATOM     25  C   UNK d   0     -22.648  -5.781   8.879  0.00  0.00     0.041 A 
ATOM     26  N   UNK d   0     -22.570  -5.225   7.664  0.00  0.00    -0.355 N 
ATOM     27  C   UNK d   0     -23.972  -6.204   9.129  0.00  0.00    -0.022 A 
ATOM     28  C   UNK d   0     -23.799  -5.284   7.128  0.00  0.00     0.042 A 
ATOM     29  H   UNK d   0     -21.660  -4.772   7.198  0.00  0.00     0.166 HD
ATOM     30  C   UNK d   0     -24.284  -4.856   5.882  0.00  0.00     0.062 C 
ATOM     31  C   UNK d   0     -24.707  -5.894   8.026  0.00  0.00    -0.013 A 
ATOM     32  C   UNK d   0     -23.665  -4.951   4.645  0.00  0.00     0.066 A 
BRANCH   8  33
ATOM     33  C   UNK d   0     -22.988  -4.806   1.035  0.00  0.00     0.151 C 
BRANCH  33  34
ATOM     34  C   UNK d   0     -22.976  -6.101   0.332  0.00  0.00     0.143 C 
ATOM     35  O   UNK d   0     -23.982  -6.824   0.311  0.00  0.00    -0.650 OA
BRANCH  34  36
ATOM     36  O   UNK d   0     -21.829  -6.512  -0.308  0.00  0.00    -0.776 OA
ATOM     37  H   UNK d   0     -21.500  -6.048  -1.165  0.00  0.00     0.167 HD
ENDBRANCH  34  36
ENDBRANCH  33  34
ENDBRANCH   8  33
BRANCH  31  38
ATOM     38  C   UNK d   0     -26.178  -6.172   7.828  0.00  0.00     0.151 C 
BRANCH  38  39
ATOM     39  C   UNK d   0     -27.007  -5.012   8.079  0.00  0.00     0.143 C 
ATOM     40  O   UNK d   0     -26.804  -4.244   9.036  0.00  0.00    -0.650 OA
BRANCH  39  41
ATOM     41  O   UNK d   0     -28.074  -4.733   7.226  0.00  0.00    -0.776 OA
ATOM     42  H   UNK d   0     -28.167  -3.765   6.903  0.00  0.00     0.167 HD
ENDBRANCH  39  41
ENDBRANCH  38  39
ENDBRANCH  31  38
BRANCH  27  43
ATOM     43  C   UNK d   0     -24.550  -6.875  10.350  0.00  0.00     0.052 C 
BRANCH  43  44
ATOM     44  C   UNK d   0     -24.225  -8.331  10.434  0.00  0.00     0.115 C 
BRANCH  44  45
ATOM     45  C   UNK d   0     -25.460  -9.064  10.051  0.00  0.00     0.139 C 
ATOM     46  O   UNK d   0     -26.375  -9.168  10.905  0.00  0.00    -0.650 OA
BRANCH  45  47
ATOM     47  O   UNK d   0     -25.641  -9.623   8.805  0.00  0.00    -0.776 OA
ATOM     48  H   UNK d   0     -26.056 -10.559   8.666  0.00  0.00     0.167 HD
ENDBRANCH  45  47
ENDBRANCH  44  45
ENDBRANCH  43  44
ENDBRANCH  27  43
BRANCH  24  49
ATOM     49  C   UNK d   0     -19.259  -6.897  11.981  0.00  0.00     0.052 C 
BRANCH  49  50
ATOM     50  C   UNK d   0     -19.818  -5.619  12.552  0.00  0.00     0.115 C 
BRANCH  50  51
ATOM     51  C   UNK d   0     -20.439  -5.695  13.868  0.00  0.00     0.139 C 
ATOM     52  O   UNK d   0     -19.780  -5.890  14.917  0.00  0.00    -0.650 OA
BRANCH  51  53
ATOM     53  O   UNK d   0     -21.813  -5.551  13.988  0.00  0.00    -0.776 OA
ATOM     54  H   UNK d   0     -22.243  -4.738  13.583  0.00  0.00     0.167 HD
ENDBRANCH  51  53
ENDBRANCH  50  51
ENDBRANCH  49  50
ENDBRANCH  24  49
BRANCH  21  55
ATOM     55  C   UNK d   0     -16.906  -7.679  10.138  0.00  0.00     0.151 C 
BRANCH  55  56
ATOM     56  C   UNK d   0     -16.864  -9.147  10.230  0.00  0.00     0.143 C 
ATOM     57  O   UNK d   0     -16.715  -9.881   9.234  0.00  0.00    -0.650 OA
BRANCH  56  58
ATOM     58  O   UNK d   0     -16.998  -9.722  11.492  0.00  0.00    -0.776 OA
ATOM     59  H   UNK d   0     -17.795  -9.368  12.051  0.00  0.00     0.167 HD
ENDBRANCH  56  58
ENDBRANCH  55  56
ENDBRANCH  21  55
BRANCH  18  60
ATOM     60  C   UNK d   0     -16.204  -5.864   5.136  0.00  0.00     0.151 C 
BRANCH  60  61
ATOM     61  C   UNK d   0     -16.121  -4.639   5.945  0.00  0.00     0.143 C 
ATOM     62  O   UNK d   0     -16.079  -4.563   7.174  0.00  0.00    -0.650 OA
BRANCH  61  63
ATOM     63  O   UNK d   0     -16.087  -3.431   5.208  0.00  0.00    -0.776 OA
ATOM     64  H   UNK d   0     -16.195  -3.430   4.210  0.00  0.00     0.167 HD
ENDBRANCH  61  63
ENDBRANCH  60  61
ENDBRANCH  18  60
BRANCH  14  65
ATOM     65  C   UNK d   0     -17.779  -5.291   2.606  0.00  0.00     0.052 C 
BRANCH  65  66
ATOM     66  C   UNK d   0     -17.251  -6.341   1.695  0.00  0.00     0.115 C 
BRANCH  66  67
ATOM     67  C   UNK d   0     -17.908  -6.595   0.444  0.00  0.00     0.139 C 
ATOM     68  O   UNK d   0     -17.380  -7.442  -0.367  0.00  0.00    -0.650 OA
BRANCH  67  69
ATOM     69  O   UNK d   0     -19.089  -6.024  -0.031  0.00  0.00    -0.776 OA
ATOM     70  H   UNK d   0     -19.101  -5.788  -1.033  0.00  0.00     0.167 HD
ENDBRANCH  67  69
ENDBRANCH  66  67
ENDBRANCH  65  66
ENDBRANCH  14  65
ENDBRANCH   6   7
ENDBRANCH   5   6
ENDBRANCH   2   5
TORSDOF 28
ENDMDL
MODEL 4
REMARK VINA RESULT:      -8.8      2.992      8.695
REMARK  28 active torsions:
REMARK  status: ('A' for Active; 'I' for Inactive)
REMARK    1  A    between atoms: C_2  and  O_3 
REMARK    2  A    between atoms: C_2  and  C_4 
REMARK    3  A    between atoms: C_4  and  C_5 
REMARK    4  A    between atoms: C_5  and  C_6 
REMARK    5  A    between atoms: C_7  and  C_8 
REMARK    6  A    between atoms: C_8  and  C_9 
REMARK    7  A    between atoms: C_9  and  O_11 
REMARK    8  A    between atoms: C_28  and  C_29 
REMARK    9  A    between atoms: C_29  and  C_30 
REMARK   10  A    between atoms: C_30  and  O_32 
REMARK   11  A    between atoms: C_33  and  C_34 
REMARK   12  A    between atoms: C_34  and  C_35 
REMARK   13  A    between atoms: C_35  and  C_36 
REMARK   14  A    between atoms: C_36  and  O_38 
REMARK   15  A    between atoms: C_39  and  C_40 
REMARK   16  A    between atoms: C_40  and  C_41 
REMARK   17  A    between atoms: C_41  and  C_42 
REMARK   18  A    between atoms: C_42  and  O_44 
REMARK   19  A    between atoms: C_45  and  C_46 
REMARK   20  A    between atoms: C_46  and  C_47 
REMARK   21  A    between atoms: C_47  and  O_49 
REMARK   22  A    between atoms: C_50  and  C_51 
REMARK   23  A    between atoms: C_51  and  C_52 
REMARK   24  A    between atoms: C_52  and  O_54 
REMARK   25  A    between atoms: C_55  and  C_56 
REMARK   26  A    between atoms: C_56  and  C_57 
REMARK   27  A    between atoms: C_57  and  C_58 
REMARK   28  A    between atoms: C_58  and  O_60 
ROOT
ATOM      1  O   UNK d   0     -21.749  -5.048  -1.289  0.00  0.00    -0.650 OA
ATOM      2  C   UNK d   0     -22.341  -4.113  -1.872  0.00  0.00     0.139 C 
ENDROOT
BRANCH   2   3
ATOM      3  O   UNK d   0     -21.743  -3.504  -2.949  0.00  0.00    -0.776 OA
ATOM      4  H   UNK d   0     -20.857  -3.850  -3.325  0.00  0.00     0.167 HD
ENDBRANCH   2   3
BRANCH   2   5
ATOM      5  C   UNK d   0     -23.682  -3.665  -1.399  0.00  0.00     0.115 C 
BRANCH   5   6
ATOM      6  C   UNK d   0     -24.316  -4.736  -0.554  0.00  0.00     0.052 C 
BRANCH   6   7
ATOM      7  C   UNK d   0     -24.484  -4.317   0.887  0.00  0.00    -0.020 A 
ATOM      8  C   UNK d   0     -25.385  -3.509   1.384  0.00  0.00    -0.011 A 
ATOM      9  C   UNK d   0     -25.146  -3.400   2.813  0.00  0.00     0.067 A 
ATOM     10  C   UNK d   0     -25.746  -2.733   3.892  0.00  0.00     0.062 C 
ATOM     11  N   UNK d   0     -24.076  -4.171   3.100  0.00  0.00    -0.248 NA
ATOM     12  C   UNK d   0     -25.541  -2.971   5.256  0.00  0.00     0.041 A 
ATOM     13  N   UNK d   0     -24.413  -3.203   5.955  0.00  0.00    -0.355 N 
ATOM     14  C   UNK d   0     -26.656  -3.051   6.109  0.00  0.00    -0.022 A 
ATOM     15  C   UNK d   0     -24.786  -3.437   7.227  0.00  0.00     0.042 A 
ATOM     16  H   UNK d   0     -23.373  -3.184   5.560  0.00  0.00     0.166 HD
ATOM     17  C   UNK d   0     -24.010  -3.730   8.367  0.00  0.00     0.062 C 
ATOM     18  C   UNK d   0     -26.185  -3.350   7.363  0.00  0.00    -0.013 A 
ATOM     19  C   UNK d   0     -22.962  -4.605   8.494  0.00  0.00     0.067 A 
ATOM     20  N   UNK d   0     -22.459  -5.115   7.367  0.00  0.00    -0.248 NA
ATOM     21  C   UNK d   0     -22.207  -5.178   9.597  0.00  0.00    -0.011 A 
ATOM     22  C   UNK d   0     -21.432  -5.981   7.652  0.00  0.00     0.066 A 
ATOM     23  C   UNK d   0     -20.791  -6.557   6.565  0.00  0.00     0.062 C 
ATOM     24  C   UNK d   0     -21.316  -5.985   9.097  0.00  0.00    -0.020 A 
ATOM     25  C   UNK d   0     -21.005  -6.294   5.203  0.00  0.00     0.041 A 
ATOM     26  N   UNK d   0     -22.126  -6.079   4.505  0.00  0.00    -0.355 N 
ATOM     27  C   UNK d   0     -19.884  -6.210   4.348  0.00  0.00    -0.022 A 
ATOM     28  C   UNK d   0     -21.758  -5.854   3.234  0.00  0.00     0.042 A 
ATOM     29  H   UNK d   0     -23.171  -6.109   4.901  0.00  0.00     0.166 HD
ATOM     30  C   UNK d   0     -22.519  -5.570   2.089  0.00  0.00     0.062 C 
ATOM     31  C   UNK d   0     -20.351  -5.931   3.101  0.00  0.00    -0.013 A 
ATOM     32  C   UNK d   0     -23.631  -4.750   1.984  0.00  0.00     0.066 A 
BRANCH   8  33
ATOM     33  C   UNK d   0     -26.457  -2.817   0.644  0.00  0.00     0.151 C 
BRANCH  33  34
ATOM     34  C   UNK d   0     -26.211  -1.370   0.504  0.00  0.00     0.143 C 
ATOM     35  O   UNK d   0     -26.704  -0.561   1.303  0.00  0.00    -0.650 OA
BRANCH  34  36
ATOM     36  O   UNK d   0     -25.425  -0.915  -0.529  0.00  0.00    -0.776 OA
ATOM     37  H   UNK d   0     -24.656  -1.485  -0.906  0.00  0.00     0.167 HD
ENDBRANCH  34  36
ENDBRANCH  33  34
ENDBRANCH   8  33
BRANCH  31  38
ATOM     38  C   UNK d   0     -19.514  -5.736   1.858  0.00  0.00     0.151 C 
BRANCH  38  39
ATOM     39  C   UNK d   0     -19.448  -6.923   1.033  0.00  0.00     0.143 C 
ATOM     40  O   UNK d   0     -19.008  -8.005   1.458  0.00  0.00    -0.650 OA
BRANCH  39  41
ATOM     41  O   UNK d   0     -19.892  -6.866  -0.288  0.00  0.00    -0.776 OA
ATOM     42  H   UNK d   0     -19.242  -7.197  -1.008  0.00  0.00     0.167 HD
ENDBRANCH  39  41
ENDBRANCH  38  39
ENDBRANCH  31  38
BRANCH  27  43
ATOM     43  C   UNK d   0     -18.420  -6.383   4.668  0.00  0.00     0.052 C 
BRANCH  43  44
ATOM     44  C   UNK d   0     -17.689  -5.087   4.809  0.00  0.00     0.115 C 
BRANCH  44  45
ATOM     45  C   UNK d   0     -16.471  -5.372   5.611  0.00  0.00     0.139 C 
ATOM     46  O   UNK d   0     -16.451  -6.418   6.305  0.00  0.00    -0.650 OA
BRANCH  45  47
ATOM     47  O   UNK d   0     -15.370  -4.543   5.618  0.00  0.00    -0.776 OA
ATOM     48  H   UNK d   0     -15.046  -4.049   6.466  0.00  0.00     0.167 HD
ENDBRANCH  45  47
ENDBRANCH  44  45
ENDBRANCH  43  44
ENDBRANCH  27  43
BRANCH  24  49
ATOM     49  C   UNK d   0     -20.312  -6.748   9.859  0.00  0.00     0.052 C 
BRANCH  49  50
ATOM     50  C   UNK d   0     -19.011  -6.806   9.099  0.00  0.00     0.115 C 
BRANCH  50  51
ATOM     51  C   UNK d   0     -18.077  -7.863   9.460  0.00  0.00     0.139 C 
ATOM     52  O   UNK d   0     -17.455  -8.537   8.606  0.00  0.00    -0.650 OA
BRANCH  51  53
ATOM     53  O   UNK d   0     -17.854  -8.154  10.797  0.00  0.00    -0.776 OA
ATOM     54  H   UNK d   0     -18.576  -7.931  11.460  0.00  0.00     0.167 HD
ENDBRANCH  51  53
ENDBRANCH  50  51
ENDBRANCH  49  50
ENDBRANCH  24  49
BRANCH  21  55
ATOM     55  C   UNK d   0     -22.453  -4.855  11.033  0.00  0.00     0.151 C 
BRANCH  55  56
ATOM     56  C   UNK d   0     -23.605  -5.592  11.575  0.00  0.00     0.143 C 
ATOM     57  O   UNK d   0     -23.597  -6.827  11.744  0.00  0.00    -0.650 OA
BRANCH  56  58
ATOM     58  O   UNK d   0     -24.744  -4.861  11.909  0.00  0.00    -0.776 OA
ATOM     59  H   UNK d   0     -24.619  -3.833  11.905  0.00  0.00     0.167 HD
ENDBRANCH  56  58
ENDBRANCH  55  56
ENDBRANCH  21  55
BRANCH  18  60
ATOM     60  C   UNK d   0     -27.045  -3.537   8.588  0.00  0.00     0.151 C 
BRANCH  60  61
ATOM     61  C   UNK d   0     -27.115  -4.988   8.815  0.00  0.00     0.143 C 
ATOM     62  O   UNK d   0     -26.626  -5.617   9.754  0.00  0.00    -0.650 OA
BRANCH  61  63
ATOM     63  O   UNK d   0     -27.827  -5.718   7.833  0.00  0.00    -0.776 OA
ATOM     64  H   UNK d   0     -27.349  -6.329   7.193  0.00  0.00     0.167 HD
ENDBRANCH  61  63
ENDBRANCH  60  61
ENDBRANCH  18  60
BRANCH  14  65
ATOM     65  C   UNK d   0     -28.110  -2.773   5.851  0.00  0.00     0.052 C 
BRANCH  65  66
ATOM     66  C   UNK d   0     -28.511  -1.389   6.221  0.00  0.00     0.115 C 
BRANCH  66  67
ATOM     67  C   UNK d   0     -28.644  -0.389   5.199  0.00  0.00     0.139 C 
ATOM     68  O   UNK d   0     -29.612   0.453   5.287  0.00  0.00    -0.650 OA
BRANCH  67  69
ATOM     69  O   UNK d   0     -27.834  -0.200   4.080  0.00  0.00    -0.776 OA
ATOM     70  H   UNK d   0     -27.407   0.734   3.989  0.00  0.00     0.167 HD
ENDBRANCH  67  69
ENDBRANCH  66  67
ENDBRANCH  65  66
ENDBRANCH  14  65
ENDBRANCH   6   7
ENDBRANCH   5   6
ENDBRANCH   2   5
TORSDOF 28
ENDMDL
MODEL 5
REMARK VINA RESULT:      -8.8      1.605      2.118
REMARK  28 active torsions:
REMARK  status: ('A' for Active; 'I' for Inactive)
REMARK    1  A    between atoms: C_2  and  O_3 
REMARK    2  A    between atoms: C_2  and  C_4 
REMARK    3  A    between atoms: C_4  and  C_5 
REMARK    4  A    between atoms: C_5  and  C_6 
REMARK    5  A    between atoms: C_7  and  C_8 
REMARK    6  A    between atoms: C_8  and  C_9 
REMARK    7  A    between atoms: C_9  and  O_11 
REMARK    8  A    between atoms: C_28  and  C_29 
REMARK    9  A    between atoms: C_29  and  C_30 
REMARK   10  A    between atoms: C_30  and  O_32 
REMARK   11  A    between atoms: C_33  and  C_34 
REMARK   12  A    between atoms: C_34  and  C_35 
REMARK   13  A    between atoms: C_35  and  C_36 
REMARK   14  A    between atoms: C_36  and  O_38 
REMARK   15  A    between atoms: C_39  and  C_40 
REMARK   16  A    between atoms: C_40  and  C_41 
REMARK   17  A    between atoms: C_41  and  C_42 
REMARK   18  A    between atoms: C_42  and  O_44 
REMARK   19  A    between atoms: C_45  and  C_46 
REMARK   20  A    between atoms: C_46  and  C_47 
REMARK   21  A    between atoms: C_47  and  O_49 
REMARK   22  A    between atoms: C_50  and  C_51 
REMARK   23  A    between atoms: C_51  and  C_52 
REMARK   24  A    between atoms: C_52  and  O_54 
REMARK   25  A    between atoms: C_55  and  C_56 
REMARK   26  A    between atoms: C_56  and  C_57 
REMARK   27  A    between atoms: C_57  and  C_58 
REMARK   28  A    between atoms: C_58  and  O_60 
ROOT
ATOM      1  O   UNK d   0     -28.034  -4.921   1.704  0.00  0.00    -0.650 OA
ATOM      2  C   UNK d   0     -26.909  -5.364   2.026  0.00  0.00     0.139 C 
ENDROOT
BRANCH   2   3
ATOM      3  O   UNK d   0     -26.606  -6.681   1.776  0.00  0.00    -0.776 OA
ATOM      4  H   UNK d   0     -26.908  -7.136   0.913  0.00  0.00     0.167 HD
ENDBRANCH   2   3
BRANCH   2   5
ATOM      5  C   UNK d   0     -25.910  -4.468   2.676  0.00  0.00     0.115 C 
BRANCH   5   6
ATOM      6  C   UNK d   0     -25.252  -3.593   1.644  0.00  0.00     0.052 C 
BRANCH   6   7
ATOM      7  C   UNK d   0     -24.061  -4.257   0.994  0.00  0.00    -0.020 A 
ATOM      8  C   UNK d   0     -23.883  -4.507  -0.278  0.00  0.00    -0.011 A 
ATOM      9  C   UNK d   0     -22.595  -5.164  -0.426  0.00  0.00     0.067 A 
ATOM     10  C   UNK d   0     -21.826  -5.657  -1.492  0.00  0.00     0.062 C 
ATOM     11  N   UNK d   0     -22.060  -5.280   0.808  0.00  0.00    -0.248 NA
ATOM     12  C   UNK d   0     -20.473  -6.011  -1.468  0.00  0.00     0.041 A 
ATOM     13  N   UNK d   0     -19.752  -6.695  -0.559  0.00  0.00    -0.355 N 
ATOM     14  C   UNK d   0     -19.635  -5.572  -2.509  0.00  0.00    -0.022 A 
ATOM     15  C   UNK d   0     -18.477  -6.694  -0.993  0.00  0.00     0.042 A 
ATOM     16  H   UNK d   0     -20.140  -7.186   0.361  0.00  0.00     0.166 HD
ATOM     17  C   UNK d   0     -17.319  -7.264  -0.427  0.00  0.00     0.062 C 
ATOM     18  C   UNK d   0     -18.365  -5.999  -2.212  0.00  0.00    -0.013 A 
ATOM     19  C   UNK d   0     -16.894  -7.239   0.877  0.00  0.00     0.067 A 
ATOM     20  N   UNK d   0     -17.764  -6.795   1.788  0.00  0.00    -0.248 NA
ATOM     21  C   UNK d   0     -15.669  -7.574   1.583  0.00  0.00    -0.011 A 
ATOM     22  C   UNK d   0     -17.196  -6.813   3.038  0.00  0.00     0.066 A 
ATOM     23  C   UNK d   0     -18.006  -6.410   4.089  0.00  0.00     0.062 C 
ATOM     24  C   UNK d   0     -15.850  -7.319   2.846  0.00  0.00    -0.020 A 
ATOM     25  C   UNK d   0     -19.367  -6.070   4.045  0.00  0.00     0.041 A 
ATOM     26  N   UNK d   0     -20.080  -5.378   3.150  0.00  0.00    -0.355 N 
ATOM     27  C   UNK d   0     -20.207  -6.516   5.089  0.00  0.00    -0.022 A 
ATOM     28  C   UNK d   0     -21.350  -5.370   3.585  0.00  0.00     0.042 A 
ATOM     29  H   UNK d   0     -19.687  -4.876   2.231  0.00  0.00     0.166 HD
ATOM     30  C   UNK d   0     -22.510  -4.799   3.037  0.00  0.00     0.062 C 
ATOM     31  C   UNK d   0     -21.464  -6.078   4.805  0.00  0.00    -0.013 A 
ATOM     32  C   UNK d   0     -22.893  -4.753   1.706  0.00  0.00     0.066 A 
BRANCH   8  33
ATOM     33  C   UNK d   0     -24.810  -4.192  -1.381  0.00  0.00     0.151 C 
BRANCH  33  34
ATOM     34  C   UNK d   0     -25.689  -5.323  -1.728  0.00  0.00     0.143 C 
ATOM     35  O   UNK d   0     -25.775  -6.313  -0.987  0.00  0.00    -0.650 OA
BRANCH  34  36
ATOM     36  O   UNK d   0     -26.421  -5.277  -2.892  0.00  0.00    -0.776 OA
ATOM     37  H   UNK d   0     -27.450  -5.285  -2.876  0.00  0.00     0.167 HD
ENDBRANCH  34  36
ENDBRANCH  33  34
ENDBRANCH   8  33
BRANCH  31  38
ATOM     38  C   UNK d   0     -22.703  -6.326   5.633  0.00  0.00     0.151 C 
BRANCH  38  39
ATOM     39  C   UNK d   0     -22.761  -5.497   6.819  0.00  0.00     0.143 C 
ATOM     40  O   UNK d   0     -22.511  -4.279   6.792  0.00  0.00    -0.650 OA
BRANCH  39  41
ATOM     41  O   UNK d   0     -23.109  -6.072   8.041  0.00  0.00    -0.776 OA
ATOM     42  H   UNK d   0     -23.333  -7.071   8.034  0.00  0.00     0.167 HD
ENDBRANCH  39  41
ENDBRANCH  38  39
ENDBRANCH  31  38
BRANCH  27  43
ATOM     43  C   UNK d   0     -19.866  -7.321   6.317  0.00  0.00     0.052 C 
BRANCH  43  44
ATOM     44  C   UNK d   0     -19.224  -6.511   7.396  0.00  0.00     0.115 C 
BRANCH  44  45
ATOM     45  C   UNK d   0     -17.891  -7.118   7.648  0.00  0.00     0.139 C 
ATOM     46  O   UNK d   0     -16.878  -6.384   7.545  0.00  0.00    -0.650 OA
BRANCH  45  47
ATOM     47  O   UNK d   0     -17.727  -8.442   7.993  0.00  0.00    -0.776 OA
ATOM     48  H   UNK d   0     -18.174  -8.864   8.823  0.00  0.00     0.167 HD
ENDBRANCH  45  47
ENDBRANCH  44  45
ENDBRANCH  43  44
ENDBRANCH  27  43
BRANCH  24  49
ATOM     49  C   UNK d   0     -14.876  -7.548   3.927  0.00  0.00     0.052 C 
BRANCH  49  50
ATOM     50  C   UNK d   0     -14.637  -6.274   4.696  0.00  0.00     0.115 C 
BRANCH  50  51
ATOM     51  C   UNK d   0     -14.111  -5.137   3.953  0.00  0.00     0.139 C 
ATOM     52  O   UNK d   0     -14.810  -4.139   3.659  0.00  0.00    -0.650 OA
BRANCH  51  53
ATOM     53  O   UNK d   0     -12.787  -5.140   3.542  0.00  0.00    -0.776 OA
ATOM     54  H   UNK d   0     -12.108  -4.681   4.123  0.00  0.00     0.167 HD
ENDBRANCH  51  53
ENDBRANCH  50  51
ENDBRANCH  49  50
ENDBRANCH  24  49
BRANCH  21  55
ATOM     55  C   UNK d   0     -14.446  -8.119   0.922  0.00  0.00     0.151 C 
BRANCH  55  56
ATOM     56  C   UNK d   0     -13.586  -7.051   0.388  0.00  0.00     0.143 C 
ATOM     57  O   UNK d   0     -12.651  -6.548   1.041  0.00  0.00    -0.650 OA
BRANCH  56  58
ATOM     58  O   UNK d   0     -13.843  -6.597  -0.905  0.00  0.00    -0.776 OA
ATOM     59  H   UNK d   0     -14.146  -7.328  -1.573  0.00  0.00     0.167 HD
ENDBRANCH  56  58
ENDBRANCH  55  56
ENDBRANCH  21  55
BRANCH  18  60
ATOM     60  C   UNK d   0     -17.145  -5.739  -3.061  0.00  0.00     0.151 C 
BRANCH  60  61
ATOM     61  C   UNK d   0     -16.358  -4.728  -2.339  0.00  0.00     0.143 C 
ATOM     62  O   UNK d   0     -16.752  -3.984  -1.440  0.00  0.00    -0.650 OA
BRANCH  61  63
ATOM     63  O   UNK d   0     -15.005  -4.618  -2.739  0.00  0.00    -0.776 OA
ATOM     64  H   UNK d   0     -14.730  -3.987  -3.470  0.00  0.00     0.167 HD
ENDBRANCH  61  63
ENDBRANCH  60  61
ENDBRANCH  18  60
BRANCH  14  65
ATOM     65  C   UNK d   0     -19.958  -4.871  -3.798  0.00  0.00     0.052 C 
BRANCH  65  66
ATOM     66  C   UNK d   0     -21.355  -5.105  -4.253  0.00  0.00     0.115 C 
BRANCH  66  67
ATOM     67  C   UNK d   0     -21.742  -4.731  -5.584  0.00  0.00     0.139 C 
ATOM     68  O   UNK d   0     -22.657  -5.416  -6.173  0.00  0.00    -0.650 OA
BRANCH  67  69
ATOM     69  O   UNK d   0     -21.240  -3.684  -6.356  0.00  0.00    -0.776 OA
ATOM     70  H   UNK d   0     -21.749  -3.487  -7.230  0.00  0.00     0.167 HD
ENDBRANCH  67  69
ENDBRANCH  66  67
ENDBRANCH  65  66
ENDBRANCH  14  65
ENDBRANCH   6   7
ENDBRANCH   5   6
ENDBRANCH   2   5
TORSDOF 28
ENDMDL
MODEL 6
REMARK VINA RESULT:      -8.7      4.195     10.291
REMARK  28 active torsions:
REMARK  status: ('A' for Active; 'I' for Inactive)
REMARK    1  A    between atoms: C_2  and  O_3 
REMARK    2  A    between atoms: C_2  and  C_4 
REMARK    3  A    between atoms: C_4  and  C_5 
REMARK    4  A    between atoms: C_5  and  C_6 
REMARK    5  A    between atoms: C_7  and  C_8 
REMARK    6  A    between atoms: C_8  and  C_9 
REMARK    7  A    between atoms: C_9  and  O_11 
REMARK    8  A    between atoms: C_28  and  C_29 
REMARK    9  A    between atoms: C_29  and  C_30 
REMARK   10  A    between atoms: C_30  and  O_32 
REMARK   11  A    between atoms: C_33  and  C_34 
REMARK   12  A    between atoms: C_34  and  C_35 
REMARK   13  A    between atoms: C_35  and  C_36 
REMARK   14  A    between atoms: C_36  and  O_38 
REMARK   15  A    between atoms: C_39  and  C_40 
REMARK   16  A    between atoms: C_40  and  C_41 
REMARK   17  A    between atoms: C_41  and  C_42 
REMARK   18  A    between atoms: C_42  and  O_44 
REMARK   19  A    between atoms: C_45  and  C_46 
REMARK   20  A    between atoms: C_46  and  C_47 
REMARK   21  A    between atoms: C_47  and  O_49 
REMARK   22  A    between atoms: C_50  and  C_51 
REMARK   23  A    between atoms: C_51  and  C_52 
REMARK   24  A    between atoms: C_52  and  O_54 
REMARK   25  A    between atoms: C_55  and  C_56 
REMARK   26  A    between atoms: C_56  and  C_57 
REMARK   27  A    between atoms: C_57  and  C_58 
REMARK   28  A    between atoms: C_58  and  O_60 
ROOT
ATOM      1  O   UNK d   0     -30.585   2.506   9.757  0.00  0.00    -0.650 OA
ATOM      2  C   UNK d   0     -30.856   1.372   9.304  0.00  0.00     0.139 C 
ENDROOT
BRANCH   2   3
ATOM      3  O   UNK d   0     -31.712   0.555  10.003  0.00  0.00    -0.776 OA
ATOM      4  H   UNK d   0     -31.402  -0.350  10.363  0.00  0.00     0.167 HD
ENDBRANCH   2   3
BRANCH   2   5
ATOM      5  C   UNK d   0     -30.255   0.915   8.019  0.00  0.00     0.115 C 
BRANCH   5   6
ATOM      6  C   UNK d   0     -30.514  -0.553   7.819  0.00  0.00     0.052 C 
BRANCH   6   7
ATOM      7  C   UNK d   0     -29.251  -1.379   7.872  0.00  0.00    -0.020 A 
ATOM      8  C   UNK d   0     -28.721  -1.962   8.917  0.00  0.00    -0.011 A 
ATOM      9  C   UNK d   0     -27.507  -2.633   8.484  0.00  0.00     0.067 A 
ATOM     10  C   UNK d   0     -26.520  -3.428   9.086  0.00  0.00     0.062 C 
ATOM     11  N   UNK d   0     -27.371  -2.402   7.161  0.00  0.00    -0.248 NA
ATOM     12  C   UNK d   0     -25.564  -4.223   8.445  0.00  0.00     0.041 A 
ATOM     13  N   UNK d   0     -24.793  -3.986   7.366  0.00  0.00    -0.355 N 
ATOM     14  C   UNK d   0     -25.345  -5.533   8.909  0.00  0.00    -0.022 A 
ATOM     15  C   UNK d   0     -24.097  -5.114   7.130  0.00  0.00     0.042 A 
ATOM     16  H   UNK d   0     -24.728  -3.034   6.795  0.00  0.00     0.166 HD
ATOM     17  C   UNK d   0     -23.149  -5.410   6.130  0.00  0.00     0.062 C 
ATOM     18  C   UNK d   0     -24.416  -6.107   8.077  0.00  0.00    -0.013 A 
ATOM     19  C   UNK d   0     -23.200  -5.139   4.787  0.00  0.00     0.067 A 
ATOM     20  N   UNK d   0     -24.166  -4.316   4.372  0.00  0.00    -0.248 NA
ATOM     21  C   UNK d   0     -22.446  -5.540   3.611  0.00  0.00    -0.011 A 
ATOM     22  C   UNK d   0     -24.100  -4.152   3.010  0.00  0.00     0.066 A 
ATOM     23  C   UNK d   0     -25.028  -3.288   2.448  0.00  0.00     0.062 C 
ATOM     24  C   UNK d   0     -22.980  -4.963   2.574  0.00  0.00    -0.020 A 
ATOM     25  C   UNK d   0     -25.972  -2.488   3.111  0.00  0.00     0.041 A 
ATOM     26  N   UNK d   0     -26.749  -2.729   4.174  0.00  0.00    -0.355 N 
ATOM     27  C   UNK d   0     -26.188  -1.173   2.647  0.00  0.00    -0.022 A 
ATOM     28  C   UNK d   0     -27.451  -1.609   4.406  0.00  0.00     0.042 A 
ATOM     29  H   UNK d   0     -26.821  -3.690   4.740  0.00  0.00     0.166 HD
ATOM     30  C   UNK d   0     -28.403  -1.304   5.391  0.00  0.00     0.062 C 
ATOM     31  C   UNK d   0     -27.121  -0.609   3.461  0.00  0.00    -0.013 A 
ATOM     32  C   UNK d   0     -28.389  -1.654   6.732  0.00  0.00     0.066 A 
BRANCH   8  33
ATOM     33  C   UNK d   0     -29.242  -1.948  10.296  0.00  0.00     0.151 C 
BRANCH  33  34
ATOM     34  C   UNK d   0     -30.379  -2.867  10.486  0.00  0.00     0.143 C 
ATOM     35  O   UNK d   0     -30.235  -4.092  10.360  0.00  0.00    -0.650 OA
BRANCH  34  36
ATOM     36  O   UNK d   0     -31.615  -2.355  10.807  0.00  0.00    -0.776 OA
ATOM     37  H   UNK d   0     -32.475  -2.898  10.649  0.00  0.00     0.167 HD
ENDBRANCH  34  36
ENDBRANCH  33  34
ENDBRANCH   8  33
BRANCH  31  38
ATOM     38  C   UNK d   0     -27.660   0.799   3.358  0.00  0.00     0.151 C 
BRANCH  38  39
ATOM     39  C   UNK d   0     -26.649   1.807   3.598  0.00  0.00     0.143 C 
ATOM     40  O   UNK d   0     -25.763   1.668   4.460  0.00  0.00    -0.650 OA
BRANCH  39  41
ATOM     41  O   UNK d   0     -26.656   2.979   2.844  0.00  0.00    -0.776 OA
ATOM     42  H   UNK d   0     -27.506   3.550   2.885  0.00  0.00     0.167 HD
ENDBRANCH  39  41
ENDBRANCH  38  39
ENDBRANCH  31  38
BRANCH  27  43
ATOM     43  C   UNK d   0     -25.554  -0.451   1.484  0.00  0.00     0.052 C 
BRANCH  43  44
ATOM     44  C   UNK d   0     -26.337  -0.572   0.216  0.00  0.00     0.115 C 
BRANCH  44  45
ATOM     45  C   UNK d   0     -25.732  -1.691  -0.551  0.00  0.00     0.139 C 
ATOM     46  O   UNK d   0     -24.558  -1.551  -0.976  0.00  0.00    -0.650 OA
BRANCH  45  47
ATOM     47  O   UNK d   0     -26.400  -2.869  -0.808  0.00  0.00    -0.776 OA
ATOM     48  H   UNK d   0     -25.937  -3.792  -0.787  0.00  0.00     0.167 HD
ENDBRANCH  45  47
ENDBRANCH  44  45
ENDBRANCH  43  44
ENDBRANCH  27  43
BRANCH  24  49
ATOM     49  C   UNK d   0     -22.507  -5.064   1.183  0.00  0.00     0.052 C 
BRANCH  49  50
ATOM     50  C   UNK d   0     -23.038  -6.317   0.537  0.00  0.00     0.115 C 
BRANCH  50  51
ATOM     51  C   UNK d   0     -24.237  -6.188  -0.279  0.00  0.00     0.139 C 
ATOM     52  O   UNK d   0     -24.599  -5.097  -0.782  0.00  0.00    -0.650 OA
BRANCH  51  53
ATOM     53  O   UNK d   0     -25.027  -7.301  -0.521  0.00  0.00    -0.776 OA
ATOM     54  H   UNK d   0     -25.916  -7.166  -0.969  0.00  0.00     0.167 HD
ENDBRANCH  51  53
ENDBRANCH  50  51
ENDBRANCH  49  50
ENDBRANCH  24  49
BRANCH  21  55
ATOM     55  C   UNK d   0     -21.267  -6.455   3.647  0.00  0.00     0.151 C 
BRANCH  55  56
ATOM     56  C   UNK d   0     -20.009  -5.726   3.872  0.00  0.00     0.143 C 
ATOM     57  O   UNK d   0     -19.953  -4.483   3.940  0.00  0.00    -0.650 OA
BRANCH  56  58
ATOM     58  O   UNK d   0     -18.842  -6.475   4.014  0.00  0.00    -0.776 OA
ATOM     59  H   UNK d   0     -18.447  -6.489   4.971  0.00  0.00     0.167 HD
ENDBRANCH  56  58
ENDBRANCH  55  56
ENDBRANCH  21  55
BRANCH  18  60
ATOM     60  C   UNK d   0     -23.894  -7.516   8.206  0.00  0.00     0.151 C 
BRANCH  60  61
ATOM     61  C   UNK d   0     -24.288  -8.208   6.969  0.00  0.00     0.143 C 
ATOM     62  O   UNK d   0     -23.547  -8.584   6.060  0.00  0.00    -0.650 OA
BRANCH  61  63
ATOM     63  O   UNK d   0     -25.675  -8.457   6.835  0.00  0.00    -0.776 OA
ATOM     64  H   UNK d   0     -26.050  -9.381   6.957  0.00  0.00     0.167 HD
ENDBRANCH  61  63
ENDBRANCH  60  61
ENDBRANCH  18  60
BRANCH  14  65
ATOM     65  C   UNK d   0     -25.868  -6.242  10.126  0.00  0.00     0.052 C 
BRANCH  65  66
ATOM     66  C   UNK d   0     -27.261  -6.735   9.958  0.00  0.00     0.115 C 
BRANCH  66  67
ATOM     67  C   UNK d   0     -27.492  -8.046   9.419  0.00  0.00     0.139 C 
ATOM     68  O   UNK d   0     -26.688  -8.994   9.745  0.00  0.00    -0.650 OA
BRANCH  67  69
ATOM     69  O   UNK d   0     -28.511  -8.445   8.554  0.00  0.00    -0.776 OA
ATOM     70  H   UNK d   0     -28.266  -8.466   7.553  0.00  0.00     0.167 HD
ENDBRANCH  67  69
ENDBRANCH  66  67
ENDBRANCH  65  66
ENDBRANCH  14  65
ENDBRANCH   6   7
ENDBRANCH   5   6
ENDBRANCH   2   5
TORSDOF 28
ENDMDL
MODEL 7
REMARK VINA RESULT:      -8.7      1.709      7.774
REMARK  28 active torsions:
REMARK  status: ('A' for Active; 'I' for Inactive)
REMARK    1  A    between atoms: C_2  and  O_3 
REMARK    2  A    between atoms: C_2  and  C_4 
REMARK    3  A    between atoms: C_4  and  C_5 
REMARK    4  A    between atoms: C_5  and  C_6 
REMARK    5  A    between atoms: C_7  and  C_8 
REMARK    6  A    between atoms: C_8  and  C_9 
REMARK    7  A    between atoms: C_9  and  O_11 
REMARK    8  A    between atoms: C_28  and  C_29 
REMARK    9  A    between atoms: C_29  and  C_30 
REMARK   10  A    between atoms: C_30  and  O_32 
REMARK   11  A    between atoms: C_33  and  C_34 
REMARK   12  A    between atoms: C_34  and  C_35 
REMARK   13  A    between atoms: C_35  and  C_36 
REMARK   14  A    between atoms: C_36  and  O_38 
REMARK   15  A    between atoms: C_39  and  C_40 
REMARK   16  A    between atoms: C_40  and  C_41 
REMARK   17  A    between atoms: C_41  and  C_42 
REMARK   18  A    between atoms: C_42  and  O_44 
REMARK   19  A    between atoms: C_45  and  C_46 
REMARK   20  A    between atoms: C_46  and  C_47 
REMARK   21  A    between atoms: C_47  and  O_49 
REMARK   22  A    between atoms: C_50  and  C_51 
REMARK   23  A    between atoms: C_51  and  C_52 
REMARK   24  A    between atoms: C_52  and  O_54 
REMARK   25  A    between atoms: C_55  and  C_56 
REMARK   26  A    between atoms: C_56  and  C_57 
REMARK   27  A    between atoms: C_57  and  C_58 
REMARK   28  A    between atoms: C_58  and  O_60 
ROOT
ATOM      1  O   UNK d   0     -14.066  -7.800   1.918  0.00  0.00    -0.650 OA
ATOM      2  C   UNK d   0     -13.988  -6.813   1.153  0.00  0.00     0.139 C 
ENDROOT
BRANCH   2   3
ATOM      3  O   UNK d   0     -13.637  -5.588   1.668  0.00  0.00    -0.776 OA
ATOM      4  H   UNK d   0     -12.727  -5.171   1.464  0.00  0.00     0.167 HD
ENDBRANCH   2   3
BRANCH   2   5
ATOM      5  C   UNK d   0     -14.274  -6.968  -0.301  0.00  0.00     0.115 C 
BRANCH   5   6
ATOM      6  C   UNK d   0     -15.415  -7.927  -0.504  0.00  0.00     0.052 C 
BRANCH   6   7
ATOM      7  C   UNK d   0     -16.754  -7.232  -0.570  0.00  0.00    -0.020 A 
ATOM      8  C   UNK d   0     -17.338  -6.723  -1.625  0.00  0.00    -0.011 A 
ATOM      9  C   UNK d   0     -18.605  -6.152  -1.199  0.00  0.00     0.067 A 
ATOM     10  C   UNK d   0     -19.680  -5.497  -1.821  0.00  0.00     0.062 C 
ATOM     11  N   UNK d   0     -18.709  -6.353   0.131  0.00  0.00    -0.248 NA
ATOM     12  C   UNK d   0     -20.953  -5.264  -1.287  0.00  0.00     0.041 A 
ATOM     13  N   UNK d   0     -21.339  -4.856  -0.064  0.00  0.00    -0.355 N 
ATOM     14  C   UNK d   0     -22.083  -5.527  -2.083  0.00  0.00    -0.022 A 
ATOM     15  C   UNK d   0     -22.686  -4.861  -0.060  0.00  0.00     0.042 A 
ATOM     16  H   UNK d   0     -20.674  -4.552   0.774  0.00  0.00     0.166 HD
ATOM     17  C   UNK d   0     -23.597  -4.522   0.960  0.00  0.00     0.062 C 
ATOM     18  C   UNK d   0     -23.188  -5.277  -1.308  0.00  0.00    -0.013 A 
ATOM     19  C   UNK d   0     -23.574  -4.867   2.287  0.00  0.00     0.067 A 
ATOM     20  N   UNK d   0     -22.454  -5.432   2.746  0.00  0.00    -0.248 NA
ATOM     21  C   UNK d   0     -24.503  -4.793   3.402  0.00  0.00    -0.011 A 
ATOM     22  C   UNK d   0     -22.584  -5.734   4.079  0.00  0.00     0.066 A 
ATOM     23  C   UNK d   0     -21.475  -6.295   4.695  0.00  0.00     0.062 C 
ATOM     24  C   UNK d   0     -23.920  -5.306   4.447  0.00  0.00    -0.020 A 
ATOM     25  C   UNK d   0     -20.202  -6.509   4.145  0.00  0.00     0.041 A 
ATOM     26  N   UNK d   0     -19.818  -6.929   2.934  0.00  0.00    -0.355 N 
ATOM     27  C   UNK d   0     -19.068  -6.240   4.942  0.00  0.00    -0.022 A 
ATOM     28  C   UNK d   0     -18.475  -6.933   2.930  0.00  0.00     0.042 A 
ATOM     29  H   UNK d   0     -20.487  -7.244   2.096  0.00  0.00     0.166 HD
ATOM     30  C   UNK d   0     -17.556  -7.277   1.926  0.00  0.00     0.062 C 
ATOM     31  C   UNK d   0     -17.971  -6.505   4.181  0.00  0.00    -0.013 A 
ATOM     32  C   UNK d   0     -17.627  -6.998   0.570  0.00  0.00     0.066 A 
BRANCH   8  33
ATOM     33  C   UNK d   0     -16.820  -6.713  -3.005  0.00  0.00     0.151 C 
BRANCH  33  34
ATOM     34  C   UNK d   0     -16.498  -5.357  -3.485  0.00  0.00     0.143 C 
ATOM     35  O   UNK d   0     -15.836  -4.576  -2.788  0.00  0.00    -0.650 OA
BRANCH  34  36
ATOM     36  O   UNK d   0     -16.943  -4.955  -4.723  0.00  0.00    -0.776 OA
ATOM     37  H   UNK d   0     -17.947  -4.850  -4.922  0.00  0.00     0.167 HD
ENDBRANCH  34  36
ENDBRANCH  33  34
ENDBRANCH   8  33
BRANCH  31  38
ATOM     38  C   UNK d   0     -16.531  -6.350   4.609  0.00  0.00     0.151 C 
BRANCH  38  39
ATOM     39  C   UNK d   0     -16.034  -5.002   4.430  0.00  0.00     0.143 C 
ATOM     40  O   UNK d   0     -15.731  -4.272   5.390  0.00  0.00    -0.650 OA
BRANCH  39  41
ATOM     41  O   UNK d   0     -15.885  -4.491   3.142  0.00  0.00    -0.776 OA
ATOM     42  H   UNK d   0     -16.726  -4.114   2.694  0.00  0.00     0.167 HD
ENDBRANCH  39  41
ENDBRANCH  38  39
ENDBRANCH  31  38
BRANCH  27  43
ATOM     43  C   UNK d   0     -18.993  -5.755   6.368  0.00  0.00     0.052 C 
BRANCH  43  44
ATOM     44  C   UNK d   0     -19.165  -6.846   7.374  0.00  0.00     0.115 C 
BRANCH  44  45
ATOM     45  C   UNK d   0     -17.811  -7.153   7.904  0.00  0.00     0.139 C 
ATOM     46  O   UNK d   0     -17.512  -8.357   8.101  0.00  0.00    -0.650 OA
BRANCH  45  47
ATOM     47  O   UNK d   0     -16.878  -6.178   8.180  0.00  0.00    -0.776 OA
ATOM     48  H   UNK d   0     -16.458  -5.581   7.448  0.00  0.00     0.167 HD
ENDBRANCH  45  47
ENDBRANCH  44  45
ENDBRANCH  43  44
ENDBRANCH  27  43
BRANCH  24  49
ATOM     49  C   UNK d   0     -24.489  -5.397   5.802  0.00  0.00     0.052 C 
BRANCH  49  50
ATOM     50  C   UNK d   0     -23.573  -4.738   6.801  0.00  0.00     0.115 C 
BRANCH  50  51
ATOM     51  C   UNK d   0     -23.778  -3.319   7.057  0.00  0.00     0.139 C 
ATOM     52  O   UNK d   0     -24.914  -2.789   7.053  0.00  0.00    -0.650 OA
BRANCH  51  53
ATOM     53  O   UNK d   0     -22.687  -2.503   7.315  0.00  0.00    -0.776 OA
ATOM     54  H   UNK d   0     -22.823  -1.699   7.902  0.00  0.00     0.167 HD
ENDBRANCH  51  53
ENDBRANCH  50  51
ENDBRANCH  49  50
ENDBRANCH  24  49
BRANCH  21  55
ATOM     55  C   UNK d   0     -25.876  -4.213   3.309  0.00  0.00     0.151 C 
BRANCH  55  56
ATOM     56  C   UNK d   0     -25.864  -2.746   3.419  0.00  0.00     0.143 C 
ATOM     57  O   UNK d   0     -25.648  -1.998   2.445  0.00  0.00    -0.650 OA
BRANCH  56  58
ATOM     58  O   UNK d   0     -26.106  -2.188   4.673  0.00  0.00    -0.776 OA
ATOM     59  H   UNK d   0     -25.321  -1.634   5.062  0.00  0.00     0.167 HD
ENDBRANCH  56  58
ENDBRANCH  55  56
ENDBRANCH  21  55
BRANCH  18  60
ATOM     60  C   UNK d   0     -24.617  -5.438  -1.764  0.00  0.00     0.151 C 
BRANCH  60  61
ATOM     61  C   UNK d   0     -25.184  -6.517  -0.941  0.00  0.00     0.143 C 
ATOM     62  O   UNK d   0     -24.746  -7.661  -0.814  0.00  0.00    -0.650 OA
BRANCH  61  63
ATOM     63  O   UNK d   0     -26.359  -6.179  -0.229  0.00  0.00    -0.776 OA
ATOM     64  H   UNK d   0     -27.269  -6.366  -0.611  0.00  0.00     0.167 HD
ENDBRANCH  61  63
ENDBRANCH  60  61
ENDBRANCH  18  60
BRANCH  14  65
ATOM     65  C   UNK d   0     -22.196  -5.899  -3.534  0.00  0.00     0.052 C 
BRANCH  65  66
ATOM     66  C   UNK d   0     -22.196  -4.717  -4.438  0.00  0.00     0.115 C 
BRANCH  66  67
ATOM     67  C   UNK d   0     -20.961  -4.255  -5.005  0.00  0.00     0.139 C 
ATOM     68  O   UNK d   0     -19.914  -4.990  -4.878  0.00  0.00    -0.650 OA
BRANCH  67  69
ATOM     69  O   UNK d   0     -20.733  -3.069  -5.702  0.00  0.00    -0.776 OA
ATOM     70  H   UNK d   0     -19.879  -3.044  -6.278  0.00  0.00     0.167 HD
ENDBRANCH  67  69
ENDBRANCH  66  67
ENDBRANCH  65  66
ENDBRANCH  14  65
ENDBRANCH   6   7
ENDBRANCH   5   6
ENDBRANCH   2   5
TORSDOF 28
ENDMDL
MODEL 8
REMARK VINA RESULT:      -8.6      4.381      9.568
REMARK  28 active torsions:
REMARK  status: ('A' for Active; 'I' for Inactive)
REMARK    1  A    between atoms: C_2  and  O_3 
REMARK    2  A    between atoms: C_2  and  C_4 
REMARK    3  A    between atoms: C_4  and  C_5 
REMARK    4  A    between atoms: C_5  and  C_6 
REMARK    5  A    between atoms: C_7  and  C_8 
REMARK    6  A    between atoms: C_8  and  C_9 
REMARK    7  A    between atoms: C_9  and  O_11 
REMARK    8  A    between atoms: C_28  and  C_29 
REMARK    9  A    between atoms: C_29  and  C_30 
REMARK   10  A    between atoms: C_30  and  O_32 
REMARK   11  A    between atoms: C_33  and  C_34 
REMARK   12  A    between atoms: C_34  and  C_35 
REMARK   13  A    between atoms: C_35  and  C_36 
REMARK   14  A    between atoms: C_36  and  O_38 
REMARK   15  A    between atoms: C_39  and  C_40 
REMARK   16  A    between atoms: C_40  and  C_41 
REMARK   17  A    between atoms: C_41  and  C_42 
REMARK   18  A    between atoms: C_42  and  O_44 
REMARK   19  A    between atoms: C_45  and  C_46 
REMARK   20  A    between atoms: C_46  and  C_47 
REMARK   21  A    between atoms: C_47  and  O_49 
REMARK   22  A    between atoms: C_50  and  C_51 
REMARK   23  A    between atoms: C_51  and  C_52 
REMARK   24  A    between atoms: C_52  and  O_54 
REMARK   25  A    between atoms: C_55  and  C_56 
REMARK   26  A    between atoms: C_56  and  C_57 
REMARK   27  A    between atoms: C_57  and  C_58 
REMARK   28  A    between atoms: C_58  and  O_60 
ROOT
ATOM      1  O   UNK d   0     -27.649   3.846   1.312  0.00  0.00    -0.650 OA
ATOM      2  C   UNK d   0     -26.509   3.528   1.718  0.00  0.00     0.139 C 
ENDROOT
BRANCH   2   3
ATOM      3  O   UNK d   0     -25.449   4.370   1.479  0.00  0.00    -0.776 OA
ATOM      4  H   UNK d   0     -24.884   4.279   0.633  0.00  0.00     0.167 HD
ENDBRANCH   2   3
BRANCH   2   5
ATOM      5  C   UNK d   0     -26.307   2.247   2.452  0.00  0.00     0.115 C 
BRANCH   5   6
ATOM      6  C   UNK d   0     -27.105   1.148   1.805  0.00  0.00     0.052 C 
BRANCH   6   7
ATOM      7  C   UNK d   0     -26.620  -0.229   2.191  0.00  0.00    -0.020 A 
ATOM      8  C   UNK d   0     -26.020  -1.107   1.428  0.00  0.00    -0.011 A 
ATOM      9  C   UNK d   0     -25.751  -2.286   2.235  0.00  0.00     0.067 A 
ATOM     10  C   UNK d   0     -25.135  -3.531   2.033  0.00  0.00     0.062 C 
ATOM     11  N   UNK d   0     -26.225  -2.041   3.474  0.00  0.00    -0.248 NA
ATOM     12  C   UNK d   0     -24.718  -4.438   3.013  0.00  0.00     0.041 A 
ATOM     13  N   UNK d   0     -25.314  -4.854   4.147  0.00  0.00    -0.355 N 
ATOM     14  C   UNK d   0     -23.444  -5.025   2.900  0.00  0.00    -0.022 A 
ATOM     15  C   UNK d   0     -24.447  -5.683   4.760  0.00  0.00     0.042 A 
ATOM     16  H   UNK d   0     -26.334  -4.583   4.497  0.00  0.00     0.166 HD
ATOM     17  C   UNK d   0     -24.565  -6.393   5.971  0.00  0.00     0.062 C 
ATOM     18  C   UNK d   0     -23.264  -5.814   4.008  0.00  0.00    -0.013 A 
ATOM     19  C   UNK d   0     -25.035  -5.959   7.184  0.00  0.00     0.067 A 
ATOM     20  N   UNK d   0     -25.651  -4.774   7.204  0.00  0.00    -0.248 NA
ATOM     21  C   UNK d   0     -25.033  -6.463   8.547  0.00  0.00    -0.011 A 
ATOM     22  C   UNK d   0     -26.050  -4.466   8.482  0.00  0.00     0.066 A 
ATOM     23  C   UNK d   0     -26.740  -3.273   8.641  0.00  0.00     0.062 C 
ATOM     24  C   UNK d   0     -25.625  -5.583   9.302  0.00  0.00    -0.020 A 
ATOM     25  C   UNK d   0     -27.161  -2.382   7.642  0.00  0.00     0.041 A 
ATOM     26  N   UNK d   0     -26.562  -1.957   6.523  0.00  0.00    -0.355 N 
ATOM     27  C   UNK d   0     -28.441  -1.798   7.754  0.00  0.00    -0.022 A 
ATOM     28  C   UNK d   0     -27.421  -1.124   5.914  0.00  0.00     0.042 A 
ATOM     29  H   UNK d   0     -25.533  -2.223   6.177  0.00  0.00     0.166 HD
ATOM     30  C   UNK d   0     -27.313  -0.403   4.714  0.00  0.00     0.062 C 
ATOM     31  C   UNK d   0     -28.614  -1.000   6.665  0.00  0.00    -0.013 A 
ATOM     32  C   UNK d   0     -26.759  -0.819   3.514  0.00  0.00     0.066 A 
BRANCH   8  33
ATOM     33  C   UNK d   0     -25.675  -0.952   0.003  0.00  0.00     0.151 C 
BRANCH  33  34
ATOM     34  C   UNK d   0     -24.374  -1.556  -0.338  0.00  0.00     0.143 C 
ATOM     35  O   UNK d   0     -23.315  -1.059   0.072  0.00  0.00    -0.650 OA
BRANCH  34  36
ATOM     36  O   UNK d   0     -24.339  -2.685  -1.123  0.00  0.00    -0.776 OA
ATOM     37  H   UNK d   0     -24.652  -3.596  -0.763  0.00  0.00     0.167 HD
ENDBRANCH  34  36
ENDBRANCH  33  34
ENDBRANCH   8  33
BRANCH  31  38
ATOM     38  C   UNK d   0     -29.842  -0.180   6.346  0.00  0.00     0.151 C 
BRANCH  38  39
ATOM     39  C   UNK d   0     -29.843   1.109   7.004  0.00  0.00     0.143 C 
ATOM     40  O   UNK d   0     -30.768   1.475   7.750  0.00  0.00    -0.650 OA
BRANCH  39  41
ATOM     41  O   UNK d   0     -28.774   1.982   6.803  0.00  0.00    -0.776 OA
ATOM     42  H   UNK d   0     -28.846   2.908   7.237  0.00  0.00     0.167 HD
ENDBRANCH  39  41
ENDBRANCH  38  39
ENDBRANCH  31  38
BRANCH  27  43
ATOM     43  C   UNK d   0     -29.479  -1.964   8.835  0.00  0.00     0.052 C 
BRANCH  43  44
ATOM     44  C   UNK d   0     -29.272  -1.052  10.000  0.00  0.00     0.115 C 
BRANCH  44  45
ATOM     45  C   UNK d   0     -30.608  -0.834  10.612  0.00  0.00     0.139 C 
ATOM     46  O   UNK d   0     -30.965  -1.600  11.541  0.00  0.00    -0.650 OA
BRANCH  45  47
ATOM     47  O   UNK d   0     -31.461   0.170  10.208  0.00  0.00    -0.776 OA
ATOM     48  H   UNK d   0     -31.303   1.165  10.436  0.00  0.00     0.167 HD
ENDBRANCH  45  47
ENDBRANCH  44  45
ENDBRANCH  43  44
ENDBRANCH  27  43
BRANCH  24  49
ATOM     49  C   UNK d   0     -25.877  -5.708  10.748  0.00  0.00     0.052 C 
BRANCH  49  50
ATOM     50  C   UNK d   0     -27.023  -6.654  11.001  0.00  0.00     0.115 C 
BRANCH  50  51
ATOM     51  C   UNK d   0     -26.717  -7.899  11.693  0.00  0.00     0.139 C 
ATOM     52  O   UNK d   0     -25.620  -8.104  12.264  0.00  0.00    -0.650 OA
BRANCH  51  53
ATOM     53  O   UNK d   0     -27.661  -8.914  11.730  0.00  0.00    -0.776 OA
ATOM     54  H   UNK d   0     -28.380  -8.868  12.431  0.00  0.00     0.167 HD
ENDBRANCH  51  53
ENDBRANCH  50  51
ENDBRANCH  49  50
ENDBRANCH  24  49
BRANCH  21  55
ATOM     55  C   UNK d   0     -24.444  -7.774   8.952  0.00  0.00     0.151 C 
BRANCH  55  56
ATOM     56  C   UNK d   0     -25.361  -8.894   8.691  0.00  0.00     0.143 C 
ATOM     57  O   UNK d   0     -26.031  -8.988   7.645  0.00  0.00    -0.650 OA
BRANCH  56  58
ATOM     58  O   UNK d   0     -25.470  -9.883   9.667  0.00  0.00    -0.776 OA
ATOM     59  H   UNK d   0     -26.255 -10.546   9.531  0.00  0.00     0.167 HD
ENDBRANCH  56  58
ENDBRANCH  55  56
ENDBRANCH  21  55
BRANCH  18  60
ATOM     60  C   UNK d   0     -22.026  -6.626   4.299  0.00  0.00     0.151 C 
BRANCH  60  61
ATOM     61  C   UNK d   0     -21.198  -5.795   5.187  0.00  0.00     0.143 C 
ATOM     62  O   UNK d   0     -21.238  -5.755   6.417  0.00  0.00    -0.650 OA
BRANCH  61  63
ATOM     63  O   UNK d   0     -20.260  -4.962   4.530  0.00  0.00    -0.776 OA
ATOM     64  H   UNK d   0     -20.545  -4.343   3.792  0.00  0.00     0.167 HD
ENDBRANCH  61  63
ENDBRANCH  60  61
ENDBRANCH  18  60
BRANCH  14  65
ATOM     65  C   UNK d   0     -22.436  -4.973   1.788  0.00  0.00     0.052 C 
BRANCH  65  66
ATOM     66  C   UNK d   0     -22.775  -5.872   0.652  0.00  0.00     0.115 C 
BRANCH  66  67
ATOM     67  C   UNK d   0     -22.278  -5.578  -0.662  0.00  0.00     0.139 C 
ATOM     68  O   UNK d   0     -22.541  -6.400  -1.616  0.00  0.00    -0.650 OA
BRANCH  67  69
ATOM     69  O   UNK d   0     -21.519  -4.478  -1.061  0.00  0.00    -0.776 OA
ATOM     70  H   UNK d   0     -21.136  -3.899  -0.300  0.00  0.00     0.167 HD
ENDBRANCH  67  69
ENDBRANCH  66  67
ENDBRANCH  65  66
ENDBRANCH  14  65
ENDBRANCH   6   7
ENDBRANCH   5   6
ENDBRANCH   2   5
TORSDOF 28
ENDMDL
MODEL 9
REMARK VINA RESULT:      -8.6      4.677     12.490
REMARK  28 active torsions:
REMARK  status: ('A' for Active; 'I' for Inactive)
REMARK    1  A    between atoms: C_2  and  O_3 
REMARK    2  A    between atoms: C_2  and  C_4 
REMARK    3  A    between atoms: C_4  and  C_5 
REMARK    4  A    between atoms: C_5  and  C_6 
REMARK    5  A    between atoms: C_7  and  C_8 
REMARK    6  A    between atoms: C_8  and  C_9 
REMARK    7  A    between atoms: C_9  and  O_11 
REMARK    8  A    between atoms: C_28  and  C_29 
REMARK    9  A    between atoms: C_29  and  C_30 
REMARK   10  A    between atoms: C_30  and  O_32 
REMARK   11  A    between atoms: C_33  and  C_34 
REMARK   12  A    between atoms: C_34  and  C_35 
REMARK   13  A    between atoms: C_35  and  C_36 
REMARK   14  A    between atoms: C_36  and  O_38 
REMARK   15  A    between atoms: C_39  and  C_40 
REMARK   16  A    between atoms: C_40  and  C_41 
REMARK   17  A    between atoms: C_41  and  C_42 
REMARK   18  A    between atoms: C_42  and  O_44 
REMARK   19  A    between atoms: C_45  and  C_46 
REMARK   20  A    between atoms: C_46  and  C_47 
REMARK   21  A    between atoms: C_47  and  O_49 
REMARK   22  A    between atoms: C_50  and  C_51 
REMARK   23  A    between atoms: C_51  and  C_52 
REMARK   24  A    between atoms: C_52  and  O_54 
REMARK   25  A    between atoms: C_55  and  C_56 
REMARK   26  A    between atoms: C_56  and  C_57 
REMARK   27  A    between atoms: C_57  and  C_58 
REMARK   28  A    between atoms: C_58  and  O_60 
ROOT
ATOM      1  O   UNK d   0     -21.220  -6.878   3.952  0.00  0.00    -0.650 OA
ATOM      2  C   UNK d   0     -20.769  -6.547   5.071  0.00  0.00     0.139 C 
ENDROOT
BRANCH   2   3
ATOM      3  O   UNK d   0     -19.750  -5.628   5.142  0.00  0.00    -0.776 OA
ATOM      4  H   UNK d   0     -19.698  -4.956   5.910  0.00  0.00     0.167 HD
ENDBRANCH   2   3
BRANCH   2   5
ATOM      5  C   UNK d   0     -21.333  -7.147   6.313  0.00  0.00     0.115 C 
BRANCH   5   6
ATOM      6  C   UNK d   0     -22.621  -7.861   6.004  0.00  0.00     0.052 C 
BRANCH   6   7
ATOM      7  C   UNK d   0     -23.836  -7.095   6.469  0.00  0.00    -0.020 A 
ATOM      8  C   UNK d   0     -24.575  -7.333   7.523  0.00  0.00    -0.011 A 
ATOM      9  C   UNK d   0     -25.635  -6.339   7.556  0.00  0.00     0.067 A 
ATOM     10  C   UNK d   0     -26.710  -6.034   8.405  0.00  0.00     0.062 C 
ATOM     11  N   UNK d   0     -25.469  -5.540   6.481  0.00  0.00    -0.248 NA
ATOM     12  C   UNK d   0     -27.467  -4.857   8.424  0.00  0.00     0.041 A 
ATOM     13  N   UNK d   0     -27.976  -4.114   7.422  0.00  0.00    -0.355 N 
ATOM     14  C   UNK d   0     -27.747  -4.248   9.660  0.00  0.00    -0.022 A 
ATOM     15  C   UNK d   0     -28.564  -3.045   7.991  0.00  0.00     0.042 A 
ATOM     16  H   UNK d   0     -27.936  -4.351   6.336  0.00  0.00     0.166 HD
ATOM     17  C   UNK d   0     -29.245  -1.959   7.407  0.00  0.00     0.062 C 
ATOM     18  C   UNK d   0     -28.441  -3.093   9.393  0.00  0.00    -0.013 A 
ATOM     19  C   UNK d   0     -28.895  -1.207   6.314  0.00  0.00     0.067 A 
ATOM     20  N   UNK d   0     -27.884  -1.660   5.568  0.00  0.00    -0.248 NA
ATOM     21  C   UNK d   0     -29.344   0.038   5.715  0.00  0.00    -0.011 A 
ATOM     22  C   UNK d   0     -27.639  -0.801   4.526  0.00  0.00     0.066 A 
ATOM     23  C   UNK d   0     -26.633  -1.171   3.645  0.00  0.00     0.062 C 
ATOM     24  C   UNK d   0     -28.602   0.273   4.671  0.00  0.00    -0.020 A 
ATOM     25  C   UNK d   0     -25.893  -2.363   3.636  0.00  0.00     0.041 A 
ATOM     26  N   UNK d   0     -25.375  -3.094   4.631  0.00  0.00    -0.355 N 
ATOM     27  C   UNK d   0     -25.616  -2.977   2.395  0.00  0.00    -0.022 A 
ATOM     28  C   UNK d   0     -24.780  -4.156   4.065  0.00  0.00     0.042 A 
ATOM     29  H   UNK d   0     -25.406  -2.849   5.721  0.00  0.00     0.166 HD
ATOM     30  C   UNK d   0     -24.091  -5.239   4.634  0.00  0.00     0.062 C 
ATOM     31  C   UNK d   0     -24.913  -4.112   2.657  0.00  0.00    -0.013 A 
ATOM     32  C   UNK d   0     -24.404  -5.941   5.787  0.00  0.00     0.066 A 
BRANCH   8  33
ATOM     33  C   UNK d   0     -24.388  -8.412   8.509  0.00  0.00     0.151 C 
BRANCH  33  34
ATOM     34  C   UNK d   0     -25.645  -9.106   8.841  0.00  0.00     0.143 C 
ATOM     35  O   UNK d   0     -25.958  -9.328  10.020  0.00  0.00    -0.650 OA
BRANCH  34  36
ATOM     36  O   UNK d   0     -26.479  -9.514   7.826  0.00  0.00    -0.776 OA
ATOM     37  H   UNK d   0     -26.138 -10.113   7.062  0.00  0.00     0.167 HD
ENDBRANCH  34  36
ENDBRANCH  33  34
ENDBRANCH   8  33
BRANCH  31  38
ATOM     38  C   UNK d   0     -24.408  -5.104   1.636  0.00  0.00     0.151 C 
BRANCH  38  39
ATOM     39  C   UNK d   0     -23.092  -4.773   1.134  0.00  0.00     0.143 C 
ATOM     40  O   UNK d   0     -22.219  -4.250   1.849  0.00  0.00    -0.650 OA
BRANCH  39  41
ATOM     41  O   UNK d   0     -22.776  -5.044  -0.197  0.00  0.00    -0.776 OA
ATOM     42  H   UNK d   0     -22.151  -4.382  -0.667  0.00  0.00     0.167 HD
ENDBRANCH  39  41
ENDBRANCH  38  39
ENDBRANCH  31  38
BRANCH  27  43
ATOM     43  C   UNK d   0     -25.985  -2.531   1.002  0.00  0.00     0.052 C 
BRANCH  43  44
ATOM     44  C   UNK d   0     -25.274  -1.290   0.571  0.00  0.00     0.115 C 
BRANCH  44  45
ATOM     45  C   UNK d   0     -24.071  -1.730  -0.183  0.00  0.00     0.139 C 
ATOM     46  O   UNK d   0     -22.947  -1.331   0.210  0.00  0.00    -0.650 OA
BRANCH  45  47
ATOM     47  O   UNK d   0     -24.140  -2.557  -1.283  0.00  0.00    -0.776 OA
ATOM     48  H   UNK d   0     -23.375  -3.198  -1.551  0.00  0.00     0.167 HD
ENDBRANCH  45  47
ENDBRANCH  44  45
ENDBRANCH  43  44
ENDBRANCH  27  43
BRANCH  24  49
ATOM     49  C   UNK d   0     -28.739   1.411   3.747  0.00  0.00     0.052 C 
BRANCH  49  50
ATOM     50  C   UNK d   0     -27.383   1.972   3.402  0.00  0.00     0.115 C 
BRANCH  50  51
ATOM     51  C   UNK d   0     -27.209   2.512   2.060  0.00  0.00     0.139 C 
ATOM     52  O   UNK d   0     -27.409   1.832   1.026  0.00  0.00    -0.650 OA
BRANCH  51  53
ATOM     53  O   UNK d   0     -26.804   3.829   1.897  0.00  0.00    -0.776 OA
ATOM     54  H   UNK d   0     -25.846   4.059   2.092  0.00  0.00     0.167 HD
ENDBRANCH  51  53
ENDBRANCH  50  51
ENDBRANCH  49  50
ENDBRANCH  24  49
BRANCH  21  55
ATOM     55  C   UNK d   0     -30.471   0.861   6.245  0.00  0.00     0.151 C 
BRANCH  55  56
ATOM     56  C   UNK d   0     -30.294   1.186   7.669  0.00  0.00     0.143 C 
ATOM     57  O   UNK d   0     -29.271   1.745   8.112  0.00  0.00    -0.650 OA
BRANCH  56  58
ATOM     58  O   UNK d   0     -31.324   0.847   8.545  0.00  0.00    -0.776 OA
ATOM     59  H   UNK d   0     -31.031   0.710   9.530  0.00  0.00     0.167 HD
ENDBRANCH  56  58
ENDBRANCH  55  56
ENDBRANCH  21  55
BRANCH  18  60
ATOM     60  C   UNK d   0     -28.936  -2.122  10.436  0.00  0.00     0.151 C 
BRANCH  60  61
ATOM     61  C   UNK d   0     -30.359  -2.435  10.636  0.00  0.00     0.143 C 
ATOM     62  O   UNK d   0     -30.835  -3.495  11.044  0.00  0.00    -0.650 OA
BRANCH  61  63
ATOM     63  O   UNK d   0     -31.257  -1.387  10.319  0.00  0.00    -0.776 OA
ATOM     64  H   UNK d   0     -31.470  -0.667  10.986  0.00  0.00     0.167 HD
ENDBRANCH  61  63
ENDBRANCH  60  61
ENDBRANCH  18  60
BRANCH  14  65
ATOM     65  C   UNK d   0     -27.498  -4.719  11.065  0.00  0.00     0.052 C 
BRANCH  65  66
ATOM     66  C   UNK d   0     -26.081  -4.556  11.490  0.00  0.00     0.115 C 
BRANCH  66  67
ATOM     67  C   UNK d   0     -25.158  -5.643  11.320  0.00  0.00     0.139 C 
ATOM     68  O   UNK d   0     -24.039  -5.411  10.731  0.00  0.00    -0.650 OA
BRANCH  67  69
ATOM     69  O   UNK d   0     -25.317  -6.968  11.724  0.00  0.00    -0.776 OA
ATOM     70  H   UNK d   0     -24.579  -7.341  12.338  0.00  0.00     0.167 HD
ENDBRANCH  67  69
ENDBRANCH  66  67
ENDBRANCH  65  66
ENDBRANCH  14  65
ENDBRANCH   6   7
ENDBRANCH   5   6
ENDBRANCH   2   5
TORSDOF 28
ENDMDL
MODEL 10
REMARK VINA RESULT:      -8.5      4.791      9.162
REMARK  28 active torsions:
REMARK  status: ('A' for Active; 'I' for Inactive)
REMARK    1  A    between atoms: C_2  and  O_3 
REMARK    2  A    between atoms: C_2  and  C_4 
REMARK    3  A    between atoms: C_4  and  C_5 
REMARK    4  A    between atoms: C_5  and  C_6 
REMARK    5  A    between atoms: C_7  and  C_8 
REMARK    6  A    between atoms: C_8  and  C_9 
REMARK    7  A    between atoms: C_9  and  O_11 
REMARK    8  A    between atoms: C_28  and  C_29 
REMARK    9  A    between atoms: C_29  and  C_30 
REMARK   10  A    between atoms: C_30  and  O_32 
REMARK   11  A    between atoms: C_33  and  C_34 
REMARK   12  A    between atoms: C_34  and  C_35 
REMARK   13  A    between atoms: C_35  and  C_36 
REMARK   14  A    between atoms: C_36  and  O_38 
REMARK   15  A    between atoms: C_39  and  C_40 
REMARK   16  A    between atoms: C_40  and  C_41 
REMARK   17  A    between atoms: C_41  and  C_42 
REMARK   18  A    between atoms: C_42  and  O_44 
REMARK   19  A    between atoms: C_45  and  C_46 
REMARK   20  A    between atoms: C_46  and  C_47 
REMARK   21  A    between atoms: C_47  and  O_49 
REMARK   22  A    between atoms: C_50  and  C_51 
REMARK   23  A    between atoms: C_51  and  C_52 
REMARK   24  A    between atoms: C_52  and  O_54 
REMARK   25  A    between atoms: C_55  and  C_56 
REMARK   26  A    between atoms: C_56  and  C_57 
REMARK   27  A    between atoms: C_57  and  C_58 
REMARK   28  A    between atoms: C_58  and  O_60 
ROOT
ATOM      1  O   UNK d   0     -25.715   5.420   0.643  0.00  0.00    -0.650 OA
ATOM      2  C   UNK d   0     -26.372   4.842   1.538  0.00  0.00     0.139 C 
ENDROOT
BRANCH   2   3
ATOM      3  O   UNK d   0     -27.483   5.457   2.062  0.00  0.00    -0.776 OA
ATOM      4  H   UNK d   0     -27.797   5.257   3.013  0.00  0.00     0.167 HD
ENDBRANCH   2   3
BRANCH   2   5
ATOM      5  C   UNK d   0     -25.949   3.499   2.027  0.00  0.00     0.115 C 
BRANCH   5   6
ATOM      6  C   UNK d   0     -27.154   2.627   2.252  0.00  0.00     0.052 C 
BRANCH   6   7
ATOM      7  C   UNK d   0     -26.801   1.161   2.342  0.00  0.00    -0.020 A 
ATOM      8  C   UNK d   0     -26.609   0.324   1.355  0.00  0.00    -0.011 A 
ATOM      9  C   UNK d   0     -26.302  -0.976   1.928  0.00  0.00     0.067 A 
ATOM     10  C   UNK d   0     -25.983  -2.251   1.433  0.00  0.00     0.062 C 
ATOM     11  N   UNK d   0     -26.335  -0.840   3.270  0.00  0.00    -0.248 NA
ATOM     12  C   UNK d   0     -25.442  -3.325   2.147  0.00  0.00     0.041 A 
ATOM     13  N   UNK d   0     -25.727  -3.810   3.370  0.00  0.00    -0.355 N 
ATOM     14  C   UNK d   0     -24.373  -4.046   1.584  0.00  0.00    -0.022 A 
ATOM     15  C   UNK d   0     -24.861  -4.815   3.602  0.00  0.00     0.042 A 
ATOM     16  H   UNK d   0     -26.537  -3.462   4.049  0.00  0.00     0.166 HD
ATOM     17  C   UNK d   0     -24.720  -5.660   4.721  0.00  0.00     0.062 C 
ATOM     18  C   UNK d   0     -23.996  -4.993   2.505  0.00  0.00    -0.013 A 
ATOM     19  C   UNK d   0     -24.727  -5.335   6.053  0.00  0.00     0.067 A 
ATOM     20  N   UNK d   0     -25.110  -4.096   6.371  0.00  0.00    -0.248 NA
ATOM     21  C   UNK d   0     -24.396  -6.012   7.296  0.00  0.00    -0.011 A 
ATOM     22  C   UNK d   0     -25.051  -3.913   7.731  0.00  0.00     0.066 A 
ATOM     23  C   UNK d   0     -25.460  -2.675   8.205  0.00  0.00     0.062 C 
ATOM     24  C   UNK d   0     -24.583  -5.174   8.273  0.00  0.00    -0.020 A 
ATOM     25  C   UNK d   0     -26.013  -1.613   7.473  0.00  0.00     0.041 A 
ATOM     26  N   UNK d   0     -25.720  -1.122   6.263  0.00  0.00    -0.355 N 
ATOM     27  C   UNK d   0     -27.089  -0.893   8.036  0.00  0.00    -0.022 A 
ATOM     28  C   UNK d   0     -26.576  -0.113   6.034  0.00  0.00     0.042 A 
ATOM     29  H   UNK d   0     -24.899  -1.466   5.587  0.00  0.00     0.166 HD
ATOM     30  C   UNK d   0     -26.721   0.741   4.929  0.00  0.00     0.062 C 
ATOM     31  C   UNK d   0     -27.452   0.057   7.132  0.00  0.00    -0.013 A 
ATOM     32  C   UNK d   0     -26.629   0.422   3.584  0.00  0.00     0.066 A 
BRANCH   8  33
ATOM     33  C   UNK d   0     -26.689   0.622  -0.087  0.00  0.00     0.151 C 
BRANCH  33  34
ATOM     34  C   UNK d   0     -27.515  -0.350  -0.826  0.00  0.00     0.143 C 
ATOM     35  O   UNK d   0     -27.000  -1.338  -1.369  0.00  0.00    -0.650 OA
BRANCH  34  36
ATOM     36  O   UNK d   0     -28.874  -0.155  -0.912  0.00  0.00    -0.776 OA
ATOM     37  H   UNK d   0     -29.536  -0.922  -0.734  0.00  0.00     0.167 HD
ENDBRANCH  34  36
ENDBRANCH  33  34
ENDBRANCH   8  33
BRANCH  31  38
ATOM     38  C   UNK d   0     -28.571   1.060   7.293  0.00  0.00     0.151 C 
BRANCH  38  39
ATOM     39  C   UNK d   0     -28.207   2.176   8.140  0.00  0.00     0.143 C 
ATOM     40  O   UNK d   0     -28.874   2.499   9.139  0.00  0.00    -0.650 OA
BRANCH  39  41
ATOM     41  O   UNK d   0     -27.070   2.925   7.837  0.00  0.00    -0.776 OA
ATOM     42  H   UNK d   0     -26.404   2.508   7.180  0.00  0.00     0.167 HD
ENDBRANCH  39  41
ENDBRANCH  38  39
ENDBRANCH  31  38
BRANCH  27  43
ATOM     43  C   UNK d   0     -27.766  -1.071   9.372  0.00  0.00     0.052 C 
BRANCH  43  44
ATOM     44  C   UNK d   0     -28.666  -2.262   9.425  0.00  0.00     0.115 C 
BRANCH  44  45
ATOM     45  C   UNK d   0     -29.911  -1.885   8.706  0.00  0.00     0.139 C 
ATOM     46  O   UNK d   0     -30.176  -2.476   7.630  0.00  0.00    -0.650 OA
BRANCH  45  47
ATOM     47  O   UNK d   0     -30.783  -0.925   9.174  0.00  0.00    -0.776 OA
ATOM     48  H   UNK d   0     -30.470   0.004   9.499  0.00  0.00     0.167 HD
ENDBRANCH  45  47
ENDBRANCH  44  45
ENDBRANCH  43  44
ENDBRANCH  27  43
BRANCH  24  49
ATOM     49  C   UNK d   0     -24.404  -5.457   9.708  0.00  0.00     0.052 C 
BRANCH  49  50
ATOM     50  C   UNK d   0     -25.724  -5.362  10.430  0.00  0.00     0.115 C 
BRANCH  50  51
ATOM     51  C   UNK d   0     -26.665  -6.458  10.244  0.00  0.00     0.139 C 
ATOM     52  O   UNK d   0     -26.652  -7.489  10.957  0.00  0.00    -0.650 OA
BRANCH  51  53
ATOM     53  O   UNK d   0     -27.619  -6.381   9.242  0.00  0.00    -0.776 OA
ATOM     54  H   UNK d   0     -27.349  -6.632   8.307  0.00  0.00     0.167 HD
ENDBRANCH  51  53
ENDBRANCH  50  51
ENDBRANCH  49  50
ENDBRANCH  24  49
BRANCH  21  55
ATOM     55  C   UNK d   0     -23.930  -7.428   7.376  0.00  0.00     0.151 C 
BRANCH  55  56
ATOM     56  C   UNK d   0     -24.977  -8.324   7.892  0.00  0.00     0.143 C 
ATOM     57  O   UNK d   0     -26.076  -8.476   7.324  0.00  0.00    -0.650 OA
BRANCH  56  58
ATOM     58  O   UNK d   0     -24.710  -9.025   9.068  0.00  0.00    -0.776 OA
ATOM     59  H   UNK d   0     -25.544  -9.262   9.633  0.00  0.00     0.167 HD
ENDBRANCH  56  58
ENDBRANCH  55  56
ENDBRANCH  21  55
BRANCH  18  60
ATOM     60  C   UNK d   0     -22.875  -5.984   2.315  0.00  0.00     0.151 C 
BRANCH  60  61
ATOM     61  C   UNK d   0     -21.717  -5.425   3.029  0.00  0.00     0.143 C 
ATOM     62  O   UNK d   0     -21.167  -4.344   2.818  0.00  0.00    -0.650 OA
BRANCH  61  63
ATOM     63  O   UNK d   0     -21.198  -6.238   4.065  0.00  0.00    -0.776 OA
ATOM     64  H   UNK d   0     -20.628  -7.040   3.859  0.00  0.00     0.167 HD
ENDBRANCH  61  63
ENDBRANCH  60  61
ENDBRANCH  18  60
BRANCH  14  65
ATOM     65  C   UNK d   0     -23.752  -3.974   0.218  0.00  0.00     0.052 C 
BRANCH  65  66
ATOM     66  C   UNK d   0     -24.530  -4.710  -0.814  0.00  0.00     0.115 C 
BRANCH  66  67
ATOM     67  C   UNK d   0     -24.169  -6.059  -1.148  0.00  0.00     0.139 C 
ATOM     68  O   UNK d   0     -24.778  -7.023  -0.553  0.00  0.00    -0.650 OA
BRANCH  67  69
ATOM     69  O   UNK d   0     -23.210  -6.483  -2.068  0.00  0.00    -0.776 OA
ATOM     70  H   UNK d   0     -22.991  -7.490  -2.055  0.00  0.00     0.167 HD
ENDBRANCH  67  69
ENDBRANCH  66  67
ENDBRANCH  65  66
ENDBRANCH  14  65
ENDBRANCH   6   7
ENDBRANCH   5   6
ENDBRANCH   2   5
TORSDOF 28
ENDMDL
MODEL 11
REMARK VINA RESULT:      -8.4      2.822      8.904
REMARK  28 active torsions:
REMARK  status: ('A' for Active; 'I' for Inactive)
REMARK    1  A    between atoms: C_2  and  O_3 
REMARK    2  A    between atoms: C_2  and  C_4 
REMARK    3  A    between atoms: C_4  and  C_5 
REMARK    4  A    between atoms: C_5  and  C_6 
REMARK    5  A    between atoms: C_7  and  C_8 
REMARK    6  A    between atoms: C_8  and  C_9 
REMARK    7  A    between atoms: C_9  and  O_11 
REMARK    8  A    between atoms: C_28  and  C_29 
REMARK    9  A    between atoms: C_29  and  C_30 
REMARK   10  A    between atoms: C_30  and  O_32 
REMARK   11  A    between atoms: C_33  and  C_34 
REMARK   12  A    between atoms: C_34  and  C_35 
REMARK   13  A    between atoms: C_35  and  C_36 
REMARK   14  A    between atoms: C_36  and  O_38 
REMARK   15  A    between atoms: C_39  and  C_40 
REMARK   16  A    between atoms: C_40  and  C_41 
REMARK   17  A    between atoms: C_41  and  C_42 
REMARK   18  A    between atoms: C_42  and  O_44 
REMARK   19  A    between atoms: C_45  and  C_46 
REMARK   20  A    between atoms: C_46  and  C_47 
REMARK   21  A    between atoms: C_47  and  O_49 
REMARK   22  A    between atoms: C_50  and  C_51 
REMARK   23  A    between atoms: C_51  and  C_52 
REMARK   24  A    between atoms: C_52  and  O_54 
REMARK   25  A    between atoms: C_55  and  C_56 
REMARK   26  A    between atoms: C_56  and  C_57 
REMARK   27  A    between atoms: C_57  and  C_58 
REMARK   28  A    between atoms: C_58  and  O_60 
ROOT
ATOM      1  O   UNK d   0     -22.125  -5.126  -1.899  0.00  0.00    -0.650 OA
ATOM      2  C   UNK d   0     -21.375  -5.899  -1.263  0.00  0.00     0.139 C 
ENDROOT
BRANCH   2   3
ATOM      3  O   UNK d   0     -20.336  -6.518  -1.915  0.00  0.00    -0.776 OA
ATOM      4  H   UNK d   0     -20.468  -6.938  -2.838  0.00  0.00     0.167 HD
ENDBRANCH   2   3
BRANCH   2   5
ATOM      5  C   UNK d   0     -21.610  -6.144   0.189  0.00  0.00     0.115 C 
BRANCH   5   6
ATOM      6  C   UNK d   0     -22.894  -5.490   0.622  0.00  0.00     0.052 C 
BRANCH   6   7
ATOM      7  C   UNK d   0     -23.007  -5.371   2.123  0.00  0.00    -0.020 A 
ATOM      8  C   UNK d   0     -24.052  -5.000   2.818  0.00  0.00    -0.011 A 
ATOM      9  C   UNK d   0     -23.684  -5.029   4.224  0.00  0.00     0.067 A 
ATOM     10  C   UNK d   0     -24.329  -4.773   5.445  0.00  0.00     0.062 C 
ATOM     11  N   UNK d   0     -22.395  -5.423   4.293  0.00  0.00    -0.248 NA
ATOM     12  C   UNK d   0     -23.889  -5.125   6.725  0.00  0.00     0.041 A 
ATOM     13  N   UNK d   0     -22.669  -5.061   7.292  0.00  0.00    -0.355 N 
ATOM     14  C   UNK d   0     -24.803  -5.705   7.623  0.00  0.00    -0.022 A 
ATOM     15  C   UNK d   0     -22.784  -5.592   8.524  0.00  0.00     0.042 A 
ATOM     16  H   UNK d   0     -21.749  -4.631   6.838  0.00  0.00     0.166 HD
ATOM     17  C   UNK d   0     -21.820  -5.769   9.536  0.00  0.00     0.062 C 
ATOM     18  C   UNK d   0     -24.107  -6.008   8.768  0.00  0.00    -0.013 A 
ATOM     19  C   UNK d   0     -20.537  -6.244   9.432  0.00  0.00     0.067 A 
ATOM     20  N   UNK d   0     -20.041  -6.381   8.199  0.00  0.00    -0.248 NA
ATOM     21  C   UNK d   0     -19.507  -6.682  10.358  0.00  0.00    -0.011 A 
ATOM     22  C   UNK d   0     -18.762  -6.877   8.252  0.00  0.00     0.066 A 
ATOM     23  C   UNK d   0     -18.110  -7.033   7.038  0.00  0.00     0.062 C 
ATOM     24  C   UNK d   0     -18.472  -7.055   9.662  0.00  0.00    -0.020 A 
ATOM     25  C   UNK d   0     -18.565  -6.661   5.763  0.00  0.00     0.041 A 
ATOM     26  N   UNK d   0     -19.774  -6.739   5.194  0.00  0.00    -0.355 N 
ATOM     27  C   UNK d   0     -17.648  -6.075   4.864  0.00  0.00    -0.022 A 
ATOM     28  C   UNK d   0     -19.660  -6.218   3.963  0.00  0.00     0.042 A 
ATOM     29  H   UNK d   0     -20.695  -7.181   5.648  0.00  0.00     0.166 HD
ATOM     30  C   UNK d   0     -20.608  -6.044   2.943  0.00  0.00     0.062 C 
ATOM     31  C   UNK d   0     -18.332  -5.791   3.722  0.00  0.00    -0.013 A 
ATOM     32  C   UNK d   0     -21.930  -5.645   3.063  0.00  0.00     0.066 A 
BRANCH   8  33
ATOM     33  C   UNK d   0     -25.373  -4.612   2.291  0.00  0.00     0.151 C 
BRANCH  33  34
ATOM     34  C   UNK d   0     -25.878  -3.360   2.881  0.00  0.00     0.143 C 
ATOM     35  O   UNK d   0     -25.367  -2.268   2.592  0.00  0.00    -0.650 OA
BRANCH  34  36
ATOM     36  O   UNK d   0     -26.930  -3.406   3.766  0.00  0.00    -0.776 OA
ATOM     37  H   UNK d   0     -27.246  -2.563   4.265  0.00  0.00     0.167 HD
ENDBRANCH  34  36
ENDBRANCH  33  34
ENDBRANCH   8  33
BRANCH  31  38
ATOM     38  C   UNK d   0     -17.765  -5.141   2.482  0.00  0.00     0.151 C 
BRANCH  38  39
ATOM     39  C   UNK d   0     -17.609  -6.070   1.383  0.00  0.00     0.143 C 
ATOM     40  O   UNK d   0     -17.060  -7.177   1.520  0.00  0.00    -0.650 OA
BRANCH  39  41
ATOM     41  O   UNK d   0     -18.088  -5.725   0.119  0.00  0.00    -0.776 OA
ATOM     42  H   UNK d   0     -17.933  -4.759  -0.185  0.00  0.00     0.167 HD
ENDBRANCH  39  41
ENDBRANCH  38  39
ENDBRANCH  31  38
BRANCH  27  43
ATOM     43  C   UNK d   0     -16.179  -5.785   5.047  0.00  0.00     0.052 C 
BRANCH  43  44
ATOM     44  C   UNK d   0     -15.292  -6.831   4.453  0.00  0.00     0.115 C 
BRANCH  44  45
ATOM     45  C   UNK d   0     -14.320  -6.119   3.583  0.00  0.00     0.139 C 
ATOM     46  O   UNK d   0     -13.520  -5.315   4.123  0.00  0.00    -0.650 OA
BRANCH  45  47
ATOM     47  O   UNK d   0     -14.259  -6.309   2.220  0.00  0.00    -0.776 OA
ATOM     48  H   UNK d   0     -13.728  -5.686   1.590  0.00  0.00     0.167 HD
ENDBRANCH  45  47
ENDBRANCH  44  45
ENDBRANCH  43  44
ENDBRANCH  27  43
BRANCH  24  49
ATOM     49  C   UNK d   0     -17.188  -7.534  10.202  0.00  0.00     0.052 C 
BRANCH  49  50
ATOM     50  C   UNK d   0     -17.054  -9.021   9.995  0.00  0.00     0.115 C 
BRANCH  50  51
ATOM     51  C   UNK d   0     -16.323  -9.770  11.008  0.00  0.00     0.139 C 
ATOM     52  O   UNK d   0     -16.764 -10.828  11.515  0.00  0.00    -0.650 OA
BRANCH  51  53
ATOM     53  O   UNK d   0     -15.090  -9.311  11.444  0.00  0.00    -0.776 OA
ATOM     54  H   UNK d   0     -14.772  -9.596  12.354  0.00  0.00     0.167 HD
ENDBRANCH  51  53
ENDBRANCH  50  51
ENDBRANCH  49  50
ENDBRANCH  24  49
BRANCH  21  55
ATOM     55  C   UNK d   0     -19.662  -6.678  11.843  0.00  0.00     0.151 C 
BRANCH  55  56
ATOM     56  C   UNK d   0     -20.664  -5.698  12.290  0.00  0.00     0.143 C 
ATOM     57  O   UNK d   0     -21.765  -6.030  12.771  0.00  0.00    -0.650 OA
BRANCH  56  58
ATOM     58  O   UNK d   0     -20.351  -4.346  12.163  0.00  0.00    -0.776 OA
ATOM     59  H   UNK d   0     -21.148  -3.736  11.906  0.00  0.00     0.167 HD
ENDBRANCH  56  58
ENDBRANCH  55  56
ENDBRANCH  21  55
BRANCH  18  60
ATOM     60  C   UNK d   0     -24.701  -6.655   9.995  0.00  0.00     0.151 C 
BRANCH  60  61
ATOM     61  C   UNK d   0     -24.428  -8.094   9.864  0.00  0.00     0.143 C 
ATOM     62  O   UNK d   0     -24.606  -8.796   8.868  0.00  0.00    -0.650 OA
BRANCH  61  63
ATOM     63  O   UNK d   0     -23.903  -8.715  11.023  0.00  0.00    -0.776 OA
ATOM     64  H   UNK d   0     -22.933  -8.968  11.081  0.00  0.00     0.167 HD
ENDBRANCH  61  63
ENDBRANCH  60  61
ENDBRANCH  18  60
BRANCH  14  65
ATOM     65  C   UNK d   0     -26.288  -5.903   7.520  0.00  0.00     0.052 C 
BRANCH  65  66
ATOM     66  C   UNK d   0     -27.065  -4.874   8.263  0.00  0.00     0.115 C 
BRANCH  66  67
ATOM     67  C   UNK d   0     -27.974  -4.019   7.553  0.00  0.00     0.139 C 
ATOM     68  O   UNK d   0     -27.939  -4.017   6.267  0.00  0.00    -0.650 OA
BRANCH  67  69
ATOM     69  O   UNK d   0     -28.928  -3.155   8.089  0.00  0.00    -0.776 OA
ATOM     70  H   UNK d   0     -29.768  -3.604   8.483  0.00  0.00     0.167 HD
ENDBRANCH  67  69
ENDBRANCH  66  67
ENDBRANCH  65  66
ENDBRANCH  14  65
ENDBRANCH   6   7
ENDBRANCH   5   6
ENDBRANCH   2   5
TORSDOF 28
ENDMDL
MODEL 12
REMARK VINA RESULT:      -8.4      1.784      8.149
REMARK  28 active torsions:
REMARK  status: ('A' for Active; 'I' for Inactive)
REMARK    1  A    between atoms: C_2  and  O_3 
REMARK    2  A    between atoms: C_2  and  C_4 
REMARK    3  A    between atoms: C_4  and  C_5 
REMARK    4  A    between atoms: C_5  and  C_6 
REMARK    5  A    between atoms: C_7  and  C_8 
REMARK    6  A    between atoms: C_8  and  C_9 
REMARK    7  A    between atoms: C_9  and  O_11 
REMARK    8  A    between atoms: C_28  and  C_29 
REMARK    9  A    between atoms: C_29  and  C_30 
REMARK   10  A    between atoms: C_30  and  O_32 
REMARK   11  A    between atoms: C_33  and  C_34 
REMARK   12  A    between atoms: C_34  and  C_35 
REMARK   13  A    between atoms: C_35  and  C_36 
REMARK   14  A    between atoms: C_36  and  O_38 
REMARK   15  A    between atoms: C_39  and  C_40 
REMARK   16  A    between atoms: C_40  and  C_41 
REMARK   17  A    between atoms: C_41  and  C_42 
REMARK   18  A    between atoms: C_42  and  O_44 
REMARK   19  A    between atoms: C_45  and  C_46 
REMARK   20  A    between atoms: C_46  and  C_47 
REMARK   21  A    between atoms: C_47  and  O_49 
REMARK   22  A    between atoms: C_50  and  C_51 
REMARK   23  A    between atoms: C_51  and  C_52 
REMARK   24  A    between atoms: C_52  and  O_54 
REMARK   25  A    between atoms: C_55  and  C_56 
REMARK   26  A    between atoms: C_56  and  C_57 
REMARK   27  A    between atoms: C_57  and  C_58 
REMARK   28  A    between atoms: C_58  and  O_60 
ROOT
ATOM      1  O   UNK d   0     -17.211  -9.010   9.204  0.00  0.00    -0.650 OA
ATOM      2  C   UNK d   0     -17.738  -7.942   8.822  0.00  0.00     0.139 C 
ENDROOT
BRANCH   2   3
ATOM      3  O   UNK d   0     -18.100  -6.999   9.754  0.00  0.00    -0.776 OA
ATOM      4  H   UNK d   0     -18.254  -7.255  10.731  0.00  0.00     0.167 HD
ENDBRANCH   2   3
BRANCH   2   5
ATOM      5  C   UNK d   0     -17.970  -7.699   7.370  0.00  0.00     0.115 C 
BRANCH   5   6
ATOM      6  C   UNK d   0     -17.745  -6.247   7.046  0.00  0.00     0.052 C 
BRANCH   6   7
ATOM      7  C   UNK d   0     -17.634  -5.994   5.561  0.00  0.00    -0.020 A 
ATOM      8  C   UNK d   0     -16.547  -5.762   4.870  0.00  0.00    -0.011 A 
ATOM      9  C   UNK d   0     -16.935  -5.570   3.483  0.00  0.00     0.067 A 
ATOM     10  C   UNK d   0     -16.271  -5.317   2.272  0.00  0.00     0.062 C 
ATOM     11  N   UNK d   0     -18.277  -5.697   3.420  0.00  0.00    -0.248 NA
ATOM     12  C   UNK d   0     -16.791  -5.440   0.979  0.00  0.00     0.041 A 
ATOM     13  N   UNK d   0     -17.983  -5.080   0.465  0.00  0.00    -0.355 N 
ATOM     14  C   UNK d   0     -16.023  -6.088  -0.005  0.00  0.00    -0.022 A 
ATOM     15  C   UNK d   0     -17.994  -5.490  -0.817  0.00  0.00     0.042 A 
ATOM     16  H   UNK d   0     -18.793  -4.530   0.993  0.00  0.00     0.166 HD
ATOM     17  C   UNK d   0     -18.989  -5.369  -1.807  0.00  0.00     0.062 C 
ATOM     18  C   UNK d   0     -16.782  -6.127  -1.148  0.00  0.00    -0.013 A 
ATOM     19  C   UNK d   0     -20.338  -5.594  -1.705  0.00  0.00     0.067 A 
ATOM     20  N   UNK d   0     -20.833  -5.761  -0.475  0.00  0.00    -0.248 NA
ATOM     21  C   UNK d   0     -21.449  -5.723  -2.633  0.00  0.00    -0.011 A 
ATOM     22  C   UNK d   0     -22.185  -5.991  -0.533  0.00  0.00     0.066 A 
ATOM     23  C   UNK d   0     -22.836  -6.145   0.682  0.00  0.00     0.062 C 
ATOM     24  C   UNK d   0     -22.526  -5.960  -1.941  0.00  0.00    -0.020 A 
ATOM     25  C   UNK d   0     -22.298  -6.005   1.971  0.00  0.00     0.041 A 
ATOM     26  N   UNK d   0     -21.119  -6.376   2.486  0.00  0.00    -0.355 N 
ATOM     27  C   UNK d   0     -23.068  -5.351   2.957  0.00  0.00    -0.022 A 
ATOM     28  C   UNK d   0     -21.110  -5.976   3.767  0.00  0.00     0.042 A 
ATOM     29  H   UNK d   0     -20.311  -6.938   1.957  0.00  0.00     0.166 HD
ATOM     30  C   UNK d   0     -20.130  -6.098   4.765  0.00  0.00     0.062 C 
ATOM     31  C   UNK d   0     -22.324  -5.327   4.096  0.00  0.00    -0.013 A 
ATOM     32  C   UNK d   0     -18.758  -5.953   4.638  0.00  0.00     0.066 A 
BRANCH   8  33
ATOM     33  C   UNK d   0     -15.167  -5.697   5.387  0.00  0.00     0.151 C 
BRANCH  33  34
ATOM     34  C   UNK d   0     -14.172  -6.192   4.419  0.00  0.00     0.143 C 
ATOM     35  O   UNK d   0     -14.214  -7.359   4.004  0.00  0.00    -0.650 OA
BRANCH  34  36
ATOM     36  O   UNK d   0     -13.183  -5.346   3.974  0.00  0.00    -0.776 OA
ATOM     37  H   UNK d   0     -13.234  -4.906   3.045  0.00  0.00     0.167 HD
ENDBRANCH  34  36
ENDBRANCH  33  34
ENDBRANCH   8  33
BRANCH  31  38
ATOM     38  C   UNK d   0     -22.732  -4.715   5.415  0.00  0.00     0.151 C 
BRANCH  38  39
ATOM     39  C   UNK d   0     -23.536  -5.606   6.224  0.00  0.00     0.143 C 
ATOM     40  O   UNK d   0     -23.116  -6.709   6.616  0.00  0.00    -0.650 OA
BRANCH  39  41
ATOM     41  O   UNK d   0     -24.830  -5.228   6.583  0.00  0.00    -0.776 OA
ATOM     42  H   UNK d   0     -25.417  -5.947   7.016  0.00  0.00     0.167 HD
ENDBRANCH  39  41
ENDBRANCH  38  39
ENDBRANCH  31  38
BRANCH  27  43
ATOM     43  C   UNK d   0     -24.453  -4.763   2.857  0.00  0.00     0.052 C 
BRANCH  43  44
ATOM     44  C   UNK d   0     -24.582  -3.734   1.782  0.00  0.00     0.115 C 
BRANCH  44  45
ATOM     45  C   UNK d   0     -26.012  -3.330   1.750  0.00  0.00     0.139 C 
ATOM     46  O   UNK d   0     -26.868  -4.149   2.170  0.00  0.00    -0.650 OA
BRANCH  45  47
ATOM     47  O   UNK d   0     -26.432  -2.102   1.287  0.00  0.00    -0.776 OA
ATOM     48  H   UNK d   0     -27.347  -1.959   0.829  0.00  0.00     0.167 HD
ENDBRANCH  45  47
ENDBRANCH  44  45
ENDBRANCH  43  44
ENDBRANCH  27  43
BRANCH  24  49
ATOM     49  C   UNK d   0     -23.887  -6.120  -2.481  0.00  0.00     0.052 C 
BRANCH  49  50
ATOM     50  C   UNK d   0     -24.898  -5.509  -1.545  0.00  0.00     0.115 C 
BRANCH  50  51
ATOM     51  C   UNK d   0     -25.702  -6.423  -0.746  0.00  0.00     0.139 C 
ATOM     52  O   UNK d   0     -25.345  -7.599  -0.498  0.00  0.00    -0.650 OA
BRANCH  51  53
ATOM     53  O   UNK d   0     -26.917  -5.998  -0.230  0.00  0.00    -0.776 OA
ATOM     54  H   UNK d   0     -27.661  -6.668  -0.151  0.00  0.00     0.167 HD
ENDBRANCH  51  53
ENDBRANCH  50  51
ENDBRANCH  49  50
ENDBRANCH  24  49
BRANCH  21  55
ATOM     55  C   UNK d   0     -21.319  -5.592  -4.115  0.00  0.00     0.151 C 
BRANCH  55  56
ATOM     56  C   UNK d   0     -21.180  -4.189  -4.534  0.00  0.00     0.143 C 
ATOM     57  O   UNK d   0     -20.607  -3.854  -5.590  0.00  0.00    -0.650 OA
BRANCH  56  58
ATOM     58  O   UNK d   0     -21.718  -3.207  -3.704  0.00  0.00    -0.776 OA
ATOM     59  H   UNK d   0     -22.444  -2.614  -4.144  0.00  0.00     0.167 HD
ENDBRANCH  56  58
ENDBRANCH  55  56
ENDBRANCH  21  55
BRANCH  18  60
ATOM     60  C   UNK d   0     -16.346  -6.744  -2.454  0.00  0.00     0.151 C 
BRANCH  60  61
ATOM     61  C   UNK d   0     -15.862  -5.630  -3.285  0.00  0.00     0.143 C 
ATOM     62  O   UNK d   0     -14.812  -5.003  -3.147  0.00  0.00    -0.650 OA
BRANCH  61  63
ATOM     63  O   UNK d   0     -16.715  -5.260  -4.352  0.00  0.00    -0.776 OA
ATOM     64  H   UNK d   0     -17.713  -5.244  -4.237  0.00  0.00     0.167 HD
ENDBRANCH  61  63
ENDBRANCH  60  61
ENDBRANCH  18  60
BRANCH  14  65
ATOM     65  C   UNK d   0     -14.604  -6.580   0.025  0.00  0.00     0.052 C 
BRANCH  65  66
ATOM     66  C   UNK d   0     -14.483  -7.977   0.523  0.00  0.00     0.115 C 
BRANCH  66  67
ATOM     67  C   UNK d   0     -15.659  -8.690   0.934  0.00  0.00     0.139 C 
ATOM     68  O   UNK d   0     -16.296  -9.381   0.056  0.00  0.00    -0.650 OA
BRANCH  67  69
ATOM     69  O   UNK d   0     -16.228  -8.736   2.206  0.00  0.00    -0.776 OA
ATOM     70  H   UNK d   0     -16.068  -9.605   2.737  0.00  0.00     0.167 HD
ENDBRANCH  67  69
ENDBRANCH  66  67
ENDBRANCH  65  66
ENDBRANCH  14  65
ENDBRANCH   6   7
ENDBRANCH   5   6
ENDBRANCH   2   5
TORSDOF 28
ENDMDL
MODEL 13
REMARK VINA RESULT:      -8.4      2.706      5.708
REMARK  28 active torsions:
REMARK  status: ('A' for Active; 'I' for Inactive)
REMARK    1  A    between atoms: C_2  and  O_3 
REMARK    2  A    between atoms: C_2  and  C_4 
REMARK    3  A    between atoms: C_4  and  C_5 
REMARK    4  A    between atoms: C_5  and  C_6 
REMARK    5  A    between atoms: C_7  and  C_8 
REMARK    6  A    between atoms: C_8  and  C_9 
REMARK    7  A    between atoms: C_9  and  O_11 
REMARK    8  A    between atoms: C_28  and  C_29 
REMARK    9  A    between atoms: C_29  and  C_30 
REMARK   10  A    between atoms: C_30  and  O_32 
REMARK   11  A    between atoms: C_33  and  C_34 
REMARK   12  A    between atoms: C_34  and  C_35 
REMARK   13  A    between atoms: C_35  and  C_36 
REMARK   14  A    between atoms: C_36  and  O_38 
REMARK   15  A    between atoms: C_39  and  C_40 
REMARK   16  A    between atoms: C_40  and  C_41 
REMARK   17  A    between atoms: C_41  and  C_42 
REMARK   18  A    between atoms: C_42  and  O_44 
REMARK   19  A    between atoms: C_45  and  C_46 
REMARK   20  A    between atoms: C_46  and  C_47 
REMARK   21  A    between atoms: C_47  and  O_49 
REMARK   22  A    between atoms: C_50  and  C_51 
REMARK   23  A    between atoms: C_51  and  C_52 
REMARK   24  A    between atoms: C_52  and  O_54 
REMARK   25  A    between atoms: C_55  and  C_56 
REMARK   26  A    between atoms: C_56  and  C_57 
REMARK   27  A    between atoms: C_57  and  C_58 
REMARK   28  A    between atoms: C_58  and  O_60 
ROOT
ATOM      1  O   UNK d   0     -27.207  -4.892   8.636  0.00  0.00    -0.650 OA
ATOM      2  C   UNK d   0     -26.514  -4.051   9.251  0.00  0.00     0.139 C 
ENDROOT
BRANCH   2   3
ATOM      3  O   UNK d   0     -25.405  -4.471   9.945  0.00  0.00    -0.776 OA
ATOM      4  H   UNK d   0     -24.902  -5.319   9.673  0.00  0.00     0.167 HD
ENDBRANCH   2   3
BRANCH   2   5
ATOM      5  C   UNK d   0     -26.892  -2.610   9.230  0.00  0.00     0.115 C 
BRANCH   5   6
ATOM      6  C   UNK d   0     -25.884  -1.822   8.438  0.00  0.00     0.052 C 
BRANCH   6   7
ATOM      7  C   UNK d   0     -25.795  -2.272   6.999  0.00  0.00    -0.020 A 
ATOM      8  C   UNK d   0     -26.645  -2.032   6.034  0.00  0.00    -0.011 A 
ATOM      9  C   UNK d   0     -26.143  -2.674   4.830  0.00  0.00     0.067 A 
ATOM     10  C   UNK d   0     -26.555  -2.778   3.492  0.00  0.00     0.062 C 
ATOM     11  N   UNK d   0     -24.986  -3.287   5.155  0.00  0.00    -0.248 NA
ATOM     12  C   UNK d   0     -25.791  -3.210   2.402  0.00  0.00     0.041 A 
ATOM     13  N   UNK d   0     -24.930  -4.237   2.275  0.00  0.00    -0.355 N 
ATOM     14  C   UNK d   0     -25.830  -2.469   1.207  0.00  0.00    -0.022 A 
ATOM     15  C   UNK d   0     -24.415  -4.162   1.033  0.00  0.00     0.042 A 
ATOM     16  H   UNK d   0     -24.704  -5.012   3.041  0.00  0.00     0.166 HD
ATOM     17  C   UNK d   0     -23.473  -4.985   0.383  0.00  0.00     0.062 C 
ATOM     18  C   UNK d   0     -24.955  -3.066   0.334  0.00  0.00    -0.013 A 
ATOM     19  C   UNK d   0     -22.291  -5.487   0.863  0.00  0.00     0.067 A 
ATOM     20  N   UNK d   0     -22.067  -5.361   2.173  0.00  0.00    -0.248 NA
ATOM     21  C   UNK d   0     -21.130  -6.151   0.293  0.00  0.00    -0.011 A 
ATOM     22  C   UNK d   0     -20.844  -5.893   2.501  0.00  0.00     0.066 A 
ATOM     23  C   UNK d   0     -20.499  -5.863   3.845  0.00  0.00     0.062 C 
ATOM     24  C   UNK d   0     -20.286  -6.383   1.256  0.00  0.00    -0.020 A 
ATOM     25  C   UNK d   0     -21.286  -5.437   4.926  0.00  0.00     0.041 A 
ATOM     26  N   UNK d   0     -22.131  -4.407   5.057  0.00  0.00    -0.355 N 
ATOM     27  C   UNK d   0     -21.250  -6.184   6.123  0.00  0.00    -0.022 A 
ATOM     28  C   UNK d   0     -22.639  -4.475   6.297  0.00  0.00     0.042 A 
ATOM     29  H   UNK d   0     -22.348  -3.624   4.289  0.00  0.00     0.166 HD
ATOM     30  C   UNK d   0     -23.569  -3.658   6.960  0.00  0.00     0.062 C 
ATOM     31  C   UNK d   0     -22.103  -5.583   6.996  0.00  0.00    -0.013 A 
ATOM     32  C   UNK d   0     -24.720  -3.083   6.446  0.00  0.00     0.066 A 
BRANCH   8  33
ATOM     33  C   UNK d   0     -27.896  -1.257   6.129  0.00  0.00     0.151 C 
BRANCH  33  34
ATOM     34  C   UNK d   0     -29.024  -2.056   6.639  0.00  0.00     0.143 C 
ATOM     35  O   UNK d   0     -29.169  -3.240   6.303  0.00  0.00    -0.650 OA
BRANCH  34  36
ATOM     36  O   UNK d   0     -29.929  -1.476   7.497  0.00  0.00    -0.776 OA
ATOM     37  H   UNK d   0     -29.703  -0.610   8.006  0.00  0.00     0.167 HD
ENDBRANCH  34  36
ENDBRANCH  33  34
ENDBRANCH   8  33
BRANCH  31  38
ATOM     38  C   UNK d   0     -22.405  -6.038   8.405  0.00  0.00     0.151 C 
BRANCH  38  39
ATOM     39  C   UNK d   0     -23.540  -6.933   8.475  0.00  0.00     0.143 C 
ATOM     40  O   UNK d   0     -24.317  -7.098   7.518  0.00  0.00    -0.650 OA
BRANCH  39  41
ATOM     41  O   UNK d   0     -23.783  -7.642   9.651  0.00  0.00    -0.776 OA
ATOM     42  H   UNK d   0     -23.016  -8.220  10.008  0.00  0.00     0.167 HD
ENDBRANCH  39  41
ENDBRANCH  38  39
ENDBRANCH  31  38
BRANCH  27  43
ATOM     43  C   UNK d   0     -20.450  -7.418   6.459  0.00  0.00     0.052 C 
BRANCH  43  44
ATOM     44  C   UNK d   0     -18.973  -7.191   6.427  0.00  0.00     0.115 C 
BRANCH  44  45
ATOM     45  C   UNK d   0     -18.494  -7.319   7.828  0.00  0.00     0.139 C 
ATOM     46  O   UNK d   0     -17.621  -8.186   8.078  0.00  0.00    -0.650 OA
BRANCH  45  47
ATOM     47  O   UNK d   0     -18.963  -6.527   8.854  0.00  0.00    -0.776 OA
ATOM     48  H   UNK d   0     -19.948  -6.223   8.922  0.00  0.00     0.167 HD
ENDBRANCH  45  47
ENDBRANCH  44  45
ENDBRANCH  43  44
ENDBRANCH  27  43
BRANCH  24  49
ATOM     49  C   UNK d   0     -18.991  -7.074   1.129  0.00  0.00     0.052 C 
BRANCH  49  50
ATOM     50  C   UNK d   0     -17.857  -6.116   1.391  0.00  0.00     0.115 C 
BRANCH  50  51
ATOM     51  C   UNK d   0     -16.814  -6.555   2.308  0.00  0.00     0.139 C 
ATOM     52  O   UNK d   0     -15.597  -6.333   2.105  0.00  0.00    -0.650 OA
BRANCH  51  53
ATOM     53  O   UNK d   0     -17.159  -7.252   3.457  0.00  0.00    -0.776 OA
ATOM     54  H   UNK d   0     -16.951  -6.834   4.346  0.00  0.00     0.167 HD
ENDBRANCH  51  53
ENDBRANCH  50  51
ENDBRANCH  49  50
ENDBRANCH  24  49
BRANCH  21  55
ATOM     55  C   UNK d   0     -20.989  -6.489  -1.154  0.00  0.00     0.151 C 
BRANCH  55  56
ATOM     56  C   UNK d   0     -20.651  -5.310  -1.966  0.00  0.00     0.143 C 
ATOM     57  O   UNK d   0     -21.384  -4.889  -2.883  0.00  0.00    -0.650 OA
BRANCH  56  58
ATOM     58  O   UNK d   0     -19.458  -4.646  -1.683  0.00  0.00    -0.776 OA
ATOM     59  H   UNK d   0     -19.363  -4.320  -0.704  0.00  0.00     0.167 HD
ENDBRANCH  56  58
ENDBRANCH  55  56
ENDBRANCH  21  55
BRANCH  18  60
ATOM     60  C   UNK d   0     -24.676  -2.590  -1.071  0.00  0.00     0.151 C 
BRANCH  60  61
ATOM     61  C   UNK d   0     -23.347  -1.963  -1.028  0.00  0.00     0.143 C 
ATOM     62  O   UNK d   0     -22.923  -1.179  -0.178  0.00  0.00    -0.650 OA
BRANCH  61  63
ATOM     63  O   UNK d   0     -22.480  -2.317  -2.090  0.00  0.00    -0.776 OA
ATOM     64  H   UNK d   0     -21.553  -1.933  -2.152  0.00  0.00     0.167 HD
ENDBRANCH  61  63
ENDBRANCH  60  61
ENDBRANCH  18  60
BRANCH  14  65
ATOM     65  C   UNK d   0     -26.695  -1.311   0.799  0.00  0.00     0.052 C 
BRANCH  65  66
ATOM     66  C   UNK d   0     -26.039   0.008   1.009  0.00  0.00     0.115 C 
BRANCH  66  67
ATOM     67  C   UNK d   0     -26.253   0.723   2.235  0.00  0.00     0.139 C 
ATOM     68  O   UNK d   0     -27.327   0.488   2.903  0.00  0.00    -0.650 OA
BRANCH  67  69
ATOM     69  O   UNK d   0     -25.423   1.676   2.824  0.00  0.00    -0.776 OA
ATOM     70  H   UNK d   0     -24.501   1.801   2.382  0.00  0.00     0.167 HD
ENDBRANCH  67  69
ENDBRANCH  66  67
ENDBRANCH  65  66
ENDBRANCH  14  65
ENDBRANCH   6   7
ENDBRANCH   5   6
ENDBRANCH   2   5
TORSDOF 28
ENDMDL
MODEL 14
REMARK VINA RESULT:      -8.4      5.860     13.578
REMARK  28 active torsions:
REMARK  status: ('A' for Active; 'I' for Inactive)
REMARK    1  A    between atoms: C_2  and  O_3 
REMARK    2  A    between atoms: C_2  and  C_4 
REMARK    3  A    between atoms: C_4  and  C_5 
REMARK    4  A    between atoms: C_5  and  C_6 
REMARK    5  A    between atoms: C_7  and  C_8 
REMARK    6  A    between atoms: C_8  and  C_9 
REMARK    7  A    between atoms: C_9  and  O_11 
REMARK    8  A    between atoms: C_28  and  C_29 
REMARK    9  A    between atoms: C_29  and  C_30 
REMARK   10  A    between atoms: C_30  and  O_32 
REMARK   11  A    between atoms: C_33  and  C_34 
REMARK   12  A    between atoms: C_34  and  C_35 
REMARK   13  A    between atoms: C_35  and  C_36 
REMARK   14  A    between atoms: C_36  and  O_38 
REMARK   15  A    between atoms: C_39  and  C_40 
REMARK   16  A    between atoms: C_40  and  C_41 
REMARK   17  A    between atoms: C_41  and  C_42 
REMARK   18  A    between atoms: C_42  and  O_44 
REMARK   19  A    between atoms: C_45  and  C_46 
REMARK   20  A    between atoms: C_46  and  C_47 
REMARK   21  A    between atoms: C_47  and  O_49 
REMARK   22  A    between atoms: C_50  and  C_51 
REMARK   23  A    between atoms: C_51  and  C_52 
REMARK   24  A    between atoms: C_52  and  O_54 
REMARK   25  A    between atoms: C_55  and  C_56 
REMARK   26  A    between atoms: C_56  and  C_57 
REMARK   27  A    between atoms: C_57  and  C_58 
REMARK   28  A    between atoms: C_58  and  O_60 
ROOT
ATOM      1  O   UNK d   0     -20.869  -5.900   9.219  0.00  0.00    -0.650 OA
ATOM      2  C   UNK d   0     -21.197  -5.922  10.426  0.00  0.00     0.139 C 
ENDROOT
BRANCH   2   3
ATOM      3  O   UNK d   0     -20.688  -4.974  11.281  0.00  0.00    -0.776 OA
ATOM      4  H   UNK d   0     -20.947  -3.990  11.191  0.00  0.00     0.167 HD
ENDBRANCH   2   3
BRANCH   2   5
ATOM      5  C   UNK d   0     -22.132  -6.969  10.928  0.00  0.00     0.115 C 
BRANCH   5   6
ATOM      6  C   UNK d   0     -23.067  -7.398   9.829  0.00  0.00     0.052 C 
BRANCH   6   7
ATOM      7  C   UNK d   0     -24.371  -6.636   9.845  0.00  0.00    -0.020 A 
ATOM      8  C   UNK d   0     -25.321  -6.698  10.742  0.00  0.00    -0.011 A 
ATOM      9  C   UNK d   0     -26.382  -5.794  10.330  0.00  0.00     0.067 A 
ATOM     10  C   UNK d   0     -27.625  -5.392  10.843  0.00  0.00     0.062 C 
ATOM     11  N   UNK d   0     -25.996  -5.227   9.168  0.00  0.00    -0.248 NA
ATOM     12  C   UNK d   0     -28.391  -4.292  10.442  0.00  0.00     0.041 A 
ATOM     13  N   UNK d   0     -28.678  -3.811   9.217  0.00  0.00    -0.355 N 
ATOM     14  C   UNK d   0     -28.952  -3.459  11.426  0.00  0.00    -0.022 A 
ATOM     15  C   UNK d   0     -29.400  -2.689   9.399  0.00  0.00     0.042 A 
ATOM     16  H   UNK d   0     -28.393  -4.266   8.243  0.00  0.00     0.166 HD
ATOM     17  C   UNK d   0     -29.956  -1.798   8.460  0.00  0.00     0.062 C 
ATOM     18  C   UNK d   0     -29.592  -2.436  10.771  0.00  0.00    -0.013 A 
ATOM     19  C   UNK d   0     -29.386  -1.269   7.330  0.00  0.00     0.067 A 
ATOM     20  N   UNK d   0     -28.225  -1.798   6.935  0.00  0.00    -0.248 NA
ATOM     21  C   UNK d   0     -29.715  -0.210   6.391  0.00  0.00    -0.011 A 
ATOM     22  C   UNK d   0     -27.771  -1.160   5.806  0.00  0.00     0.066 A 
ATOM     23  C   UNK d   0     -26.586  -1.637   5.263  0.00  0.00     0.062 C 
ATOM     24  C   UNK d   0     -28.764  -0.149   5.504  0.00  0.00    -0.020 A 
ATOM     25  C   UNK d   0     -25.839  -2.751   5.674  0.00  0.00     0.041 A 
ATOM     26  N   UNK d   0     -25.541  -3.221   6.891  0.00  0.00    -0.355 N 
ATOM     27  C   UNK d   0     -25.280  -3.590   4.685  0.00  0.00    -0.022 A 
ATOM     28  C   UNK d   0     -24.814  -4.335   6.712  0.00  0.00     0.042 A 
ATOM     29  H   UNK d   0     -25.820  -2.757   7.869  0.00  0.00     0.166 HD
ATOM     30  C   UNK d   0     -24.247  -5.226   7.637  0.00  0.00     0.062 C 
ATOM     31  C   UNK d   0     -24.630  -4.595   5.333  0.00  0.00    -0.013 A 
ATOM     32  C   UNK d   0     -24.795  -5.691   8.822  0.00  0.00     0.066 A 
BRANCH   8  33
ATOM     33  C   UNK d   0     -25.336  -7.532  11.958  0.00  0.00     0.151 C 
BRANCH  33  34
ATOM     34  C   UNK d   0     -26.053  -8.806  11.767  0.00  0.00     0.143 C 
ATOM     35  O   UNK d   0     -26.914  -9.179  12.576  0.00  0.00    -0.650 OA
BRANCH  34  36
ATOM     36  O   UNK d   0     -25.759  -9.589  10.675  0.00  0.00    -0.776 OA
ATOM     37  H   UNK d   0     -25.404 -10.549  10.786  0.00  0.00     0.167 HD
ENDBRANCH  34  36
ENDBRANCH  33  34
ENDBRANCH   8  33
BRANCH  31  38
ATOM     38  C   UNK d   0     -23.890  -5.742   4.685  0.00  0.00     0.151 C 
BRANCH  38  39
ATOM     39  C   UNK d   0     -22.645  -5.331   4.071  0.00  0.00     0.143 C 
ATOM     40  O   UNK d   0     -21.806  -4.636   4.669  0.00  0.00    -0.650 OA
BRANCH  39  41
ATOM     41  O   UNK d   0     -22.363  -5.723   2.763  0.00  0.00    -0.776 OA
ATOM     42  H   UNK d   0     -22.163  -6.717   2.612  0.00  0.00     0.167 HD
ENDBRANCH  39  41
ENDBRANCH  38  39
ENDBRANCH  31  38
BRANCH  27  43
ATOM     43  C   UNK d   0     -25.338  -3.472   3.183  0.00  0.00     0.052 C 
BRANCH  43  44
ATOM     44  C   UNK d   0     -26.569  -4.076   2.589  0.00  0.00     0.115 C 
BRANCH  44  45
ATOM     45  C   UNK d   0     -26.135  -5.299   1.865  0.00  0.00     0.139 C 
ATOM     46  O   UNK d   0     -24.987  -5.309   1.356  0.00  0.00    -0.650 OA
BRANCH  45  47
ATOM     47  O   UNK d   0     -26.935  -6.414   1.736  0.00  0.00    -0.776 OA
ATOM     48  H   UNK d   0     -27.261  -6.966   2.546  0.00  0.00     0.167 HD
ENDBRANCH  45  47
ENDBRANCH  44  45
ENDBRANCH  43  44
ENDBRANCH  27  43
BRANCH  24  49
ATOM     49  C   UNK d   0     -28.714   0.760   4.346  0.00  0.00     0.052 C 
BRANCH  49  50
ATOM     50  C   UNK d   0     -27.439   1.562   4.363  0.00  0.00     0.115 C 
BRANCH  50  51
ATOM     51  C   UNK d   0     -26.813   1.844   3.078  0.00  0.00     0.139 C 
ATOM     52  O   UNK d   0     -27.455   1.857   2.002  0.00  0.00    -0.650 OA
BRANCH  51  53
ATOM     53  O   UNK d   0     -25.453   2.109   3.021  0.00  0.00    -0.776 OA
ATOM     54  H   UNK d   0     -24.823   1.453   3.446  0.00  0.00     0.167 HD
ENDBRANCH  51  53
ENDBRANCH  50  51
ENDBRANCH  49  50
ENDBRANCH  24  49
BRANCH  21  55
ATOM     55  C   UNK d   0     -30.949   0.627   6.476  0.00  0.00     0.151 C 
BRANCH  55  56
ATOM     56  C   UNK d   0     -31.136   1.198   7.818  0.00  0.00     0.143 C 
ATOM     57  O   UNK d   0     -30.213   1.742   8.455  0.00  0.00    -0.650 OA
BRANCH  56  58
ATOM     58  O   UNK d   0     -32.407   1.120   8.385  0.00  0.00    -0.776 OA
ATOM     59  H   UNK d   0     -32.910   2.023   8.456  0.00  0.00     0.167 HD
ENDBRANCH  56  58
ENDBRANCH  55  56
ENDBRANCH  21  55
BRANCH  18  60
ATOM     60  C   UNK d   0     -30.327  -1.304  11.445  0.00  0.00     0.151 C 
BRANCH  60  61
ATOM     61  C   UNK d   0     -29.381  -0.178  11.491  0.00  0.00     0.143 C 
ATOM     62  O   UNK d   0     -28.170  -0.235  11.707  0.00  0.00    -0.650 OA
BRANCH  61  63
ATOM     63  O   UNK d   0     -29.950   1.097  11.257  0.00  0.00    -0.776 OA
ATOM     64  H   UNK d   0     -29.910   1.818  11.955  0.00  0.00     0.167 HD
ENDBRANCH  61  63
ENDBRANCH  60  61
ENDBRANCH  18  60
BRANCH  14  65
ATOM     65  C   UNK d   0     -29.013  -3.608  12.920  0.00  0.00     0.052 C 
BRANCH  65  66
ATOM     66  C   UNK d   0     -30.186  -4.400  13.378  0.00  0.00     0.115 C 
BRANCH  66  67
ATOM     67  C   UNK d   0     -30.903  -3.994  14.554  0.00  0.00     0.139 C 
ATOM     68  O   UNK d   0     -31.116  -2.740  14.741  0.00  0.00    -0.650 OA
BRANCH  67  69
ATOM     69  O   UNK d   0     -31.419  -4.808  15.562  0.00  0.00    -0.776 OA
ATOM     70  H   UNK d   0     -32.380  -4.593  15.863  0.00  0.00     0.167 HD
ENDBRANCH  67  69
ENDBRANCH  66  67
ENDBRANCH  65  66
ENDBRANCH  14  65
ENDBRANCH   6   7
ENDBRANCH   5   6
ENDBRANCH   2   5
TORSDOF 28
ENDMDL
MODEL 15
REMARK VINA RESULT:      -8.3      5.839     12.142
REMARK  28 active torsions:
REMARK  status: ('A' for Active; 'I' for Inactive)
REMARK    1  A    between atoms: C_2  and  O_3 
REMARK    2  A    between atoms: C_2  and  C_4 
REMARK    3  A    between atoms: C_4  and  C_5 
REMARK    4  A    between atoms: C_5  and  C_6 
REMARK    5  A    between atoms: C_7  and  C_8 
REMARK    6  A    between atoms: C_8  and  C_9 
REMARK    7  A    between atoms: C_9  and  O_11 
REMARK    8  A    between atoms: C_28  and  C_29 
REMARK    9  A    between atoms: C_29  and  C_30 
REMARK   10  A    between atoms: C_30  and  O_32 
REMARK   11  A    between atoms: C_33  and  C_34 
REMARK   12  A    between atoms: C_34  and  C_35 
REMARK   13  A    between atoms: C_35  and  C_36 
REMARK   14  A    between atoms: C_36  and  O_38 
REMARK   15  A    between atoms: C_39  and  C_40 
REMARK   16  A    between atoms: C_40  and  C_41 
REMARK   17  A    between atoms: C_41  and  C_42 
REMARK   18  A    between atoms: C_42  and  O_44 
REMARK   19  A    between atoms: C_45  and  C_46 
REMARK   20  A    between atoms: C_46  and  C_47 
REMARK   21  A    between atoms: C_47  and  O_49 
REMARK   22  A    between atoms: C_50  and  C_51 
REMARK   23  A    between atoms: C_51  and  C_52 
REMARK   24  A    between atoms: C_52  and  O_54 
REMARK   25  A    between atoms: C_55  and  C_56 
REMARK   26  A    between atoms: C_56  and  C_57 
REMARK   27  A    between atoms: C_57  and  C_58 
REMARK   28  A    between atoms: C_58  and  O_60 
ROOT
ATOM      1  O   UNK d   0     -31.217   0.593  13.798  0.00  0.00    -0.650 OA
ATOM      2  C   UNK d   0     -31.785  -0.463  13.442  0.00  0.00     0.139 C 
ENDROOT
BRANCH   2   3
ATOM      3  O   UNK d   0     -32.412  -1.242  14.384  0.00  0.00    -0.776 OA
ATOM      4  H   UNK d   0     -31.889  -1.920  14.941  0.00  0.00     0.167 HD
ENDBRANCH   2   3
BRANCH   2   5
ATOM      5  C   UNK d   0     -31.780  -0.868  12.007  0.00  0.00     0.115 C 
BRANCH   5   6
ATOM      6  C   UNK d   0     -31.854  -2.367  11.893  0.00  0.00     0.052 C 
BRANCH   6   7
ATOM      7  C   UNK d   0     -30.562  -2.976  11.404  0.00  0.00    -0.020 A 
ATOM      8  C   UNK d   0     -29.739  -3.745  12.070  0.00  0.00    -0.011 A 
ATOM      9  C   UNK d   0     -28.630  -4.078  11.191  0.00  0.00     0.067 A 
ATOM     10  C   UNK d   0     -27.465  -4.855  11.281  0.00  0.00     0.062 C 
ATOM     11  N   UNK d   0     -28.856  -3.464  10.011  0.00  0.00    -0.248 NA
ATOM     12  C   UNK d   0     -26.650  -5.285  10.229  0.00  0.00     0.041 A 
ATOM     13  N   UNK d   0     -26.201  -4.640   9.135  0.00  0.00    -0.355 N 
ATOM     14  C   UNK d   0     -26.222  -6.625  10.202  0.00  0.00    -0.022 A 
ATOM     15  C   UNK d   0     -25.507  -5.538   8.411  0.00  0.00     0.042 A 
ATOM     16  H   UNK d   0     -26.356  -3.566   8.889  0.00  0.00     0.166 HD
ATOM     17  C   UNK d   0     -24.829  -5.395   7.184  0.00  0.00     0.062 C 
ATOM     18  C   UNK d   0     -25.498  -6.794   9.048  0.00  0.00    -0.013 A 
ATOM     19  C   UNK d   0     -25.242  -4.764   6.039  0.00  0.00     0.067 A 
ATOM     20  N   UNK d   0     -26.342  -4.011   6.126  0.00  0.00    -0.248 NA
ATOM     21  C   UNK d   0     -24.788  -4.699   4.660  0.00  0.00    -0.011 A 
ATOM     22  C   UNK d   0     -26.640  -3.460   4.904  0.00  0.00     0.066 A 
ATOM     23  C   UNK d   0     -27.743  -2.620   4.860  0.00  0.00     0.062 C 
ATOM     24  C   UNK d   0     -25.612  -3.938   4.000  0.00  0.00    -0.020 A 
ATOM     25  C   UNK d   0     -28.541  -2.191   5.931  0.00  0.00     0.041 A 
ATOM     26  N   UNK d   0     -28.999  -2.835   7.011  0.00  0.00    -0.355 N 
ATOM     27  C   UNK d   0     -28.966  -0.844   5.960  0.00  0.00    -0.022 A 
ATOM     28  C   UNK d   0     -29.700  -1.944   7.730  0.00  0.00     0.042 A 
ATOM     29  H   UNK d   0     -28.852  -3.917   7.251  0.00  0.00     0.166 HD
ATOM     30  C   UNK d   0     -30.387  -2.075   8.947  0.00  0.00     0.062 C 
ATOM     31  C   UNK d   0     -29.699  -0.679   7.095  0.00  0.00    -0.013 A 
ATOM     32  C   UNK d   0     -30.003  -2.785  10.073  0.00  0.00     0.066 A 
BRANCH   8  33
ATOM     33  C   UNK d   0     -29.888  -4.201  13.465  0.00  0.00     0.151 C 
BRANCH  33  34
ATOM     34  C   UNK d   0     -29.406  -3.209  14.443  0.00  0.00     0.143 C 
ATOM     35  O   UNK d   0     -28.304  -2.661  14.304  0.00  0.00    -0.650 OA
BRANCH  34  36
ATOM     36  O   UNK d   0     -30.194  -2.891  15.525  0.00  0.00    -0.776 OA
ATOM     37  H   UNK d   0     -29.992  -2.068  16.110  0.00  0.00     0.167 HD
ENDBRANCH  34  36
ENDBRANCH  33  34
ENDBRANCH   8  33
BRANCH  31  38
ATOM     38  C   UNK d   0     -30.350   0.603   7.557  0.00  0.00     0.151 C 
BRANCH  38  39
ATOM     39  C   UNK d   0     -29.557   1.312   8.540  0.00  0.00     0.143 C 
ATOM     40  O   UNK d   0     -29.753   1.195   9.762  0.00  0.00    -0.650 OA
BRANCH  39  41
ATOM     41  O   UNK d   0     -28.535   2.160   8.115  0.00  0.00    -0.776 OA
ATOM     42  H   UNK d   0     -28.784   2.872   7.422  0.00  0.00     0.167 HD
ENDBRANCH  39  41
ENDBRANCH  38  39
ENDBRANCH  31  38
BRANCH  27  43
ATOM     43  C   UNK d   0     -28.709   0.263   4.969  0.00  0.00     0.052 C 
BRANCH  43  44
ATOM     44  C   UNK d   0     -27.404   0.958   5.186  0.00  0.00     0.115 C 
BRANCH  44  45
ATOM     45  C   UNK d   0     -26.852   1.256   3.838  0.00  0.00     0.139 C 
ATOM     46  O   UNK d   0     -27.587   1.054   2.840  0.00  0.00    -0.650 OA
BRANCH  45  47
ATOM     47  O   UNK d   0     -25.579   1.746   3.643  0.00  0.00    -0.776 OA
ATOM     48  H   UNK d   0     -24.731   1.174   3.785  0.00  0.00     0.167 HD
ENDBRANCH  45  47
ENDBRANCH  44  45
ENDBRANCH  43  44
ENDBRANCH  27  43
BRANCH  24  49
ATOM     49  C   UNK d   0     -25.506  -3.569   2.578  0.00  0.00     0.052 C 
BRANCH  49  50
ATOM     50  C   UNK d   0     -26.699  -4.079   1.813  0.00  0.00     0.115 C 
BRANCH  50  51
ATOM     51  C   UNK d   0     -26.558  -5.364   1.140  0.00  0.00     0.139 C 
ATOM     52  O   UNK d   0     -26.112  -5.471  -0.027  0.00  0.00    -0.650 OA
BRANCH  51  53
ATOM     53  O   UNK d   0     -26.929  -6.527   1.797  0.00  0.00    -0.776 OA
ATOM     54  H   UNK d   0     -27.427  -7.228   1.278  0.00  0.00     0.167 HD
ENDBRANCH  51  53
ENDBRANCH  50  51
ENDBRANCH  49  50
ENDBRANCH  24  49
BRANCH  21  55
ATOM     55  C   UNK d   0     -23.575  -5.401   4.146  0.00  0.00     0.151 C 
BRANCH  55  56
ATOM     56  C   UNK d   0     -22.369  -4.565   4.249  0.00  0.00     0.143 C 
ATOM     57  O   UNK d   0     -21.446  -4.606   3.411  0.00  0.00    -0.650 OA
BRANCH  56  58
ATOM     58  O   UNK d   0     -22.272  -3.697   5.335  0.00  0.00    -0.776 OA
ATOM     59  H   UNK d   0     -23.179  -3.385   5.726  0.00  0.00     0.167 HD
ENDBRANCH  56  58
ENDBRANCH  55  56
ENDBRANCH  21  55
BRANCH  18  60
ATOM     60  C   UNK d   0     -24.856  -8.088   8.613  0.00  0.00     0.151 C 
BRANCH  60  61
ATOM     61  C   UNK d   0     -25.719  -8.630   7.551  0.00  0.00     0.143 C 
ATOM     62  O   UNK d   0     -26.849  -9.100   7.681  0.00  0.00    -0.650 OA
BRANCH  61  63
ATOM     63  O   UNK d   0     -25.166  -8.593   6.248  0.00  0.00    -0.776 OA
ATOM     64  H   UNK d   0     -24.964  -9.440   5.747  0.00  0.00     0.167 HD
ENDBRANCH  61  63
ENDBRANCH  60  61
ENDBRANCH  18  60
BRANCH  14  65
ATOM     65  C   UNK d   0     -26.361  -7.719  11.222  0.00  0.00     0.052 C 
BRANCH  65  66
ATOM     66  C   UNK d   0     -25.115  -7.948  12.002  0.00  0.00     0.115 C 
BRANCH  66  67
ATOM     67  C   UNK d   0     -24.061  -6.975  11.962  0.00  0.00     0.139 C 
ATOM     68  O   UNK d   0     -24.204  -5.887  12.633  0.00  0.00    -0.650 OA
BRANCH  67  69
ATOM     69  O   UNK d   0     -22.855  -7.052  11.266  0.00  0.00    -0.776 OA
ATOM     70  H   UNK d   0     -22.933  -7.114  10.241  0.00  0.00     0.167 HD
ENDBRANCH  67  69
ENDBRANCH  66  67
ENDBRANCH  65  66
ENDBRANCH  14  65
ENDBRANCH   6   7
ENDBRANCH   5   6
ENDBRANCH   2   5
TORSDOF 28
ENDMDL
MODEL 16
REMARK VINA RESULT:      -8.3      1.948      7.982
REMARK  28 active torsions:
REMARK  status: ('A' for Active; 'I' for Inactive)
REMARK    1  A    between atoms: C_2  and  O_3 
REMARK    2  A    between atoms: C_2  and  C_4 
REMARK    3  A    between atoms: C_4  and  C_5 
REMARK    4  A    between atoms: C_5  and  C_6 
REMARK    5  A    between atoms: C_7  and  C_8 
REMARK    6  A    between atoms: C_8  and  C_9 
REMARK    7  A    between atoms: C_9  and  O_11 
REMARK    8  A    between atoms: C_28  and  C_29 
REMARK    9  A    between atoms: C_29  and  C_30 
REMARK   10  A    between atoms: C_30  and  O_32 
REMARK   11  A    between atoms: C_33  and  C_34 
REMARK   12  A    between atoms: C_34  and  C_35 
REMARK   13  A    between atoms: C_35  and  C_36 
REMARK   14  A    between atoms: C_36  and  O_38 
REMARK   15  A    between atoms: C_39  and  C_40 
REMARK   16  A    between atoms: C_40  and  C_41 
REMARK   17  A    between atoms: C_41  and  C_42 
REMARK   18  A    between atoms: C_42  and  O_44 
REMARK   19  A    between atoms: C_45  and  C_46 
REMARK   20  A    between atoms: C_46  and  C_47 
REMARK   21  A    between atoms: C_47  and  O_49 
REMARK   22  A    between atoms: C_50  and  C_51 
REMARK   23  A    between atoms: C_51  and  C_52 
REMARK   24  A    between atoms: C_52  and  O_54 
REMARK   25  A    between atoms: C_55  and  C_56 
REMARK   26  A    between atoms: C_56  and  C_57 
REMARK   27  A    between atoms: C_57  and  C_58 
REMARK   28  A    between atoms: C_58  and  O_60 
ROOT
ATOM      1  O   UNK d   0     -27.036  -6.242  -0.470  0.00  0.00    -0.650 OA
ATOM      2  C   UNK d   0     -27.020  -5.907   0.735  0.00  0.00     0.139 C 
ENDROOT
BRANCH   2   3
ATOM      3  O   UNK d   0     -27.235  -6.859   1.702  0.00  0.00    -0.776 OA
ATOM      4  H   UNK d   0     -26.533  -7.573   1.905  0.00  0.00     0.167 HD
ENDBRANCH   2   3
BRANCH   2   5
ATOM      5  C   UNK d   0     -26.771  -4.487   1.114  0.00  0.00     0.115 C 
BRANCH   5   6
ATOM      6  C   UNK d   0     -26.701  -4.355   2.611  0.00  0.00     0.052 C 
BRANCH   6   7
ATOM      7  C   UNK d   0     -25.307  -4.570   3.150  0.00  0.00    -0.020 A 
ATOM      8  C   UNK d   0     -24.917  -4.520   4.398  0.00  0.00    -0.011 A 
ATOM      9  C   UNK d   0     -23.488  -4.785   4.428  0.00  0.00     0.067 A 
ATOM     10  C   UNK d   0     -22.500  -4.893   5.418  0.00  0.00     0.062 C 
ATOM     11  N   UNK d   0     -23.090  -4.978   3.153  0.00  0.00    -0.248 NA
ATOM     12  C   UNK d   0     -21.216  -5.432   5.279  0.00  0.00     0.041 A 
ATOM     13  N   UNK d   0     -20.300  -5.298   4.301  0.00  0.00    -0.355 N 
ATOM     14  C   UNK d   0     -20.741  -6.322   6.259  0.00  0.00    -0.022 A 
ATOM     15  C   UNK d   0     -19.260  -6.086   4.632  0.00  0.00     0.042 A 
ATOM     16  H   UNK d   0     -20.379  -4.644   3.404  0.00  0.00     0.166 HD
ATOM     17  C   UNK d   0     -18.041  -6.318   3.963  0.00  0.00     0.062 C 
ATOM     18  C   UNK d   0     -19.500  -6.744   5.853  0.00  0.00    -0.013 A 
ATOM     19  C   UNK d   0     -17.820  -6.555   2.631  0.00  0.00     0.067 A 
ATOM     20  N   UNK d   0     -18.847  -6.352   1.802  0.00  0.00    -0.248 NA
ATOM     21  C   UNK d   0     -16.701  -7.011   1.822  0.00  0.00    -0.011 A 
ATOM     22  C   UNK d   0     -18.482  -6.643   0.510  0.00  0.00     0.066 A 
ATOM     23  C   UNK d   0     -19.448  -6.439  -0.464  0.00  0.00     0.062 C 
ATOM     24  C   UNK d   0     -17.096  -7.064   0.583  0.00  0.00    -0.020 A 
ATOM     25  C   UNK d   0     -20.727  -5.884  -0.305  0.00  0.00     0.041 A 
ATOM     26  N   UNK d   0     -21.643  -6.029   0.659  0.00  0.00    -0.355 N 
ATOM     27  C   UNK d   0     -21.201  -4.988  -1.288  0.00  0.00    -0.022 A 
ATOM     28  C   UNK d   0     -22.686  -5.251   0.327  0.00  0.00     0.042 A 
ATOM     29  H   UNK d   0     -21.567  -6.694   1.554  0.00  0.00     0.166 HD
ATOM     30  C   UNK d   0     -23.907  -5.017   0.978  0.00  0.00     0.062 C 
ATOM     31  C   UNK d   0     -22.439  -4.581  -0.895  0.00  0.00    -0.013 A 
ATOM     32  C   UNK d   0     -24.137  -4.863   2.336  0.00  0.00     0.066 A 
BRANCH   8  33
ATOM     33  C   UNK d   0     -25.758  -4.242   5.577  0.00  0.00     0.151 C 
BRANCH  33  34
ATOM     34  C   UNK d   0     -25.450  -2.944   6.203  0.00  0.00     0.143 C 
ATOM     35  O   UNK d   0     -25.231  -2.860   7.420  0.00  0.00    -0.650 OA
BRANCH  34  36
ATOM     36  O   UNK d   0     -25.408  -1.811   5.423  0.00  0.00    -0.776 OA
ATOM     37  H   UNK d   0     -25.720  -1.825   4.443  0.00  0.00     0.167 HD
ENDBRANCH  34  36
ENDBRANCH  33  34
ENDBRANCH   8  33
BRANCH  31  38
ATOM     38  C   UNK d   0     -23.332  -3.607  -1.627  0.00  0.00     0.151 C 
BRANCH  38  39
ATOM     39  C   UNK d   0     -23.174  -2.244  -1.164  0.00  0.00     0.143 C 
ATOM     40  O   UNK d   0     -23.658  -1.847  -0.090  0.00  0.00    -0.650 OA
BRANCH  39  41
ATOM     41  O   UNK d   0     -22.456  -1.334  -1.940  0.00  0.00    -0.776 OA
ATOM     42  H   UNK d   0     -22.486  -0.353  -1.646  0.00  0.00     0.167 HD
ENDBRANCH  39  41
ENDBRANCH  38  39
ENDBRANCH  31  38
BRANCH  27  43
ATOM     43  C   UNK d   0     -20.535  -4.517  -2.556  0.00  0.00     0.052 C 
BRANCH  43  44
ATOM     44  C   UNK d   0     -21.145  -5.094  -3.793  0.00  0.00     0.115 C 
BRANCH  44  45
ATOM     45  C   UNK d   0     -20.512  -4.397  -4.943  0.00  0.00     0.139 C 
ATOM     46  O   UNK d   0     -19.522  -4.941  -5.492  0.00  0.00    -0.650 OA
BRANCH  45  47
ATOM     47  O   UNK d   0     -20.969  -3.191  -5.429  0.00  0.00    -0.776 OA
ATOM     48  H   UNK d   0     -21.820  -3.107  -6.007  0.00  0.00     0.167 HD
ENDBRANCH  45  47
ENDBRANCH  44  45
ENDBRANCH  43  44
ENDBRANCH  27  43
BRANCH  24  49
ATOM     49  C   UNK d   0     -16.270  -7.439  -0.577  0.00  0.00     0.052 C 
BRANCH  49  50
ATOM     50  C   UNK d   0     -17.011  -8.413  -1.457  0.00  0.00     0.115 C 
BRANCH  50  51
ATOM     51  C   UNK d   0     -17.268  -8.005  -2.831  0.00  0.00     0.139 C 
ATOM     52  O   UNK d   0     -16.541  -7.185  -3.440  0.00  0.00    -0.650 OA
BRANCH  51  53
ATOM     53  O   UNK d   0     -18.355  -8.531  -3.512  0.00  0.00    -0.776 OA
ATOM     54  H   UNK d   0     -18.426  -9.530  -3.595  0.00  0.00     0.167 HD
ENDBRANCH  51  53
ENDBRANCH  50  51
ENDBRANCH  49  50
ENDBRANCH  24  49
BRANCH  21  55
ATOM     55  C   UNK d   0     -15.353  -7.341   2.372  0.00  0.00     0.151 C 
BRANCH  55  56
ATOM     56  C   UNK d   0     -15.333  -8.656   3.030  0.00  0.00     0.143 C 
ATOM     57  O   UNK d   0     -15.592  -9.717   2.428  0.00  0.00    -0.650 OA
BRANCH  56  58
ATOM     58  O   UNK d   0     -15.010  -8.698   4.386  0.00  0.00    -0.776 OA
ATOM     59  H   UNK d   0     -15.657  -9.256   4.971  0.00  0.00     0.167 HD
ENDBRANCH  56  58
ENDBRANCH  55  56
ENDBRANCH  21  55
BRANCH  18  60
ATOM     60  C   UNK d   0     -18.628  -7.718   6.608  0.00  0.00     0.151 C 
BRANCH  60  61
ATOM     61  C   UNK d   0     -17.883  -6.915   7.589  0.00  0.00     0.143 C 
ATOM     62  O   UNK d   0     -18.121  -6.807   8.793  0.00  0.00    -0.650 OA
BRANCH  61  63
ATOM     63  O   UNK d   0     -16.777  -6.201   7.069  0.00  0.00    -0.776 OA
ATOM     64  H   UNK d   0     -16.905  -5.465   6.398  0.00  0.00     0.167 HD
ENDBRANCH  61  63
ENDBRANCH  60  61
ENDBRANCH  18  60
BRANCH  14  65
ATOM     65  C   UNK d   0     -21.323  -6.723   7.585  0.00  0.00     0.052 C 
BRANCH  65  66
ATOM     66  C   UNK d   0     -21.442  -5.585   8.536  0.00  0.00     0.115 C 
BRANCH  66  67
ATOM     67  C   UNK d   0     -22.733  -5.018   8.810  0.00  0.00     0.139 C 
ATOM     68  O   UNK d   0     -23.773  -5.760   8.663  0.00  0.00    -0.650 OA
BRANCH  67  69
ATOM     69  O   UNK d   0     -23.024  -3.720   9.229  0.00  0.00    -0.776 OA
ATOM     70  H   UNK d   0     -23.079  -3.011   8.484  0.00  0.00     0.167 HD
ENDBRANCH  67  69
ENDBRANCH  66  67
ENDBRANCH  65  66
ENDBRANCH  14  65
ENDBRANCH   6   7
ENDBRANCH   5   6
ENDBRANCH   2   5
TORSDOF 28
ENDMDL
MODEL 17
REMARK VINA RESULT:      -8.3      4.073      9.678
REMARK  28 active torsions:
REMARK  status: ('A' for Active; 'I' for Inactive)
REMARK    1  A    between atoms: C_2  and  O_3 
REMARK    2  A    between atoms: C_2  and  C_4 
REMARK    3  A    between atoms: C_4  and  C_5 
REMARK    4  A    between atoms: C_5  and  C_6 
REMARK    5  A    between atoms: C_7  and  C_8 
REMARK    6  A    between atoms: C_8  and  C_9 
REMARK    7  A    between atoms: C_9  and  O_11 
REMARK    8  A    between atoms: C_28  and  C_29 
REMARK    9  A    between atoms: C_29  and  C_30 
REMARK   10  A    between atoms: C_30  and  O_32 
REMARK   11  A    between atoms: C_33  and  C_34 
REMARK   12  A    between atoms: C_34  and  C_35 
REMARK   13  A    between atoms: C_35  and  C_36 
REMARK   14  A    between atoms: C_36  and  O_38 
REMARK   15  A    between atoms: C_39  and  C_40 
REMARK   16  A    between atoms: C_40  and  C_41 
REMARK   17  A    between atoms: C_41  and  C_42 
REMARK   18  A    between atoms: C_42  and  O_44 
REMARK   19  A    between atoms: C_45  and  C_46 
REMARK   20  A    between atoms: C_46  and  C_47 
REMARK   21  A    between atoms: C_47  and  O_49 
REMARK   22  A    between atoms: C_50  and  C_51 
REMARK   23  A    between atoms: C_51  and  C_52 
REMARK   24  A    between atoms: C_52  and  O_54 
REMARK   25  A    between atoms: C_55  and  C_56 
REMARK   26  A    between atoms: C_56  and  C_57 
REMARK   27  A    between atoms: C_57  and  C_58 
REMARK   28  A    between atoms: C_58  and  O_60 
ROOT
ATOM      1  O   UNK d   0     -24.701  -7.229  -0.167  0.00  0.00    -0.650 OA
ATOM      2  C   UNK d   0     -25.749  -6.561  -0.021  0.00  0.00     0.139 C 
ENDROOT
BRANCH   2   3
ATOM      3  O   UNK d   0     -26.856  -7.157   0.533  0.00  0.00    -0.776 OA
ATOM      4  H   UNK d   0     -26.778  -8.032   1.056  0.00  0.00     0.167 HD
ENDBRANCH   2   3
BRANCH   2   5
ATOM      5  C   UNK d   0     -25.791  -5.133  -0.445  0.00  0.00     0.115 C 
BRANCH   5   6
ATOM      6  C   UNK d   0     -24.648  -4.375   0.173  0.00  0.00     0.052 C 
BRANCH   6   7
ATOM      7  C   UNK d   0     -24.943  -3.927   1.585  0.00  0.00    -0.020 A 
ATOM      8  C   UNK d   0     -25.797  -3.014   1.971  0.00  0.00    -0.011 A 
ATOM      9  C   UNK d   0     -25.727  -2.923   3.419  0.00  0.00     0.067 A 
ATOM     10  C   UNK d   0     -26.374  -2.181   4.420  0.00  0.00     0.062 C 
ATOM     11  N   UNK d   0     -24.799  -3.812   3.832  0.00  0.00    -0.248 NA
ATOM     12  C   UNK d   0     -26.369  -2.431   5.797  0.00  0.00     0.041 A 
ATOM     13  N   UNK d   0     -25.373  -2.789   6.629  0.00  0.00    -0.355 N 
ATOM     14  C   UNK d   0     -27.584  -2.372   6.503  0.00  0.00    -0.022 A 
ATOM     15  C   UNK d   0     -25.926  -2.966   7.844  0.00  0.00     0.042 A 
ATOM     16  H   UNK d   0     -24.297  -2.895   6.367  0.00  0.00     0.166 HD
ATOM     17  C   UNK d   0     -25.338  -3.340   9.069  0.00  0.00     0.062 C 
ATOM     18  C   UNK d   0     -27.311  -2.714   7.804  0.00  0.00    -0.013 A 
ATOM     19  C   UNK d   0     -24.424  -4.331   9.320  0.00  0.00     0.067 A 
ATOM     20  N   UNK d   0     -23.849  -4.906   8.261  0.00  0.00    -0.248 NA
ATOM     21  C   UNK d   0     -23.886  -4.980  10.504  0.00  0.00    -0.011 A 
ATOM     22  C   UNK d   0     -22.975  -5.884   8.666  0.00  0.00     0.066 A 
ATOM     23  C   UNK d   0     -22.276  -6.541   7.663  0.00  0.00     0.062 C 
ATOM     24  C   UNK d   0     -23.041  -5.891  10.114  0.00  0.00    -0.020 A 
ATOM     25  C   UNK d   0     -22.286  -6.266   6.287  0.00  0.00     0.041 A 
ATOM     26  N   UNK d   0     -23.278  -5.925   5.457  0.00  0.00    -0.355 N 
ATOM     27  C   UNK d   0     -21.065  -6.321   5.579  0.00  0.00    -0.022 A 
ATOM     28  C   UNK d   0     -22.731  -5.756   4.243  0.00  0.00     0.042 A 
ATOM     29  H   UNK d   0     -24.361  -5.829   5.719  0.00  0.00     0.166 HD
ATOM     30  C   UNK d   0     -23.305  -5.394   3.014  0.00  0.00     0.062 C 
ATOM     31  C   UNK d   0     -21.337  -5.999   4.285  0.00  0.00    -0.013 A 
ATOM     32  C   UNK d   0     -24.290  -4.449   2.776  0.00  0.00     0.066 A 
BRANCH   8  33
ATOM     33  C   UNK d   0     -26.679  -2.207   1.108  0.00  0.00     0.151 C 
BRANCH  33  34
ATOM     34  C   UNK d   0     -26.006  -1.016   0.559  0.00  0.00     0.143 C 
ATOM     35  O   UNK d   0     -25.782  -0.914  -0.655  0.00  0.00    -0.650 OA
BRANCH  34  36
ATOM     36  O   UNK d   0     -25.621  -0.006   1.410  0.00  0.00    -0.776 OA
ATOM     37  H   UNK d   0     -26.280   0.404   2.086  0.00  0.00     0.167 HD
ENDBRANCH  34  36
ENDBRANCH  33  34
ENDBRANCH   8  33
BRANCH  31  38
ATOM     38  C   UNK d   0     -20.335  -5.914   3.158  0.00  0.00     0.151 C 
BRANCH  38  39
ATOM     39  C   UNK d   0     -19.510  -4.726   3.229  0.00  0.00     0.143 C 
ATOM     40  O   UNK d   0     -18.298  -4.741   2.953  0.00  0.00    -0.650 OA
BRANCH  39  41
ATOM     41  O   UNK d   0     -20.083  -3.515   3.617  0.00  0.00    -0.776 OA
ATOM     42  H   UNK d   0     -19.826  -2.687   3.071  0.00  0.00     0.167 HD
ENDBRANCH  39  41
ENDBRANCH  38  39
ENDBRANCH  31  38
BRANCH  27  43
ATOM     43  C   UNK d   0     -19.683  -6.663   6.078  0.00  0.00     0.052 C 
BRANCH  43  44
ATOM     44  C   UNK d   0     -19.543  -6.544   7.561  0.00  0.00     0.115 C 
BRANCH  44  45
ATOM     45  C   UNK d   0     -18.160  -6.973   7.892  0.00  0.00     0.139 C 
ATOM     46  O   UNK d   0     -17.554  -7.704   7.070  0.00  0.00    -0.650 OA
BRANCH  45  47
ATOM     47  O   UNK d   0     -17.520  -6.599   9.054  0.00  0.00    -0.776 OA
ATOM     48  H   UNK d   0     -17.981  -6.614   9.978  0.00  0.00     0.167 HD
ENDBRANCH  45  47
ENDBRANCH  44  45
ENDBRANCH  43  44
ENDBRANCH  27  43
BRANCH  24  49
ATOM     49  C   UNK d   0     -22.236  -6.760  10.989  0.00  0.00     0.052 C 
BRANCH  49  50
ATOM     50  C   UNK d   0     -20.769  -6.463  10.818  0.00  0.00     0.115 C 
BRANCH  50  51
ATOM     51  C   UNK d   0     -20.029  -6.058  12.005  0.00  0.00     0.139 C 
ATOM     52  O   UNK d   0     -20.593  -5.638  13.043  0.00  0.00    -0.650 OA
BRANCH  51  53
ATOM     53  O   UNK d   0     -18.644  -6.131  12.009  0.00  0.00    -0.776 OA
ATOM     54  H   UNK d   0     -18.176  -6.231  12.893  0.00  0.00     0.167 HD
ENDBRANCH  51  53
ENDBRANCH  50  51
ENDBRANCH  49  50
ENDBRANCH  24  49
BRANCH  21  55
ATOM     55  C   UNK d   0     -24.268  -4.619  11.901  0.00  0.00     0.151 C 
BRANCH  55  56
ATOM     56  C   UNK d   0     -23.623  -3.374  12.345  0.00  0.00     0.143 C 
ATOM     57  O   UNK d   0     -24.178  -2.260  12.265  0.00  0.00    -0.650 OA
BRANCH  56  58
ATOM     58  O   UNK d   0     -22.337  -3.463  12.876  0.00  0.00    -0.776 OA
ATOM     59  H   UNK d   0     -21.572  -3.290  12.198  0.00  0.00     0.167 HD
ENDBRANCH  56  58
ENDBRANCH  55  56
ENDBRANCH  21  55
BRANCH  18  60
ATOM     60  C   UNK d   0     -28.333  -2.788   8.912  0.00  0.00     0.151 C 
BRANCH  60  61
ATOM     61  C   UNK d   0     -28.231  -1.515   9.641  0.00  0.00     0.143 C 
ATOM     62  O   UNK d   0     -27.602  -0.513   9.301  0.00  0.00    -0.650 OA
BRANCH  61  63
ATOM     63  O   UNK d   0     -28.942  -1.463  10.864  0.00  0.00    -0.776 OA
ATOM     64  H   UNK d   0     -29.940  -1.353  10.879  0.00  0.00     0.167 HD
ENDBRANCH  61  63
ENDBRANCH  60  61
ENDBRANCH  18  60
BRANCH  14  65
ATOM     65  C   UNK d   0     -28.951  -1.926   6.069  0.00  0.00     0.052 C 
BRANCH  65  66
ATOM     66  C   UNK d   0     -29.115  -0.448   6.091  0.00  0.00     0.115 C 
BRANCH  66  67
ATOM     67  C   UNK d   0     -30.108   0.145   6.942  0.00  0.00     0.139 C 
ATOM     68  O   UNK d   0     -30.088   1.420   7.112  0.00  0.00    -0.650 OA
BRANCH  67  69
ATOM     69  O   UNK d   0     -31.131  -0.499   7.636  0.00  0.00    -0.776 OA
ATOM     70  H   UNK d   0     -32.054  -0.495   7.179  0.00  0.00     0.167 HD
ENDBRANCH  67  69
ENDBRANCH  66  67
ENDBRANCH  65  66
ENDBRANCH  14  65
ENDBRANCH   6   7
ENDBRANCH   5   6
ENDBRANCH   2   5
TORSDOF 28
ENDMDL
MODEL 18
REMARK VINA RESULT:      -8.3      3.090     11.807
REMARK  28 active torsions:
REMARK  status: ('A' for Active; 'I' for Inactive)
REMARK    1  A    between atoms: C_2  and  O_3 
REMARK    2  A    between atoms: C_2  and  C_4 
REMARK    3  A    between atoms: C_4  and  C_5 
REMARK    4  A    between atoms: C_5  and  C_6 
REMARK    5  A    between atoms: C_7  and  C_8 
REMARK    6  A    between atoms: C_8  and  C_9 
REMARK    7  A    between atoms: C_9  and  O_11 
REMARK    8  A    between atoms: C_28  and  C_29 
REMARK    9  A    between atoms: C_29  and  C_30 
REMARK   10  A    between atoms: C_30  and  O_32 
REMARK   11  A    between atoms: C_33  and  C_34 
REMARK   12  A    between atoms: C_34  and  C_35 
REMARK   13  A    between atoms: C_35  and  C_36 
REMARK   14  A    between atoms: C_36  and  O_38 
REMARK   15  A    between atoms: C_39  and  C_40 
REMARK   16  A    between atoms: C_40  and  C_41 
REMARK   17  A    between atoms: C_41  and  C_42 
REMARK   18  A    between atoms: C_42  and  O_44 
REMARK   19  A    between atoms: C_45  and  C_46 
REMARK   20  A    between atoms: C_46  and  C_47 
REMARK   21  A    between atoms: C_47  and  O_49 
REMARK   22  A    between atoms: C_50  and  C_51 
REMARK   23  A    between atoms: C_51  and  C_52 
REMARK   24  A    between atoms: C_52  and  O_54 
REMARK   25  A    between atoms: C_55  and  C_56 
REMARK   26  A    between atoms: C_56  and  C_57 
REMARK   27  A    between atoms: C_57  and  C_58 
REMARK   28  A    between atoms: C_58  and  O_60 
ROOT
ATOM      1  O   UNK d   0     -15.441  -5.918   2.120  0.00  0.00    -0.650 OA
ATOM      2  C   UNK d   0     -15.827  -5.048   2.933  0.00  0.00     0.139 C 
ENDROOT
BRANCH   2   3
ATOM      3  O   UNK d   0     -14.898  -4.254   3.561  0.00  0.00    -0.776 OA
ATOM      4  H   UNK d   0     -14.620  -3.353   3.165  0.00  0.00     0.167 HD
ENDBRANCH   2   3
BRANCH   2   5
ATOM      5  C   UNK d   0     -17.281  -4.879   3.214  0.00  0.00     0.115 C 
BRANCH   5   6
ATOM      6  C   UNK d   0     -17.940  -6.224   3.353  0.00  0.00     0.052 C 
BRANCH   6   7
ATOM      7  C   UNK d   0     -18.966  -6.257   4.461  0.00  0.00    -0.020 A 
ATOM      8  C   UNK d   0     -18.806  -6.694   5.684  0.00  0.00    -0.011 A 
ATOM      9  C   UNK d   0     -20.070  -6.534   6.382  0.00  0.00     0.067 A 
ATOM     10  C   UNK d   0     -20.549  -6.778   7.679  0.00  0.00     0.062 C 
ATOM     11  N   UNK d   0     -20.947  -5.997   5.507  0.00  0.00    -0.248 NA
ATOM     12  C   UNK d   0     -21.732  -6.297   8.250  0.00  0.00     0.041 A 
ATOM     13  N   UNK d   0     -22.978  -6.190   7.751  0.00  0.00    -0.355 N 
ATOM     14  C   UNK d   0     -21.692  -5.763   9.551  0.00  0.00    -0.022 A 
ATOM     15  C   UNK d   0     -23.727  -5.596   8.699  0.00  0.00     0.042 A 
ATOM     16  H   UNK d   0     -23.326  -6.546   6.756  0.00  0.00     0.166 HD
ATOM     17  C   UNK d   0     -25.093  -5.248   8.698  0.00  0.00     0.062 C 
ATOM     18  C   UNK d   0     -22.955  -5.313   9.842  0.00  0.00    -0.013 A 
ATOM     19  C   UNK d   0     -25.829  -4.643   7.712  0.00  0.00     0.067 A 
ATOM     20  N   UNK d   0     -25.255  -4.534   6.510  0.00  0.00    -0.248 NA
ATOM     21  C   UNK d   0     -27.145  -4.035   7.614  0.00  0.00    -0.011 A 
ATOM     22  C   UNK d   0     -26.101  -3.898   5.635  0.00  0.00     0.066 A 
ATOM     23  C   UNK d   0     -25.644  -3.751   4.333  0.00  0.00     0.062 C 
ATOM     24  C   UNK d   0     -27.297  -3.598   6.397  0.00  0.00    -0.020 A 
ATOM     25  C   UNK d   0     -24.458  -4.253   3.776  0.00  0.00     0.041 A 
ATOM     26  N   UNK d   0     -23.216  -4.345   4.267  0.00  0.00    -0.355 N 
ATOM     27  C   UNK d   0     -24.500  -4.792   2.472  0.00  0.00    -0.022 A 
ATOM     28  C   UNK d   0     -22.465  -4.930   3.320  0.00  0.00     0.042 A 
ATOM     29  H   UNK d   0     -22.866  -3.978   5.263  0.00  0.00     0.166 HD
ATOM     30  C   UNK d   0     -21.104  -5.273   3.304  0.00  0.00     0.062 C 
ATOM     31  C   UNK d   0     -23.244  -5.224   2.176  0.00  0.00    -0.013 A 
ATOM     32  C   UNK d   0     -20.344  -5.806   4.333  0.00  0.00     0.066 A 
BRANCH   8  33
ATOM     33  C   UNK d   0     -17.575  -7.258   6.268  0.00  0.00     0.151 C 
BRANCH  33  34
ATOM     34  C   UNK d   0     -16.723  -6.234   6.899  0.00  0.00     0.143 C 
ATOM     35  O   UNK d   0     -15.748  -5.759   6.298  0.00  0.00    -0.650 OA
BRANCH  34  36
ATOM     36  O   UNK d   0     -17.014  -5.803   8.172  0.00  0.00    -0.776 OA
ATOM     37  H   UNK d   0     -17.508  -4.915   8.336  0.00  0.00     0.167 HD
ENDBRANCH  34  36
ENDBRANCH  33  34
ENDBRANCH   8  33
BRANCH  31  38
ATOM     38  C   UNK d   0     -22.809  -5.887   0.890  0.00  0.00     0.151 C 
BRANCH  38  39
ATOM     39  C   UNK d   0     -22.796  -4.976  -0.235  0.00  0.00     0.143 C 
ATOM     40  O   UNK d   0     -22.103  -3.944  -0.248  0.00  0.00    -0.650 OA
BRANCH  39  41
ATOM     41  O   UNK d   0     -23.583  -5.255  -1.352  0.00  0.00    -0.776 OA
ATOM     42  H   UNK d   0     -23.498  -4.614  -2.147  0.00  0.00     0.167 HD
ENDBRANCH  39  41
ENDBRANCH  38  39
ENDBRANCH  31  38
BRANCH  27  43
ATOM     43  C   UNK d   0     -25.664  -4.907   1.520  0.00  0.00     0.052 C 
BRANCH  43  44
ATOM     44  C   UNK d   0     -26.319  -6.250   1.546  0.00  0.00     0.115 C 
BRANCH  44  45
ATOM     45  C   UNK d   0     -26.292  -6.763   0.152  0.00  0.00     0.139 C 
ATOM     46  O   UNK d   0     -25.334  -7.501  -0.188  0.00  0.00    -0.650 OA
BRANCH  45  47
ATOM     47  O   UNK d   0     -27.270  -6.468  -0.772  0.00  0.00    -0.776 OA
ATOM     48  H   UNK d   0     -27.805  -5.584  -0.759  0.00  0.00     0.167 HD
ENDBRANCH  45  47
ENDBRANCH  44  45
ENDBRANCH  43  44
ENDBRANCH  27  43
BRANCH  24  49
ATOM     49  C   UNK d   0     -28.500  -2.947   5.852  0.00  0.00     0.052 C 
BRANCH  49  50
ATOM     50  C   UNK d   0     -28.331  -1.449   5.850  0.00  0.00     0.115 C 
BRANCH  50  51
ATOM     51  C   UNK d   0     -29.495  -0.648   6.203  0.00  0.00     0.139 C 
ATOM     52  O   UNK d   0     -29.706   0.490   5.720  0.00  0.00    -0.650 OA
BRANCH  51  53
ATOM     53  O   UNK d   0     -30.420  -1.143   7.111  0.00  0.00    -0.776 OA
ATOM     54  H   UNK d   0     -30.128  -1.874   7.735  0.00  0.00     0.167 HD
ENDBRANCH  51  53
ENDBRANCH  50  51
ENDBRANCH  49  50
ENDBRANCH  24  49
BRANCH  21  55
ATOM     55  C   UNK d   0     -28.116  -3.960   8.745  0.00  0.00     0.151 C 
BRANCH  55  56
ATOM     56  C   UNK d   0     -28.038  -2.673   9.454  0.00  0.00     0.143 C 
ATOM     57  O   UNK d   0     -26.968  -2.208   9.892  0.00  0.00    -0.650 OA
BRANCH  56  58
ATOM     58  O   UNK d   0     -29.221  -1.958   9.633  0.00  0.00    -0.776 OA
ATOM     59  H   UNK d   0     -29.138  -1.121  10.238  0.00  0.00     0.167 HD
ENDBRANCH  56  58
ENDBRANCH  55  56
ENDBRANCH  21  55
BRANCH  18  60
ATOM     60  C   UNK d   0     -23.362  -4.656  11.138  0.00  0.00     0.151 C 
BRANCH  60  61
ATOM     61  C   UNK d   0     -23.705  -5.752  12.056  0.00  0.00     0.143 C 
ATOM     62  O   UNK d   0     -23.006  -6.209  12.960  0.00  0.00    -0.650 OA
BRANCH  61  63
ATOM     63  O   UNK d   0     -24.984  -6.327  11.857  0.00  0.00    -0.776 OA
ATOM     64  H   UNK d   0     -25.083  -7.249  11.471  0.00  0.00     0.167 HD
ENDBRANCH  61  63
ENDBRANCH  60  61
ENDBRANCH  18  60
BRANCH  14  65
ATOM     65  C   UNK d   0     -20.585  -5.737  10.567  0.00  0.00     0.052 C 
BRANCH  65  66
ATOM     66  C   UNK d   0     -19.988  -7.077  10.811  0.00  0.00     0.115 C 
BRANCH  66  67
ATOM     67  C   UNK d   0     -18.561  -7.238  10.776  0.00  0.00     0.139 C 
ATOM     68  O   UNK d   0     -18.057  -8.054   9.919  0.00  0.00    -0.650 OA
BRANCH  67  69
ATOM     69  O   UNK d   0     -17.611  -6.606  11.578  0.00  0.00    -0.776 OA
ATOM     70  H   UNK d   0     -17.403  -5.626  11.337  0.00  0.00     0.167 HD
ENDBRANCH  67  69
ENDBRANCH  66  67
ENDBRANCH  65  66
ENDBRANCH  14  65
ENDBRANCH   6   7
ENDBRANCH   5   6
ENDBRANCH   2   5
TORSDOF 28
ENDMDL
MODEL 19
REMARK VINA RESULT:      -8.2      1.709      7.893
REMARK  28 active torsions:
REMARK  status: ('A' for Active; 'I' for Inactive)
REMARK    1  A    between atoms: C_2  and  O_3 
REMARK    2  A    between atoms: C_2  and  C_4 
REMARK    3  A    between atoms: C_4  and  C_5 
REMARK    4  A    between atoms: C_5  and  C_6 
REMARK    5  A    between atoms: C_7  and  C_8 
REMARK    6  A    between atoms: C_8  and  C_9 
REMARK    7  A    between atoms: C_9  and  O_11 
REMARK    8  A    between atoms: C_28  and  C_29 
REMARK    9  A    between atoms: C_29  and  C_30 
REMARK   10  A    between atoms: C_30  and  O_32 
REMARK   11  A    between atoms: C_33  and  C_34 
REMARK   12  A    between atoms: C_34  and  C_35 
REMARK   13  A    between atoms: C_35  and  C_36 
REMARK   14  A    between atoms: C_36  and  O_38 
REMARK   15  A    between atoms: C_39  and  C_40 
REMARK   16  A    between atoms: C_40  and  C_41 
REMARK   17  A    between atoms: C_41  and  C_42 
REMARK   18  A    between atoms: C_42  and  O_44 
REMARK   19  A    between atoms: C_45  and  C_46 
REMARK   20  A    between atoms: C_46  and  C_47 
REMARK   21  A    between atoms: C_47  and  O_49 
REMARK   22  A    between atoms: C_50  and  C_51 
REMARK   23  A    between atoms: C_51  and  C_52 
REMARK   24  A    between atoms: C_52  and  O_54 
REMARK   25  A    between atoms: C_55  and  C_56 
REMARK   26  A    between atoms: C_56  and  C_57 
REMARK   27  A    between atoms: C_57  and  C_58 
REMARK   28  A    between atoms: C_58  and  O_60 
ROOT
ATOM      1  O   UNK d   0     -16.226  -4.578  -0.995  0.00  0.00    -0.650 OA
ATOM      2  C   UNK d   0     -16.229  -5.821  -1.139  0.00  0.00     0.139 C 
ENDROOT
BRANCH   2   3
ATOM      3  O   UNK d   0     -15.659  -6.612  -0.171  0.00  0.00    -0.776 OA
ATOM      4  H   UNK d   0     -14.658  -6.562   0.029  0.00  0.00     0.167 HD
ENDBRANCH   2   3
BRANCH   2   5
ATOM      5  C   UNK d   0     -16.846  -6.433  -2.350  0.00  0.00     0.115 C 
BRANCH   5   6
ATOM      6  C   UNK d   0     -17.996  -7.318  -1.953  0.00  0.00     0.052 C 
BRANCH   6   7
ATOM      7  C   UNK d   0     -19.156  -6.542  -1.377  0.00  0.00    -0.020 A 
ATOM      8  C   UNK d   0     -20.026  -5.810  -2.024  0.00  0.00    -0.011 A 
ATOM      9  C   UNK d   0     -20.950  -5.252  -1.050  0.00  0.00     0.067 A 
ATOM     10  C   UNK d   0     -22.086  -4.428  -1.087  0.00  0.00     0.062 C 
ATOM     11  N   UNK d   0     -20.563  -5.691   0.166  0.00  0.00    -0.248 NA
ATOM     12  C   UNK d   0     -23.016  -4.221  -0.063  0.00  0.00     0.041 A 
ATOM     13  N   UNK d   0     -22.850  -4.026   1.259  0.00  0.00    -0.355 N 
ATOM     14  C   UNK d   0     -24.388  -4.261  -0.372  0.00  0.00    -0.022 A 
ATOM     15  C   UNK d   0     -24.082  -3.949   1.798  0.00  0.00     0.042 A 
ATOM     16  H   UNK d   0     -21.882  -3.925   1.797  0.00  0.00     0.166 HD
ATOM     17  C   UNK d   0     -24.483  -3.751   3.134  0.00  0.00     0.062 C 
ATOM     18  C   UNK d   0     -25.072  -4.092   0.806  0.00  0.00    -0.013 A 
ATOM     19  C   UNK d   0     -24.001  -4.339   4.275  0.00  0.00     0.067 A 
ATOM     20  N   UNK d   0     -22.874  -5.048   4.161  0.00  0.00    -0.248 NA
ATOM     21  C   UNK d   0     -24.416  -4.418   5.666  0.00  0.00    -0.011 A 
ATOM     22  C   UNK d   0     -22.524  -5.586   5.375  0.00  0.00     0.066 A 
ATOM     23  C   UNK d   0     -21.347  -6.318   5.408  0.00  0.00     0.062 C 
ATOM     24  C   UNK d   0     -23.550  -5.152   6.303  0.00  0.00    -0.020 A 
ATOM     25  C   UNK d   0     -20.419  -6.504   4.371  0.00  0.00     0.041 A 
ATOM     26  N   UNK d   0     -20.584  -6.712   3.060  0.00  0.00    -0.355 N 
ATOM     27  C   UNK d   0     -19.043  -6.459   4.681  0.00  0.00    -0.022 A 
ATOM     28  C   UNK d   0     -19.358  -6.798   2.521  0.00  0.00     0.042 A 
ATOM     29  H   UNK d   0     -21.558  -6.824   2.522  0.00  0.00     0.166 HD
ATOM     30  C   UNK d   0     -18.944  -7.004   1.195  0.00  0.00     0.062 C 
ATOM     31  C   UNK d   0     -18.364  -6.644   3.516  0.00  0.00    -0.013 A 
ATOM     32  C   UNK d   0     -19.490  -6.473   0.038  0.00  0.00     0.066 A 
BRANCH   8  33
ATOM     33  C   UNK d   0     -20.077  -5.574  -3.479  0.00  0.00     0.151 C 
BRANCH  33  34
ATOM     34  C   UNK d   0     -21.326  -4.918  -3.907  0.00  0.00     0.143 C 
ATOM     35  O   UNK d   0     -21.365  -3.696  -4.114  0.00  0.00    -0.650 OA
BRANCH  34  36
ATOM     36  O   UNK d   0     -22.463  -5.674  -4.076  0.00  0.00    -0.776 OA
ATOM     37  H   UNK d   0     -22.440  -6.699  -3.991  0.00  0.00     0.167 HD
ENDBRANCH  34  36
ENDBRANCH  33  34
ENDBRANCH   8  33
BRANCH  31  38
ATOM     38  C   UNK d   0     -16.862  -6.660   3.353  0.00  0.00     0.151 C 
BRANCH  38  39
ATOM     39  C   UNK d   0     -16.299  -5.335   3.198  0.00  0.00     0.143 C 
ATOM     40  O   UNK d   0     -15.604  -4.801   4.080  0.00  0.00    -0.650 OA
BRANCH  39  41
ATOM     41  O   UNK d   0     -16.537  -4.622   2.024  0.00  0.00    -0.776 OA
ATOM     42  H   UNK d   0     -16.615  -3.603   2.111  0.00  0.00     0.167 HD
ENDBRANCH  39  41
ENDBRANCH  38  39
ENDBRANCH  31  38
BRANCH  27  43
ATOM     43  C   UNK d   0     -18.366  -6.254   6.014  0.00  0.00     0.052 C 
BRANCH  43  44
ATOM     44  C   UNK d   0     -18.150  -7.526   6.769  0.00  0.00     0.115 C 
BRANCH  44  45
ATOM     45  C   UNK d   0     -18.140  -7.167   8.211  0.00  0.00     0.139 C 
ATOM     46  O   UNK d   0     -17.164  -7.541   8.907  0.00  0.00    -0.650 OA
BRANCH  45  47
ATOM     47  O   UNK d   0     -19.149  -6.442   8.807  0.00  0.00    -0.776 OA
ATOM     48  H   UNK d   0     -19.521  -6.665   9.744  0.00  0.00     0.167 HD
ENDBRANCH  45  47
ENDBRANCH  44  45
ENDBRANCH  43  44
ENDBRANCH  27  43
BRANCH  24  49
ATOM     49  C   UNK d   0     -23.566  -5.461   7.743  0.00  0.00     0.052 C 
BRANCH  49  50
ATOM     50  C   UNK d   0     -23.772  -6.938   7.961  0.00  0.00     0.115 C 
BRANCH  50  51
ATOM     51  C   UNK d   0     -25.029  -7.509   7.498  0.00  0.00     0.139 C 
ATOM     52  O   UNK d   0     -26.146  -7.075   7.867  0.00  0.00    -0.650 OA
BRANCH  51  53
ATOM     53  O   UNK d   0     -25.013  -8.578   6.614  0.00  0.00    -0.776 OA
ATOM     54  H   UNK d   0     -24.877  -9.501   6.987  0.00  0.00     0.167 HD
ENDBRANCH  51  53
ENDBRANCH  50  51
ENDBRANCH  49  50
ENDBRANCH  24  49
BRANCH  21  55
ATOM     55  C   UNK d   0     -25.632  -3.748   6.213  0.00  0.00     0.151 C 
BRANCH  55  56
ATOM     56  C   UNK d   0     -25.335  -2.404   6.733  0.00  0.00     0.143 C 
ATOM     57  O   UNK d   0     -25.144  -1.421   5.991  0.00  0.00    -0.650 OA
BRANCH  56  58
ATOM     58  O   UNK d   0     -25.269  -2.243   8.116  0.00  0.00    -0.776 OA
ATOM     59  H   UNK d   0     -24.908  -1.325   8.431  0.00  0.00     0.167 HD
ENDBRANCH  56  58
ENDBRANCH  55  56
ENDBRANCH  21  55
BRANCH  18  60
ATOM     60  C   UNK d   0     -26.574  -4.077   0.939  0.00  0.00     0.151 C 
BRANCH  60  61
ATOM     61  C   UNK d   0     -26.950  -5.414   1.425  0.00  0.00     0.143 C 
ATOM     62  O   UNK d   0     -26.205  -6.381   1.587  0.00  0.00    -0.650 OA
BRANCH  61  63
ATOM     63  O   UNK d   0     -28.322  -5.579   1.734  0.00  0.00    -0.776 OA
ATOM     64  H   UNK d   0     -29.020  -5.568   1.012  0.00  0.00     0.167 HD
ENDBRANCH  61  63
ENDBRANCH  60  61
ENDBRANCH  18  60
BRANCH  14  65
ATOM     65  C   UNK d   0     -25.093  -4.346  -1.696  0.00  0.00     0.052 C 
BRANCH  65  66
ATOM     66  C   UNK d   0     -25.561  -5.721  -2.018  0.00  0.00     0.115 C 
BRANCH  66  67
ATOM     67  C   UNK d   0     -24.798  -6.854  -1.576  0.00  0.00     0.139 C 
ATOM     68  O   UNK d   0     -23.726  -7.159  -2.218  0.00  0.00    -0.650 OA
BRANCH  67  69
ATOM     69  O   UNK d   0     -25.072  -7.703  -0.504  0.00  0.00    -0.776 OA
ATOM     70  H   UNK d   0     -26.064  -7.781  -0.237  0.00  0.00     0.167 HD
ENDBRANCH  67  69
ENDBRANCH  66  67
ENDBRANCH  65  66
ENDBRANCH  14  65
ENDBRANCH   6   7
ENDBRANCH   5   6
ENDBRANCH   2   5
TORSDOF 28
ENDMDL
MODEL 20
REMARK VINA RESULT:      -8.2      4.541     10.423
REMARK  28 active torsions:
REMARK  status: ('A' for Active; 'I' for Inactive)
REMARK    1  A    between atoms: C_2  and  O_3 
REMARK    2  A    between atoms: C_2  and  C_4 
REMARK    3  A    between atoms: C_4  and  C_5 
REMARK    4  A    between atoms: C_5  and  C_6 
REMARK    5  A    between atoms: C_7  and  C_8 
REMARK    6  A    between atoms: C_8  and  C_9 
REMARK    7  A    between atoms: C_9  and  O_11 
REMARK    8  A    between atoms: C_28  and  C_29 
REMARK    9  A    between atoms: C_29  and  C_30 
REMARK   10  A    between atoms: C_30  and  O_32 
REMARK   11  A    between atoms: C_33  and  C_34 
REMARK   12  A    between atoms: C_34  and  C_35 
REMARK   13  A    between atoms: C_35  and  C_36 
REMARK   14  A    between atoms: C_36  and  O_38 
REMARK   15  A    between atoms: C_39  and  C_40 
REMARK   16  A    between atoms: C_40  and  C_41 
REMARK   17  A    between atoms: C_41  and  C_42 
REMARK   18  A    between atoms: C_42  and  O_44 
REMARK   19  A    between atoms: C_45  and  C_46 
REMARK   20  A    between atoms: C_46  and  C_47 
REMARK   21  A    between atoms: C_47  and  O_49 
REMARK   22  A    between atoms: C_50  and  C_51 
REMARK   23  A    between atoms: C_51  and  C_52 
REMARK   24  A    between atoms: C_52  and  O_54 
REMARK   25  A    between atoms: C_55  and  C_56 
REMARK   26  A    between atoms: C_56  and  C_57 
REMARK   27  A    between atoms: C_57  and  C_58 
REMARK   28  A    between atoms: C_58  and  O_60 
ROOT
ATOM      1  O   UNK d   0     -25.588  -0.851  -0.782  0.00  0.00    -0.650 OA
ATOM      2  C   UNK d   0     -24.680  -1.537  -0.261  0.00  0.00     0.139 C 
ENDROOT
BRANCH   2   3
ATOM      3  O   UNK d   0     -23.370  -1.273  -0.580  0.00  0.00    -0.776 OA
ATOM      4  H   UNK d   0     -23.015  -1.429  -1.526  0.00  0.00     0.167 HD
ENDBRANCH   2   3
BRANCH   2   5
ATOM      5  C   UNK d   0     -25.021  -2.628   0.694  0.00  0.00     0.115 C 
BRANCH   5   6
ATOM      6  C   UNK d   0     -26.339  -2.339   1.361  0.00  0.00     0.052 C 
BRANCH   6   7
ATOM      7  C   UNK d   0     -26.197  -2.090   2.844  0.00  0.00    -0.020 A 
ATOM      8  C   UNK d   0     -26.620  -1.055   3.523  0.00  0.00    -0.011 A 
ATOM      9  C   UNK d   0     -26.248  -1.254   4.914  0.00  0.00     0.067 A 
ATOM     10  C   UNK d   0     -26.417  -0.552   6.118  0.00  0.00     0.062 C 
ATOM     11  N   UNK d   0     -25.597  -2.434   4.990  0.00  0.00    -0.248 NA
ATOM     12  C   UNK d   0     -26.230  -1.038   7.416  0.00  0.00     0.041 A 
ATOM     13  N   UNK d   0     -25.264  -1.815   7.941  0.00  0.00    -0.355 N 
ATOM     14  C   UNK d   0     -27.202  -0.759   8.394  0.00  0.00    -0.022 A 
ATOM     15  C   UNK d   0     -25.602  -2.043   9.224  0.00  0.00     0.042 A 
ATOM     16  H   UNK d   0     -24.351  -2.180   7.420  0.00  0.00     0.166 HD
ATOM     17  C   UNK d   0     -24.944  -2.788  10.224  0.00  0.00     0.062 C 
ATOM     18  C   UNK d   0     -26.811  -1.397   9.545  0.00  0.00    -0.013 A 
ATOM     19  C   UNK d   0     -24.370  -4.030  10.136  0.00  0.00     0.067 A 
ATOM     20  N   UNK d   0     -24.225  -4.544   8.912  0.00  0.00    -0.248 NA
ATOM     21  C   UNK d   0     -23.855  -5.012  11.076  0.00  0.00    -0.011 A 
ATOM     22  C   UNK d   0     -23.654  -5.791   8.983  0.00  0.00     0.066 A 
ATOM     23  C   UNK d   0     -23.411  -6.428   7.775  0.00  0.00     0.062 C 
ATOM     24  C   UNK d   0     -23.441  -6.042  10.395  0.00  0.00    -0.020 A 
ATOM     25  C   UNK d   0     -23.594  -5.916   6.481  0.00  0.00     0.041 A 
ATOM     26  N   UNK d   0     -24.562  -5.156   5.955  0.00  0.00    -0.355 N 
ATOM     27  C   UNK d   0     -22.615  -6.194   5.501  0.00  0.00    -0.022 A 
ATOM     28  C   UNK d   0     -24.232  -4.935   4.673  0.00  0.00     0.042 A 
ATOM     29  H   UNK d   0     -25.484  -4.800   6.477  0.00  0.00     0.166 HD
ATOM     30  C   UNK d   0     -24.881  -4.204   3.665  0.00  0.00     0.062 C 
ATOM     31  C   UNK d   0     -23.011  -5.576   4.354  0.00  0.00    -0.013 A 
ATOM     32  C   UNK d   0     -25.534  -2.987   3.778  0.00  0.00     0.066 A 
BRANCH   8  33
ATOM     33  C   UNK d   0     -27.341   0.117   2.993  0.00  0.00     0.151 C 
BRANCH  33  34
ATOM     34  C   UNK d   0     -26.445   1.244   2.680  0.00  0.00     0.143 C 
ATOM     35  O   UNK d   0     -26.567   2.334   3.257  0.00  0.00    -0.650 OA
BRANCH  34  36
ATOM     36  O   UNK d   0     -25.461   1.082   1.732  0.00  0.00    -0.776 OA
ATOM     37  H   UNK d   0     -24.958   1.890   1.340  0.00  0.00     0.167 HD
ENDBRANCH  34  36
ENDBRANCH  33  34
ENDBRANCH   8  33
BRANCH  31  38
ATOM     38  C   UNK d   0     -22.270  -5.582   3.038  0.00  0.00     0.151 C 
BRANCH  38  39
ATOM     39  C   UNK d   0     -20.978  -4.933   3.118  0.00  0.00     0.143 C 
ATOM     40  O   UNK d   0     -20.808  -3.861   3.725  0.00  0.00    -0.650 OA
BRANCH  39  41
ATOM     41  O   UNK d   0     -19.876  -5.520   2.497  0.00  0.00    -0.776 OA
ATOM     42  H   UNK d   0     -20.063  -6.321   1.886  0.00  0.00     0.167 HD
ENDBRANCH  39  41
ENDBRANCH  38  39
ENDBRANCH  31  38
BRANCH  27  43
ATOM     43  C   UNK d   0     -21.350  -7.007   5.613  0.00  0.00     0.052 C 
BRANCH  43  44
ATOM     44  C   UNK d   0     -20.361  -6.431   6.574  0.00  0.00     0.115 C 
BRANCH  44  45
ATOM     45  C   UNK d   0     -19.021  -6.905   6.139  0.00  0.00     0.139 C 
ATOM     46  O   UNK d   0     -18.246  -7.369   7.011  0.00  0.00    -0.650 OA
BRANCH  45  47
ATOM     47  O   UNK d   0     -18.603  -6.861   4.827  0.00  0.00    -0.776 OA
ATOM     48  H   UNK d   0     -17.878  -7.492   4.448  0.00  0.00     0.167 HD
ENDBRANCH  45  47
ENDBRANCH  44  45
ENDBRANCH  43  44
ENDBRANCH  27  43
BRANCH  24  49
ATOM     49  C   UNK d   0     -22.810  -7.252  10.948  0.00  0.00     0.052 C 
BRANCH  49  50
ATOM     50  C   UNK d   0     -23.783  -8.402  10.939  0.00  0.00     0.115 C 
BRANCH  50  51
ATOM     51  C   UNK d   0     -24.403  -8.759  12.208  0.00  0.00     0.139 C 
ATOM     52  O   UNK d   0     -23.942  -8.390  13.314  0.00  0.00    -0.650 OA
BRANCH  51  53
ATOM     53  O   UNK d   0     -25.550  -9.538  12.216  0.00  0.00    -0.776 OA
ATOM     54  H   UNK d   0     -25.459 -10.520  12.020  0.00  0.00     0.167 HD
ENDBRANCH  51  53
ENDBRANCH  50  51
ENDBRANCH  49  50
ENDBRANCH  24  49
BRANCH  21  55
ATOM     55  C   UNK d   0     -23.825  -4.816  12.555  0.00  0.00     0.151 C 
BRANCH  55  56
ATOM     56  C   UNK d   0     -22.642  -4.056  12.988  0.00  0.00     0.143 C 
ATOM     57  O   UNK d   0     -21.573  -4.604  13.320  0.00  0.00    -0.650 OA
BRANCH  56  58
ATOM     58  O   UNK d   0     -22.740  -2.666  13.020  0.00  0.00    -0.776 OA
ATOM     59  H   UNK d   0     -22.354  -2.222  13.872  0.00  0.00     0.167 HD
ENDBRANCH  56  58
ENDBRANCH  55  56
ENDBRANCH  21  55
BRANCH  18  60
ATOM     60  C   UNK d   0     -27.571  -1.371  10.848  0.00  0.00     0.151 C 
BRANCH  60  61
ATOM     61  C   UNK d   0     -28.612  -2.403  10.728  0.00  0.00     0.143 C 
ATOM     62  O   UNK d   0     -29.831  -2.227  10.695  0.00  0.00    -0.650 OA
BRANCH  61  63
ATOM     63  O   UNK d   0     -28.136  -3.733  10.644  0.00  0.00    -0.776 OA
ATOM     64  H   UNK d   0     -28.766  -4.500  10.490  0.00  0.00     0.167 HD
ENDBRANCH  61  63
ENDBRANCH  60  61
ENDBRANCH  18  60
BRANCH  14  65
ATOM     65  C   UNK d   0     -28.408   0.137   8.351  0.00  0.00     0.052 C 
BRANCH  65  66
ATOM     66  C   UNK d   0     -29.424  -0.303   7.358  0.00  0.00     0.115 C 
BRANCH  66  67
ATOM     67  C   UNK d   0     -29.864  -1.670   7.348  0.00  0.00     0.139 C 
ATOM     68  O   UNK d   0     -29.341  -2.477   6.495  0.00  0.00    -0.650 OA
BRANCH  67  69
ATOM     69  O   UNK d   0     -30.821  -2.264   8.170  0.00  0.00    -0.776 OA
ATOM     70  H   UNK d   0     -31.798  -1.989   7.991  0.00  0.00     0.167 HD
ENDBRANCH  67  69
ENDBRANCH  66  67
ENDBRANCH  65  66
ENDBRANCH  14  65
ENDBRANCH   6   7
ENDBRANCH   5   6
ENDBRANCH   2   5
TORSDOF 28
ENDMDL
