MODEL 1
REMARK VINA RESULT:      -9.1      0.000      0.000
REMARK  28 active torsions:
REMARK  status: ('A' for Active; 'I' for Inactive)
REMARK    1  A    between atoms: C1_2  and  O2_3 
REMARK    2  A    between atoms: C1_2  and  C2_4 
REMARK    3  A    between atoms: C2_4  and  C3_5 
REMARK    4  A    between atoms: C3_5  and  C4_6 
REMARK    5  A    between atoms: C5_7  and  C6_8 
REMARK    6  A    between atoms: C6_8  and  C7_9 
REMARK    7  A    between atoms: C7_9  and  O4_11 
REMARK    8  A    between atoms: C20_28  and  C21_29 
REMARK    9  A    between atoms: C21_29  and  C22_30 
REMARK   10  A    between atoms: C22_30  and  O6_32 
REMARK   11  A    between atoms: C23_33  and  C24_34 
REMARK   12  A    between atoms: C24_34  and  C25_35 
REMARK   13  A    between atoms: C25_35  and  C26_36 
REMARK   14  A    between atoms: C26_36  and  O8_38 
REMARK   15  A    between atoms: C27_39  and  C28_40 
REMARK   16  A    between atoms: C28_40  and  C29_41 
REMARK   17  A    between atoms: C29_41  and  O10_43 
REMARK   18  A    between atoms: C30_44  and  C31_45 
REMARK   19  A    between atoms: C31_45  and  C32_46 
REMARK   20  A    between atoms: C32_46  and  C33_47 
REMARK   21  A    between atoms: C33_47  and  O12_49 
REMARK   22  A    between atoms: C34_50  and  C35_51 
REMARK   23  A    between atoms: C35_51  and  C36_52 
REMARK   24  A    between atoms: C36_52  and  O14_54 
REMARK   25  A    between atoms: C37_55  and  C38_56 
REMARK   26  A    between atoms: C38_56  and  C39_57 
REMARK   27  A    between atoms: C39_57  and  C40_58 
REMARK   28  A    between atoms: C40_58  and  O16_60 
ROOT
HETATM    1  O1  UNL     1     -34.569  15.021   2.658  1.00  0.00    -0.650 OA
HETATM    2  C1  UNL     1     -34.422  13.999   3.338  1.00  0.00     0.139 C 
ENDROOT
BRANCH   2   3
HETATM    3  O2  UNL     1     -35.320  12.950   3.125  1.00  0.00    -0.776 OA
HETATM    4  H1  UNL     1     -36.323  13.092   3.079  1.00  0.00     0.167 HD
ENDBRANCH   2   3
BRANCH   2   5
HETATM    5  C2  UNL     1     -33.354  13.846   4.346  1.00  0.00     0.115 C 
BRANCH   5   6
HETATM    6  C3  UNL     1     -32.060  14.470   3.968  1.00  0.00     0.052 C 
BRANCH   6   7
HETATM    7  C4  UNL     1     -31.673  14.086   2.584  1.00  0.00    -0.020 A 
HETATM    8  C5  UNL     1     -31.320  14.895   1.582  1.00  0.00    -0.011 A 
HETATM    9  C8  UNL     1     -31.021  14.103   0.412  1.00  0.00     0.067 A 
HETATM   10  C9  UNL     1     -30.627  14.419  -0.906  1.00  0.00     0.062 C 
HETATM   11  N4  UNL     1     -31.201  12.828   0.743  1.00  0.00    -0.248 NA
HETATM   12  C10 UNL     1     -30.515  13.503  -1.951  1.00  0.00     0.041 A 
HETATM   13  N1  UNL     1     -31.248  12.432  -2.311  1.00  0.00    -0.355 N 
HETATM   14  C37 UNL     1     -29.409  13.629  -2.822  1.00  0.00    -0.022 A 
HETATM   15  C11 UNL     1     -30.643  11.872  -3.375  1.00  0.00     0.042 A 
HETATM   16  H10 UNL     1     -32.199  12.093  -1.836  1.00  0.00     0.166 HD
HETATM   17  C12 UNL     1     -30.915  10.734  -4.137  1.00  0.00     0.062 C 
HETATM   18  C34 UNL     1     -29.489  12.617  -3.704  1.00  0.00    -0.013 A 
HETATM   19  C13 UNL     1     -31.327   9.493  -3.618  1.00  0.00     0.066 A 
HETATM   20  N2  UNL     1     -31.470   9.364  -2.291  1.00  0.00    -0.248 NA
HETATM   21  C30 UNL     1     -31.672   8.227  -4.217  1.00  0.00    -0.020 A 
HETATM   22  C14 UNL     1     -31.879   8.116  -2.001  1.00  0.00     0.067 A 
HETATM   23  C15 UNL     1     -32.097   7.769  -0.661  1.00  0.00     0.062 C 
HETATM   24  C27 UNL     1     -32.013   7.366  -3.244  1.00  0.00    -0.011 A 
HETATM   25  C16 UNL     1     -32.236   8.648   0.436  1.00  0.00     0.041 A 
HETATM   26  N3  UNL     1     -31.593   9.787   0.718  1.00  0.00    -0.355 N 
HETATM   27  C23 UNL     1     -33.225   8.377   1.414  1.00  0.00    -0.022 A 
HETATM   28  C17 UNL     1     -32.120  10.285   1.842  1.00  0.00     0.042 A 
HETATM   29  H13 UNL     1     -30.743  10.235   0.136  1.00  0.00     0.166 HD
HETATM   30  C18 UNL     1     -31.826  11.459   2.562  1.00  0.00     0.062 C 
HETATM   31  C20 UNL     1     -33.143   9.428   2.301  1.00  0.00    -0.013 A 
HETATM   32  C19 UNL     1     -31.594  12.737   2.037  1.00  0.00     0.066 A 
BRANCH   8  33
HETATM   33  C6  UNL     1     -31.251  16.378   1.692  1.00  0.00     0.151 C 
BRANCH  33  34
HETATM   34  C7  UNL     1     -32.183  17.073   0.774  1.00  0.00     0.143 C 
HETATM   35  O3  UNL     1     -31.733  17.904  -0.039  1.00  0.00    -0.650 OA
BRANCH  34  36
HETATM   36  O4  UNL     1     -33.525  16.774   0.854  1.00  0.00    -0.776 OA
HETATM   37  H8  UNL     1     -33.960  16.276   0.078  1.00  0.00     0.167 HD
ENDBRANCH  34  36
ENDBRANCH  33  34
ENDBRANCH   8  33
BRANCH  31  38
HETATM   38  C21 UNL     1     -34.027   9.615   3.518  1.00  0.00     0.151 C 
BRANCH  38  39
HETATM   39  C22 UNL     1     -35.429   9.588   3.042  1.00  0.00     0.143 C 
HETATM   40  O5  UNL     1     -35.765  10.327   2.091  1.00  0.00    -0.650 OA
BRANCH  39  41
HETATM   41  O6  UNL     1     -36.403   8.775   3.601  1.00  0.00    -0.776 OA
HETATM   42  H17 UNL     1     -36.397   8.544   4.603  1.00  0.00     0.167 HD
ENDBRANCH  39  41
ENDBRANCH  38  39
ENDBRANCH  31  38
BRANCH  27  43
HETATM   43  C24 UNL     1     -34.174   7.237   1.524  1.00  0.00     0.052 C 
BRANCH  43  44
HETATM   44  C25 UNL     1     -33.541   6.037   2.090  1.00  0.00     0.115 C 
BRANCH  44  45
HETATM   45  C26 UNL     1     -32.381   6.182   2.964  1.00  0.00     0.139 C 
HETATM   46  O7  UNL     1     -31.180   6.158   2.715  1.00  0.00    -0.650 OA
BRANCH  45  47
HETATM   47  O8  UNL     1     -32.703   6.382   4.336  1.00  0.00    -0.776 OA
HETATM   48  H22 UNL     1     -32.287   5.860   5.068  1.00  0.00     0.167 HD
ENDBRANCH  45  47
ENDBRANCH  44  45
ENDBRANCH  43  44
ENDBRANCH  27  43
BRANCH  24  49
HETATM   49  C28 UNL     1     -32.449   5.941  -3.387  1.00  0.00     0.151 C 
BRANCH  49  50
HETATM   50  C29 UNL     1     -31.284   5.023  -3.340  1.00  0.00     0.143 C 
HETATM   51  O9  UNL     1     -30.996   4.476  -2.252  1.00  0.00    -0.650 OA
BRANCH  50  52
HETATM   52  O10 UNL     1     -30.497   4.741  -4.442  1.00  0.00    -0.776 OA
HETATM   53  H25 UNL     1     -29.710   5.345  -4.713  1.00  0.00     0.167 HD
ENDBRANCH  50  52
ENDBRANCH  49  50
ENDBRANCH  24  49
BRANCH  21  54
HETATM   54  C31 UNL     1     -31.682   7.898  -5.670  1.00  0.00     0.052 C 
BRANCH  54  55
HETATM   55  C32 UNL     1     -31.446   9.058  -6.570  1.00  0.00     0.115 C 
BRANCH  55  56
HETATM   56  C33 UNL     1     -30.098   8.827  -7.209  1.00  0.00     0.139 C 
HETATM   57  O11 UNL     1     -29.932   7.913  -8.054  1.00  0.00    -0.650 OA
BRANCH  56  58
HETATM   58  O12 UNL     1     -28.996   9.610  -6.892  1.00  0.00    -0.776 OA
HETATM   59  H30 UNL     1     -29.202  10.472  -6.380  1.00  0.00     0.167 HD
ENDBRANCH  56  58
ENDBRANCH  55  56
ENDBRANCH  54  55
ENDBRANCH  21  54
BRANCH  18  60
HETATM   60  C35 UNL     1     -28.499  12.415  -4.812  1.00  0.00     0.151 C 
BRANCH  60  61
HETATM   61  C36 UNL     1     -27.409  11.591  -4.286  1.00  0.00     0.143 C 
HETATM   62  O13 UNL     1     -26.212  11.970  -4.430  1.00  0.00    -0.650 OA
BRANCH  61  63
HETATM   63  O14 UNL     1     -27.627  10.391  -3.622  1.00  0.00    -0.776 OA
HETATM   64  H33 UNL     1     -26.994   9.627  -3.790  1.00  0.00     0.167 HD
ENDBRANCH  61  63
ENDBRANCH  60  61
ENDBRANCH  18  60
BRANCH  14  65
HETATM   65  C38 UNL     1     -28.323  14.666  -2.850  1.00  0.00     0.052 C 
BRANCH  65  66
HETATM   66  C39 UNL     1     -28.755  15.818  -3.710  1.00  0.00     0.115 C 
BRANCH  66  67
HETATM   67  C40 UNL     1     -28.663  17.082  -2.887  1.00  0.00     0.139 C 
HETATM   68  O15 UNL     1     -27.608  17.768  -2.890  1.00  0.00    -0.650 OA
BRANCH  67  69
HETATM   69  O16 UNL     1     -29.723  17.497  -2.130  1.00  0.00    -0.776 OA
HETATM   70  H38 UNL     1     -30.010  18.461  -2.103  1.00  0.00     0.167 HD
ENDBRANCH  67  69
ENDBRANCH  66  67
ENDBRANCH  65  66
ENDBRANCH  14  65
ENDBRANCH   6   7
ENDBRANCH   5   6
ENDBRANCH   2   5
TORSDOF 28
ENDMDL
MODEL 2
REMARK VINA RESULT:      -8.4      1.619     10.443
REMARK  28 active torsions:
REMARK  status: ('A' for Active; 'I' for Inactive)
REMARK    1  A    between atoms: C1_2  and  O2_3 
REMARK    2  A    between atoms: C1_2  and  C2_4 
REMARK    3  A    between atoms: C2_4  and  C3_5 
REMARK    4  A    between atoms: C3_5  and  C4_6 
REMARK    5  A    between atoms: C5_7  and  C6_8 
REMARK    6  A    between atoms: C6_8  and  C7_9 
REMARK    7  A    between atoms: C7_9  and  O4_11 
REMARK    8  A    between atoms: C20_28  and  C21_29 
REMARK    9  A    between atoms: C21_29  and  C22_30 
REMARK   10  A    between atoms: C22_30  and  O6_32 
REMARK   11  A    between atoms: C23_33  and  C24_34 
REMARK   12  A    between atoms: C24_34  and  C25_35 
REMARK   13  A    between atoms: C25_35  and  C26_36 
REMARK   14  A    between atoms: C26_36  and  O8_38 
REMARK   15  A    between atoms: C27_39  and  C28_40 
REMARK   16  A    between atoms: C28_40  and  C29_41 
REMARK   17  A    between atoms: C29_41  and  O10_43 
REMARK   18  A    between atoms: C30_44  and  C31_45 
REMARK   19  A    between atoms: C31_45  and  C32_46 
REMARK   20  A    between atoms: C32_46  and  C33_47 
REMARK   21  A    between atoms: C33_47  and  O12_49 
REMARK   22  A    between atoms: C34_50  and  C35_51 
REMARK   23  A    between atoms: C35_51  and  C36_52 
REMARK   24  A    between atoms: C36_52  and  O14_54 
REMARK   25  A    between atoms: C37_55  and  C38_56 
REMARK   26  A    between atoms: C38_56  and  C39_57 
REMARK   27  A    between atoms: C39_57  and  C40_58 
REMARK   28  A    between atoms: C40_58  and  O16_60 
ROOT
HETATM    1  O1  UNL     1     -29.542   2.744  -4.573  1.00  0.00    -0.650 OA
HETATM    2  C1  UNL     1     -29.751   3.805  -5.174  1.00  0.00     0.139 C 
ENDROOT
BRANCH   2   3
HETATM    3  O2  UNL     1     -30.181   3.719  -6.500  1.00  0.00    -0.776 OA
HETATM    4  H1  UNL     1     -30.906   4.319  -6.878  1.00  0.00     0.167 HD
ENDBRANCH   2   3
BRANCH   2   5
HETATM    5  C2  UNL     1     -29.569   5.132  -4.554  1.00  0.00     0.115 C 
BRANCH   5   6
HETATM    6  C3  UNL     1     -30.613   6.125  -4.912  1.00  0.00     0.052 C 
BRANCH   6   7
HETATM    7  C4  UNL     1     -31.149   6.791  -3.694  1.00  0.00    -0.020 A 
HETATM    8  C5  UNL     1     -32.080   6.330  -2.854  1.00  0.00    -0.011 A 
HETATM    9  C8  UNL     1     -32.298   7.297  -1.806  1.00  0.00     0.067 A 
HETATM   10  C9  UNL     1     -33.160   7.349  -0.688  1.00  0.00     0.062 C 
HETATM   11  N4  UNL     1     -31.487   8.323  -2.042  1.00  0.00    -0.248 NA
HETATM   12  C10 UNL     1     -33.322   8.451   0.149  1.00  0.00     0.041 A 
HETATM   13  N1  UNL     1     -33.368   9.776  -0.082  1.00  0.00    -0.355 N 
HETATM   14  C37 UNL     1     -33.418   8.214   1.540  1.00  0.00    -0.022 A 
HETATM   15  C11 UNL     1     -33.483  10.388   1.111  1.00  0.00     0.042 A 
HETATM   16  H10 UNL     1     -33.348  10.273  -1.082  1.00  0.00     0.166 HD
HETATM   17  C12 UNL     1     -33.531  11.730   1.494  1.00  0.00     0.062 C 
HETATM   18  C34 UNL     1     -33.517   9.416   2.134  1.00  0.00    -0.013 A 
HETATM   19  C13 UNL     1     -32.727  12.753   0.958  1.00  0.00     0.066 A 
HETATM   20  N2  UNL     1     -31.833  12.441   0.010  1.00  0.00    -0.248 NA
HETATM   21  C30 UNL     1     -32.634  14.173   1.193  1.00  0.00    -0.020 A 
HETATM   22  C14 UNL     1     -31.179  13.551  -0.376  1.00  0.00     0.067 A 
HETATM   23  C15 UNL     1     -30.198  13.448  -1.371  1.00  0.00     0.062 C 
HETATM   24  C27 UNL     1     -31.690  14.685   0.386  1.00  0.00    -0.011 A 
HETATM   25  C16 UNL     1     -29.993  12.369  -2.259  1.00  0.00     0.041 A 
HETATM   26  N3  UNL     1     -30.083  11.050  -2.052  1.00  0.00    -0.355 N 
HETATM   27  C23 UNL     1     -29.689  12.642  -3.615  1.00  0.00    -0.022 A 
HETATM   28  C17 UNL     1     -29.855  10.437  -3.219  1.00  0.00     0.042 A 
HETATM   29  H13 UNL     1     -30.284  10.541  -1.071  1.00  0.00     0.166 HD
HETATM   30  C18 UNL     1     -29.843   9.072  -3.561  1.00  0.00     0.062 C 
HETATM   31  C20 UNL     1     -29.607  11.405  -4.216  1.00  0.00    -0.013 A 
HETATM   32  C19 UNL     1     -30.761   8.092  -3.163  1.00  0.00     0.066 A 
BRANCH   8  33
HETATM   33  C6  UNL     1     -32.760   5.014  -3.005  1.00  0.00     0.151 C 
BRANCH  33  34
HETATM   34  C7  UNL     1     -32.143   3.943  -2.189  1.00  0.00     0.143 C 
HETATM   35  O3  UNL     1     -31.007   4.121  -1.708  1.00  0.00    -0.650 OA
BRANCH  34  36
HETATM   36  O4  UNL     1     -32.853   2.780  -1.991  1.00  0.00    -0.776 OA
HETATM   37  H8  UNL     1     -33.832   2.849  -1.713  1.00  0.00     0.167 HD
ENDBRANCH  34  36
ENDBRANCH  33  34
ENDBRANCH   8  33
BRANCH  31  38
HETATM   38  C21 UNL     1     -29.331  11.164  -5.687  1.00  0.00     0.151 C 
BRANCH  38  39
HETATM   39  C22 UNL     1     -30.432  10.317  -6.200  1.00  0.00     0.143 C 
HETATM   40  O5  UNL     1     -30.157   9.311  -6.891  1.00  0.00    -0.650 OA
BRANCH  39  41
HETATM   41  O6  UNL     1     -31.770  10.582  -5.951  1.00  0.00    -0.776 OA
HETATM   42  H17 UNL     1     -32.431  10.761  -6.718  1.00  0.00     0.167 HD
ENDBRANCH  39  41
ENDBRANCH  38  39
ENDBRANCH  31  38
BRANCH  27  43
HETATM   43  C24 UNL     1     -29.489  13.944  -4.308  1.00  0.00     0.052 C 
BRANCH  43  44
HETATM   44  C25 UNL     1     -28.143  14.491  -4.087  1.00  0.00     0.115 C 
BRANCH  44  45
HETATM   45  C26 UNL     1     -27.043  13.586  -3.763  1.00  0.00     0.139 C 
HETATM   46  O7  UNL     1     -26.561  13.265  -2.682  1.00  0.00    -0.650 OA
BRANCH  45  47
HETATM   47  O8  UNL     1     -26.432  12.980  -4.896  1.00  0.00    -0.776 OA
HETATM   48  H22 UNL     1     -26.897  12.321  -5.470  1.00  0.00     0.167 HD
ENDBRANCH  45  47
ENDBRANCH  44  45
ENDBRANCH  43  44
ENDBRANCH  27  43
BRANCH  24  49
HETATM   49  C28 UNL     1     -31.249  16.111   0.273  1.00  0.00     0.151 C 
BRANCH  49  50
HETATM   50  C29 UNL     1     -31.514  16.641  -1.087  1.00  0.00     0.143 C 
HETATM   51  O9  UNL     1     -30.547  16.806  -1.865  1.00  0.00    -0.650 OA
BRANCH  50  52
HETATM   52  O10 UNL     1     -32.780  16.963  -1.541  1.00  0.00    -0.776 OA
HETATM   53  H25 UNL     1     -33.627  16.676  -1.032  1.00  0.00     0.167 HD
ENDBRANCH  50  52
ENDBRANCH  49  50
ENDBRANCH  24  49
BRANCH  21  54
HETATM   54  C31 UNL     1     -33.448  14.978   2.147  1.00  0.00     0.052 C 
BRANCH  54  55
HETATM   55  C32 UNL     1     -34.894  15.063   1.810  1.00  0.00     0.115 C 
BRANCH  55  56
HETATM   56  C33 UNL     1     -35.046  16.266   0.911  1.00  0.00     0.139 C 
HETATM   57  O11 UNL     1     -34.189  17.184   0.910  1.00  0.00    -0.650 OA
BRANCH  56  58
HETATM   58  O12 UNL     1     -36.131  16.407   0.056  1.00  0.00    -0.776 OA
HETATM   59  H30 UNL     1     -36.945  16.884   0.453  1.00  0.00     0.167 HD
ENDBRANCH  56  58
ENDBRANCH  55  56
ENDBRANCH  54  55
ENDBRANCH  21  54
BRANCH  18  60
HETATM   60  C35 UNL     1     -33.657   9.587   3.618  1.00  0.00     0.151 C 
BRANCH  60  61
HETATM   61  C36 UNL     1     -35.066   9.874   3.899  1.00  0.00     0.143 C 
HETATM   62  O13 UNL     1     -35.403  11.023   4.300  1.00  0.00    -0.650 OA
BRANCH  61  63
HETATM   63  O14 UNL     1     -36.071   8.928   3.743  1.00  0.00    -0.776 OA
HETATM   64  H33 UNL     1     -36.490   8.533   4.568  1.00  0.00     0.167 HD
ENDBRANCH  61  63
ENDBRANCH  60  61
ENDBRANCH  18  60
BRANCH  14  65
HETATM   65  C38 UNL     1     -33.438   6.914   2.292  1.00  0.00     0.052 C 
BRANCH  65  66
HETATM   66  C39 UNL     1     -32.075   6.644   2.857  1.00  0.00     0.115 C 
BRANCH  66  67
HETATM   67  C40 UNL     1     -32.241   5.860   4.138  1.00  0.00     0.139 C 
HETATM   68  O15 UNL     1     -31.873   4.658   4.200  1.00  0.00    -0.650 OA
BRANCH  67  69
HETATM   69  O16 UNL     1     -32.792   6.444   5.244  1.00  0.00    -0.776 OA
HETATM   70  H38 UNL     1     -32.267   7.076   5.826  1.00  0.00     0.167 HD
ENDBRANCH  67  69
ENDBRANCH  66  67
ENDBRANCH  65  66
ENDBRANCH  14  65
ENDBRANCH   6   7
ENDBRANCH   5   6
ENDBRANCH   2   5
TORSDOF 28
ENDMDL
MODEL 3
REMARK VINA RESULT:      -8.3      1.416      7.499
REMARK  28 active torsions:
REMARK  status: ('A' for Active; 'I' for Inactive)
REMARK    1  A    between atoms: C1_2  and  O2_3 
REMARK    2  A    between atoms: C1_2  and  C2_4 
REMARK    3  A    between atoms: C2_4  and  C3_5 
REMARK    4  A    between atoms: C3_5  and  C4_6 
REMARK    5  A    between atoms: C5_7  and  C6_8 
REMARK    6  A    between atoms: C6_8  and  C7_9 
REMARK    7  A    between atoms: C7_9  and  O4_11 
REMARK    8  A    between atoms: C20_28  and  C21_29 
REMARK    9  A    between atoms: C21_29  and  C22_30 
REMARK   10  A    between atoms: C22_30  and  O6_32 
REMARK   11  A    between atoms: C23_33  and  C24_34 
REMARK   12  A    between atoms: C24_34  and  C25_35 
REMARK   13  A    between atoms: C25_35  and  C26_36 
REMARK   14  A    between atoms: C26_36  and  O8_38 
REMARK   15  A    between atoms: C27_39  and  C28_40 
REMARK   16  A    between atoms: C28_40  and  C29_41 
REMARK   17  A    between atoms: C29_41  and  O10_43 
REMARK   18  A    between atoms: C30_44  and  C31_45 
REMARK   19  A    between atoms: C31_45  and  C32_46 
REMARK   20  A    between atoms: C32_46  and  C33_47 
REMARK   21  A    between atoms: C33_47  and  O12_49 
REMARK   22  A    between atoms: C34_50  and  C35_51 
REMARK   23  A    between atoms: C35_51  and  C36_52 
REMARK   24  A    between atoms: C36_52  and  O14_54 
REMARK   25  A    between atoms: C37_55  and  C38_56 
REMARK   26  A    between atoms: C38_56  and  C39_57 
REMARK   27  A    between atoms: C39_57  and  C40_58 
REMARK   28  A    between atoms: C40_58  and  O16_60 
ROOT
HETATM    1  O1  UNL     1     -26.114  14.386  -4.290  1.00  0.00    -0.650 OA
HETATM    2  C1  UNL     1     -27.037  13.600  -4.536  1.00  0.00     0.139 C 
ENDROOT
BRANCH   2   3
HETATM    3  O2  UNL     1     -26.990  12.343  -3.927  1.00  0.00    -0.776 OA
HETATM    4  H1  UNL     1     -26.973  11.480  -4.458  1.00  0.00     0.167 HD
ENDBRANCH   2   3
BRANCH   2   5
HETATM    5  C2  UNL     1     -28.164  13.932  -5.429  1.00  0.00     0.115 C 
BRANCH   5   6
HETATM    6  C3  UNL     1     -29.060  14.999  -4.916  1.00  0.00     0.052 C 
BRANCH   6   7
HETATM    7  C4  UNL     1     -29.635  14.620  -3.598  1.00  0.00    -0.020 A 
HETATM    8  C5  UNL     1     -29.623  15.329  -2.467  1.00  0.00    -0.011 A 
HETATM    9  C8  UNL     1     -30.296  14.585  -1.429  1.00  0.00     0.067 A 
HETATM   10  C9  UNL     1     -30.557  14.831  -0.063  1.00  0.00     0.062 C 
HETATM   11  N4  UNL     1     -30.700  13.438  -1.966  1.00  0.00    -0.248 NA
HETATM   12  C10 UNL     1     -31.115  13.914   0.825  1.00  0.00     0.041 A 
HETATM   13  N1  UNL     1     -30.962  12.585   0.982  1.00  0.00    -0.355 N 
HETATM   14  C37 UNL     1     -32.078  14.388   1.745  1.00  0.00    -0.022 A 
HETATM   15  C11 UNL     1     -31.798  12.199   1.964  1.00  0.00     0.042 A 
HETATM   16  H10 UNL     1     -30.250  11.931   0.425  1.00  0.00     0.166 HD
HETATM   17  C12 UNL     1     -32.103  10.957   2.524  1.00  0.00     0.062 C 
HETATM   18  C34 UNL     1     -32.501  13.324   2.450  1.00  0.00    -0.013 A 
HETATM   19  C13 UNL     1     -32.277   9.764   1.799  1.00  0.00     0.066 A 
HETATM   20  N2  UNL     1     -32.155   9.797   0.464  1.00  0.00    -0.248 NA
HETATM   21  C30 UNL     1     -32.568   8.402   2.175  1.00  0.00    -0.020 A 
HETATM   22  C14 UNL     1     -32.345   8.563  -0.036  1.00  0.00     0.067 A 
HETATM   23  C15 UNL     1     -32.253   8.373  -1.422  1.00  0.00     0.062 C 
HETATM   24  C27 UNL     1     -32.616   7.647   1.066  1.00  0.00    -0.011 A 
HETATM   25  C16 UNL     1     -31.686   9.254  -2.368  1.00  0.00     0.041 A 
HETATM   26  N3  UNL     1     -31.731  10.590  -2.441  1.00  0.00    -0.355 N 
HETATM   27  C23 UNL     1     -30.889   8.723  -3.412  1.00  0.00    -0.022 A 
HETATM   28  C17 UNL     1     -30.990  10.966  -3.489  1.00  0.00     0.042 A 
HETATM   29  H13 UNL     1     -32.309  11.276  -1.765  1.00  0.00     0.166 HD
HETATM   30  C18 UNL     1     -30.691  12.243  -4.001  1.00  0.00     0.062 C 
HETATM   31  C20 UNL     1     -30.449   9.823  -4.116  1.00  0.00    -0.013 A 
HETATM   32  C19 UNL     1     -30.339  13.385  -3.271  1.00  0.00     0.066 A 
BRANCH   8  33
HETATM   33  C6  UNL     1     -29.008  16.679  -2.336  1.00  0.00     0.151 C 
BRANCH  33  34
HETATM   34  C7  UNL     1     -29.966  17.714  -1.884  1.00  0.00     0.143 C 
HETATM   35  O3  UNL     1     -29.537  18.737  -1.315  1.00  0.00    -0.650 OA
BRANCH  34  36
HETATM   36  O4  UNL     1     -31.309  17.505  -2.110  1.00  0.00    -0.776 OA
HETATM   37  H8  UNL     1     -31.589  17.005  -2.952  1.00  0.00     0.167 HD
ENDBRANCH  34  36
ENDBRANCH  33  34
ENDBRANCH   8  33
BRANCH  31  38
HETATM   38  C21 UNL     1     -29.528   9.779  -5.319  1.00  0.00     0.151 C 
BRANCH  38  39
HETATM   39  C22 UNL     1     -30.363   9.421  -6.489  1.00  0.00     0.143 C 
HETATM   40  O5  UNL     1     -29.818   8.926  -7.499  1.00  0.00    -0.650 OA
BRANCH  39  41
HETATM   41  O6  UNL     1     -31.736   9.607  -6.524  1.00  0.00    -0.776 OA
HETATM   42  H17 UNL     1     -32.383   8.811  -6.597  1.00  0.00     0.167 HD
ENDBRANCH  39  41
ENDBRANCH  38  39
ENDBRANCH  31  38
BRANCH  27  43
HETATM   43  C24 UNL     1     -30.556   7.310  -3.737  1.00  0.00     0.052 C 
BRANCH  43  44
HETATM   44  C25 UNL     1     -31.746   6.448  -3.758  1.00  0.00     0.115 C 
BRANCH  44  45
HETATM   45  C26 UNL     1     -31.704   5.148  -3.095  1.00  0.00     0.139 C 
HETATM   46  O7  UNL     1     -32.054   4.809  -1.970  1.00  0.00    -0.650 OA
BRANCH  45  47
HETATM   47  O8  UNL     1     -31.161   4.102  -3.893  1.00  0.00    -0.776 OA
HETATM   48  H22 UNL     1     -31.259   4.071  -4.878  1.00  0.00     0.167 HD
ENDBRANCH  45  47
ENDBRANCH  44  45
ENDBRANCH  43  44
ENDBRANCH  27  43
BRANCH  24  49
HETATM   49  C28 UNL     1     -32.879   6.177   0.963  1.00  0.00     0.151 C 
BRANCH  49  50
HETATM   50  C29 UNL     1     -34.175   5.826   1.596  1.00  0.00     0.143 C 
HETATM   51  O9  UNL     1     -35.110   6.657   1.550  1.00  0.00    -0.650 OA
BRANCH  50  52
HETATM   52  O10 UNL     1     -34.402   4.622   2.237  1.00  0.00    -0.776 OA
HETATM   53  H25 UNL     1     -34.819   3.818   1.748  1.00  0.00     0.167 HD
ENDBRANCH  50  52
ENDBRANCH  49  50
ENDBRANCH  24  49
BRANCH  21  54
HETATM   54  C31 UNL     1     -32.768   7.878   3.556  1.00  0.00     0.052 C 
BRANCH  54  55
HETATM   55  C32 UNL     1     -31.716   6.936   4.019  1.00  0.00     0.115 C 
BRANCH  55  56
HETATM   56  C33 UNL     1     -32.423   5.890   4.846  1.00  0.00     0.139 C 
HETATM   57  O11 UNL     1     -33.044   6.204   5.892  1.00  0.00    -0.650 OA
BRANCH  56  58
HETATM   58  O12 UNL     1     -32.416   4.548   4.488  1.00  0.00    -0.776 OA
HETATM   59  H30 UNL     1     -33.326   4.158   4.227  1.00  0.00     0.167 HD
ENDBRANCH  56  58
ENDBRANCH  55  56
ENDBRANCH  54  55
ENDBRANCH  21  54
BRANCH  18  60
HETATM   60  C35 UNL     1     -33.519  13.420   3.547  1.00  0.00     0.151 C 
BRANCH  60  61
HETATM   61  C36 UNL     1     -34.817  13.047   2.979  1.00  0.00     0.143 C 
HETATM   62  O13 UNL     1     -35.032  11.848   2.647  1.00  0.00    -0.650 OA
BRANCH  61  63
HETATM   63  O14 UNL     1     -35.844  13.961   2.785  1.00  0.00    -0.776 OA
HETATM   64  H33 UNL     1     -35.651  14.938   2.931  1.00  0.00     0.167 HD
ENDBRANCH  61  63
ENDBRANCH  60  61
ENDBRANCH  18  60
BRANCH  14  65
HETATM   65  C38 UNL     1     -32.576  15.785   1.977  1.00  0.00     0.052 C 
BRANCH  65  66
HETATM   66  C39 UNL     1     -33.755  16.049   1.088  1.00  0.00     0.115 C 
BRANCH  66  67
HETATM   67  C40 UNL     1     -33.353  17.085   0.065  1.00  0.00     0.139 C 
HETATM   68  O15 UNL     1     -32.428  17.901   0.315  1.00  0.00    -0.650 OA
BRANCH  67  69
HETATM   69  O16 UNL     1     -33.988  17.151  -1.145  1.00  0.00    -0.776 OA
HETATM   70  H38 UNL     1     -34.023  18.003  -1.679  1.00  0.00     0.167 HD
ENDBRANCH  67  69
ENDBRANCH  66  67
ENDBRANCH  65  66
ENDBRANCH  14  65
ENDBRANCH   6   7
ENDBRANCH   5   6
ENDBRANCH   2   5
TORSDOF 28
ENDMDL
MODEL 4
REMARK VINA RESULT:      -7.9      1.681      7.250
REMARK  28 active torsions:
REMARK  status: ('A' for Active; 'I' for Inactive)
REMARK    1  A    between atoms: C1_2  and  O2_3 
REMARK    2  A    between atoms: C1_2  and  C2_4 
REMARK    3  A    between atoms: C2_4  and  C3_5 
REMARK    4  A    between atoms: C3_5  and  C4_6 
REMARK    5  A    between atoms: C5_7  and  C6_8 
REMARK    6  A    between atoms: C6_8  and  C7_9 
REMARK    7  A    between atoms: C7_9  and  O4_11 
REMARK    8  A    between atoms: C20_28  and  C21_29 
REMARK    9  A    between atoms: C21_29  and  C22_30 
REMARK   10  A    between atoms: C22_30  and  O6_32 
REMARK   11  A    between atoms: C23_33  and  C24_34 
REMARK   12  A    between atoms: C24_34  and  C25_35 
REMARK   13  A    between atoms: C25_35  and  C26_36 
REMARK   14  A    between atoms: C26_36  and  O8_38 
REMARK   15  A    between atoms: C27_39  and  C28_40 
REMARK   16  A    between atoms: C28_40  and  C29_41 
REMARK   17  A    between atoms: C29_41  and  O10_43 
REMARK   18  A    between atoms: C30_44  and  C31_45 
REMARK   19  A    between atoms: C31_45  and  C32_46 
REMARK   20  A    between atoms: C32_46  and  C33_47 
REMARK   21  A    between atoms: C33_47  and  O12_49 
REMARK   22  A    between atoms: C34_50  and  C35_51 
REMARK   23  A    between atoms: C35_51  and  C36_52 
REMARK   24  A    between atoms: C36_52  and  O14_54 
REMARK   25  A    between atoms: C37_55  and  C38_56 
REMARK   26  A    between atoms: C38_56  and  C39_57 
REMARK   27  A    between atoms: C39_57  and  C40_58 
REMARK   28  A    between atoms: C40_58  and  O16_60 
ROOT
HETATM    1  O1  UNL     1     -33.542  17.016  -0.600  1.00  0.00    -0.650 OA
HETATM    2  C1  UNL     1     -32.337  17.012  -0.318  1.00  0.00     0.139 C 
ENDROOT
BRANCH   2   3
HETATM    3  O2  UNL     1     -31.959  17.589   0.896  1.00  0.00    -0.776 OA
HETATM    4  H1  UNL     1     -31.884  18.592   1.024  1.00  0.00     0.167 HD
ENDBRANCH   2   3
BRANCH   2   5
HETATM    5  C2  UNL     1     -31.305  16.430  -1.198  1.00  0.00     0.115 C 
BRANCH   5   6
HETATM    6  C3  UNL     1     -30.294  15.601  -0.495  1.00  0.00     0.052 C 
BRANCH   6   7
HETATM    7  C4  UNL     1     -30.835  14.247  -0.199  1.00  0.00    -0.020 A 
HETATM    8  C5  UNL     1     -31.202  13.755   0.988  1.00  0.00    -0.011 A 
HETATM    9  C8  UNL     1     -31.672  12.401   0.819  1.00  0.00     0.067 A 
HETATM   10  C9  UNL     1     -32.151  11.415   1.709  1.00  0.00     0.062 C 
HETATM   11  N4  UNL     1     -31.577  12.110  -0.475  1.00  0.00    -0.248 NA
HETATM   12  C10 UNL     1     -32.435  10.095   1.366  1.00  0.00     0.041 A 
HETATM   13  N1  UNL     1     -31.835   9.214   0.543  1.00  0.00    -0.355 N 
HETATM   14  C37 UNL     1     -33.599   9.507   1.914  1.00  0.00    -0.022 A 
HETATM   15  C11 UNL     1     -32.578   8.092   0.545  1.00  0.00     0.042 A 
HETATM   16  H10 UNL     1     -30.879   9.373  -0.011  1.00  0.00     0.166 HD
HETATM   17  C12 UNL     1     -32.476   6.879  -0.138  1.00  0.00     0.062 C 
HETATM   18  C34 UNL     1     -33.686   8.266   1.405  1.00  0.00    -0.013 A 
HETATM   19  C13 UNL     1     -32.131   6.742  -1.495  1.00  0.00     0.066 A 
HETATM   20  N2  UNL     1     -31.884   7.847  -2.212  1.00  0.00    -0.248 NA
HETATM   21  C30 UNL     1     -31.954   5.608  -2.369  1.00  0.00    -0.020 A 
HETATM   22  C14 UNL     1     -31.563   7.504  -3.473  1.00  0.00     0.067 A 
HETATM   23  C15 UNL     1     -31.259   8.516  -4.393  1.00  0.00     0.062 C 
HETATM   24  C27 UNL     1     -31.606   6.051  -3.588  1.00  0.00    -0.011 A 
HETATM   25  C16 UNL     1     -30.947   9.863  -4.108  1.00  0.00     0.041 A 
HETATM   26  N3  UNL     1     -31.459  10.694  -3.192  1.00  0.00    -0.355 N 
HETATM   27  C23 UNL     1     -29.904  10.495  -4.829  1.00  0.00    -0.022 A 
HETATM   28  C17 UNL     1     -30.793  11.852  -3.275  1.00  0.00     0.042 A 
HETATM   29  H13 UNL     1     -32.314  10.476  -2.498  1.00  0.00     0.166 HD
HETATM   30  C18 UNL     1     -30.918  13.046  -2.539  1.00  0.00     0.062 C 
HETATM   31  C20 UNL     1     -29.814  11.758  -4.286  1.00  0.00    -0.013 A 
HETATM   32  C19 UNL     1     -31.081  13.173  -1.154  1.00  0.00     0.066 A 
BRANCH   8  33
HETATM   33  C6  UNL     1     -31.129  14.518   2.264  1.00  0.00     0.151 C 
BRANCH  33  34
HETATM   34  C7  UNL     1     -32.434  14.612   2.960  1.00  0.00     0.143 C 
HETATM   35  O3  UNL     1     -33.410  15.104   2.362  1.00  0.00    -0.650 OA
BRANCH  34  36
HETATM   36  O4  UNL     1     -32.519  14.150   4.254  1.00  0.00    -0.776 OA
HETATM   37  H8  UNL     1     -33.369  14.340   4.785  1.00  0.00     0.167 HD
ENDBRANCH  34  36
ENDBRANCH  33  34
ENDBRANCH   8  33
BRANCH  31  38
HETATM   38  C21 UNL     1     -28.813  12.819  -4.702  1.00  0.00     0.151 C 
BRANCH  38  39
HETATM   39  C22 UNL     1     -27.655  12.702  -3.786  1.00  0.00     0.143 C 
HETATM   40  O5  UNL     1     -27.457  13.596  -2.935  1.00  0.00    -0.650 OA
BRANCH  39  41
HETATM   41  O6  UNL     1     -26.766  11.638  -3.821  1.00  0.00    -0.776 OA
HETATM   42  H17 UNL     1     -26.452  11.233  -4.712  1.00  0.00     0.167 HD
ENDBRANCH  39  41
ENDBRANCH  38  39
ENDBRANCH  31  38
BRANCH  27  43
HETATM   43  C24 UNL     1     -29.053   9.976  -5.933  1.00  0.00     0.052 C 
BRANCH  43  44
HETATM   44  C25 UNL     1     -29.810   9.791  -7.179  1.00  0.00     0.115 C 
BRANCH  44  45
HETATM   45  C26 UNL     1     -29.906   8.459  -7.770  1.00  0.00     0.139 C 
HETATM   46  O7  UNL     1     -30.878   7.827  -8.172  1.00  0.00    -0.650 OA
BRANCH  45  47
HETATM   47  O8  UNL     1     -28.660   7.784  -7.898  1.00  0.00    -0.776 OA
HETATM   48  H22 UNL     1     -27.794   8.260  -7.958  1.00  0.00     0.167 HD
ENDBRANCH  45  47
ENDBRANCH  44  45
ENDBRANCH  43  44
ENDBRANCH  27  43
BRANCH  24  49
HETATM   49  C28 UNL     1     -31.312   5.242  -4.813  1.00  0.00     0.151 C 
BRANCH  49  50
HETATM   50  C29 UNL     1     -29.889   5.377  -5.209  1.00  0.00     0.143 C 
HETATM   51  O9  UNL     1     -29.589   5.263  -6.419  1.00  0.00    -0.650 OA
BRANCH  50  52
HETATM   52  O10 UNL     1     -28.872   5.625  -4.305  1.00  0.00    -0.776 OA
HETATM   53  H25 UNL     1     -28.055   5.004  -4.226  1.00  0.00     0.167 HD
ENDBRANCH  50  52
ENDBRANCH  49  50
ENDBRANCH  24  49
BRANCH  21  54
HETATM   54  C31 UNL     1     -32.101   4.169  -2.010  1.00  0.00     0.052 C 
BRANCH  54  55
HETATM   55  C32 UNL     1     -32.145   3.242  -3.171  1.00  0.00     0.115 C 
BRANCH  55  56
HETATM   56  C33 UNL     1     -33.586   2.818  -3.317  1.00  0.00     0.139 C 
HETATM   57  O11 UNL     1     -33.972   1.693  -2.915  1.00  0.00    -0.650 OA
BRANCH  56  58
HETATM   58  O12 UNL     1     -34.536   3.648  -3.899  1.00  0.00    -0.776 OA
HETATM   59  H30 UNL     1     -35.394   3.183  -4.208  1.00  0.00     0.167 HD
ENDBRANCH  56  58
ENDBRANCH  55  56
ENDBRANCH  54  55
ENDBRANCH  21  54
BRANCH  18  60
HETATM   60  C35 UNL     1     -34.784   7.309   1.762  1.00  0.00     0.151 C 
BRANCH  60  61
HETATM   61  C36 UNL     1     -34.182   6.205   2.513  1.00  0.00     0.143 C 
HETATM   62  O13 UNL     1     -33.519   6.449   3.560  1.00  0.00    -0.650 OA
BRANCH  61  63
HETATM   63  O14 UNL     1     -34.306   4.877   2.127  1.00  0.00    -0.776 OA
HETATM   64  H33 UNL     1     -34.756   4.234   2.757  1.00  0.00     0.167 HD
ENDBRANCH  61  63
ENDBRANCH  60  61
ENDBRANCH  18  60
BRANCH  14  65
HETATM   65  C38 UNL     1     -34.586  10.070   2.895  1.00  0.00     0.052 C 
BRANCH  65  66
HETATM   66  C39 UNL     1     -35.323  11.212   2.261  1.00  0.00     0.115 C 
BRANCH  66  67
HETATM   67  C40 UNL     1     -35.288  12.385   3.213  1.00  0.00     0.139 C 
HETATM   68  O15 UNL     1     -34.742  12.271   4.342  1.00  0.00    -0.650 OA
BRANCH  67  69
HETATM   69  O16 UNL     1     -35.847  13.583   2.863  1.00  0.00    -0.776 OA
HETATM   70  H38 UNL     1     -36.837  13.682   2.716  1.00  0.00     0.167 HD
ENDBRANCH  67  69
ENDBRANCH  66  67
ENDBRANCH  65  66
ENDBRANCH  14  65
ENDBRANCH   6   7
ENDBRANCH   5   6
ENDBRANCH   2   5
TORSDOF 28
ENDMDL
MODEL 5
REMARK VINA RESULT:      -7.8     18.974     24.746
REMARK  28 active torsions:
REMARK  status: ('A' for Active; 'I' for Inactive)
REMARK    1  A    between atoms: C1_2  and  O2_3 
REMARK    2  A    between atoms: C1_2  and  C2_4 
REMARK    3  A    between atoms: C2_4  and  C3_5 
REMARK    4  A    between atoms: C3_5  and  C4_6 
REMARK    5  A    between atoms: C5_7  and  C6_8 
REMARK    6  A    between atoms: C6_8  and  C7_9 
REMARK    7  A    between atoms: C7_9  and  O4_11 
REMARK    8  A    between atoms: C20_28  and  C21_29 
REMARK    9  A    between atoms: C21_29  and  C22_30 
REMARK   10  A    between atoms: C22_30  and  O6_32 
REMARK   11  A    between atoms: C23_33  and  C24_34 
REMARK   12  A    between atoms: C24_34  and  C25_35 
REMARK   13  A    between atoms: C25_35  and  C26_36 
REMARK   14  A    between atoms: C26_36  and  O8_38 
REMARK   15  A    between atoms: C27_39  and  C28_40 
REMARK   16  A    between atoms: C28_40  and  C29_41 
REMARK   17  A    between atoms: C29_41  and  O10_43 
REMARK   18  A    between atoms: C30_44  and  C31_45 
REMARK   19  A    between atoms: C31_45  and  C32_46 
REMARK   20  A    between atoms: C32_46  and  C33_47 
REMARK   21  A    between atoms: C33_47  and  O12_49 
REMARK   22  A    between atoms: C34_50  and  C35_51 
REMARK   23  A    between atoms: C35_51  and  C36_52 
REMARK   24  A    between atoms: C36_52  and  O14_54 
REMARK   25  A    between atoms: C37_55  and  C38_56 
REMARK   26  A    between atoms: C38_56  and  C39_57 
REMARK   27  A    between atoms: C39_57  and  C40_58 
REMARK   28  A    between atoms: C40_58  and  O16_60 
ROOT
HETATM    1  O1  UNL     1     -38.598 -16.504   0.993  1.00  0.00    -0.650 OA
HETATM    2  C1  UNL     1     -39.171 -15.639   1.666  1.00  0.00     0.139 C 
ENDROOT
BRANCH   2   3
HETATM    3  O2  UNL     1     -39.359 -14.386   1.077  1.00  0.00    -0.776 OA
HETATM    4  H1  UNL     1     -38.715 -13.615   1.217  1.00  0.00     0.167 HD
ENDBRANCH   2   3
BRANCH   2   5
HETATM    5  C2  UNL     1     -39.656 -15.875   3.040  1.00  0.00     0.115 C 
BRANCH   5   6
HETATM    6  C3  UNL     1     -38.580 -16.019   4.054  1.00  0.00     0.052 C 
BRANCH   6   7
HETATM    7  C4  UNL     1     -37.782 -14.768   4.159  1.00  0.00    -0.020 A 
HETATM    8  C5  UNL     1     -38.114 -13.637   4.787  1.00  0.00    -0.011 A 
HETATM    9  C8  UNL     1     -37.046 -12.677   4.640  1.00  0.00     0.067 A 
HETATM   10  C9  UNL     1     -36.865 -11.344   5.067  1.00  0.00     0.062 C 
HETATM   11  N4  UNL     1     -36.089 -13.260   3.924  1.00  0.00    -0.248 NA
HETATM   12  C10 UNL     1     -35.800 -10.523   4.705  1.00  0.00     0.041 A 
HETATM   13  N1  UNL     1     -35.122 -10.359   3.553  1.00  0.00    -0.355 N 
HETATM   14  C37 UNL     1     -35.229  -9.702   5.706  1.00  0.00    -0.022 A 
HETATM   15  C11 UNL     1     -34.140  -9.470   3.788  1.00  0.00     0.042 A 
HETATM   16  H10 UNL     1     -35.354 -10.845   2.575  1.00  0.00     0.166 HD
HETATM   17  C12 UNL     1     -33.113  -8.951   2.997  1.00  0.00     0.062 C 
HETATM   18  C34 UNL     1     -34.200  -9.050   5.135  1.00  0.00    -0.013 A 
HETATM   19  C13 UNL     1     -32.329  -9.698   2.098  1.00  0.00     0.066 A 
HETATM   20  N2  UNL     1     -32.561 -11.013   1.980  1.00  0.00    -0.248 NA
HETATM   21  C30 UNL     1     -31.258  -9.362   1.193  1.00  0.00    -0.020 A 
HETATM   22  C14 UNL     1     -31.721 -11.538   1.069  1.00  0.00     0.067 A 
HETATM   23  C15 UNL     1     -31.801 -12.908   0.785  1.00  0.00     0.062 C 
HETATM   24  C27 UNL     1     -30.868 -10.475   0.551  1.00  0.00    -0.011 A 
HETATM   25  C16 UNL     1     -32.857 -13.786   1.110  1.00  0.00     0.041 A 
HETATM   26  N3  UNL     1     -33.618 -13.855   2.209  1.00  0.00    -0.355 N 
HETATM   27  C23 UNL     1     -33.271 -14.747   0.155  1.00  0.00    -0.022 A 
HETATM   28  C17 UNL     1     -34.524 -14.820   2.017  1.00  0.00     0.042 A 
HETATM   29  H13 UNL     1     -33.503 -13.237   3.139  1.00  0.00     0.166 HD
HETATM   30  C18 UNL     1     -35.564 -15.291   2.843  1.00  0.00     0.062 C 
HETATM   31  C20 UNL     1     -34.335 -15.396   0.744  1.00  0.00    -0.013 A 
HETATM   32  C19 UNL     1     -36.459 -14.522   3.597  1.00  0.00     0.066 A 
BRANCH   8  33
HETATM   33  C6  UNL     1     -39.395 -13.436   5.519  1.00  0.00     0.151 C 
BRANCH  33  34
HETATM   34  C7  UNL     1     -39.217 -13.345   6.987  1.00  0.00     0.143 C 
HETATM   35  O3  UNL     1     -39.897 -12.525   7.634  1.00  0.00    -0.650 OA
BRANCH  34  36
HETATM   36  O4  UNL     1     -38.300 -14.178   7.587  1.00  0.00    -0.776 OA
HETATM   37  H8  UNL     1     -37.838 -14.886   7.017  1.00  0.00     0.167 HD
ENDBRANCH  34  36
ENDBRANCH  33  34
ENDBRANCH   8  33
BRANCH  31  38
HETATM   38  C21 UNL     1     -35.150 -16.499   0.099  1.00  0.00     0.151 C 
BRANCH  38  39
HETATM   39  C22 UNL     1     -34.342 -17.738   0.181  1.00  0.00     0.143 C 
HETATM   40  O5  UNL     1     -34.021 -18.184   1.305  1.00  0.00    -0.650 OA
BRANCH  39  41
HETATM   41  O6  UNL     1     -33.917 -18.440  -0.936  1.00  0.00    -0.776 OA
HETATM   42  H17 UNL     1     -33.617 -17.954  -1.791  1.00  0.00     0.167 HD
ENDBRANCH  39  41
ENDBRANCH  38  39
ENDBRANCH  31  38
BRANCH  27  43
HETATM   43  C24 UNL     1     -32.730 -15.046  -1.199  1.00  0.00     0.052 C 
BRANCH  43  44
HETATM   44  C25 UNL     1     -33.310 -14.178  -2.234  1.00  0.00     0.115 C 
BRANCH  44  45
HETATM   45  C26 UNL     1     -33.022 -14.445  -3.640  1.00  0.00     0.139 C 
HETATM   46  O7  UNL     1     -32.340 -15.318  -4.168  1.00  0.00    -0.650 OA
BRANCH  45  47
HETATM   47  O8  UNL     1     -33.635 -13.535  -4.546  1.00  0.00    -0.776 OA
HETATM   48  H22 UNL     1     -33.181 -13.195  -5.357  1.00  0.00     0.167 HD
ENDBRANCH  45  47
ENDBRANCH  44  45
ENDBRANCH  43  44
ENDBRANCH  27  43
BRANCH  24  49
HETATM   49  C28 UNL     1     -29.795 -10.613  -0.485  1.00  0.00     0.151 C 
BRANCH  49  50
HETATM   50  C29 UNL     1     -30.254 -10.090  -1.795  1.00  0.00     0.143 C 
HETATM   51  O9  UNL     1     -31.404 -10.388  -2.190  1.00  0.00    -0.650 OA
BRANCH  50  52
HETATM   52  O10 UNL     1     -29.472  -9.288  -2.607  1.00  0.00    -0.776 OA
HETATM   53  H25 UNL     1     -28.613  -8.841  -2.259  1.00  0.00     0.167 HD
ENDBRANCH  50  52
ENDBRANCH  49  50
ENDBRANCH  24  49
BRANCH  21  54
HETATM   54  C31 UNL     1     -30.669  -8.012   0.964  1.00  0.00     0.052 C 
BRANCH  54  55
HETATM   55  C32 UNL     1     -29.310  -7.823   1.536  1.00  0.00     0.115 C 
BRANCH  55  56
HETATM   56  C33 UNL     1     -28.538  -7.009   0.527  1.00  0.00     0.139 C 
HETATM   57  O11 UNL     1     -28.724  -7.163  -0.706  1.00  0.00    -0.650 OA
BRANCH  56  58
HETATM   58  O12 UNL     1     -27.598  -6.064   0.916  1.00  0.00    -0.776 OA
HETATM   59  H30 UNL     1     -27.776  -5.612   1.817  1.00  0.00     0.167 HD
ENDBRANCH  56  58
ENDBRANCH  55  56
ENDBRANCH  54  55
ENDBRANCH  21  54
BRANCH  18  60
HETATM   60  C35 UNL     1     -33.347  -8.062   5.874  1.00  0.00     0.151 C 
BRANCH  60  61
HETATM   61  C36 UNL     1     -33.959  -6.741   5.711  1.00  0.00     0.143 C 
HETATM   62  O13 UNL     1     -34.825  -6.560   4.809  1.00  0.00    -0.650 OA
BRANCH  61  63
HETATM   63  O14 UNL     1     -33.631  -5.657   6.514  1.00  0.00    -0.776 OA
HETATM   64  H33 UNL     1     -34.358  -5.007   6.764  1.00  0.00     0.167 HD
ENDBRANCH  61  63
ENDBRANCH  60  61
ENDBRANCH  18  60
BRANCH  14  65
HETATM   65  C38 UNL     1     -35.637  -9.513   7.138  1.00  0.00     0.052 C 
BRANCH  65  66
HETATM   66  C39 UNL     1     -36.513  -8.300   7.251  1.00  0.00     0.115 C 
BRANCH  66  67
HETATM   67  C40 UNL     1     -37.950  -8.761   7.338  1.00  0.00     0.139 C 
HETATM   68  O15 UNL     1     -38.879  -8.034   6.900  1.00  0.00    -0.650 OA
BRANCH  67  69
HETATM   69  O16 UNL     1     -38.259  -9.973   7.892  1.00  0.00    -0.776 OA
HETATM   70  H38 UNL     1     -38.956 -10.576   7.490  1.00  0.00     0.167 HD
ENDBRANCH  67  69
ENDBRANCH  66  67
ENDBRANCH  65  66
ENDBRANCH  14  65
ENDBRANCH   6   7
ENDBRANCH   5   6
ENDBRANCH   2   5
TORSDOF 28
ENDMDL
MODEL 6
REMARK VINA RESULT:      -7.4     26.864     29.314
REMARK  28 active torsions:
REMARK  status: ('A' for Active; 'I' for Inactive)
REMARK    1  A    between atoms: C1_2  and  O2_3 
REMARK    2  A    between atoms: C1_2  and  C2_4 
REMARK    3  A    between atoms: C2_4  and  C3_5 
REMARK    4  A    between atoms: C3_5  and  C4_6 
REMARK    5  A    between atoms: C5_7  and  C6_8 
REMARK    6  A    between atoms: C6_8  and  C7_9 
REMARK    7  A    between atoms: C7_9  and  O4_11 
REMARK    8  A    between atoms: C20_28  and  C21_29 
REMARK    9  A    between atoms: C21_29  and  C22_30 
REMARK   10  A    between atoms: C22_30  and  O6_32 
REMARK   11  A    between atoms: C23_33  and  C24_34 
REMARK   12  A    between atoms: C24_34  and  C25_35 
REMARK   13  A    between atoms: C25_35  and  C26_36 
REMARK   14  A    between atoms: C26_36  and  O8_38 
REMARK   15  A    between atoms: C27_39  and  C28_40 
REMARK   16  A    between atoms: C28_40  and  C29_41 
REMARK   17  A    between atoms: C29_41  and  O10_43 
REMARK   18  A    between atoms: C30_44  and  C31_45 
REMARK   19  A    between atoms: C31_45  and  C32_46 
REMARK   20  A    between atoms: C32_46  and  C33_47 
REMARK   21  A    between atoms: C33_47  and  O12_49 
REMARK   22  A    between atoms: C34_50  and  C35_51 
REMARK   23  A    between atoms: C35_51  and  C36_52 
REMARK   24  A    between atoms: C36_52  and  O14_54 
REMARK   25  A    between atoms: C37_55  and  C38_56 
REMARK   26  A    between atoms: C38_56  and  C39_57 
REMARK   27  A    between atoms: C39_57  and  C40_58 
REMARK   28  A    between atoms: C40_58  and  O16_60 
ROOT
HETATM    1  O1  UNL     1       1.408   2.430  11.625  1.00  0.00    -0.650 OA
HETATM    2  C1  UNL     1       0.374   2.145  11.008  1.00  0.00     0.139 C 
ENDROOT
BRANCH   2   3
HETATM    3  O2  UNL     1       0.516   1.675   9.700  1.00  0.00    -0.776 OA
HETATM    4  H1  UNL     1       1.037   0.834   9.476  1.00  0.00     0.167 HD
ENDBRANCH   2   3
BRANCH   2   5
HETATM    5  C2  UNL     1      -0.976   2.278  11.589  1.00  0.00     0.115 C 
BRANCH   5   6
HETATM    6  C3  UNL     1      -1.500   3.667  11.613  1.00  0.00     0.052 C 
BRANCH   6   7
HETATM    7  C4  UNL     1      -1.847   4.125  10.241  1.00  0.00    -0.020 A 
HETATM    8  C5  UNL     1      -1.258   5.088   9.528  1.00  0.00    -0.011 A 
HETATM    9  C8  UNL     1      -1.912   5.203   8.247  1.00  0.00     0.067 A 
HETATM   10  C9  UNL     1      -1.730   6.045   7.128  1.00  0.00     0.062 C 
HETATM   11  N4  UNL     1      -2.886   4.297   8.220  1.00  0.00    -0.248 NA
HETATM   12  C10 UNL     1      -2.566   6.092   6.015  1.00  0.00     0.041 A 
HETATM   13  N1  UNL     1      -3.903   6.011   5.871  1.00  0.00    -0.355 N 
HETATM   14  C37 UNL     1      -1.962   6.198   4.741  1.00  0.00    -0.022 A 
HETATM   15  C11 UNL     1      -4.168   6.056   4.552  1.00  0.00     0.042 A 
HETATM   16  H10 UNL     1      -4.653   5.953   6.695  1.00  0.00     0.166 HD
HETATM   17  C12 UNL     1      -5.349   5.970   3.813  1.00  0.00     0.062 C 
HETATM   18  C34 UNL     1      -2.957   6.175   3.835  1.00  0.00    -0.013 A 
HETATM   19  C13 UNL     1      -6.404   5.076   4.075  1.00  0.00     0.066 A 
HETATM   20  N2  UNL     1      -6.286   4.224   5.104  1.00  0.00    -0.248 NA
HETATM   21  C30 UNL     1      -7.688   4.844   3.462  1.00  0.00    -0.020 A 
HETATM   22  C14 UNL     1      -7.397   3.470   5.193  1.00  0.00     0.067 A 
HETATM   23  C15 UNL     1      -7.484   2.512   6.212  1.00  0.00     0.062 C 
HETATM   24  C27 UNL     1      -8.316   3.862   4.130  1.00  0.00    -0.011 A 
HETATM   25  C16 UNL     1      -6.680   2.421   7.369  1.00  0.00     0.041 A 
HETATM   26  N3  UNL     1      -5.369   2.637   7.529  1.00  0.00    -0.355 N 
HETATM   27  C23 UNL     1      -7.290   2.104   8.607  1.00  0.00    -0.022 A 
HETATM   28  C17 UNL     1      -5.086   2.479   8.828  1.00  0.00     0.042 A 
HETATM   29  H13 UNL     1      -4.628   2.877   6.720  1.00  0.00     0.166 HD
HETATM   30  C18 UNL     1      -3.874   2.603   9.532  1.00  0.00     0.062 C 
HETATM   31  C20 UNL     1      -6.265   2.148   9.528  1.00  0.00    -0.013 A 
HETATM   32  C19 UNL     1      -2.910   3.608   9.387  1.00  0.00     0.066 A 
BRANCH   8  33
HETATM   33  C6  UNL     1      -0.103   5.894  10.011  1.00  0.00     0.151 C 
BRANCH  33  34
HETATM   34  C7  UNL     1       1.208   5.320   9.628  1.00  0.00     0.143 C 
HETATM   35  O3  UNL     1       1.409   4.997   8.441  1.00  0.00    -0.650 OA
BRANCH  34  36
HETATM   36  O4  UNL     1       2.164   5.163  10.606  1.00  0.00    -0.776 OA
HETATM   37  H8  UNL     1       3.016   4.651  10.378  1.00  0.00     0.167 HD
ENDBRANCH  34  36
ENDBRANCH  33  34
ENDBRANCH   8  33
BRANCH  31  38
HETATM   38  C21 UNL     1      -6.418   1.909  11.017  1.00  0.00     0.151 C 
BRANCH  38  39
HETATM   39  C22 UNL     1      -6.657   3.230  11.644  1.00  0.00     0.143 C 
HETATM   40  O5  UNL     1      -7.825   3.669  11.715  1.00  0.00    -0.650 OA
BRANCH  39  41
HETATM   41  O6  UNL     1      -5.640   4.016  12.163  1.00  0.00    -0.776 OA
HETATM   42  H17 UNL     1      -5.171   4.731  11.592  1.00  0.00     0.167 HD
ENDBRANCH  39  41
ENDBRANCH  38  39
ENDBRANCH  31  38
BRANCH  27  43
HETATM   43  C24 UNL     1      -8.709   1.785   8.922  1.00  0.00     0.052 C 
BRANCH  43  44
HETATM   44  C25 UNL     1      -9.634   2.813   8.422  1.00  0.00     0.115 C 
BRANCH  44  45
HETATM   45  C26 UNL     1     -10.865   2.406   7.751  1.00  0.00     0.139 C 
HETATM   46  O7  UNL     1     -12.003   2.858   7.821  1.00  0.00    -0.650 OA
BRANCH  45  47
HETATM   47  O8  UNL     1     -10.713   1.298   6.871  1.00  0.00    -0.776 OA
HETATM   48  H22 UNL     1     -10.318   0.436   7.156  1.00  0.00     0.167 HD
ENDBRANCH  45  47
ENDBRANCH  44  45
ENDBRANCH  43  44
ENDBRANCH  27  43
BRANCH  24  49
HETATM   49  C28 UNL     1      -9.671   3.286   3.862  1.00  0.00     0.151 C 
BRANCH  49  50
HETATM   50  C29 UNL     1      -9.567   1.883   3.390  1.00  0.00     0.143 C 
HETATM   51  O9  UNL     1      -9.215   1.672   2.207  1.00  0.00    -0.650 OA
BRANCH  50  52
HETATM   52  O10 UNL     1      -9.839   0.791   4.195  1.00  0.00    -0.776 OA
HETATM   53  H25 UNL     1      -9.203  -0.016   4.244  1.00  0.00     0.167 HD
ENDBRANCH  50  52
ENDBRANCH  49  50
ENDBRANCH  24  49
BRANCH  21  54
HETATM   54  C31 UNL     1      -8.268   5.567   2.295  1.00  0.00     0.052 C 
BRANCH  54  55
HETATM   55  C32 UNL     1      -8.045   4.904   0.983  1.00  0.00     0.115 C 
BRANCH  55  56
HETATM   56  C33 UNL     1      -6.763   5.478   0.434  1.00  0.00     0.139 C 
HETATM   57  O11 UNL     1      -6.642   6.711   0.229  1.00  0.00    -0.650 OA
BRANCH  56  58
HETATM   58  O12 UNL     1      -5.671   4.673   0.134  1.00  0.00    -0.776 OA
HETATM   59  H30 UNL     1      -5.452   4.582  -0.862  1.00  0.00     0.167 HD
ENDBRANCH  56  58
ENDBRANCH  55  56
ENDBRANCH  54  55
ENDBRANCH  21  54
BRANCH  18  60
HETATM   60  C35 UNL     1      -2.722   6.284   2.358  1.00  0.00     0.151 C 
BRANCH  60  61
HETATM   61  C36 UNL     1      -2.376   4.949   1.865  1.00  0.00     0.143 C 
HETATM   62  O13 UNL     1      -1.181   4.689   1.551  1.00  0.00    -0.650 OA
BRANCH  61  63
HETATM   63  O14 UNL     1      -3.313   3.934   1.725  1.00  0.00    -0.776 OA
HETATM   64  H33 UNL     1      -2.991   3.015   1.472  1.00  0.00     0.167 HD
ENDBRANCH  61  63
ENDBRANCH  60  61
ENDBRANCH  18  60
BRANCH  14  65
HETATM   65  C38 UNL     1      -0.513   6.337   4.375  1.00  0.00     0.052 C 
BRANCH  65  66
HETATM   66  C39 UNL     1      -0.123   7.785   4.421  1.00  0.00     0.115 C 
BRANCH  66  67
HETATM   67  C40 UNL     1       1.249   7.886   5.044  1.00  0.00     0.139 C 
HETATM   68  O15 UNL     1       1.685   6.959   5.776  1.00  0.00    -0.650 OA
BRANCH  67  69
HETATM   69  O16 UNL     1       2.036   8.982   4.821  1.00  0.00    -0.776 OA
HETATM   70  H38 UNL     1       2.664   9.335   5.523  1.00  0.00     0.167 HD
ENDBRANCH  67  69
ENDBRANCH  66  67
ENDBRANCH  65  66
ENDBRANCH  14  65
ENDBRANCH   6   7
ENDBRANCH   5   6
ENDBRANCH   2   5
TORSDOF 28
ENDMDL
MODEL 7
REMARK VINA RESULT:      -7.3      2.035     10.647
REMARK  28 active torsions:
REMARK  status: ('A' for Active; 'I' for Inactive)
REMARK    1  A    between atoms: C1_2  and  O2_3 
REMARK    2  A    between atoms: C1_2  and  C2_4 
REMARK    3  A    between atoms: C2_4  and  C3_5 
REMARK    4  A    between atoms: C3_5  and  C4_6 
REMARK    5  A    between atoms: C5_7  and  C6_8 
REMARK    6  A    between atoms: C6_8  and  C7_9 
REMARK    7  A    between atoms: C7_9  and  O4_11 
REMARK    8  A    between atoms: C20_28  and  C21_29 
REMARK    9  A    between atoms: C21_29  and  C22_30 
REMARK   10  A    between atoms: C22_30  and  O6_32 
REMARK   11  A    between atoms: C23_33  and  C24_34 
REMARK   12  A    between atoms: C24_34  and  C25_35 
REMARK   13  A    between atoms: C25_35  and  C26_36 
REMARK   14  A    between atoms: C26_36  and  O8_38 
REMARK   15  A    between atoms: C27_39  and  C28_40 
REMARK   16  A    between atoms: C28_40  and  C29_41 
REMARK   17  A    between atoms: C29_41  and  O10_43 
REMARK   18  A    between atoms: C30_44  and  C31_45 
REMARK   19  A    between atoms: C31_45  and  C32_46 
REMARK   20  A    between atoms: C32_46  and  C33_47 
REMARK   21  A    between atoms: C33_47  and  O12_49 
REMARK   22  A    between atoms: C34_50  and  C35_51 
REMARK   23  A    between atoms: C35_51  and  C36_52 
REMARK   24  A    between atoms: C36_52  and  O14_54 
REMARK   25  A    between atoms: C37_55  and  C38_56 
REMARK   26  A    between atoms: C38_56  and  C39_57 
REMARK   27  A    between atoms: C39_57  and  C40_58 
REMARK   28  A    between atoms: C40_58  and  O16_60 
ROOT
HETATM    1  O1  UNL     1     -28.810   5.028  -7.491  1.00  0.00    -0.650 OA
HETATM    2  C1  UNL     1     -28.984   4.340  -6.478  1.00  0.00     0.139 C 
ENDROOT
BRANCH   2   3
HETATM    3  O2  UNL     1     -28.657   2.984  -6.559  1.00  0.00    -0.776 OA
HETATM    4  H1  UNL     1     -28.871   2.419  -7.373  1.00  0.00     0.167 HD
ENDBRANCH   2   3
BRANCH   2   5
HETATM    5  C2  UNL     1     -29.511   4.885  -5.212  1.00  0.00     0.115 C 
BRANCH   5   6
HETATM    6  C3  UNL     1     -30.784   5.636  -5.350  1.00  0.00     0.052 C 
BRANCH   6   7
HETATM    7  C4  UNL     1     -31.078   6.410  -4.114  1.00  0.00    -0.020 A 
HETATM    8  C5  UNL     1     -31.819   6.031  -3.069  1.00  0.00    -0.011 A 
HETATM    9  C8  UNL     1     -31.838   7.089  -2.088  1.00  0.00     0.067 A 
HETATM   10  C9  UNL     1     -32.463   7.244  -0.832  1.00  0.00     0.062 C 
HETATM   11  N4  UNL     1     -31.103   8.086  -2.570  1.00  0.00    -0.248 NA
HETATM   12  C10 UNL     1     -32.471   8.417  -0.079  1.00  0.00     0.041 A 
HETATM   13  N1  UNL     1     -32.579   9.717  -0.414  1.00  0.00    -0.355 N 
HETATM   14  C37 UNL     1     -32.288   8.306   1.318  1.00  0.00    -0.022 A 
HETATM   15  C11 UNL     1     -32.464  10.434   0.719  1.00  0.00     0.042 A 
HETATM   16  H10 UNL     1     -32.763  10.123  -1.437  1.00  0.00     0.166 HD
HETATM   17  C12 UNL     1     -32.453  11.805   0.984  1.00  0.00     0.062 C 
HETATM   18  C34 UNL     1     -32.283   9.557   1.812  1.00  0.00    -0.013 A 
HETATM   19  C13 UNL     1     -31.784  12.772   0.211  1.00  0.00     0.066 A 
HETATM   20  N2  UNL     1     -31.090  12.372  -0.864  1.00  0.00    -0.248 NA
HETATM   21  C30 UNL     1     -31.665  14.207   0.296  1.00  0.00    -0.020 A 
HETATM   22  C14 UNL     1     -30.540  13.440  -1.468  1.00  0.00     0.067 A 
HETATM   23  C15 UNL     1     -29.773  13.243  -2.625  1.00  0.00     0.062 C 
HETATM   24  C27 UNL     1     -30.905  14.640  -0.723  1.00  0.00    -0.011 A 
HETATM   25  C16 UNL     1     -29.734  12.089  -3.436  1.00  0.00     0.041 A 
HETATM   26  N3  UNL     1     -29.764  10.794  -3.099  1.00  0.00    -0.355 N 
HETATM   27  C23 UNL     1     -29.707  12.238  -4.845  1.00  0.00    -0.022 A 
HETATM   28  C17 UNL     1     -29.763  10.078  -4.230  1.00  0.00     0.042 A 
HETATM   29  H13 UNL     1     -29.761  10.375  -2.057  1.00  0.00     0.166 HD
HETATM   30  C18 UNL     1     -29.801   8.687  -4.445  1.00  0.00     0.062 C 
HETATM   31  C20 UNL     1     -29.729  10.951  -5.337  1.00  0.00    -0.013 A 
HETATM   32  C19 UNL     1     -30.610   7.752  -3.788  1.00  0.00     0.066 A 
BRANCH   8  33
HETATM   33  C6  UNL     1     -32.498   4.710  -2.966  1.00  0.00     0.151 C 
BRANCH  33  34
HETATM   34  C7  UNL     1     -31.760   3.741  -2.123  1.00  0.00     0.143 C 
HETATM   35  O3  UNL     1     -30.528   3.864  -1.987  1.00  0.00    -0.650 OA
BRANCH  34  36
HETATM   36  O4  UNL     1     -32.471   2.730  -1.514  1.00  0.00    -0.776 OA
HETATM   37  H8  UNL     1     -31.955   1.955  -1.098  1.00  0.00     0.167 HD
ENDBRANCH  34  36
ENDBRANCH  33  34
ENDBRANCH   8  33
BRANCH  31  38
HETATM   38  C21 UNL     1     -29.746  10.579  -6.807  1.00  0.00     0.151 C 
BRANCH  38  39
HETATM   39  C22 UNL     1     -30.873   9.638  -7.001  1.00  0.00     0.143 C 
HETATM   40  O5  UNL     1     -30.671   8.560  -7.601  1.00  0.00    -0.650 OA
BRANCH  39  41
HETATM   41  O6  UNL     1     -32.158   9.891  -6.546  1.00  0.00    -0.776 OA
HETATM   42  H17 UNL     1     -32.724   9.155  -6.105  1.00  0.00     0.167 HD
ENDBRANCH  39  41
ENDBRANCH  38  39
ENDBRANCH  31  38
BRANCH  27  43
HETATM   43  C24 UNL     1     -29.665  13.471  -5.675  1.00  0.00     0.052 C 
BRANCH  43  44
HETATM   44  C25 UNL     1     -28.355  14.136  -5.619  1.00  0.00     0.115 C 
BRANCH  44  45
HETATM   45  C26 UNL     1     -28.118  15.327  -6.429  1.00  0.00     0.139 C 
HETATM   46  O7  UNL     1     -27.138  15.674  -7.079  1.00  0.00    -0.650 OA
BRANCH  45  47
HETATM   47  O8  UNL     1     -29.213  16.237  -6.467  1.00  0.00    -0.776 OA
HETATM   48  H22 UNL     1     -30.067  16.031  -6.924  1.00  0.00     0.167 HD
ENDBRANCH  45  47
ENDBRANCH  44  45
ENDBRANCH  43  44
ENDBRANCH  27  43
BRANCH  24  49
HETATM   49  C28 UNL     1     -30.514  16.048  -1.047  1.00  0.00     0.151 C 
BRANCH  49  50
HETATM   50  C29 UNL     1     -31.653  16.975  -0.840  1.00  0.00     0.143 C 
HETATM   51  O9  UNL     1     -31.525  17.908  -0.015  1.00  0.00    -0.650 OA
BRANCH  50  52
HETATM   52  O10 UNL     1     -32.855  16.861  -1.515  1.00  0.00    -0.776 OA
HETATM   53  H25 UNL     1     -32.916  16.980  -2.535  1.00  0.00     0.167 HD
ENDBRANCH  50  52
ENDBRANCH  49  50
ENDBRANCH  24  49
BRANCH  21  54
HETATM   54  C31 UNL     1     -32.285  15.098   1.317  1.00  0.00     0.052 C 
BRANCH  54  55
HETATM   55  C32 UNL     1     -31.704  14.976   2.680  1.00  0.00     0.115 C 
BRANCH  55  56
HETATM   56  C33 UNL     1     -32.686  14.159   3.484  1.00  0.00     0.139 C 
HETATM   57  O11 UNL     1     -33.894  14.089   3.150  1.00  0.00    -0.650 OA
BRANCH  56  58
HETATM   58  O12 UNL     1     -32.297  13.456   4.617  1.00  0.00    -0.776 OA
HETATM   59  H30 UNL     1     -32.057  14.030   5.430  1.00  0.00     0.167 HD
ENDBRANCH  56  58
ENDBRANCH  55  56
ENDBRANCH  54  55
ENDBRANCH  21  54
BRANCH  18  60
HETATM   60  C35 UNL     1     -32.130   9.861   3.273  1.00  0.00     0.151 C 
BRANCH  60  61
HETATM   61  C36 UNL     1     -30.725  10.201   3.508  1.00  0.00     0.143 C 
HETATM   62  O13 UNL     1     -29.910   9.297   3.846  1.00  0.00    -0.650 OA
BRANCH  61  63
HETATM   63  O14 UNL     1     -30.232  11.493   3.375  1.00  0.00    -0.776 OA
HETATM   64  H33 UNL     1     -30.649  12.097   2.687  1.00  0.00     0.167 HD
ENDBRANCH  61  63
ENDBRANCH  60  61
ENDBRANCH  18  60
BRANCH  14  65
HETATM   65  C38 UNL     1     -32.142   7.080   2.171  1.00  0.00     0.052 C 
BRANCH  65  66
HETATM   66  C39 UNL     1     -33.499   6.606   2.600  1.00  0.00     0.115 C 
BRANCH  66  67
HETATM   67  C40 UNL     1     -33.331   5.738   3.826  1.00  0.00     0.139 C 
HETATM   68  O15 UNL     1     -32.672   6.154   4.814  1.00  0.00    -0.650 OA
BRANCH  67  69
HETATM   69  O16 UNL     1     -33.891   4.492   3.878  1.00  0.00    -0.776 OA
HETATM   70  H38 UNL     1     -34.515   4.222   4.620  1.00  0.00     0.167 HD
ENDBRANCH  67  69
ENDBRANCH  66  67
ENDBRANCH  65  66
ENDBRANCH  14  65
ENDBRANCH   6   7
ENDBRANCH   5   6
ENDBRANCH   2   5
TORSDOF 28
ENDMDL
MODEL 8
REMARK VINA RESULT:      -7.2      6.510     13.151
REMARK  28 active torsions:
REMARK  status: ('A' for Active; 'I' for Inactive)
REMARK    1  A    between atoms: C1_2  and  O2_3 
REMARK    2  A    between atoms: C1_2  and  C2_4 
REMARK    3  A    between atoms: C2_4  and  C3_5 
REMARK    4  A    between atoms: C3_5  and  C4_6 
REMARK    5  A    between atoms: C5_7  and  C6_8 
REMARK    6  A    between atoms: C6_8  and  C7_9 
REMARK    7  A    between atoms: C7_9  and  O4_11 
REMARK    8  A    between atoms: C20_28  and  C21_29 
REMARK    9  A    between atoms: C21_29  and  C22_30 
REMARK   10  A    between atoms: C22_30  and  O6_32 
REMARK   11  A    between atoms: C23_33  and  C24_34 
REMARK   12  A    between atoms: C24_34  and  C25_35 
REMARK   13  A    between atoms: C25_35  and  C26_36 
REMARK   14  A    between atoms: C26_36  and  O8_38 
REMARK   15  A    between atoms: C27_39  and  C28_40 
REMARK   16  A    between atoms: C28_40  and  C29_41 
REMARK   17  A    between atoms: C29_41  and  O10_43 
REMARK   18  A    between atoms: C30_44  and  C31_45 
REMARK   19  A    between atoms: C31_45  and  C32_46 
REMARK   20  A    between atoms: C32_46  and  C33_47 
REMARK   21  A    between atoms: C33_47  and  O12_49 
REMARK   22  A    between atoms: C34_50  and  C35_51 
REMARK   23  A    between atoms: C35_51  and  C36_52 
REMARK   24  A    between atoms: C36_52  and  O14_54 
REMARK   25  A    between atoms: C37_55  and  C38_56 
REMARK   26  A    between atoms: C38_56  and  C39_57 
REMARK   27  A    between atoms: C39_57  and  C40_58 
REMARK   28  A    between atoms: C40_58  and  O16_60 
ROOT
HETATM    1  O1  UNL     1     -20.908  15.216 -11.757  1.00  0.00    -0.650 OA
HETATM    2  C1  UNL     1     -20.663  14.004 -11.727  1.00  0.00     0.139 C 
ENDROOT
BRANCH   2   3
HETATM    3  O2  UNL     1     -21.487  13.163 -12.478  1.00  0.00    -0.776 OA
HETATM    4  H1  UNL     1     -21.124  12.531 -13.182  1.00  0.00     0.167 HD
ENDBRANCH   2   3
BRANCH   2   5
HETATM    5  C2  UNL     1     -19.553  13.424 -10.945  1.00  0.00     0.115 C 
BRANCH   5   6
HETATM    6  C3  UNL     1     -19.311  14.087  -9.638  1.00  0.00     0.052 C 
BRANCH   6   7
HETATM    7  C4  UNL     1     -20.158  13.483  -8.574  1.00  0.00    -0.020 A 
HETATM    8  C5  UNL     1     -19.998  12.300  -7.976  1.00  0.00    -0.011 A 
HETATM    9  C8  UNL     1     -21.045  12.112  -7.001  1.00  0.00     0.067 A 
HETATM   10  C9  UNL     1     -21.377  11.065  -6.113  1.00  0.00     0.062 C 
HETATM   11  N4  UNL     1     -21.815  13.195  -7.037  1.00  0.00    -0.248 NA
HETATM   12  C10 UNL     1     -22.528  11.012  -5.330  1.00  0.00     0.041 A 
HETATM   13  N1  UNL     1     -23.807  11.368  -5.559  1.00  0.00    -0.355 N 
HETATM   14  C37 UNL     1     -22.401  10.547  -4.001  1.00  0.00    -0.022 A 
HETATM   15  C11 UNL     1     -24.493  11.152  -4.422  1.00  0.00     0.042 A 
HETATM   16  H10 UNL     1     -24.226  11.741  -6.524  1.00  0.00     0.166 HD
HETATM   17  C12 UNL     1     -25.822  11.371  -4.053  1.00  0.00     0.062 C 
HETATM   18  C34 UNL     1     -23.620  10.635  -3.439  1.00  0.00    -0.013 A 
HETATM   19  C13 UNL     1     -26.575  12.513  -4.383  1.00  0.00     0.066 A 
HETATM   20  N2  UNL     1     -25.992  13.485  -5.099  1.00  0.00    -0.248 NA
HETATM   21  C30 UNL     1     -27.935  12.919  -4.126  1.00  0.00    -0.020 A 
HETATM   22  C14 UNL     1     -26.876  14.475  -5.318  1.00  0.00     0.067 A 
HETATM   23  C15 UNL     1     -26.469  15.593  -6.059  1.00  0.00     0.062 C 
HETATM   24  C27 UNL     1     -28.142  14.120  -4.689  1.00  0.00    -0.011 A 
HETATM   25  C16 UNL     1     -25.327  15.703  -6.881  1.00  0.00     0.041 A 
HETATM   26  N3  UNL     1     -24.088  15.227  -6.707  1.00  0.00    -0.355 N 
HETATM   27  C23 UNL     1     -25.437  16.366  -8.128  1.00  0.00    -0.022 A 
HETATM   28  C17 UNL     1     -23.374  15.544  -7.793  1.00  0.00     0.042 A 
HETATM   29  H13 UNL     1     -23.702  14.685  -5.802  1.00  0.00     0.166 HD
HETATM   30  C18 UNL     1     -22.033  15.275  -8.130  1.00  0.00     0.062 C 
HETATM   31  C20 UNL     1     -24.189  16.254  -8.700  1.00  0.00    -0.013 A 
HETATM   32  C19 UNL     1     -21.344  14.068  -7.961  1.00  0.00     0.066 A 
BRANCH   8  33
HETATM   33  C6  UNL     1     -18.893  11.352  -8.287  1.00  0.00     0.151 C 
BRANCH  33  34
HETATM   34  C7  UNL     1     -17.910  11.222  -7.186  1.00  0.00     0.143 C 
HETATM   35  O3  UNL     1     -17.479  12.250  -6.629  1.00  0.00    -0.650 OA
BRANCH  34  36
HETATM   36  O4  UNL     1     -17.505   9.959  -6.817  1.00  0.00    -0.776 OA
HETATM   37  H8  UNL     1     -18.201   9.214  -6.781  1.00  0.00     0.167 HD
ENDBRANCH  34  36
ENDBRANCH  33  34
ENDBRANCH   8  33
BRANCH  31  38
HETATM   38  C21 UNL     1     -23.804  16.781 -10.068  1.00  0.00     0.151 C 
BRANCH  38  39
HETATM   39  C22 UNL     1     -24.263  15.782 -11.061  1.00  0.00     0.143 C 
HETATM   40  O5  UNL     1     -25.083  16.127 -11.939  1.00  0.00    -0.650 OA
BRANCH  39  41
HETATM   41  O6  UNL     1     -23.825  14.467 -11.068  1.00  0.00    -0.776 OA
HETATM   42  H17 UNL     1     -24.117  13.810 -11.803  1.00  0.00     0.167 HD
ENDBRANCH  39  41
ENDBRANCH  38  39
ENDBRANCH  31  38
BRANCH  27  43
HETATM   43  C24 UNL     1     -26.604  17.049  -8.749  1.00  0.00     0.052 C 
BRANCH  43  44
HETATM   44  C25 UNL     1     -26.794  18.410  -8.227  1.00  0.00     0.115 C 
BRANCH  44  45
HETATM   45  C26 UNL     1     -27.724  18.633  -7.123  1.00  0.00     0.139 C 
HETATM   46  O7  UNL     1     -27.533  19.051  -5.986  1.00  0.00    -0.650 OA
BRANCH  45  47
HETATM   47  O8  UNL     1     -29.076  18.308  -7.423  1.00  0.00    -0.776 OA
HETATM   48  H22 UNL     1     -29.490  17.444  -7.174  1.00  0.00     0.167 HD
ENDBRANCH  45  47
ENDBRANCH  44  45
ENDBRANCH  43  44
ENDBRANCH  27  43
BRANCH  24  49
HETATM   49  C28 UNL     1     -29.400  14.932  -4.689  1.00  0.00     0.151 C 
BRANCH  49  50
HETATM   50  C29 UNL     1     -29.479  15.786  -3.478  1.00  0.00     0.143 C 
HETATM   51  O9  UNL     1     -30.292  15.477  -2.578  1.00  0.00    -0.650 OA
BRANCH  50  52
HETATM   52  O10 UNL     1     -28.696  16.912  -3.293  1.00  0.00    -0.776 OA
HETATM   53  H25 UNL     1     -27.976  17.188  -3.973  1.00  0.00     0.167 HD
ENDBRANCH  50  52
ENDBRANCH  49  50
ENDBRANCH  24  49
BRANCH  21  54
HETATM   54  C31 UNL     1     -28.973  12.150  -3.381  1.00  0.00     0.052 C 
BRANCH  54  55
HETATM   55  C32 UNL     1     -29.886  11.352  -4.240  1.00  0.00     0.115 C 
BRANCH  55  56
HETATM   56  C33 UNL     1     -30.717  10.511  -3.302  1.00  0.00     0.139 C 
HETATM   57  O11 UNL     1     -30.196   9.942  -2.311  1.00  0.00    -0.650 OA
BRANCH  56  58
HETATM   58  O12 UNL     1     -32.081  10.332  -3.494  1.00  0.00    -0.776 OA
HETATM   59  H30 UNL     1     -32.394  10.356  -4.469  1.00  0.00     0.167 HD
ENDBRANCH  56  58
ENDBRANCH  55  56
ENDBRANCH  54  55
ENDBRANCH  21  54
BRANCH  18  60
HETATM   60  C35 UNL     1     -23.904  10.214  -2.027  1.00  0.00     0.151 C 
BRANCH  60  61
HETATM   61  C36 UNL     1     -23.576  11.344  -1.155  1.00  0.00     0.143 C 
HETATM   62  O13 UNL     1     -22.606  11.254  -0.352  1.00  0.00    -0.650 OA
BRANCH  61  63
HETATM   63  O14 UNL     1     -24.291  12.534  -1.167  1.00  0.00    -0.776 OA
HETATM   64  H33 UNL     1     -24.828  12.781  -0.352  1.00  0.00     0.167 HD
ENDBRANCH  61  63
ENDBRANCH  60  61
ENDBRANCH  18  60
BRANCH  14  65
HETATM   65  C38 UNL     1     -21.194  10.020  -3.281  1.00  0.00     0.052 C 
BRANCH  65  66
HETATM   66  C39 UNL     1     -20.326  11.167  -2.856  1.00  0.00     0.115 C 
BRANCH  66  67
HETATM   67  C40 UNL     1     -19.432  10.693  -1.734  1.00  0.00     0.139 C 
HETATM   68  O15 UNL     1     -18.205  10.974  -1.735  1.00  0.00    -0.650 OA
BRANCH  67  69
HETATM   69  O16 UNL     1     -19.943   9.954  -0.703  1.00  0.00    -0.776 OA
HETATM   70  H38 UNL     1     -20.012  10.323   0.231  1.00  0.00     0.167 HD
ENDBRANCH  67  69
ENDBRANCH  66  67
ENDBRANCH  65  66
ENDBRANCH  14  65
ENDBRANCH   6   7
ENDBRANCH   5   6
ENDBRANCH   2   5
TORSDOF 28
ENDMDL
MODEL 9
REMARK VINA RESULT:      -7.2     17.476     19.982
REMARK  28 active torsions:
REMARK  status: ('A' for Active; 'I' for Inactive)
REMARK    1  A    between atoms: C1_2  and  O2_3 
REMARK    2  A    between atoms: C1_2  and  C2_4 
REMARK    3  A    between atoms: C2_4  and  C3_5 
REMARK    4  A    between atoms: C3_5  and  C4_6 
REMARK    5  A    between atoms: C5_7  and  C6_8 
REMARK    6  A    between atoms: C6_8  and  C7_9 
REMARK    7  A    between atoms: C7_9  and  O4_11 
REMARK    8  A    between atoms: C20_28  and  C21_29 
REMARK    9  A    between atoms: C21_29  and  C22_30 
REMARK   10  A    between atoms: C22_30  and  O6_32 
REMARK   11  A    between atoms: C23_33  and  C24_34 
REMARK   12  A    between atoms: C24_34  and  C25_35 
REMARK   13  A    between atoms: C25_35  and  C26_36 
REMARK   14  A    between atoms: C26_36  and  O8_38 
REMARK   15  A    between atoms: C27_39  and  C28_40 
REMARK   16  A    between atoms: C28_40  and  C29_41 
REMARK   17  A    between atoms: C29_41  and  O10_43 
REMARK   18  A    between atoms: C30_44  and  C31_45 
REMARK   19  A    between atoms: C31_45  and  C32_46 
REMARK   20  A    between atoms: C32_46  and  C33_47 
REMARK   21  A    between atoms: C33_47  and  O12_49 
REMARK   22  A    between atoms: C34_50  and  C35_51 
REMARK   23  A    between atoms: C35_51  and  C36_52 
REMARK   24  A    between atoms: C36_52  and  O14_54 
REMARK   25  A    between atoms: C37_55  and  C38_56 
REMARK   26  A    between atoms: C38_56  and  C39_57 
REMARK   27  A    between atoms: C39_57  and  C40_58 
REMARK   28  A    between atoms: C40_58  and  O16_60 
ROOT
HETATM    1  O1  UNL     1     -17.483   7.271  10.833  1.00  0.00    -0.650 OA
HETATM    2  C1  UNL     1     -17.994   6.181  10.549  1.00  0.00     0.139 C 
ENDROOT
BRANCH   2   3
HETATM    3  O2  UNL     1     -19.364   6.165  10.278  1.00  0.00    -0.776 OA
HETATM    4  H1  UNL     1     -19.767   5.605   9.534  1.00  0.00     0.167 HD
ENDBRANCH   2   3
BRANCH   2   5
HETATM    5  C2  UNL     1     -17.227   4.921  10.486  1.00  0.00     0.115 C 
BRANCH   5   6
HETATM    6  C3  UNL     1     -17.616   4.021   9.371  1.00  0.00     0.052 C 
BRANCH   6   7
HETATM    7  C4  UNL     1     -17.233   4.608   8.059  1.00  0.00    -0.020 A 
HETATM    8  C5  UNL     1     -18.031   4.891   7.026  1.00  0.00    -0.011 A 
HETATM    9  C8  UNL     1     -17.243   5.450   5.953  1.00  0.00     0.067 A 
HETATM   10  C9  UNL     1     -17.548   5.900   4.650  1.00  0.00     0.062 C 
HETATM   11  N4  UNL     1     -15.982   5.491   6.371  1.00  0.00    -0.248 NA
HETATM   12  C10 UNL     1     -16.610   6.289   3.696  1.00  0.00     0.041 A 
HETATM   13  N1  UNL     1     -15.393   5.818   3.365  1.00  0.00    -0.355 N 
HETATM   14  C37 UNL     1     -16.902   7.428   2.911  1.00  0.00    -0.022 A 
HETATM   15  C11 UNL     1     -14.900   6.620   2.404  1.00  0.00     0.042 A 
HETATM   16  H10 UNL     1     -14.899   4.910   3.786  1.00  0.00     0.166 HD
HETATM   17  C12 UNL     1     -13.685   6.651   1.716  1.00  0.00     0.062 C 
HETATM   18  C34 UNL     1     -15.840   7.632   2.110  1.00  0.00    -0.013 A 
HETATM   19  C13 UNL     1     -12.421   6.441   2.299  1.00  0.00     0.066 A 
HETATM   20  N2  UNL     1     -12.350   6.199   3.616  1.00  0.00    -0.248 NA
HETATM   21  C30 UNL     1     -11.076   6.409   1.778  1.00  0.00    -0.020 A 
HETATM   22  C14 UNL     1     -11.066   6.015   3.972  1.00  0.00     0.067 A 
HETATM   23  C15 UNL     1     -10.768   5.741   5.313  1.00  0.00     0.062 C 
HETATM   24  C27 UNL     1     -10.227   6.151   2.786  1.00  0.00    -0.011 A 
HETATM   25  C16 UNL     1     -11.668   5.328   6.320  1.00  0.00     0.041 A 
HETATM   26  N3  UNL     1     -12.929   5.706   6.560  1.00  0.00    -0.355 N 
HETATM   27  C23 UNL     1     -11.265   4.322   7.232  1.00  0.00    -0.022 A 
HETATM   28  C17 UNL     1     -13.380   4.985   7.593  1.00  0.00     0.042 A 
HETATM   29  H13 UNL     1     -13.502   6.504   6.016  1.00  0.00     0.166 HD
HETATM   30  C18 UNL     1     -14.633   4.974   8.237  1.00  0.00     0.062 C 
HETATM   31  C20 UNL     1     -12.365   4.111   8.034  1.00  0.00    -0.013 A 
HETATM   32  C19 UNL     1     -15.895   5.001   7.631  1.00  0.00     0.066 A 
BRANCH   8  33
HETATM   33  C6  UNL     1     -19.501   4.658   7.021  1.00  0.00     0.151 C 
BRANCH  33  34
HETATM   34  C7  UNL     1     -19.866   3.254   6.718  1.00  0.00     0.143 C 
HETATM   35  O3  UNL     1     -18.980   2.459   6.351  1.00  0.00    -0.650 OA
BRANCH  34  36
HETATM   36  O4  UNL     1     -21.184   2.878   6.855  1.00  0.00    -0.776 OA
HETATM   37  H8  UNL     1     -21.492   2.497   7.750  1.00  0.00     0.167 HD
ENDBRANCH  34  36
ENDBRANCH  33  34
ENDBRANCH   8  33
BRANCH  31  38
HETATM   38  C21 UNL     1     -12.446   3.094   9.156  1.00  0.00     0.151 C 
BRANCH  38  39
HETATM   39  C22 UNL     1     -11.769   3.692  10.330  1.00  0.00     0.143 C 
HETATM   40  O5  UNL     1     -10.872   3.045  10.912  1.00  0.00    -0.650 OA
BRANCH  39  41
HETATM   41  O6  UNL     1     -12.081   4.949  10.825  1.00  0.00    -0.776 OA
HETATM   42  H17 UNL     1     -11.569   5.354  11.619  1.00  0.00     0.167 HD
ENDBRANCH  39  41
ENDBRANCH  38  39
ENDBRANCH  31  38
BRANCH  27  43
HETATM   43  C24 UNL     1      -9.966   3.607   7.356  1.00  0.00     0.052 C 
BRANCH  43  44
HETATM   44  C25 UNL     1     -10.026   2.245   6.808  1.00  0.00     0.115 C 
BRANCH  44  45
HETATM   45  C26 UNL     1      -9.462   1.975   5.489  1.00  0.00     0.139 C 
HETATM   46  O7  UNL     1     -10.006   1.790   4.405  1.00  0.00    -0.650 OA
BRANCH  45  47
HETATM   47  O8  UNL     1      -8.040   1.918   5.462  1.00  0.00    -0.776 OA
HETATM   48  H22 UNL     1      -7.478   2.654   5.112  1.00  0.00     0.167 HD
ENDBRANCH  45  47
ENDBRANCH  44  45
ENDBRANCH  43  44
ENDBRANCH  27  43
BRANCH  24  49
HETATM   49  C28 UNL     1      -8.738   6.018   2.724  1.00  0.00     0.151 C 
BRANCH  49  50
HETATM   50  C29 UNL     1      -8.320   4.616   2.971  1.00  0.00     0.143 C 
HETATM   51  O9  UNL     1      -7.458   4.393   3.851  1.00  0.00    -0.650 OA
BRANCH  50  52
HETATM   52  O10 UNL     1      -8.838   3.538   2.276  1.00  0.00    -0.776 OA
HETATM   53  H25 UNL     1      -8.574   2.570   2.504  1.00  0.00     0.167 HD
ENDBRANCH  50  52
ENDBRANCH  49  50
ENDBRANCH  24  49
BRANCH  21  54
HETATM   54  C31 UNL     1     -10.661   6.604   0.360  1.00  0.00     0.052 C 
BRANCH  54  55
HETATM   55  C32 UNL     1     -10.520   8.025  -0.054  1.00  0.00     0.115 C 
BRANCH  55  56
HETATM   56  C33 UNL     1     -11.349   8.182  -1.305  1.00  0.00     0.139 C 
HETATM   57  O11 UNL     1     -12.602   8.098  -1.265  1.00  0.00    -0.650 OA
BRANCH  56  58
HETATM   58  O12 UNL     1     -10.767   8.425  -2.542  1.00  0.00    -0.776 OA
HETATM   59  H30 UNL     1     -11.418   8.498  -3.328  1.00  0.00     0.167 HD
ENDBRANCH  56  58
ENDBRANCH  55  56
ENDBRANCH  54  55
ENDBRANCH  21  54
BRANCH  18  60
HETATM   60  C35 UNL     1     -15.773   8.745   1.107  1.00  0.00     0.151 C 
BRANCH  60  61
HETATM   61  C36 UNL     1     -14.771   9.704   1.577  1.00  0.00     0.143 C 
HETATM   62  O13 UNL     1     -14.939  10.293   2.682  1.00  0.00    -0.650 OA
BRANCH  61  63
HETATM   63  O14 UNL     1     -13.622  10.004   0.858  1.00  0.00    -0.776 OA
HETATM   64  H33 UNL     1     -13.492  10.947   0.531  1.00  0.00     0.167 HD
ENDBRANCH  61  63
ENDBRANCH  60  61
ENDBRANCH  18  60
BRANCH  14  65
HETATM   65  C38 UNL     1     -18.132   8.288   2.888  1.00  0.00     0.052 C 
BRANCH  65  66
HETATM   66  C39 UNL     1     -18.080   9.265   4.025  1.00  0.00     0.115 C 
BRANCH  66  67
HETATM   67  C40 UNL     1     -18.258  10.655   3.462  1.00  0.00     0.139 C 
HETATM   68  O15 UNL     1     -19.308  10.959   2.839  1.00  0.00    -0.650 OA
BRANCH  67  69
HETATM   69  O16 UNL     1     -17.283  11.601   3.622  1.00  0.00    -0.776 OA
HETATM   70  H38 UNL     1     -16.869  11.788   4.520  1.00  0.00     0.167 HD
ENDBRANCH  67  69
ENDBRANCH  66  67
ENDBRANCH  65  66
ENDBRANCH  14  65
ENDBRANCH   6   7
ENDBRANCH   5   6
ENDBRANCH   2   5
TORSDOF 28
ENDMDL
MODEL 10
REMARK VINA RESULT:      -7.2     17.696     20.670
REMARK  28 active torsions:
REMARK  status: ('A' for Active; 'I' for Inactive)
REMARK    1  A    between atoms: C1_2  and  O2_3 
REMARK    2  A    between atoms: C1_2  and  C2_4 
REMARK    3  A    between atoms: C2_4  and  C3_5 
REMARK    4  A    between atoms: C3_5  and  C4_6 
REMARK    5  A    between atoms: C5_7  and  C6_8 
REMARK    6  A    between atoms: C6_8  and  C7_9 
REMARK    7  A    between atoms: C7_9  and  O4_11 
REMARK    8  A    between atoms: C20_28  and  C21_29 
REMARK    9  A    between atoms: C21_29  and  C22_30 
REMARK   10  A    between atoms: C22_30  and  O6_32 
REMARK   11  A    between atoms: C23_33  and  C24_34 
REMARK   12  A    between atoms: C24_34  and  C25_35 
REMARK   13  A    between atoms: C25_35  and  C26_36 
REMARK   14  A    between atoms: C26_36  and  O8_38 
REMARK   15  A    between atoms: C27_39  and  C28_40 
REMARK   16  A    between atoms: C28_40  and  C29_41 
REMARK   17  A    between atoms: C29_41  and  O10_43 
REMARK   18  A    between atoms: C30_44  and  C31_45 
REMARK   19  A    between atoms: C31_45  and  C32_46 
REMARK   20  A    between atoms: C32_46  and  C33_47 
REMARK   21  A    between atoms: C33_47  and  O12_49 
REMARK   22  A    between atoms: C34_50  and  C35_51 
REMARK   23  A    between atoms: C35_51  and  C36_52 
REMARK   24  A    between atoms: C36_52  and  O14_54 
REMARK   25  A    between atoms: C37_55  and  C38_56 
REMARK   26  A    between atoms: C38_56  and  C39_57 
REMARK   27  A    between atoms: C39_57  and  C40_58 
REMARK   28  A    between atoms: C40_58  and  O16_60 
ROOT
HETATM    1  O1  UNL     1     -18.599   2.169   8.808  1.00  0.00    -0.650 OA
HETATM    2  C1  UNL     1     -19.403   2.897   8.214  1.00  0.00     0.139 C 
ENDROOT
BRANCH   2   3
HETATM    3  O2  UNL     1     -20.760   2.716   8.490  1.00  0.00    -0.776 OA
HETATM    4  H1  UNL     1     -21.396   3.492   8.632  1.00  0.00     0.167 HD
ENDBRANCH   2   3
BRANCH   2   5
HETATM    5  C2  UNL     1     -18.991   3.930   7.243  1.00  0.00     0.115 C 
BRANCH   5   6
HETATM    6  C3  UNL     1     -18.320   5.108   7.849  1.00  0.00     0.052 C 
BRANCH   6   7
HETATM    7  C4  UNL     1     -16.886   5.159   7.456  1.00  0.00    -0.020 A 
HETATM    8  C5  UNL     1     -15.817   5.111   8.256  1.00  0.00    -0.011 A 
HETATM    9  C8  UNL     1     -14.618   5.188   7.457  1.00  0.00     0.067 A 
HETATM   10  C9  UNL     1     -13.240   5.204   7.763  1.00  0.00     0.062 C 
HETATM   11  N4  UNL     1     -14.997   5.281   6.186  1.00  0.00    -0.248 NA
HETATM   12  C10 UNL     1     -12.216   5.424   6.843  1.00  0.00     0.041 A 
HETATM   13  N1  UNL     1     -12.100   6.247   5.784  1.00  0.00    -0.355 N 
HETATM   14  C37 UNL     1     -11.052   4.628   6.949  1.00  0.00    -0.022 A 
HETATM   15  C11 UNL     1     -10.908   5.998   5.211  1.00  0.00     0.042 A 
HETATM   16  H10 UNL     1     -12.841   7.017   5.462  1.00  0.00     0.166 HD
HETATM   17  C12 UNL     1     -10.271   6.504   4.076  1.00  0.00     0.062 C 
HETATM   18  C34 UNL     1     -10.243   4.985   5.936  1.00  0.00    -0.013 A 
HETATM   19  C13 UNL     1     -10.899   6.760   2.843  1.00  0.00     0.066 A 
HETATM   20  N2  UNL     1     -12.208   6.500   2.720  1.00  0.00    -0.248 NA
HETATM   21  C30 UNL     1     -10.440   7.289   1.582  1.00  0.00    -0.020 A 
HETATM   22  C14 UNL     1     -12.616   6.823   1.479  1.00  0.00     0.067 A 
HETATM   23  C15 UNL     1     -13.963   6.635   1.140  1.00  0.00     0.062 C 
HETATM   24  C27 UNL     1     -11.476   7.336   0.729  1.00  0.00    -0.011 A 
HETATM   25  C16 UNL     1     -15.044   6.425   2.023  1.00  0.00     0.041 A 
HETATM   26  N3  UNL     1     -15.112   5.709   3.152  1.00  0.00    -0.355 N 
HETATM   27  C23 UNL     1     -16.275   7.079   1.770  1.00  0.00    -0.022 A 
HETATM   28  C17 UNL     1     -16.339   5.867   3.661  1.00  0.00     0.042 A 
HETATM   29  H13 UNL     1     -14.299   5.066   3.584  1.00  0.00     0.166 HD
HETATM   30  C18 UNL     1     -16.929   5.352   4.832  1.00  0.00     0.062 C 
HETATM   31  C20 UNL     1     -17.089   6.718   2.823  1.00  0.00    -0.013 A 
HETATM   32  C19 UNL     1     -16.350   5.269   6.104  1.00  0.00     0.066 A 
BRANCH   8  33
HETATM   33  C6  UNL     1     -15.891   4.989   9.738  1.00  0.00     0.151 C 
BRANCH  33  34
HETATM   34  C7  UNL     1     -15.800   6.293  10.434  1.00  0.00     0.143 C 
HETATM   35  O3  UNL     1     -16.833   6.973  10.595  1.00  0.00    -0.650 OA
BRANCH  34  36
HETATM   36  O4  UNL     1     -14.566   6.711  10.881  1.00  0.00    -0.776 OA
HETATM   37  H8  UNL     1     -13.790   6.733  10.220  1.00  0.00     0.167 HD
ENDBRANCH  34  36
ENDBRANCH  33  34
ENDBRANCH   8  33
BRANCH  31  38
HETATM   38  C21 UNL     1     -18.514   7.194   3.027  1.00  0.00     0.151 C 
BRANCH  38  39
HETATM   39  C22 UNL     1     -18.440   8.481   3.757  1.00  0.00     0.143 C 
HETATM   40  O5  UNL     1     -19.398   9.280   3.684  1.00  0.00    -0.650 OA
BRANCH  39  41
HETATM   41  O6  UNL     1     -17.349   8.851   4.528  1.00  0.00    -0.776 OA
HETATM   42  H17 UNL     1     -16.570   8.203   4.699  1.00  0.00     0.167 HD
ENDBRANCH  39  41
ENDBRANCH  38  39
ENDBRANCH  31  38
BRANCH  27  43
HETATM   43  C24 UNL     1     -16.674   7.969   0.647  1.00  0.00     0.052 C 
BRANCH  43  44
HETATM   44  C25 UNL     1     -16.634   9.390   1.023  1.00  0.00     0.115 C 
BRANCH  44  45
HETATM   45  C26 UNL     1     -15.454   9.922   1.697  1.00  0.00     0.139 C 
HETATM   46  O7  UNL     1     -15.270  10.230   2.870  1.00  0.00    -0.650 OA
BRANCH  45  47
HETATM   47  O8  UNL     1     -14.331  10.117   0.844  1.00  0.00    -0.776 OA
HETATM   48  H22 UNL     1     -13.582   9.471   0.785  1.00  0.00     0.167 HD
ENDBRANCH  45  47
ENDBRANCH  44  45
ENDBRANCH  43  44
ENDBRANCH  27  43
BRANCH  24  49
HETATM   49  C28 UNL     1     -11.480   7.816  -0.689  1.00  0.00     0.151 C 
BRANCH  49  50
HETATM   50  C29 UNL     1     -11.062   9.237  -0.768  1.00  0.00     0.143 C 
HETATM   51  O9  UNL     1     -11.643  10.075  -0.042  1.00  0.00    -0.650 OA
BRANCH  50  52
HETATM   52  O10 UNL     1     -10.057   9.685  -1.606  1.00  0.00    -0.776 OA
HETATM   53  H25 UNL     1      -9.240  10.197  -1.246  1.00  0.00     0.167 HD
ENDBRANCH  50  52
ENDBRANCH  49  50
ENDBRANCH  24  49
BRANCH  21  54
HETATM   54  C31 UNL     1      -9.058   7.739   1.250  1.00  0.00     0.052 C 
BRANCH  54  55
HETATM   55  C32 UNL     1      -8.082   6.638   1.037  1.00  0.00     0.115 C 
BRANCH  55  56
HETATM   56  C33 UNL     1      -8.127   6.315  -0.436  1.00  0.00     0.139 C 
HETATM   57  O11 UNL     1      -8.108   5.125  -0.838  1.00  0.00    -0.650 OA
BRANCH  56  58
HETATM   58  O12 UNL     1      -8.189   7.312  -1.401  1.00  0.00    -0.776 OA
HETATM   59  H30 UNL     1      -7.389   7.358  -2.038  1.00  0.00     0.167 HD
ENDBRANCH  56  58
ENDBRANCH  55  56
ENDBRANCH  54  55
ENDBRANCH  21  54
BRANCH  18  60
HETATM   60  C35 UNL     1      -8.890   4.376   5.715  1.00  0.00     0.151 C 
BRANCH  60  61
HETATM   61  C36 UNL     1      -8.948   3.611   4.467  1.00  0.00     0.143 C 
HETATM   62  O13 UNL     1      -8.134   3.870   3.536  1.00  0.00    -0.650 OA
BRANCH  61  63
HETATM   63  O14 UNL     1      -9.869   2.595   4.250  1.00  0.00    -0.776 OA
HETATM   64  H33 UNL     1     -10.753   2.637   4.730  1.00  0.00     0.167 HD
ENDBRANCH  61  63
ENDBRANCH  60  61
ENDBRANCH  18  60
BRANCH  14  65
HETATM   65  C38 UNL     1     -10.693   3.585   7.967  1.00  0.00     0.052 C 
BRANCH  65  66
HETATM   66  C39 UNL     1     -10.912   2.220   7.382  1.00  0.00     0.115 C 
BRANCH  66  67
HETATM   67  C40 UNL     1      -9.638   1.425   7.547  1.00  0.00     0.139 C 
HETATM   68  O15 UNL     1      -8.940   1.550   8.587  1.00  0.00    -0.650 OA
BRANCH  67  69
HETATM   69  O16 UNL     1      -9.226   0.561   6.570  1.00  0.00    -0.776 OA
HETATM   70  H38 UNL     1      -9.872  -0.044   6.092  1.00  0.00     0.167 HD
ENDBRANCH  67  69
ENDBRANCH  66  67
ENDBRANCH  65  66
ENDBRANCH  14  65
ENDBRANCH   6   7
ENDBRANCH   5   6
ENDBRANCH   2   5
TORSDOF 28
ENDMDL
MODEL 11
REMARK VINA RESULT:      -7.2     18.691     21.145
REMARK  28 active torsions:
REMARK  status: ('A' for Active; 'I' for Inactive)
REMARK    1  A    between atoms: C1_2  and  O2_3 
REMARK    2  A    between atoms: C1_2  and  C2_4 
REMARK    3  A    between atoms: C2_4  and  C3_5 
REMARK    4  A    between atoms: C3_5  and  C4_6 
REMARK    5  A    between atoms: C5_7  and  C6_8 
REMARK    6  A    between atoms: C6_8  and  C7_9 
REMARK    7  A    between atoms: C7_9  and  O4_11 
REMARK    8  A    between atoms: C20_28  and  C21_29 
REMARK    9  A    between atoms: C21_29  and  C22_30 
REMARK   10  A    between atoms: C22_30  and  O6_32 
REMARK   11  A    between atoms: C23_33  and  C24_34 
REMARK   12  A    between atoms: C24_34  and  C25_35 
REMARK   13  A    between atoms: C25_35  and  C26_36 
REMARK   14  A    between atoms: C26_36  and  O8_38 
REMARK   15  A    between atoms: C27_39  and  C28_40 
REMARK   16  A    between atoms: C28_40  and  C29_41 
REMARK   17  A    between atoms: C29_41  and  O10_43 
REMARK   18  A    between atoms: C30_44  and  C31_45 
REMARK   19  A    between atoms: C31_45  and  C32_46 
REMARK   20  A    between atoms: C32_46  and  C33_47 
REMARK   21  A    between atoms: C33_47  and  O12_49 
REMARK   22  A    between atoms: C34_50  and  C35_51 
REMARK   23  A    between atoms: C35_51  and  C36_52 
REMARK   24  A    between atoms: C36_52  and  O14_54 
REMARK   25  A    between atoms: C37_55  and  C38_56 
REMARK   26  A    between atoms: C38_56  and  C39_57 
REMARK   27  A    between atoms: C39_57  and  C40_58 
REMARK   28  A    between atoms: C40_58  and  O16_60 
ROOT
HETATM    1  O1  UNL     1     -17.860   1.955   6.750  1.00  0.00    -0.650 OA
HETATM    2  C1  UNL     1     -18.230   3.131   6.656  1.00  0.00     0.139 C 
ENDROOT
BRANCH   2   3
HETATM    3  O2  UNL     1     -19.414   3.377   5.957  1.00  0.00    -0.776 OA
HETATM    4  H1  UNL     1     -20.077   4.090   6.242  1.00  0.00     0.167 HD
ENDBRANCH   2   3
BRANCH   2   5
HETATM    5  C2  UNL     1     -17.484   4.262   7.242  1.00  0.00     0.115 C 
BRANCH   5   6
HETATM    6  C3  UNL     1     -17.743   5.571   6.591  1.00  0.00     0.052 C 
BRANCH   6   7
HETATM    7  C4  UNL     1     -16.662   5.904   5.625  1.00  0.00    -0.020 A 
HETATM    8  C5  UNL     1     -16.792   6.252   4.342  1.00  0.00    -0.011 A 
HETATM    9  C8  UNL     1     -15.485   6.490   3.777  1.00  0.00     0.067 A 
HETATM   10  C9  UNL     1     -15.028   6.853   2.491  1.00  0.00     0.062 C 
HETATM   11  N4  UNL     1     -14.595   6.277   4.741  1.00  0.00    -0.248 NA
HETATM   12  C10 UNL     1     -13.692   6.903   2.099  1.00  0.00     0.041 A 
HETATM   13  N1  UNL     1     -12.629   6.125   2.375  1.00  0.00    -0.355 N 
HETATM   14  C37 UNL     1     -13.283   7.986   1.287  1.00  0.00    -0.022 A 
HETATM   15  C11 UNL     1     -11.560   6.678   1.772  1.00  0.00     0.042 A 
HETATM   16  H10 UNL     1     -12.638   5.178   2.965  1.00  0.00     0.166 HD
HETATM   17  C12 UNL     1     -10.204   6.345   1.740  1.00  0.00     0.062 C 
HETATM   18  C34 UNL     1     -11.961   7.845   1.085  1.00  0.00    -0.013 A 
HETATM   19  C13 UNL     1      -9.453   5.908   2.847  1.00  0.00     0.066 A 
HETATM   20  N2  UNL     1     -10.060   5.802   4.037  1.00  0.00    -0.248 NA
HETATM   21  C30 UNL     1      -8.080   5.503   3.022  1.00  0.00    -0.020 A 
HETATM   22  C14 UNL     1      -9.180   5.361   4.954  1.00  0.00     0.067 A 
HETATM   23  C15 UNL     1      -9.615   5.172   6.273  1.00  0.00     0.062 C 
HETATM   24  C27 UNL     1      -7.888   5.164   4.307  1.00  0.00    -0.011 A 
HETATM   25  C16 UNL     1     -10.949   5.095   6.730  1.00  0.00     0.041 A 
HETATM   26  N3  UNL     1     -12.032   5.784   6.352  1.00  0.00    -0.355 N 
HETATM   27  C23 UNL     1     -11.287   4.129   7.708  1.00  0.00    -0.022 A 
HETATM   28  C17 UNL     1     -13.078   5.308   7.038  1.00  0.00     0.042 A 
HETATM   29  H13 UNL     1     -12.062   6.631   5.614  1.00  0.00     0.166 HD
HETATM   30  C18 UNL     1     -14.440   5.663   7.014  1.00  0.00     0.062 C 
HETATM   31  C20 UNL     1     -12.645   4.272   7.893  1.00  0.00    -0.013 A 
HETATM   32  C19 UNL     1     -15.227   5.921   5.885  1.00  0.00     0.066 A 
BRANCH   8  33
HETATM   33  C6  UNL     1     -18.099   6.374   3.640  1.00  0.00     0.151 C 
BRANCH  33  34
HETATM   34  C7  UNL     1     -18.427   5.189   2.813  1.00  0.00     0.143 C 
HETATM   35  O3  UNL     1     -18.568   4.080   3.364  1.00  0.00    -0.650 OA
BRANCH  34  36
HETATM   36  O4  UNL     1     -18.566   5.359   1.453  1.00  0.00    -0.776 OA
HETATM   37  H8  UNL     1     -18.038   6.105   0.999  1.00  0.00     0.167 HD
ENDBRANCH  34  36
ENDBRANCH  33  34
ENDBRANCH   8  33
BRANCH  31  38
HETATM   38  C21 UNL     1     -13.493   3.432   8.827  1.00  0.00     0.151 C 
BRANCH  38  39
HETATM   39  C22 UNL     1     -13.325   3.996  10.187  1.00  0.00     0.143 C 
HETATM   40  O5  UNL     1     -13.857   5.093  10.463  1.00  0.00    -0.650 OA
BRANCH  39  41
HETATM   41  O6  UNL     1     -12.600   3.363  11.184  1.00  0.00    -0.776 OA
HETATM   42  H17 UNL     1     -11.687   2.931  10.990  1.00  0.00     0.167 HD
ENDBRANCH  39  41
ENDBRANCH  38  39
ENDBRANCH  31  38
BRANCH  27  43
HETATM   43  C24 UNL     1     -10.427   3.145   8.419  1.00  0.00     0.052 C 
BRANCH  43  44
HETATM   44  C25 UNL     1     -10.621   1.775   7.924  1.00  0.00     0.115 C 
BRANCH  44  45
HETATM   45  C26 UNL     1      -9.998   1.371   6.666  1.00  0.00     0.139 C 
HETATM   46  O7  UNL     1     -10.273   1.658   5.506  1.00  0.00    -0.650 OA
BRANCH  45  47
HETATM   47  O8  UNL     1      -8.888   0.494   6.819  1.00  0.00    -0.776 OA
HETATM   48  H22 UNL     1      -8.578   0.167   7.700  1.00  0.00     0.167 HD
ENDBRANCH  45  47
ENDBRANCH  44  45
ENDBRANCH  43  44
ENDBRANCH  27  43
BRANCH  24  49
HETATM   49  C28 UNL     1      -6.629   4.677   4.954  1.00  0.00     0.151 C 
BRANCH  49  50
HETATM   50  C29 UNL     1      -6.853   3.381   5.641  1.00  0.00     0.143 C 
HETATM   51  O9  UNL     1      -6.443   3.246   6.816  1.00  0.00    -0.650 OA
BRANCH  50  52
HETATM   52  O10 UNL     1      -7.494   2.309   5.046  1.00  0.00    -0.776 OA
HETATM   53  H25 UNL     1      -8.011   2.411   4.162  1.00  0.00     0.167 HD
ENDBRANCH  50  52
ENDBRANCH  49  50
ENDBRANCH  24  49
BRANCH  21  54
HETATM   54  C31 UNL     1      -7.024   5.439   1.972  1.00  0.00     0.052 C 
BRANCH  54  55
HETATM   55  C32 UNL     1      -6.403   6.747   1.636  1.00  0.00     0.115 C 
BRANCH  55  56
HETATM   56  C33 UNL     1      -6.949   7.138   0.285  1.00  0.00     0.139 C 
HETATM   57  O11 UNL     1      -7.362   8.305   0.068  1.00  0.00    -0.650 OA
BRANCH  56  58
HETATM   58  O12 UNL     1      -7.017   6.233  -0.765  1.00  0.00    -0.776 OA
HETATM   59  H30 UNL     1      -7.952   6.081  -1.155  1.00  0.00     0.167 HD
ENDBRANCH  56  58
ENDBRANCH  55  56
ENDBRANCH  54  55
ENDBRANCH  21  54
BRANCH  18  60
HETATM   60  C35 UNL     1     -11.154   8.794   0.250  1.00  0.00     0.151 C 
BRANCH  60  61
HETATM   61  C36 UNL     1     -10.987   8.188  -1.072  1.00  0.00     0.143 C 
HETATM   62  O13 UNL     1     -11.903   8.304  -1.934  1.00  0.00    -0.650 OA
BRANCH  61  63
HETATM   63  O14 UNL     1      -9.850   7.478  -1.436  1.00  0.00    -0.776 OA
HETATM   64  H33 UNL     1      -9.022   7.578  -0.874  1.00  0.00     0.167 HD
ENDBRANCH  61  63
ENDBRANCH  60  61
ENDBRANCH  18  60
BRANCH  14  65
HETATM   65  C38 UNL     1     -14.095   9.104   0.700  1.00  0.00     0.052 C 
BRANCH  65  66
HETATM   66  C39 UNL     1     -14.270  10.186   1.724  1.00  0.00     0.115 C 
BRANCH  66  67
HETATM   67  C40 UNL     1     -15.684  10.709   1.624  1.00  0.00     0.139 C 
HETATM   68  O15 UNL     1     -16.643  10.045   2.098  1.00  0.00    -0.650 OA
BRANCH  67  69
HETATM   69  O16 UNL     1     -15.941  11.906   1.017  1.00  0.00    -0.776 OA
HETATM   70  H38 UNL     1     -15.322  12.694   1.114  1.00  0.00     0.167 HD
ENDBRANCH  67  69
ENDBRANCH  66  67
ENDBRANCH  65  66
ENDBRANCH  14  65
ENDBRANCH   6   7
ENDBRANCH   5   6
ENDBRANCH   2   5
TORSDOF 28
ENDMDL
MODEL 12
REMARK VINA RESULT:      -7.1     18.163     20.839
REMARK  28 active torsions:
REMARK  status: ('A' for Active; 'I' for Inactive)
REMARK    1  A    between atoms: C1_2  and  O2_3 
REMARK    2  A    between atoms: C1_2  and  C2_4 
REMARK    3  A    between atoms: C2_4  and  C3_5 
REMARK    4  A    between atoms: C3_5  and  C4_6 
REMARK    5  A    between atoms: C5_7  and  C6_8 
REMARK    6  A    between atoms: C6_8  and  C7_9 
REMARK    7  A    between atoms: C7_9  and  O4_11 
REMARK    8  A    between atoms: C20_28  and  C21_29 
REMARK    9  A    between atoms: C21_29  and  C22_30 
REMARK   10  A    between atoms: C22_30  and  O6_32 
REMARK   11  A    between atoms: C23_33  and  C24_34 
REMARK   12  A    between atoms: C24_34  and  C25_35 
REMARK   13  A    between atoms: C25_35  and  C26_36 
REMARK   14  A    between atoms: C26_36  and  O8_38 
REMARK   15  A    between atoms: C27_39  and  C28_40 
REMARK   16  A    between atoms: C28_40  and  C29_41 
REMARK   17  A    between atoms: C29_41  and  O10_43 
REMARK   18  A    between atoms: C30_44  and  C31_45 
REMARK   19  A    between atoms: C31_45  and  C32_46 
REMARK   20  A    between atoms: C32_46  and  C33_47 
REMARK   21  A    between atoms: C33_47  and  O12_49 
REMARK   22  A    between atoms: C34_50  and  C35_51 
REMARK   23  A    between atoms: C35_51  and  C36_52 
REMARK   24  A    between atoms: C36_52  and  O14_54 
REMARK   25  A    between atoms: C37_55  and  C38_56 
REMARK   26  A    between atoms: C38_56  and  C39_57 
REMARK   27  A    between atoms: C39_57  and  C40_58 
REMARK   28  A    between atoms: C40_58  and  O16_60 
ROOT
HETATM    1  O1  UNL     1     -15.250   7.637  10.670  1.00  0.00    -0.650 OA
HETATM    2  C1  UNL     1     -14.951   6.440  10.582  1.00  0.00     0.139 C 
ENDROOT
BRANCH   2   3
HETATM    3  O2  UNL     1     -13.641   6.079  10.907  1.00  0.00    -0.776 OA
HETATM    4  H1  UNL     1     -13.305   6.048  11.863  1.00  0.00     0.167 HD
ENDBRANCH   2   3
BRANCH   2   5
HETATM    5  C2  UNL     1     -15.906   5.398  10.156  1.00  0.00     0.115 C 
BRANCH   5   6
HETATM    6  C3  UNL     1     -15.343   4.398   9.214  1.00  0.00     0.052 C 
BRANCH   6   7
HETATM    7  C4  UNL     1     -15.151   4.991   7.864  1.00  0.00    -0.020 A 
HETATM    8  C5  UNL     1     -16.090   5.300   6.966  1.00  0.00    -0.011 A 
HETATM    9  C8  UNL     1     -15.463   5.857   5.791  1.00  0.00     0.067 A 
HETATM   10  C9  UNL     1     -15.953   6.326   4.552  1.00  0.00     0.062 C 
HETATM   11  N4  UNL     1     -14.153   5.870   6.013  1.00  0.00    -0.248 NA
HETATM   12  C10 UNL     1     -15.162   6.708   3.470  1.00  0.00     0.041 A 
HETATM   13  N1  UNL     1     -14.019   6.218   2.955  1.00  0.00    -0.355 N 
HETATM   14  C37 UNL     1     -15.547   7.861   2.747  1.00  0.00    -0.022 A 
HETATM   15  C11 UNL     1     -13.661   7.021   1.937  1.00  0.00     0.042 A 
HETATM   16  H10 UNL     1     -13.485   5.297   3.290  1.00  0.00     0.166 HD
HETATM   17  C12 UNL     1     -12.563   7.037   1.073  1.00  0.00     0.062 C 
HETATM   18  C34 UNL     1     -14.615   8.054   1.797  1.00  0.00    -0.013 A 
HETATM   19  C13 UNL     1     -11.231   6.797   1.456  1.00  0.00     0.066 A 
HETATM   20  N2  UNL     1     -10.967   6.540   2.745  1.00  0.00    -0.248 NA
HETATM   21  C30 UNL     1      -9.981   6.746   0.738  1.00  0.00    -0.020 A 
HETATM   22  C14 UNL     1      -9.647   6.329   2.901  1.00  0.00     0.067 A 
HETATM   23  C15 UNL     1      -9.155   6.034   4.179  1.00  0.00     0.062 C 
HETATM   24  C27 UNL     1      -8.995   6.461   1.603  1.00  0.00    -0.011 A 
HETATM   25  C16 UNL     1      -9.900   5.627   5.308  1.00  0.00     0.041 A 
HETATM   26  N3  UNL     1     -11.103   6.026   5.739  1.00  0.00    -0.355 N 
HETATM   27  C23 UNL     1      -9.384   4.604   6.140  1.00  0.00    -0.022 A 
HETATM   28  C17 UNL     1     -11.407   5.302   6.823  1.00  0.00     0.042 A 
HETATM   29  H13 UNL     1     -11.735   6.840   5.294  1.00  0.00     0.166 HD
HETATM   30  C18 UNL     1     -12.547   5.307   7.649  1.00  0.00     0.062 C 
HETATM   31  C20 UNL     1     -10.354   4.404   7.098  1.00  0.00    -0.013 A 
HETATM   32  C19 UNL     1     -13.886   5.364   7.242  1.00  0.00     0.066 A 
BRANCH   8  33
HETATM   33  C6  UNL     1     -17.549   5.095   7.182  1.00  0.00     0.151 C 
BRANCH  33  34
HETATM   34  C7  UNL     1     -18.104   3.980   6.380  1.00  0.00     0.143 C 
HETATM   35  O3  UNL     1     -17.960   2.808   6.782  1.00  0.00    -0.650 OA
BRANCH  34  36
HETATM   36  O4  UNL     1     -18.764   4.281   5.210  1.00  0.00    -0.776 OA
HETATM   37  H8  UNL     1     -18.219   4.375   4.353  1.00  0.00     0.167 HD
ENDBRANCH  34  36
ENDBRANCH  33  34
ENDBRANCH   8  33
BRANCH  31  38
HETATM   38  C21 UNL     1     -10.285   3.377   8.211  1.00  0.00     0.151 C 
BRANCH  38  39
HETATM   39  C22 UNL     1     -11.218   2.285   7.849  1.00  0.00     0.143 C 
HETATM   40  O5  UNL     1     -12.364   2.272   8.347  1.00  0.00    -0.650 OA
BRANCH  39  41
HETATM   41  O6  UNL     1     -10.882   1.262   6.975  1.00  0.00    -0.776 OA
HETATM   42  H17 UNL     1      -9.968   1.237   6.506  1.00  0.00     0.167 HD
ENDBRANCH  39  41
ENDBRANCH  38  39
ENDBRANCH  31  38
BRANCH  27  43
HETATM   43  C24 UNL     1      -8.096   3.864   6.061  1.00  0.00     0.052 C 
BRANCH  43  44
HETATM   44  C25 UNL     1      -8.259   2.525   5.476  1.00  0.00     0.115 C 
BRANCH  44  45
HETATM   45  C26 UNL     1      -9.009   2.370   4.233  1.00  0.00     0.139 C 
HETATM   46  O7  UNL     1      -8.875   2.913   3.142  1.00  0.00    -0.650 OA
BRANCH  45  47
HETATM   47  O8  UNL     1     -10.075   1.430   4.306  1.00  0.00    -0.776 OA
HETATM   48  H22 UNL     1     -10.903   1.514   3.770  1.00  0.00     0.167 HD
ENDBRANCH  45  47
ENDBRANCH  44  45
ENDBRANCH  43  44
ENDBRANCH  27  43
BRANCH  24  49
HETATM   49  C28 UNL     1      -7.535   6.301   1.315  1.00  0.00     0.151 C 
BRANCH  49  50
HETATM   50  C29 UNL     1      -7.268   5.012   0.632  1.00  0.00     0.143 C 
HETATM   51  O9  UNL     1      -6.187   4.872   0.015  1.00  0.00    -0.650 OA
BRANCH  50  52
HETATM   52  O10 UNL     1      -8.156   3.951   0.641  1.00  0.00    -0.776 OA
HETATM   53  H25 UNL     1      -9.029   3.972   0.097  1.00  0.00     0.167 HD
ENDBRANCH  50  52
ENDBRANCH  49  50
ENDBRANCH  24  49
BRANCH  21  54
HETATM   54  C31 UNL     1      -9.781   6.949  -0.725  1.00  0.00     0.052 C 
BRANCH  54  55
HETATM   55  C32 UNL     1      -9.464   8.347  -1.119  1.00  0.00     0.115 C 
BRANCH  55  56
HETATM   56  C33 UNL     1     -10.790   9.029  -1.352  1.00  0.00     0.139 C 
HETATM   57  O11 UNL     1     -11.455   8.809  -2.395  1.00  0.00    -0.650 OA
BRANCH  56  58
HETATM   58  O12 UNL     1     -11.325   9.920  -0.432  1.00  0.00    -0.776 OA
HETATM   59  H30 UNL     1     -11.342   9.593   0.538  1.00  0.00     0.167 HD
ENDBRANCH  56  58
ENDBRANCH  55  56
ENDBRANCH  54  55
ENDBRANCH  21  54
BRANCH  18  60
HETATM   60  C35 UNL     1     -14.678   9.176   0.804  1.00  0.00     0.151 C 
BRANCH  60  61
HETATM   61  C36 UNL     1     -15.603   8.775  -0.258  1.00  0.00     0.143 C 
HETATM   62  O13 UNL     1     -16.446   9.605  -0.700  1.00  0.00    -0.650 OA
BRANCH  61  63
HETATM   63  O14 UNL     1     -15.599   7.505  -0.818  1.00  0.00    -0.776 OA
HETATM   64  H33 UNL     1     -15.367   7.410  -1.793  1.00  0.00     0.167 HD
ENDBRANCH  61  63
ENDBRANCH  60  61
ENDBRANCH  18  60
BRANCH  14  65
HETATM   65  C38 UNL     1     -16.749   8.743   2.918  1.00  0.00     0.052 C 
BRANCH  65  66
HETATM   66  C39 UNL     1     -17.962   8.043   2.380  1.00  0.00     0.115 C 
BRANCH  66  67
HETATM   67  C40 UNL     1     -19.042   8.090   3.436  1.00  0.00     0.139 C 
HETATM   68  O15 UNL     1     -19.402   7.038   4.025  1.00  0.00    -0.650 OA
BRANCH  67  69
HETATM   69  O16 UNL     1     -19.642   9.274   3.765  1.00  0.00    -0.776 OA
HETATM   70  H38 UNL     1     -20.520   9.554   3.359  1.00  0.00     0.167 HD
ENDBRANCH  67  69
ENDBRANCH  66  67
ENDBRANCH  65  66
ENDBRANCH  14  65
ENDBRANCH   6   7
ENDBRANCH   5   6
ENDBRANCH   2   5
TORSDOF 28
ENDMDL
MODEL 13
REMARK VINA RESULT:      -7.0     17.976     20.873
REMARK  28 active torsions:
REMARK  status: ('A' for Active; 'I' for Inactive)
REMARK    1  A    between atoms: C1_2  and  O2_3 
REMARK    2  A    between atoms: C1_2  and  C2_4 
REMARK    3  A    between atoms: C2_4  and  C3_5 
REMARK    4  A    between atoms: C3_5  and  C4_6 
REMARK    5  A    between atoms: C5_7  and  C6_8 
REMARK    6  A    between atoms: C6_8  and  C7_9 
REMARK    7  A    between atoms: C7_9  and  O4_11 
REMARK    8  A    between atoms: C20_28  and  C21_29 
REMARK    9  A    between atoms: C21_29  and  C22_30 
REMARK   10  A    between atoms: C22_30  and  O6_32 
REMARK   11  A    between atoms: C23_33  and  C24_34 
REMARK   12  A    between atoms: C24_34  and  C25_35 
REMARK   13  A    between atoms: C25_35  and  C26_36 
REMARK   14  A    between atoms: C26_36  and  O8_38 
REMARK   15  A    between atoms: C27_39  and  C28_40 
REMARK   16  A    between atoms: C28_40  and  C29_41 
REMARK   17  A    between atoms: C29_41  and  O10_43 
REMARK   18  A    between atoms: C30_44  and  C31_45 
REMARK   19  A    between atoms: C31_45  and  C32_46 
REMARK   20  A    between atoms: C32_46  and  C33_47 
REMARK   21  A    between atoms: C33_47  and  O12_49 
REMARK   22  A    between atoms: C34_50  and  C35_51 
REMARK   23  A    between atoms: C35_51  and  C36_52 
REMARK   24  A    between atoms: C36_52  and  O14_54 
REMARK   25  A    between atoms: C37_55  and  C38_56 
REMARK   26  A    between atoms: C38_56  and  C39_57 
REMARK   27  A    between atoms: C39_57  and  C40_58 
REMARK   28  A    between atoms: C40_58  and  O16_60 
ROOT
HETATM    1  O1  UNL     1     -21.005   4.330   7.683  1.00  0.00    -0.650 OA
HETATM    2  C1  UNL     1     -19.823   4.288   7.323  1.00  0.00     0.139 C 
ENDROOT
BRANCH   2   3
HETATM    3  O2  UNL     1     -19.570   4.270   5.950  1.00  0.00    -0.776 OA
HETATM    4  H1  UNL     1     -20.282   4.038   5.266  1.00  0.00     0.167 HD
ENDBRANCH   2   3
BRANCH   2   5
HETATM    5  C2  UNL     1     -18.691   4.257   8.271  1.00  0.00     0.115 C 
BRANCH   5   6
HETATM    6  C3  UNL     1     -17.913   5.520   8.338  1.00  0.00     0.052 C 
BRANCH   6   7
HETATM    7  C4  UNL     1     -16.523   5.312   7.851  1.00  0.00    -0.020 A 
HETATM    8  C5  UNL     1     -15.452   4.953   8.563  1.00  0.00    -0.011 A 
HETATM    9  C8  UNL     1     -14.306   4.864   7.691  1.00  0.00     0.067 A 
HETATM   10  C9  UNL     1     -12.943   4.557   7.898  1.00  0.00     0.062 C 
HETATM   11  N4  UNL     1     -14.718   5.173   6.466  1.00  0.00    -0.248 NA
HETATM   12  C10 UNL     1     -11.943   4.656   6.933  1.00  0.00     0.041 A 
HETATM   13  N1  UNL     1     -11.705   5.548   5.952  1.00  0.00    -0.355 N 
HETATM   14  C37 UNL     1     -10.975   3.627   6.877  1.00  0.00    -0.022 A 
HETATM   15  C11 UNL     1     -10.625   5.119   5.274  1.00  0.00     0.042 A 
HETATM   16  H10 UNL     1     -12.276   6.487   5.760  1.00  0.00     0.166 HD
HETATM   17  C12 UNL     1      -9.950   5.600   4.150  1.00  0.00     0.062 C 
HETATM   18  C34 UNL     1     -10.158   3.915   5.848  1.00  0.00    -0.013 A 
HETATM   19  C13 UNL     1     -10.568   6.116   2.995  1.00  0.00     0.066 A 
HETATM   20  N2  UNL     1     -11.907   6.151   2.942  1.00  0.00    -0.248 NA
HETATM   21  C30 UNL     1     -10.069   6.671   1.762  1.00  0.00    -0.020 A 
HETATM   22  C14 UNL     1     -12.297   6.686   1.771  1.00  0.00     0.067 A 
HETATM   23  C15 UNL     1     -13.667   6.823   1.512  1.00  0.00     0.062 C 
HETATM   24  C27 UNL     1     -11.111   7.027   0.993  1.00  0.00    -0.011 A 
HETATM   25  C16 UNL     1     -14.724   6.749   2.446  1.00  0.00     0.041 A 
HETATM   26  N3  UNL     1     -14.888   5.945   3.503  1.00  0.00    -0.355 N 
HETATM   27  C23 UNL     1     -15.795   7.670   2.347  1.00  0.00    -0.022 A 
HETATM   28  C17 UNL     1     -16.026   6.300   4.112  1.00  0.00     0.042 A 
HETATM   29  H13 UNL     1     -14.213   5.102   3.812  1.00  0.00     0.166 HD
HETATM   30  C18 UNL     1     -16.654   5.796   5.267  1.00  0.00     0.062 C 
HETATM   31  C20 UNL     1     -16.614   7.376   3.416  1.00  0.00    -0.013 A 
HETATM   32  C19 UNL     1     -16.044   5.454   6.481  1.00  0.00     0.066 A 
BRANCH   8  33
HETATM   33  C6  UNL     1     -15.477   4.688  10.028  1.00  0.00     0.151 C 
BRANCH  33  34
HETATM   34  C7  UNL     1     -14.998   5.834  10.835  1.00  0.00     0.143 C 
HETATM   35  O3  UNL     1     -14.267   5.623  11.822  1.00  0.00    -0.650 OA
BRANCH  34  36
HETATM   36  O4  UNL     1     -15.380   7.103  10.460  1.00  0.00    -0.776 OA
HETATM   37  H8  UNL     1     -15.393   7.335   9.467  1.00  0.00     0.167 HD
ENDBRANCH  34  36
ENDBRANCH  33  34
ENDBRANCH   8  33
BRANCH  31  38
HETATM   38  C21 UNL     1     -17.891   8.114   3.766  1.00  0.00     0.151 C 
BRANCH  38  39
HETATM   39  C22 UNL     1     -19.017   7.289   3.270  1.00  0.00     0.143 C 
HETATM   40  O5  UNL     1     -19.703   6.638   4.087  1.00  0.00    -0.650 OA
BRANCH  39  41
HETATM   41  O6  UNL     1     -19.357   7.201   1.929  1.00  0.00    -0.776 OA
HETATM   42  H17 UNL     1     -20.022   6.493   1.591  1.00  0.00     0.167 HD
ENDBRANCH  39  41
ENDBRANCH  38  39
ENDBRANCH  31  38
BRANCH  27  43
HETATM   43  C24 UNL     1     -16.047   8.742   1.346  1.00  0.00     0.052 C 
BRANCH  43  44
HETATM   44  C25 UNL     1     -16.694   8.227   0.131  1.00  0.00     0.115 C 
BRANCH  44  45
HETATM   45  C26 UNL     1     -17.650   9.067  -0.585  1.00  0.00     0.139 C 
HETATM   46  O7  UNL     1     -17.548   9.674  -1.646  1.00  0.00    -0.650 OA
BRANCH  45  47
HETATM   47  O8  UNL     1     -18.909   9.203   0.064  1.00  0.00    -0.776 OA
HETATM   48  H22 UNL     1     -19.541   8.449   0.174  1.00  0.00     0.167 HD
ENDBRANCH  45  47
ENDBRANCH  44  45
ENDBRANCH  43  44
ENDBRANCH  27  43
BRANCH  24  49
HETATM   49  C28 UNL     1     -11.082   7.650  -0.367  1.00  0.00     0.151 C 
BRANCH  49  50
HETATM   50  C29 UNL     1     -11.322   9.112  -0.286  1.00  0.00     0.143 C 
HETATM   51  O9  UNL     1     -12.503   9.527  -0.295  1.00  0.00    -0.650 OA
BRANCH  50  52
HETATM   52  O10 UNL     1     -10.303  10.043  -0.201  1.00  0.00    -0.776 OA
HETATM   53  H25 UNL     1      -9.457   9.870   0.358  1.00  0.00     0.167 HD
ENDBRANCH  50  52
ENDBRANCH  49  50
ENDBRANCH  24  49
BRANCH  21  54
HETATM   54  C31 UNL     1      -8.641   6.855   1.376  1.00  0.00     0.052 C 
BRANCH  54  55
HETATM   55  C32 UNL     1      -7.747   5.730   1.756  1.00  0.00     0.115 C 
BRANCH  55  56
HETATM   56  C33 UNL     1      -7.429   4.994   0.477  1.00  0.00     0.139 C 
HETATM   57  O11 UNL     1      -8.309   4.325  -0.119  1.00  0.00    -0.650 OA
BRANCH  56  58
HETATM   58  O12 UNL     1      -6.162   5.027  -0.090  1.00  0.00    -0.776 OA
HETATM   59  H30 UNL     1      -6.019   4.395  -0.883  1.00  0.00     0.167 HD
ENDBRANCH  56  58
ENDBRANCH  55  56
ENDBRANCH  54  55
ENDBRANCH  21  54
BRANCH  18  60
HETATM   60  C35 UNL     1      -8.982   3.064   5.473  1.00  0.00     0.151 C 
BRANCH  60  61
HETATM   61  C36 UNL     1      -9.437   2.098   4.470  1.00  0.00     0.143 C 
HETATM   62  O13 UNL     1      -9.298   2.359   3.242  1.00  0.00    -0.650 OA
BRANCH  61  63
HETATM   63  O14 UNL     1     -10.024   0.885   4.806  1.00  0.00    -0.776 OA
HETATM   64  H33 UNL     1     -10.965   0.889   5.162  1.00  0.00     0.167 HD
ENDBRANCH  61  63
ENDBRANCH  60  61
ENDBRANCH  18  60
BRANCH  14  65
HETATM   65  C38 UNL     1     -10.800   2.427   7.762  1.00  0.00     0.052 C 
BRANCH  65  66
HETATM   66  C39 UNL     1     -10.204   2.855   9.071  1.00  0.00     0.115 C 
BRANCH  66  67
HETATM   67  C40 UNL     1      -8.806   2.291   9.161  1.00  0.00     0.139 C 
HETATM   68  O15 UNL     1      -7.994   2.736  10.014  1.00  0.00    -0.650 OA
BRANCH  67  69
HETATM   69  O16 UNL     1      -8.403   1.293   8.318  1.00  0.00    -0.776 OA
HETATM   70  H38 UNL     1      -7.478   1.275   7.922  1.00  0.00     0.167 HD
ENDBRANCH  67  69
ENDBRANCH  66  67
ENDBRANCH  65  66
ENDBRANCH  14  65
ENDBRANCH   6   7
ENDBRANCH   5   6
ENDBRANCH   2   5
TORSDOF 28
ENDMDL
MODEL 14
REMARK VINA RESULT:      -7.0     18.016     20.473
REMARK  28 active torsions:
REMARK  status: ('A' for Active; 'I' for Inactive)
REMARK    1  A    between atoms: C1_2  and  O2_3 
REMARK    2  A    between atoms: C1_2  and  C2_4 
REMARK    3  A    between atoms: C2_4  and  C3_5 
REMARK    4  A    between atoms: C3_5  and  C4_6 
REMARK    5  A    between atoms: C5_7  and  C6_8 
REMARK    6  A    between atoms: C6_8  and  C7_9 
REMARK    7  A    between atoms: C7_9  and  O4_11 
REMARK    8  A    between atoms: C20_28  and  C21_29 
REMARK    9  A    between atoms: C21_29  and  C22_30 
REMARK   10  A    between atoms: C22_30  and  O6_32 
REMARK   11  A    between atoms: C23_33  and  C24_34 
REMARK   12  A    between atoms: C24_34  and  C25_35 
REMARK   13  A    between atoms: C25_35  and  C26_36 
REMARK   14  A    between atoms: C26_36  and  O8_38 
REMARK   15  A    between atoms: C27_39  and  C28_40 
REMARK   16  A    between atoms: C28_40  and  C29_41 
REMARK   17  A    between atoms: C29_41  and  O10_43 
REMARK   18  A    between atoms: C30_44  and  C31_45 
REMARK   19  A    between atoms: C31_45  and  C32_46 
REMARK   20  A    between atoms: C32_46  and  C33_47 
REMARK   21  A    between atoms: C33_47  and  O12_49 
REMARK   22  A    between atoms: C34_50  and  C35_51 
REMARK   23  A    between atoms: C35_51  and  C36_52 
REMARK   24  A    between atoms: C36_52  and  O14_54 
REMARK   25  A    between atoms: C37_55  and  C38_56 
REMARK   26  A    between atoms: C38_56  and  C39_57 
REMARK   27  A    between atoms: C39_57  and  C40_58 
REMARK   28  A    between atoms: C40_58  and  O16_60 
ROOT
HETATM    1  O1  UNL     1     -19.141   6.143   1.061  1.00  0.00    -0.650 OA
HETATM    2  C1  UNL     1     -18.813   6.168   2.254  1.00  0.00     0.139 C 
ENDROOT
BRANCH   2   3
HETATM    3  O2  UNL     1     -18.202   5.026   2.776  1.00  0.00    -0.776 OA
HETATM    4  H1  UNL     1     -18.121   4.162   2.252  1.00  0.00     0.167 HD
ENDBRANCH   2   3
BRANCH   2   5
HETATM    5  C2  UNL     1     -19.037   7.336   3.129  1.00  0.00     0.115 C 
BRANCH   5   6
HETATM    6  C3  UNL     1     -18.264   8.545   2.748  1.00  0.00     0.052 C 
BRANCH   6   7
HETATM    7  C4  UNL     1     -16.833   8.208   2.522  1.00  0.00    -0.020 A 
HETATM    8  C5  UNL     1     -16.163   8.225   1.366  1.00  0.00    -0.011 A 
HETATM    9  C8  UNL     1     -14.795   7.830   1.602  1.00  0.00     0.067 A 
HETATM   10  C9  UNL     1     -13.671   7.654   0.765  1.00  0.00     0.062 C 
HETATM   11  N4  UNL     1     -14.674   7.585   2.903  1.00  0.00    -0.248 NA
HETATM   12  C10 UNL     1     -12.445   7.127   1.168  1.00  0.00     0.041 A 
HETATM   13  N1  UNL     1     -12.111   6.130   2.009  1.00  0.00    -0.355 N 
HETATM   14  C37 UNL     1     -11.270   7.740   0.676  1.00  0.00    -0.022 A 
HETATM   15  C11 UNL     1     -10.767   6.092   2.072  1.00  0.00     0.042 A 
HETATM   16  H10 UNL     1     -12.817   5.440   2.530  1.00  0.00     0.166 HD
HETATM   17  C12 UNL     1      -9.867   5.311   2.800  1.00  0.00     0.062 C 
HETATM   18  C34 UNL     1     -10.231   7.097   1.237  1.00  0.00    -0.013 A 
HETATM   19  C13 UNL     1     -10.019   4.951   4.152  1.00  0.00     0.066 A 
HETATM   20  N2  UNL     1     -11.099   5.386   4.817  1.00  0.00    -0.248 NA
HETATM   21  C30 UNL     1      -9.238   4.155   5.065  1.00  0.00    -0.020 A 
HETATM   22  C14 UNL     1     -11.064   4.927   6.081  1.00  0.00     0.067 A 
HETATM   23  C15 UNL     1     -12.110   5.261   6.952  1.00  0.00     0.062 C 
HETATM   24  C27 UNL     1      -9.858   4.126   6.256  1.00  0.00    -0.011 A 
HETATM   25  C16 UNL     1     -13.376   5.780   6.605  1.00  0.00     0.041 A 
HETATM   26  N3  UNL     1     -13.716   6.677   5.671  1.00  0.00    -0.355 N 
HETATM   27  C23 UNL     1     -14.527   5.291   7.271  1.00  0.00    -0.022 A 
HETATM   28  C17 UNL     1     -15.049   6.798   5.688  1.00  0.00     0.042 A 
HETATM   29  H13 UNL     1     -13.013   7.250   5.009  1.00  0.00     0.166 HD
HETATM   30  C18 UNL     1     -15.917   7.586   4.909  1.00  0.00     0.062 C 
HETATM   31  C20 UNL     1     -15.585   5.944   6.676  1.00  0.00    -0.013 A 
HETATM   32  C19 UNL     1     -15.860   7.792   3.525  1.00  0.00     0.066 A 
BRANCH   8  33
HETATM   33  C6  UNL     1     -16.766   8.603   0.059  1.00  0.00     0.151 C 
BRANCH  33  34
HETATM   34  C7  UNL     1     -16.986  10.061  -0.080  1.00  0.00     0.143 C 
HETATM   35  O3  UNL     1     -16.014  10.837   0.009  1.00  0.00    -0.650 OA
BRANCH  34  36
HETATM   36  O4  UNL     1     -18.269  10.511  -0.303  1.00  0.00    -0.776 OA
HETATM   37  H8  UNL     1     -18.413  11.505  -0.478  1.00  0.00     0.167 HD
ENDBRANCH  34  36
ENDBRANCH  33  34
ENDBRANCH   8  33
BRANCH  31  38
HETATM   38  C21 UNL     1     -17.046   5.735   7.021  1.00  0.00     0.151 C 
BRANCH  38  39
HETATM   39  C22 UNL     1     -17.604   4.818   6.001  1.00  0.00     0.143 C 
HETATM   40  O5  UNL     1     -18.814   4.907   5.698  1.00  0.00    -0.650 OA
BRANCH  39  41
HETATM   41  O6  UNL     1     -16.847   3.854   5.354  1.00  0.00    -0.776 OA
HETATM   42  H17 UNL     1     -16.906   3.722   4.336  1.00  0.00     0.167 HD
ENDBRANCH  39  41
ENDBRANCH  38  39
ENDBRANCH  31  38
BRANCH  27  43
HETATM   43  C24 UNL     1     -14.646   4.297   8.371  1.00  0.00     0.052 C 
BRANCH  43  44
HETATM   44  C25 UNL     1     -14.659   4.933   9.697  1.00  0.00     0.115 C 
BRANCH  44  45
HETATM   45  C26 UNL     1     -15.794   4.711  10.588  1.00  0.00     0.139 C 
HETATM   46  O7  UNL     1     -16.963   4.432  10.345  1.00  0.00    -0.650 OA
BRANCH  45  47
HETATM   47  O8  UNL     1     -15.486   4.844  11.971  1.00  0.00    -0.776 OA
HETATM   48  H22 UNL     1     -14.611   4.583  12.355  1.00  0.00     0.167 HD
ENDBRANCH  45  47
ENDBRANCH  44  45
ENDBRANCH  43  44
ENDBRANCH  27  43
BRANCH  24  49
HETATM   49  C28 UNL     1      -9.425   3.421   7.503  1.00  0.00     0.151 C 
BRANCH  49  50
HETATM   50  C29 UNL     1      -9.880   2.009   7.499  1.00  0.00     0.143 C 
HETATM   51  O9  UNL     1     -11.104   1.773   7.623  1.00  0.00    -0.650 OA
BRANCH  50  52
HETATM   52  O10 UNL     1      -9.019   0.935   7.364  1.00  0.00    -0.776 OA
HETATM   53  H25 UNL     1      -8.890   0.454   6.464  1.00  0.00     0.167 HD
ENDBRANCH  50  52
ENDBRANCH  49  50
ENDBRANCH  24  49
BRANCH  21  54
HETATM   54  C31 UNL     1      -7.960   3.447   4.768  1.00  0.00     0.052 C 
BRANCH  54  55
HETATM   55  C32 UNL     1      -6.736   4.173   5.198  1.00  0.00     0.115 C 
BRANCH  55  56
HETATM   56  C33 UNL     1      -5.960   3.212   6.065  1.00  0.00     0.139 C 
HETATM   57  O11 UNL     1      -4.777   3.460   6.407  1.00  0.00    -0.650 OA
BRANCH  56  58
HETATM   58  O12 UNL     1      -6.517   2.023   6.518  1.00  0.00    -0.776 OA
HETATM   59  H30 UNL     1      -6.553   1.913   7.535  1.00  0.00     0.167 HD
ENDBRANCH  56  58
ENDBRANCH  55  56
ENDBRANCH  54  55
ENDBRANCH  21  54
BRANCH  18  60
HETATM   60  C35 UNL     1      -8.800   7.445   0.948  1.00  0.00     0.151 C 
BRANCH  60  61
HETATM   61  C36 UNL     1      -8.381   6.661  -0.215  1.00  0.00     0.143 C 
HETATM   62  O13 UNL     1      -8.217   5.414  -0.103  1.00  0.00    -0.650 OA
BRANCH  61  63
HETATM   63  O14 UNL     1      -8.152   7.229  -1.462  1.00  0.00    -0.776 OA
HETATM   64  H33 UNL     1      -8.929   7.636  -1.954  1.00  0.00     0.167 HD
ENDBRANCH  61  63
ENDBRANCH  60  61
ENDBRANCH  18  60
BRANCH  14  65
HETATM   65  C38 UNL     1     -11.115   8.871  -0.299  1.00  0.00     0.052 C 
BRANCH  65  66
HETATM   66  C39 UNL     1     -11.487   8.399  -1.674  1.00  0.00     0.115 C 
BRANCH  66  67
HETATM   67  C40 UNL     1     -10.554   9.053  -2.667  1.00  0.00     0.139 C 
HETATM   68  O15 UNL     1      -9.643   9.825  -2.270  1.00  0.00    -0.650 OA
BRANCH  67  69
HETATM   69  O16 UNL     1     -10.685   8.814  -4.006  1.00  0.00    -0.776 OA
HETATM   70  H38 UNL     1      -9.911   8.502  -4.567  1.00  0.00     0.167 HD
ENDBRANCH  67  69
ENDBRANCH  66  67
ENDBRANCH  65  66
ENDBRANCH  14  65
ENDBRANCH   6   7
ENDBRANCH   5   6
ENDBRANCH   2   5
TORSDOF 28
ENDMDL
MODEL 15
REMARK VINA RESULT:      -7.0     18.143     21.749
REMARK  28 active torsions:
REMARK  status: ('A' for Active; 'I' for Inactive)
REMARK    1  A    between atoms: C1_2  and  O2_3 
REMARK    2  A    between atoms: C1_2  and  C2_4 
REMARK    3  A    between atoms: C2_4  and  C3_5 
REMARK    4  A    between atoms: C3_5  and  C4_6 
REMARK    5  A    between atoms: C5_7  and  C6_8 
REMARK    6  A    between atoms: C6_8  and  C7_9 
REMARK    7  A    between atoms: C7_9  and  O4_11 
REMARK    8  A    between atoms: C20_28  and  C21_29 
REMARK    9  A    between atoms: C21_29  and  C22_30 
REMARK   10  A    between atoms: C22_30  and  O6_32 
REMARK   11  A    between atoms: C23_33  and  C24_34 
REMARK   12  A    between atoms: C24_34  and  C25_35 
REMARK   13  A    between atoms: C25_35  and  C26_36 
REMARK   14  A    between atoms: C26_36  and  O8_38 
REMARK   15  A    between atoms: C27_39  and  C28_40 
REMARK   16  A    between atoms: C28_40  and  C29_41 
REMARK   17  A    between atoms: C29_41  and  O10_43 
REMARK   18  A    between atoms: C30_44  and  C31_45 
REMARK   19  A    between atoms: C31_45  and  C32_46 
REMARK   20  A    between atoms: C32_46  and  C33_47 
REMARK   21  A    between atoms: C33_47  and  O12_49 
REMARK   22  A    between atoms: C34_50  and  C35_51 
REMARK   23  A    between atoms: C35_51  and  C36_52 
REMARK   24  A    between atoms: C36_52  and  O14_54 
REMARK   25  A    between atoms: C37_55  and  C38_56 
REMARK   26  A    between atoms: C38_56  and  C39_57 
REMARK   27  A    between atoms: C39_57  and  C40_58 
REMARK   28  A    between atoms: C40_58  and  O16_60 
ROOT
HETATM    1  O1  UNL     1     -17.073  11.893  -1.112  1.00  0.00    -0.650 OA
HETATM    2  C1  UNL     1     -17.224  10.703  -0.811  1.00  0.00     0.139 C 
ENDROOT
BRANCH   2   3
HETATM    3  O2  UNL     1     -18.495  10.151  -0.992  1.00  0.00    -0.776 OA
HETATM    4  H1  UNL     1     -18.884   9.966  -1.910  1.00  0.00     0.167 HD
ENDBRANCH   2   3
BRANCH   2   5
HETATM    5  C2  UNL     1     -16.136   9.860  -0.280  1.00  0.00     0.115 C 
BRANCH   5   6
HETATM    6  C3  UNL     1     -16.463   8.414  -0.199  1.00  0.00     0.052 C 
BRANCH   6   7
HETATM    7  C4  UNL     1     -16.024   7.844   1.103  1.00  0.00    -0.020 A 
HETATM    8  C5  UNL     1     -16.696   7.832   2.257  1.00  0.00    -0.011 A 
HETATM    9  C8  UNL     1     -15.900   7.176   3.267  1.00  0.00     0.067 A 
HETATM   10  C9  UNL     1     -16.093   6.903   4.639  1.00  0.00     0.062 C 
HETATM   11  N4  UNL     1     -14.761   6.804   2.690  1.00  0.00    -0.248 NA
HETATM   12  C10 UNL     1     -15.132   6.367   5.493  1.00  0.00     0.041 A 
HETATM   13  N1  UNL     1     -13.803   6.554   5.607  1.00  0.00    -0.355 N 
HETATM   14  C37 UNL     1     -15.550   5.388   6.424  1.00  0.00    -0.022 A 
HETATM   15  C11 UNL     1     -13.363   5.725   6.571  1.00  0.00     0.042 A 
HETATM   16  H10 UNL     1     -13.188   7.286   5.032  1.00  0.00     0.166 HD
HETATM   17  C12 UNL     1     -12.095   5.452   7.089  1.00  0.00     0.062 C 
HETATM   18  C34 UNL     1     -14.452   4.991   7.091  1.00  0.00    -0.013 A 
HETATM   19  C13 UNL     1     -10.923   5.312   6.323  1.00  0.00     0.066 A 
HETATM   20  N2  UNL     1     -11.004   5.438   4.991  1.00  0.00    -0.248 NA
HETATM   21  C30 UNL     1      -9.542   5.056   6.652  1.00  0.00    -0.020 A 
HETATM   22  C14 UNL     1      -9.782   5.283   4.449  1.00  0.00     0.067 A 
HETATM   23  C15 UNL     1      -9.641   5.385   3.058  1.00  0.00     0.062 C 
HETATM   24  C27 UNL     1      -8.823   5.033   5.518  1.00  0.00    -0.011 A 
HETATM   25  C16 UNL     1     -10.568   5.932   2.144  1.00  0.00     0.041 A 
HETATM   26  N3  UNL     1     -11.904   5.852   2.116  1.00  0.00    -0.355 N 
HETATM   27  C23 UNL     1     -10.093   6.746   1.087  1.00  0.00    -0.022 A 
HETATM   28  C17 UNL     1     -12.334   6.587   1.084  1.00  0.00     0.042 A 
HETATM   29  H13 UNL     1     -12.551   5.253   2.812  1.00  0.00     0.166 HD
HETATM   30  C18 UNL     1     -13.635   6.853   0.617  1.00  0.00     0.062 C 
HETATM   31  C20 UNL     1     -11.228   7.160   0.422  1.00  0.00    -0.013 A 
HETATM   32  C19 UNL     1     -14.761   7.172   1.385  1.00  0.00     0.066 A 
BRANCH   8  33
HETATM   33  C6  UNL     1     -18.056   8.411   2.436  1.00  0.00     0.151 C 
BRANCH  33  34
HETATM   34  C7  UNL     1     -19.121   7.383   2.509  1.00  0.00     0.143 C 
HETATM   35  O3  UNL     1     -19.636   7.115   3.611  1.00  0.00    -0.650 OA
BRANCH  34  36
HETATM   36  O4  UNL     1     -19.505   6.756   1.344  1.00  0.00    -0.776 OA
HETATM   37  H8  UNL     1     -19.901   5.818   1.404  1.00  0.00     0.167 HD
ENDBRANCH  34  36
ENDBRANCH  33  34
ENDBRANCH   8  33
BRANCH  31  38
HETATM   38  C21 UNL     1     -11.248   8.086  -0.777  1.00  0.00     0.151 C 
BRANCH  38  39
HETATM   39  C22 UNL     1     -11.171   9.470  -0.255  1.00  0.00     0.143 C 
HETATM   40  O5  UNL     1     -12.174   9.970   0.299  1.00  0.00    -0.650 OA
BRANCH  39  41
HETATM   41  O6  UNL     1     -10.030  10.252  -0.349  1.00  0.00    -0.776 OA
HETATM   42  H17 UNL     1      -9.731  10.657  -1.245  1.00  0.00     0.167 HD
ENDBRANCH  39  41
ENDBRANCH  38  39
ENDBRANCH  31  38
BRANCH  27  43
HETATM   43  C24 UNL     1      -8.702   7.119   0.716  1.00  0.00     0.052 C 
BRANCH  43  44
HETATM   44  C25 UNL     1      -8.221   6.376  -0.458  1.00  0.00     0.115 C 
BRANCH  44  45
HETATM   45  C26 UNL     1      -7.517   5.111  -0.269  1.00  0.00     0.139 C 
HETATM   46  O7  UNL     1      -6.321   4.867  -0.153  1.00  0.00    -0.650 OA
BRANCH  45  47
HETATM   47  O8  UNL     1      -8.368   3.971  -0.211  1.00  0.00    -0.776 OA
HETATM   48  H22 UNL     1      -9.348   4.025  -0.342  1.00  0.00     0.167 HD
ENDBRANCH  45  47
ENDBRANCH  44  45
ENDBRANCH  43  44
ENDBRANCH  27  43
BRANCH  24  49
HETATM   49  C28 UNL     1      -7.351   4.809   5.366  1.00  0.00     0.151 C 
BRANCH  49  50
HETATM   50  C29 UNL     1      -7.010   3.378   5.560  1.00  0.00     0.143 C 
HETATM   51  O9  UNL     1      -7.727   2.510   5.012  1.00  0.00    -0.650 OA
BRANCH  50  52
HETATM   52  O10 UNL     1      -5.935   2.952   6.319  1.00  0.00    -0.776 OA
HETATM   53  H25 UNL     1      -5.226   2.310   5.941  1.00  0.00     0.167 HD
ENDBRANCH  50  52
ENDBRANCH  49  50
ENDBRANCH  24  49
BRANCH  21  54
HETATM   54  C31 UNL     1      -8.967   4.865   8.014  1.00  0.00     0.052 C 
BRANCH  54  55
HETATM   55  C32 UNL     1      -9.623   3.801   8.819  1.00  0.00     0.115 C 
BRANCH  55  56
HETATM   56  C33 UNL     1      -9.068   2.491   8.317  1.00  0.00     0.139 C 
HETATM   57  O11 UNL     1      -9.765   1.724   7.606  1.00  0.00    -0.650 OA
BRANCH  56  58
HETATM   58  O12 UNL     1      -7.775   2.082   8.615  1.00  0.00    -0.776 OA
HETATM   59  H30 UNL     1      -7.623   1.775   9.580  1.00  0.00     0.167 HD
ENDBRANCH  56  58
ENDBRANCH  55  56
ENDBRANCH  54  55
ENDBRANCH  21  54
BRANCH  18  60
HETATM   60  C35 UNL     1     -14.484   3.966   8.186  1.00  0.00     0.151 C 
BRANCH  60  61
HETATM   61  C36 UNL     1     -14.864   4.652   9.423  1.00  0.00     0.143 C 
HETATM   62  O13 UNL     1     -14.062   5.469   9.957  1.00  0.00    -0.650 OA
BRANCH  61  63
HETATM   63  O14 UNL     1     -16.086   4.449  10.051  1.00  0.00    -0.776 OA
HETATM   64  H33 UNL     1     -16.135   3.780  10.801  1.00  0.00     0.167 HD
ENDBRANCH  61  63
ENDBRANCH  60  61
ENDBRANCH  18  60
BRANCH  14  65
HETATM   65  C38 UNL     1     -16.925   4.852   6.700  1.00  0.00     0.052 C 
BRANCH  65  66
HETATM   66  C39 UNL     1     -17.193   3.680   5.803  1.00  0.00     0.115 C 
BRANCH  66  67
HETATM   67  C40 UNL     1     -17.449   2.470   6.670  1.00  0.00     0.139 C 
HETATM   68  O15 UNL     1     -17.003   1.341   6.334  1.00  0.00    -0.650 OA
BRANCH  67  69
HETATM   69  O16 UNL     1     -18.166   2.583   7.829  1.00  0.00    -0.776 OA
HETATM   70  H38 UNL     1     -19.098   2.215   7.913  1.00  0.00     0.167 HD
ENDBRANCH  67  69
ENDBRANCH  66  67
ENDBRANCH  65  66
ENDBRANCH  14  65
ENDBRANCH   6   7
ENDBRANCH   5   6
ENDBRANCH   2   5
TORSDOF 28
ENDMDL
MODEL 16
REMARK VINA RESULT:      -7.0     17.322     19.822
REMARK  28 active torsions:
REMARK  status: ('A' for Active; 'I' for Inactive)
REMARK    1  A    between atoms: C1_2  and  O2_3 
REMARK    2  A    between atoms: C1_2  and  C2_4 
REMARK    3  A    between atoms: C2_4  and  C3_5 
REMARK    4  A    between atoms: C3_5  and  C4_6 
REMARK    5  A    between atoms: C5_7  and  C6_8 
REMARK    6  A    between atoms: C6_8  and  C7_9 
REMARK    7  A    between atoms: C7_9  and  O4_11 
REMARK    8  A    between atoms: C20_28  and  C21_29 
REMARK    9  A    between atoms: C21_29  and  C22_30 
REMARK   10  A    between atoms: C22_30  and  O6_32 
REMARK   11  A    between atoms: C23_33  and  C24_34 
REMARK   12  A    between atoms: C24_34  and  C25_35 
REMARK   13  A    between atoms: C25_35  and  C26_36 
REMARK   14  A    between atoms: C26_36  and  O8_38 
REMARK   15  A    between atoms: C27_39  and  C28_40 
REMARK   16  A    between atoms: C28_40  and  C29_41 
REMARK   17  A    between atoms: C29_41  and  O10_43 
REMARK   18  A    between atoms: C30_44  and  C31_45 
REMARK   19  A    between atoms: C31_45  and  C32_46 
REMARK   20  A    between atoms: C32_46  and  C33_47 
REMARK   21  A    between atoms: C33_47  and  O12_49 
REMARK   22  A    between atoms: C34_50  and  C35_51 
REMARK   23  A    between atoms: C35_51  and  C36_52 
REMARK   24  A    between atoms: C36_52  and  O14_54 
REMARK   25  A    between atoms: C37_55  and  C38_56 
REMARK   26  A    between atoms: C38_56  and  C39_57 
REMARK   27  A    between atoms: C39_57  and  C40_58 
REMARK   28  A    between atoms: C40_58  and  O16_60 
ROOT
HETATM    1  O1  UNL     1     -18.915  11.521   1.660  1.00  0.00    -0.650 OA
HETATM    2  C1  UNL     1     -19.372  10.394   1.434  1.00  0.00     0.139 C 
ENDROOT
BRANCH   2   3
HETATM    3  O2  UNL     1     -20.158  10.237   0.290  1.00  0.00    -0.776 OA
HETATM    4  H1  UNL     1     -19.773  10.279  -0.647  1.00  0.00     0.167 HD
ENDBRANCH   2   3
BRANCH   2   5
HETATM    5  C2  UNL     1     -19.122   9.231   2.308  1.00  0.00     0.115 C 
BRANCH   5   6
HETATM    6  C3  UNL     1     -18.694   8.004   1.590  1.00  0.00     0.052 C 
BRANCH   6   7
HETATM    7  C4  UNL     1     -17.217   7.839   1.660  1.00  0.00    -0.020 A 
HETATM    8  C5  UNL     1     -16.339   7.905   0.655  1.00  0.00    -0.011 A 
HETATM    9  C8  UNL     1     -15.008   7.688   1.169  1.00  0.00     0.067 A 
HETATM   10  C9  UNL     1     -13.729   7.628   0.574  1.00  0.00     0.062 C 
HETATM   11  N4  UNL     1     -15.118   7.495   2.480  1.00  0.00    -0.248 NA
HETATM   12  C10 UNL     1     -12.555   7.266   1.231  1.00  0.00     0.041 A 
HETATM   13  N1  UNL     1     -12.280   6.341   2.169  1.00  0.00    -0.355 N 
HETATM   14  C37 UNL     1     -11.384   8.005   0.943  1.00  0.00    -0.022 A 
HETATM   15  C11 UNL     1     -10.979   6.470   2.491  1.00  0.00     0.042 A 
HETATM   16  H10 UNL     1     -12.991   5.584   2.579  1.00  0.00     0.166 HD
HETATM   17  C12 UNL     1     -10.157   5.825   3.417  1.00  0.00     0.062 C 
HETATM   18  C34 UNL     1     -10.408   7.510   1.725  1.00  0.00    -0.013 A 
HETATM   19  C13 UNL     1     -10.530   5.486   4.731  1.00  0.00     0.066 A 
HETATM   20  N2  UNL     1     -11.762   5.803   5.154  1.00  0.00    -0.248 NA
HETATM   21  C30 UNL     1      -9.857   4.816   5.816  1.00  0.00    -0.020 A 
HETATM   22  C14 UNL     1     -11.924   5.386   6.422  1.00  0.00     0.067 A 
HETATM   23  C15 UNL     1     -13.152   5.614   7.058  1.00  0.00     0.062 C 
HETATM   24  C27 UNL     1     -10.692   4.744   6.866  1.00  0.00    -0.011 A 
HETATM   25  C16 UNL     1     -14.376   5.964   6.448  1.00  0.00     0.041 A 
HETATM   26  N3  UNL     1     -14.626   6.787   5.422  1.00  0.00    -0.355 N 
HETATM   27  C23 UNL     1     -15.572   5.357   6.905  1.00  0.00    -0.022 A 
HETATM   28  C17 UNL     1     -15.941   6.744   5.177  1.00  0.00     0.042 A 
HETATM   29  H13 UNL     1     -13.878   7.424   4.880  1.00  0.00     0.166 HD
HETATM   30  C18 UNL     1     -16.724   7.399   4.207  1.00  0.00     0.062 C 
HETATM   31  C20 UNL     1     -16.559   5.858   6.085  1.00  0.00    -0.013 A 
HETATM   32  C19 UNL     1     -16.420   7.572   2.851  1.00  0.00     0.066 A 
BRANCH   8  33
HETATM   33  C6  UNL     1     -16.713   8.172  -0.761  1.00  0.00     0.151 C 
BRANCH  33  34
HETATM   34  C7  UNL     1     -16.972   9.604  -1.035  1.00  0.00     0.143 C 
HETATM   35  O3  UNL     1     -16.230  10.467  -0.526  1.00  0.00    -0.650 OA
BRANCH  34  36
HETATM   36  O4  UNL     1     -18.033   9.933  -1.849  1.00  0.00    -0.776 OA
HETATM   37  H8  UNL     1     -18.768  10.531  -1.474  1.00  0.00     0.167 HD
ENDBRANCH  34  36
ENDBRANCH  33  34
ENDBRANCH   8  33
BRANCH  31  38
HETATM   38  C21 UNL     1     -18.026   5.482   6.154  1.00  0.00     0.151 C 
BRANCH  38  39
HETATM   39  C22 UNL     1     -18.178   4.200   5.427  1.00  0.00     0.143 C 
HETATM   40  O5  UNL     1     -18.198   4.207   4.177  1.00  0.00    -0.650 OA
BRANCH  39  41
HETATM   41  O6  UNL     1     -18.299   2.977   6.067  1.00  0.00    -0.776 OA
HETATM   42  H17 UNL     1     -18.941   2.849   6.859  1.00  0.00     0.167 HD
ENDBRANCH  39  41
ENDBRANCH  38  39
ENDBRANCH  31  38
BRANCH  27  43
HETATM   43  C24 UNL     1     -15.790   4.386   8.011  1.00  0.00     0.052 C 
BRANCH  43  44
HETATM   44  C25 UNL     1     -16.346   5.026   9.211  1.00  0.00     0.115 C 
BRANCH  44  45
HETATM   45  C26 UNL     1     -17.598   4.530   9.775  1.00  0.00     0.139 C 
HETATM   46  O7  UNL     1     -18.234   4.891  10.760  1.00  0.00    -0.650 OA
BRANCH  45  47
HETATM   47  O8  UNL     1     -18.173   3.442   9.058  1.00  0.00    -0.776 OA
HETATM   48  H22 UNL     1     -17.631   2.715   8.660  1.00  0.00     0.167 HD
ENDBRANCH  45  47
ENDBRANCH  44  45
ENDBRANCH  43  44
ENDBRANCH  27  43
BRANCH  24  49
HETATM   49  C28 UNL     1     -10.435   4.131   8.207  1.00  0.00     0.151 C 
BRANCH  49  50
HETATM   50  C29 UNL     1     -10.954   2.743   8.264  1.00  0.00     0.143 C 
HETATM   51  O9  UNL     1     -10.135   1.796   8.264  1.00  0.00    -0.650 OA
BRANCH  50  52
HETATM   52  O10 UNL     1     -12.302   2.440   8.317  1.00  0.00    -0.776 OA
HETATM   53  H25 UNL     1     -12.839   2.513   9.191  1.00  0.00     0.167 HD
ENDBRANCH  50  52
ENDBRANCH  49  50
ENDBRANCH  24  49
BRANCH  21  54
HETATM   54  C31 UNL     1      -8.473   4.263   5.806  1.00  0.00     0.052 C 
BRANCH  54  55
HETATM   55  C32 UNL     1      -8.221   3.244   4.752  1.00  0.00     0.115 C 
BRANCH  55  56
HETATM   56  C33 UNL     1      -8.873   1.971   5.233  1.00  0.00     0.139 C 
HETATM   57  O11 UNL     1      -9.927   1.544   4.699  1.00  0.00    -0.650 OA
BRANCH  56  58
HETATM   58  O12 UNL     1      -8.341   1.226   6.276  1.00  0.00    -0.776 OA
HETATM   59  H30 UNL     1      -8.829   0.351   6.485  1.00  0.00     0.167 HD
ENDBRANCH  56  58
ENDBRANCH  55  56
ENDBRANCH  54  55
ENDBRANCH  21  54
BRANCH  18  60
HETATM   60  C35 UNL     1      -8.998   8.022   1.699  1.00  0.00     0.151 C 
BRANCH  60  61
HETATM   61  C36 UNL     1      -8.162   6.984   1.093  1.00  0.00     0.143 C 
HETATM   62  O13 UNL     1      -7.094   6.627   1.666  1.00  0.00    -0.650 OA
BRANCH  61  63
HETATM   63  O14 UNL     1      -8.490   6.357  -0.102  1.00  0.00    -0.776 OA
HETATM   64  H33 UNL     1      -9.441   6.408  -0.426  1.00  0.00     0.167 HD
ENDBRANCH  61  63
ENDBRANCH  60  61
ENDBRANCH  18  60
BRANCH  14  65
HETATM   65  C38 UNL     1     -11.171   9.119  -0.040  1.00  0.00     0.052 C 
BRANCH  65  66
HETATM   66  C39 UNL     1     -11.031   8.548  -1.421  1.00  0.00     0.115 C 
BRANCH  66  67
HETATM   67  C40 UNL     1      -9.749   9.073  -2.022  1.00  0.00     0.139 C 
HETATM   68  O15 UNL     1      -9.664  10.274  -2.390  1.00  0.00    -0.650 OA
BRANCH  67  69
HETATM   69  O16 UNL     1      -8.665   8.253  -2.175  1.00  0.00    -0.776 OA
HETATM   70  H38 UNL     1      -8.552   7.672  -2.989  1.00  0.00     0.167 HD
ENDBRANCH  67  69
ENDBRANCH  66  67
ENDBRANCH  65  66
ENDBRANCH  14  65
ENDBRANCH   6   7
ENDBRANCH   5   6
ENDBRANCH   2   5
TORSDOF 28
ENDMDL
MODEL 17
REMARK VINA RESULT:      -7.0     26.657     29.929
REMARK  28 active torsions:
REMARK  status: ('A' for Active; 'I' for Inactive)
REMARK    1  A    between atoms: C1_2  and  O2_3 
REMARK    2  A    between atoms: C1_2  and  C2_4 
REMARK    3  A    between atoms: C2_4  and  C3_5 
REMARK    4  A    between atoms: C3_5  and  C4_6 
REMARK    5  A    between atoms: C5_7  and  C6_8 
REMARK    6  A    between atoms: C6_8  and  C7_9 
REMARK    7  A    between atoms: C7_9  and  O4_11 
REMARK    8  A    between atoms: C20_28  and  C21_29 
REMARK    9  A    between atoms: C21_29  and  C22_30 
REMARK   10  A    between atoms: C22_30  and  O6_32 
REMARK   11  A    between atoms: C23_33  and  C24_34 
REMARK   12  A    between atoms: C24_34  and  C25_35 
REMARK   13  A    between atoms: C25_35  and  C26_36 
REMARK   14  A    between atoms: C26_36  and  O8_38 
REMARK   15  A    between atoms: C27_39  and  C28_40 
REMARK   16  A    between atoms: C28_40  and  C29_41 
REMARK   17  A    between atoms: C29_41  and  O10_43 
REMARK   18  A    between atoms: C30_44  and  C31_45 
REMARK   19  A    between atoms: C31_45  and  C32_46 
REMARK   20  A    between atoms: C32_46  and  C33_47 
REMARK   21  A    between atoms: C33_47  and  O12_49 
REMARK   22  A    between atoms: C34_50  and  C35_51 
REMARK   23  A    between atoms: C35_51  and  C36_52 
REMARK   24  A    between atoms: C36_52  and  O14_54 
REMARK   25  A    between atoms: C37_55  and  C38_56 
REMARK   26  A    between atoms: C38_56  and  C39_57 
REMARK   27  A    between atoms: C39_57  and  C40_58 
REMARK   28  A    between atoms: C40_58  and  O16_60 
ROOT
HETATM    1  O1  UNL     1      -1.247   7.038  11.878  1.00  0.00    -0.650 OA
HETATM    2  C1  UNL     1      -0.399   6.149  11.740  1.00  0.00     0.139 C 
ENDROOT
BRANCH   2   3
HETATM    3  O2  UNL     1      -0.119   5.349  12.851  1.00  0.00    -0.776 OA
HETATM    4  H1  UNL     1      -0.776   5.225  13.613  1.00  0.00     0.167 HD
ENDBRANCH   2   3
BRANCH   2   5
HETATM    5  C2  UNL     1       0.314   5.903  10.471  1.00  0.00     0.115 C 
BRANCH   5   6
HETATM    6  C3  UNL     1       0.204   4.512   9.964  1.00  0.00     0.052 C 
BRANCH   6   7
HETATM    7  C4  UNL     1      -1.188   4.216   9.531  1.00  0.00    -0.020 A 
HETATM    8  C5  UNL     1      -2.025   3.305  10.035  1.00  0.00    -0.011 A 
HETATM    9  C8  UNL     1      -3.276   3.357   9.318  1.00  0.00     0.067 A 
HETATM   10  C9  UNL     1      -4.482   2.628   9.405  1.00  0.00     0.062 C 
HETATM   11  N4  UNL     1      -3.162   4.306   8.395  1.00  0.00    -0.248 NA
HETATM   12  C10 UNL     1      -5.551   2.737   8.518  1.00  0.00     0.041 A 
HETATM   13  N1  UNL     1      -5.618   2.898   7.183  1.00  0.00    -0.355 N 
HETATM   14  C37 UNL     1      -6.858   2.735   9.057  1.00  0.00    -0.022 A 
HETATM   15  C11 UNL     1      -6.920   3.004   6.856  1.00  0.00     0.042 A 
HETATM   16  H10 UNL     1      -4.756   2.907   6.474  1.00  0.00     0.166 HD
HETATM   17  C12 UNL     1      -7.586   3.223   5.649  1.00  0.00     0.062 C 
HETATM   18  C34 UNL     1      -7.706   2.901   8.026  1.00  0.00    -0.013 A 
HETATM   19  C13 UNL     1      -7.182   4.136   4.657  1.00  0.00     0.066 A 
HETATM   20  N2  UNL     1      -6.079   4.869   4.866  1.00  0.00    -0.248 NA
HETATM   21  C30 UNL     1      -7.702   4.493   3.360  1.00  0.00    -0.020 A 
HETATM   22  C14 UNL     1      -5.858   5.663   3.803  1.00  0.00     0.067 A 
HETATM   23  C15 UNL     1      -4.744   6.513   3.813  1.00  0.00     0.062 C 
HETATM   24  C27 UNL     1      -6.907   5.429   2.817  1.00  0.00    -0.011 A 
HETATM   25  C16 UNL     1      -3.626   6.443   4.672  1.00  0.00     0.041 A 
HETATM   26  N3  UNL     1      -3.554   6.149   5.976  1.00  0.00    -0.355 N 
HETATM   27  C23 UNL     1      -2.332   6.660   4.136  1.00  0.00    -0.022 A 
HETATM   28  C17 UNL     1      -2.262   6.156   6.324  1.00  0.00     0.042 A 
HETATM   29  H13 UNL     1      -4.420   5.958   6.665  1.00  0.00     0.166 HD
HETATM   30  C18 UNL     1      -1.636   5.901   7.559  1.00  0.00     0.062 C 
HETATM   31  C20 UNL     1      -1.474   6.470   5.198  1.00  0.00    -0.013 A 
HETATM   32  C19 UNL     1      -1.932   4.871   8.461  1.00  0.00     0.066 A 
BRANCH   8  33
HETATM   33  C6  UNL     1      -1.685   2.398  11.166  1.00  0.00     0.151 C 
BRANCH  33  34
HETATM   34  C7  UNL     1      -0.909   1.208  10.744  1.00  0.00     0.143 C 
HETATM   35  O3  UNL     1       0.292   1.119  11.063  1.00  0.00    -0.650 OA
BRANCH  34  36
HETATM   36  O4  UNL     1      -1.551   0.237  10.009  1.00  0.00    -0.776 OA
HETATM   37  H8  UNL     1      -2.080  -0.481  10.505  1.00  0.00     0.167 HD
ENDBRANCH  34  36
ENDBRANCH  33  34
ENDBRANCH   8  33
BRANCH  31  38
HETATM   38  C21 UNL     1       0.038   6.560   5.125  1.00  0.00     0.151 C 
BRANCH  38  39
HETATM   39  C22 UNL     1       0.397   7.981   5.339  1.00  0.00     0.143 C 
HETATM   40  O5  UNL     1       0.660   8.699   4.350  1.00  0.00    -0.650 OA
BRANCH  39  41
HETATM   41  O6  UNL     1       0.457   8.566   6.594  1.00  0.00    -0.776 OA
HETATM   42  H17 UNL     1       0.039   9.488   6.775  1.00  0.00     0.167 HD
ENDBRANCH  39  41
ENDBRANCH  38  39
ENDBRANCH  31  38
BRANCH  27  43
HETATM   43  C24 UNL     1      -1.916   7.012   2.752  1.00  0.00     0.052 C 
BRANCH  43  44
HETATM   44  C25 UNL     1      -1.136   5.941   2.116  1.00  0.00     0.115 C 
BRANCH  44  45
HETATM   45  C26 UNL     1      -1.830   4.799   1.527  1.00  0.00     0.139 C 
HETATM   46  O7  UNL     1      -2.942   4.332   1.753  1.00  0.00    -0.650 OA
BRANCH  45  47
HETATM   47  O8  UNL     1      -1.086   4.116   0.524  1.00  0.00    -0.776 OA
HETATM   48  H22 UNL     1      -0.097   4.073   0.525  1.00  0.00     0.167 HD
ENDBRANCH  45  47
ENDBRANCH  44  45
ENDBRANCH  43  44
ENDBRANCH  27  43
BRANCH  24  49
HETATM   49  C28 UNL     1      -7.047   6.095   1.484  1.00  0.00     0.151 C 
BRANCH  49  50
HETATM   50  C29 UNL     1      -6.569   5.207   0.395  1.00  0.00     0.143 C 
HETATM   51  O9  UNL     1      -7.393   4.810  -0.459  1.00  0.00    -0.650 OA
BRANCH  50  52
HETATM   52  O10 UNL     1      -5.254   4.795   0.277  1.00  0.00    -0.776 OA
HETATM   53  H25 UNL     1      -5.012   3.833   0.003  1.00  0.00     0.167 HD
ENDBRANCH  50  52
ENDBRANCH  49  50
ENDBRANCH  24  49
BRANCH  21  54
HETATM   54  C31 UNL     1      -8.906   3.924   2.691  1.00  0.00     0.052 C 
BRANCH  54  55
HETATM   55  C32 UNL     1     -10.145   4.729   2.855  1.00  0.00     0.115 C 
BRANCH  55  56
HETATM   56  C33 UNL     1     -10.646   5.020   1.462  1.00  0.00     0.139 C 
HETATM   57  O11 UNL     1     -11.641   5.764   1.275  1.00  0.00    -0.650 OA
BRANCH  56  58
HETATM   58  O12 UNL     1     -10.033   4.482   0.338  1.00  0.00    -0.776 OA
HETATM   59  H30 UNL     1      -9.246   3.854   0.525  1.00  0.00     0.167 HD
ENDBRANCH  56  58
ENDBRANCH  55  56
ENDBRANCH  54  55
ENDBRANCH  21  54
BRANCH  18  60
HETATM   60  C35 UNL     1      -9.197   2.935   8.187  1.00  0.00     0.151 C 
BRANCH  60  61
HETATM   61  C36 UNL     1      -9.739   1.742   7.533  1.00  0.00     0.143 C 
HETATM   62  O13 UNL     1     -10.871   1.795   6.975  1.00  0.00    -0.650 OA
BRANCH  61  63
HETATM   63  O14 UNL     1      -9.060   0.532   7.493  1.00  0.00    -0.776 OA
HETATM   64  H33 UNL     1      -8.095   0.532   7.205  1.00  0.00     0.167 HD
ENDBRANCH  61  63
ENDBRANCH  60  61
ENDBRANCH  18  60
BRANCH  14  65
HETATM   65  C38 UNL     1      -7.309   2.565  10.479  1.00  0.00     0.052 C 
BRANCH  65  66
HETATM   66  C39 UNL     1      -7.489   1.105  10.774  1.00  0.00     0.115 C 
BRANCH  66  67
HETATM   67  C40 UNL     1      -7.287   0.894  12.256  1.00  0.00     0.139 C 
HETATM   68  O15 UNL     1      -8.133   0.247  12.928  1.00  0.00    -0.650 OA
BRANCH  67  69
HETATM   69  O16 UNL     1      -6.185   1.401  12.887  1.00  0.00    -0.776 OA
HETATM   70  H38 UNL     1      -5.322   0.888  12.941  1.00  0.00     0.167 HD
ENDBRANCH  67  69
ENDBRANCH  66  67
ENDBRANCH  65  66
ENDBRANCH  14  65
ENDBRANCH   6   7
ENDBRANCH   5   6
ENDBRANCH   2   5
TORSDOF 28
ENDMDL
MODEL 18
REMARK VINA RESULT:      -7.0     19.834     22.312
REMARK  28 active torsions:
REMARK  status: ('A' for Active; 'I' for Inactive)
REMARK    1  A    between atoms: C1_2  and  O2_3 
REMARK    2  A    between atoms: C1_2  and  C2_4 
REMARK    3  A    between atoms: C2_4  and  C3_5 
REMARK    4  A    between atoms: C3_5  and  C4_6 
REMARK    5  A    between atoms: C5_7  and  C6_8 
REMARK    6  A    between atoms: C6_8  and  C7_9 
REMARK    7  A    between atoms: C7_9  and  O4_11 
REMARK    8  A    between atoms: C20_28  and  C21_29 
REMARK    9  A    between atoms: C21_29  and  C22_30 
REMARK   10  A    between atoms: C22_30  and  O6_32 
REMARK   11  A    between atoms: C23_33  and  C24_34 
REMARK   12  A    between atoms: C24_34  and  C25_35 
REMARK   13  A    between atoms: C25_35  and  C26_36 
REMARK   14  A    between atoms: C26_36  and  O8_38 
REMARK   15  A    between atoms: C27_39  and  C28_40 
REMARK   16  A    between atoms: C28_40  and  C29_41 
REMARK   17  A    between atoms: C29_41  and  O10_43 
REMARK   18  A    between atoms: C30_44  and  C31_45 
REMARK   19  A    between atoms: C31_45  and  C32_46 
REMARK   20  A    between atoms: C32_46  and  C33_47 
REMARK   21  A    between atoms: C33_47  and  O12_49 
REMARK   22  A    between atoms: C34_50  and  C35_51 
REMARK   23  A    between atoms: C35_51  and  C36_52 
REMARK   24  A    between atoms: C36_52  and  O14_54 
REMARK   25  A    between atoms: C37_55  and  C38_56 
REMARK   26  A    between atoms: C38_56  and  C39_57 
REMARK   27  A    between atoms: C39_57  and  C40_58 
REMARK   28  A    between atoms: C40_58  and  O16_60 
ROOT
HETATM    1  O1  UNL     1     -19.595   7.325   3.701  1.00  0.00    -0.650 OA
HETATM    2  C1  UNL     1     -18.599   6.639   3.960  1.00  0.00     0.139 C 
ENDROOT
BRANCH   2   3
HETATM    3  O2  UNL     1     -18.556   6.016   5.210  1.00  0.00    -0.776 OA
HETATM    4  H1  UNL     1     -18.800   6.497   6.068  1.00  0.00     0.167 HD
ENDBRANCH   2   3
BRANCH   2   5
HETATM    5  C2  UNL     1     -17.478   6.455   3.018  1.00  0.00     0.115 C 
BRANCH   5   6
HETATM    6  C3  UNL     1     -16.633   7.660   2.827  1.00  0.00     0.052 C 
BRANCH   6   7
HETATM    7  C4  UNL     1     -15.202   7.284   2.667  1.00  0.00    -0.020 A 
HETATM    8  C5  UNL     1     -14.551   7.012   1.533  1.00  0.00    -0.011 A 
HETATM    9  C8  UNL     1     -13.176   6.695   1.837  1.00  0.00     0.067 A 
HETATM   10  C9  UNL     1     -12.064   6.319   1.052  1.00  0.00     0.062 C 
HETATM   11  N4  UNL     1     -13.032   6.788   3.155  1.00  0.00    -0.248 NA
HETATM   12  C10 UNL     1     -10.828   5.917   1.552  1.00  0.00     0.041 A 
HETATM   13  N1  UNL     1     -10.471   5.166   2.611  1.00  0.00    -0.355 N 
HETATM   14  C37 UNL     1      -9.666   6.392   0.901  1.00  0.00    -0.022 A 
HETATM   15  C11 UNL     1      -9.126   5.152   2.658  1.00  0.00     0.042 A 
HETATM   16  H10 UNL     1     -11.162   4.626   3.302  1.00  0.00     0.166 HD
HETATM   17  C12 UNL     1      -8.207   4.584   3.544  1.00  0.00     0.062 C 
HETATM   18  C34 UNL     1      -8.612   5.916   1.587  1.00  0.00    -0.013 A 
HETATM   19  C13 UNL     1      -8.335   4.576   4.945  1.00  0.00     0.066 A 
HETATM   20  N2  UNL     1      -9.408   5.160   5.498  1.00  0.00    -0.248 NA
HETATM   21  C30 UNL     1      -7.531   4.039   6.016  1.00  0.00    -0.020 A 
HETATM   22  C14 UNL     1      -9.348   5.034   6.836  1.00  0.00     0.067 A 
HETATM   23  C15 UNL     1     -10.383   5.572   7.613  1.00  0.00     0.062 C 
HETATM   24  C27 UNL     1      -8.132   4.309   7.186  1.00  0.00    -0.011 A 
HETATM   25  C16 UNL     1     -11.660   5.981   7.169  1.00  0.00     0.041 A 
HETATM   26  N3  UNL     1     -12.022   6.612   6.045  1.00  0.00    -0.355 N 
HETATM   27  C23 UNL     1     -12.795   5.671   7.957  1.00  0.00    -0.022 A 
HETATM   28  C17 UNL     1     -13.356   6.726   6.055  1.00  0.00     0.042 A 
HETATM   29  H13 UNL     1     -11.335   7.003   5.248  1.00  0.00     0.166 HD
HETATM   30  C18 UNL     1     -14.243   7.289   5.118  1.00  0.00     0.062 C 
HETATM   31  C20 UNL     1     -13.868   6.147   7.235  1.00  0.00    -0.013 A 
HETATM   32  C19 UNL     1     -14.210   7.139   3.726  1.00  0.00     0.066 A 
BRANCH   8  33
HETATM   33  C6  UNL     1     -15.178   7.045   0.184  1.00  0.00     0.151 C 
BRANCH  33  34
HETATM   34  C7  UNL     1     -15.306   8.415  -0.365  1.00  0.00     0.143 C 
HETATM   35  O3  UNL     1     -16.414   8.806  -0.781  1.00  0.00    -0.650 OA
BRANCH  34  36
HETATM   36  O4  UNL     1     -14.184   9.214  -0.395  1.00  0.00    -0.776 OA
HETATM   37  H8  UNL     1     -14.239  10.113  -0.872  1.00  0.00     0.167 HD
ENDBRANCH  34  36
ENDBRANCH  33  34
ENDBRANCH   8  33
BRANCH  31  38
HETATM   38  C21 UNL     1     -15.321   6.026   7.648  1.00  0.00     0.151 C 
BRANCH  38  39
HETATM   39  C22 UNL     1     -15.834   4.766   7.060  1.00  0.00     0.143 C 
HETATM   40  O5  UNL     1     -16.090   3.802   7.812  1.00  0.00    -0.650 OA
BRANCH  39  41
HETATM   41  O6  UNL     1     -16.048   4.598   5.700  1.00  0.00    -0.776 OA
HETATM   42  H17 UNL     1     -16.988   4.420   5.325  1.00  0.00     0.167 HD
ENDBRANCH  39  41
ENDBRANCH  38  39
ENDBRANCH  31  38
BRANCH  27  43
HETATM   43  C24 UNL     1     -12.887   4.986   9.274  1.00  0.00     0.052 C 
BRANCH  43  44
HETATM   44  C25 UNL     1     -12.987   3.526   9.137  1.00  0.00     0.115 C 
BRANCH  44  45
HETATM   45  C26 UNL     1     -11.789   2.749   8.831  1.00  0.00     0.139 C 
HETATM   46  O7  UNL     1     -11.488   2.096   7.838  1.00  0.00    -0.650 OA
BRANCH  45  47
HETATM   47  O8  UNL     1     -10.809   2.753   9.864  1.00  0.00    -0.776 OA
HETATM   48  H22 UNL     1     -10.863   3.348  10.653  1.00  0.00     0.167 HD
ENDBRANCH  45  47
ENDBRANCH  44  45
ENDBRANCH  43  44
ENDBRANCH  27  43
BRANCH  24  49
HETATM   49  C28 UNL     1      -7.673   3.943   8.563  1.00  0.00     0.151 C 
BRANCH  49  50
HETATM   50  C29 UNL     1      -7.568   2.471   8.713  1.00  0.00     0.143 C 
HETATM   51  O9  UNL     1      -6.557   1.996   9.278  1.00  0.00    -0.650 OA
BRANCH  50  52
HETATM   52  O10 UNL     1      -8.535   1.592   8.258  1.00  0.00    -0.776 OA
HETATM   53  H25 UNL     1      -8.447   0.576   8.390  1.00  0.00     0.167 HD
ENDBRANCH  50  52
ENDBRANCH  49  50
ENDBRANCH  24  49
BRANCH  21  54
HETATM   54  C31 UNL     1      -6.252   3.286   5.884  1.00  0.00     0.052 C 
BRANCH  54  55
HETATM   55  C32 UNL     1      -5.027   4.119   6.007  1.00  0.00     0.115 C 
BRANCH  55  56
HETATM   56  C33 UNL     1      -4.014   3.272   6.737  1.00  0.00     0.139 C 
HETATM   57  O11 UNL     1      -2.824   3.654   6.865  1.00  0.00    -0.650 OA
BRANCH  56  58
HETATM   58  O12 UNL     1      -4.352   2.045   7.294  1.00  0.00    -0.776 OA
HETATM   59  H30 UNL     1      -4.697   1.344   6.633  1.00  0.00     0.167 HD
ENDBRANCH  56  58
ENDBRANCH  55  56
ENDBRANCH  54  55
ENDBRANCH  21  54
BRANCH  18  60
HETATM   60  C35 UNL     1      -7.189   6.186   1.195  1.00  0.00     0.151 C 
BRANCH  60  61
HETATM   61  C36 UNL     1      -6.766   5.109   0.298  1.00  0.00     0.143 C 
HETATM   62  O13 UNL     1      -5.539   4.828   0.194  1.00  0.00    -0.650 OA
BRANCH  61  63
HETATM   63  O14 UNL     1      -7.662   4.364  -0.457  1.00  0.00    -0.776 OA
HETATM   64  H33 UNL     1      -8.516   4.801  -0.759  1.00  0.00     0.167 HD
ENDBRANCH  61  63
ENDBRANCH  60  61
ENDBRANCH  18  60
BRANCH  14  65
HETATM   65  C38 UNL     1      -9.537   7.241  -0.331  1.00  0.00     0.052 C 
BRANCH  65  66
HETATM   66  C39 UNL     1      -9.299   8.667   0.070  1.00  0.00     0.115 C 
BRANCH  66  67
HETATM   67  C40 UNL     1     -10.133   9.554  -0.826  1.00  0.00     0.139 C 
HETATM   68  O15 UNL     1     -11.300   9.212  -1.151  1.00  0.00    -0.650 OA
BRANCH  67  69
HETATM   69  O16 UNL     1      -9.633  10.737  -1.294  1.00  0.00    -0.776 OA
HETATM   70  H38 UNL     1      -8.648  10.944  -1.266  1.00  0.00     0.167 HD
ENDBRANCH  67  69
ENDBRANCH  66  67
ENDBRANCH  65  66
ENDBRANCH  14  65
ENDBRANCH   6   7
ENDBRANCH   5   6
ENDBRANCH   2   5
TORSDOF 28
ENDMDL
MODEL 19
REMARK VINA RESULT:      -7.0     19.589     22.893
REMARK  28 active torsions:
REMARK  status: ('A' for Active; 'I' for Inactive)
REMARK    1  A    between atoms: C1_2  and  O2_3 
REMARK    2  A    between atoms: C1_2  and  C2_4 
REMARK    3  A    between atoms: C2_4  and  C3_5 
REMARK    4  A    between atoms: C3_5  and  C4_6 
REMARK    5  A    between atoms: C5_7  and  C6_8 
REMARK    6  A    between atoms: C6_8  and  C7_9 
REMARK    7  A    between atoms: C7_9  and  O4_11 
REMARK    8  A    between atoms: C20_28  and  C21_29 
REMARK    9  A    between atoms: C21_29  and  C22_30 
REMARK   10  A    between atoms: C22_30  and  O6_32 
REMARK   11  A    between atoms: C23_33  and  C24_34 
REMARK   12  A    between atoms: C24_34  and  C25_35 
REMARK   13  A    between atoms: C25_35  and  C26_36 
REMARK   14  A    between atoms: C26_36  and  O8_38 
REMARK   15  A    between atoms: C27_39  and  C28_40 
REMARK   16  A    between atoms: C28_40  and  C29_41 
REMARK   17  A    between atoms: C29_41  and  O10_43 
REMARK   18  A    between atoms: C30_44  and  C31_45 
REMARK   19  A    between atoms: C31_45  and  C32_46 
REMARK   20  A    between atoms: C32_46  and  C33_47 
REMARK   21  A    between atoms: C33_47  and  O12_49 
REMARK   22  A    between atoms: C34_50  and  C35_51 
REMARK   23  A    between atoms: C35_51  and  C36_52 
REMARK   24  A    between atoms: C36_52  and  O14_54 
REMARK   25  A    between atoms: C37_55  and  C38_56 
REMARK   26  A    between atoms: C38_56  and  C39_57 
REMARK   27  A    between atoms: C39_57  and  C40_58 
REMARK   28  A    between atoms: C40_58  and  O16_60 
ROOT
HETATM    1  O1  UNL     1     -10.312  10.876  -0.027  1.00  0.00    -0.650 OA
HETATM    2  C1  UNL     1      -9.439  10.083  -0.401  1.00  0.00     0.139 C 
ENDROOT
BRANCH   2   3
HETATM    3  O2  UNL     1      -8.192  10.158   0.224  1.00  0.00    -0.776 OA
HETATM    4  H1  UNL     1      -7.571   9.361   0.300  1.00  0.00     0.167 HD
ENDBRANCH   2   3
BRANCH   2   5
HETATM    5  C2  UNL     1      -9.660   9.080  -1.461  1.00  0.00     0.115 C 
BRANCH   5   6
HETATM    6  C3  UNL     1     -10.696   8.066  -1.139  1.00  0.00     0.052 C 
BRANCH   6   7
HETATM    7  C4  UNL     1     -10.358   7.344   0.116  1.00  0.00    -0.020 A 
HETATM    8  C5  UNL     1      -9.365   6.473   0.315  1.00  0.00    -0.011 A 
HETATM    9  C8  UNL     1      -9.400   6.013   1.683  1.00  0.00     0.067 A 
HETATM   10  C9  UNL     1      -8.625   5.096   2.425  1.00  0.00     0.062 C 
HETATM   11  N4  UNL     1     -10.419   6.625   2.278  1.00  0.00    -0.248 NA
HETATM   12  C10 UNL     1      -8.903   4.677   3.725  1.00  0.00     0.041 A 
HETATM   13  N1  UNL     1     -10.052   4.392   4.367  1.00  0.00    -0.355 N 
HETATM   14  C37 UNL     1      -7.819   4.550   4.623  1.00  0.00    -0.022 A 
HETATM   15  C11 UNL     1      -9.736   4.094   5.641  1.00  0.00     0.042 A 
HETATM   16  H10 UNL     1     -11.073   4.372   3.917  1.00  0.00     0.166 HD
HETATM   17  C12 UNL     1     -10.500   3.767   6.763  1.00  0.00     0.062 C 
HETATM   18  C34 UNL     1      -8.337   4.188   5.811  1.00  0.00    -0.013 A 
HETATM   19  C13 UNL     1     -11.710   4.388   7.125  1.00  0.00     0.066 A 
HETATM   20  N2  UNL     1     -12.182   5.379   6.355  1.00  0.00    -0.248 NA
HETATM   21  C30 UNL     1     -12.646   4.193   8.205  1.00  0.00    -0.020 A 
HETATM   22  C14 UNL     1     -13.345   5.828   6.861  1.00  0.00     0.067 A 
HETATM   23  C15 UNL     1     -14.015   6.866   6.200  1.00  0.00     0.062 C 
HETATM   24  C27 UNL     1     -13.657   5.066   8.065  1.00  0.00    -0.011 A 
HETATM   25  C16 UNL     1     -13.791   7.323   4.883  1.00  0.00     0.041 A 
HETATM   26  N3  UNL     1     -12.648   7.477   4.204  1.00  0.00    -0.355 N 
HETATM   27  C23 UNL     1     -14.904   7.647   4.069  1.00  0.00    -0.022 A 
HETATM   28  C17 UNL     1     -12.960   7.885   2.968  1.00  0.00     0.042 A 
HETATM   29  H13 UNL     1     -11.609   7.322   4.602  1.00  0.00     0.166 HD
HETATM   30  C18 UNL     1     -12.146   8.178   1.857  1.00  0.00     0.062 C 
HETATM   31  C20 UNL     1     -14.361   7.999   2.852  1.00  0.00    -0.013 A 
HETATM   32  C19 UNL     1     -11.046   7.444   1.398  1.00  0.00     0.066 A 
BRANCH   8  33
HETATM   33  C6  UNL     1      -8.390   6.067  -0.734  1.00  0.00     0.151 C 
BRANCH  33  34
HETATM   34  C7  UNL     1      -6.985   6.361  -0.366  1.00  0.00     0.143 C 
HETATM   35  O3  UNL     1      -6.212   5.419  -0.106  1.00  0.00    -0.650 OA
BRANCH  34  36
HETATM   36  O4  UNL     1      -6.582   7.678  -0.326  1.00  0.00    -0.776 OA
HETATM   37  H8  UNL     1      -6.032   8.043  -1.103  1.00  0.00     0.167 HD
ENDBRANCH  34  36
ENDBRANCH  33  34
ENDBRANCH   8  33
BRANCH  31  38
HETATM   38  C21 UNL     1     -15.156   8.399   1.624  1.00  0.00     0.151 C 
BRANCH  38  39
HETATM   39  C22 UNL     1     -15.529   7.148   0.924  1.00  0.00     0.143 C 
HETATM   40  O5  UNL     1     -14.673   6.561   0.227  1.00  0.00    -0.650 OA
BRANCH  39  41
HETATM   41  O6  UNL     1     -16.793   6.585   1.003  1.00  0.00    -0.776 OA
HETATM   42  H17 UNL     1     -17.577   6.949   0.446  1.00  0.00     0.167 HD
ENDBRANCH  39  41
ENDBRANCH  38  39
ENDBRANCH  31  38
BRANCH  27  43
HETATM   43  C24 UNL     1     -16.358   7.632   4.384  1.00  0.00     0.052 C 
BRANCH  43  44
HETATM   44  C25 UNL     1     -16.884   6.266   4.517  1.00  0.00     0.115 C 
BRANCH  44  45
HETATM   45  C26 UNL     1     -18.276   6.067   4.911  1.00  0.00     0.139 C 
HETATM   46  O7  UNL     1     -18.777   5.307   5.733  1.00  0.00    -0.650 OA
BRANCH  45  47
HETATM   47  O8  UNL     1     -19.204   6.897   4.219  1.00  0.00    -0.776 OA
HETATM   48  H22 UNL     1     -19.210   7.883   4.304  1.00  0.00     0.167 HD
ENDBRANCH  45  47
ENDBRANCH  44  45
ENDBRANCH  43  44
ENDBRANCH  27  43
BRANCH  24  49
HETATM   49  C28 UNL     1     -14.859   5.231   8.942  1.00  0.00     0.151 C 
BRANCH  49  50
HETATM   50  C29 UNL     1     -16.093   4.810   8.233  1.00  0.00     0.143 C 
HETATM   51  O9  UNL     1     -16.051   3.786   7.513  1.00  0.00    -0.650 OA
BRANCH  50  52
HETATM   52  O10 UNL     1     -17.291   5.494   8.327  1.00  0.00    -0.776 OA
HETATM   53  H25 UNL     1     -18.064   5.152   8.914  1.00  0.00     0.167 HD
ENDBRANCH  50  52
ENDBRANCH  49  50
ENDBRANCH  24  49
BRANCH  21  54
HETATM   54  C31 UNL     1     -12.552   3.187   9.301  1.00  0.00     0.052 C 
BRANCH  54  55
HETATM   55  C32 UNL     1     -12.055   3.725  10.595  1.00  0.00     0.115 C 
BRANCH  55  56
HETATM   56  C33 UNL     1     -10.556   3.552  10.575  1.00  0.00     0.139 C 
HETATM   57  O11 UNL     1      -9.804   4.472  10.169  1.00  0.00    -0.650 OA
BRANCH  56  58
HETATM   58  O12 UNL     1      -9.951   2.377  11.002  1.00  0.00    -0.776 OA
HETATM   59  H30 UNL     1     -10.036   1.581  10.363  1.00  0.00     0.167 HD
ENDBRANCH  56  58
ENDBRANCH  55  56
ENDBRANCH  54  55
ENDBRANCH  21  54
BRANCH  18  60
HETATM   60  C35 UNL     1      -7.497   3.934   7.027  1.00  0.00     0.151 C 
BRANCH  60  61
HETATM   61  C36 UNL     1      -6.964   2.574   6.920  1.00  0.00     0.143 C 
HETATM   62  O13 UNL     1      -5.766   2.344   7.247  1.00  0.00    -0.650 OA
BRANCH  61  63
HETATM   63  O14 UNL     1      -7.723   1.502   6.471  1.00  0.00    -0.776 OA
HETATM   64  H33 UNL     1      -8.726   1.579   6.499  1.00  0.00     0.167 HD
ENDBRANCH  61  63
ENDBRANCH  60  61
ENDBRANCH  18  60
BRANCH  14  65
HETATM   65  C38 UNL     1      -6.348   4.737   4.384  1.00  0.00     0.052 C 
BRANCH  65  66
HETATM   66  C39 UNL     1      -6.006   6.194   4.495  1.00  0.00     0.115 C 
BRANCH  66  67
HETATM   67  C40 UNL     1      -5.528   6.670   3.143  1.00  0.00     0.139 C 
HETATM   68  O15 UNL     1      -5.915   7.777   2.685  1.00  0.00    -0.650 OA
BRANCH  67  69
HETATM   69  O16 UNL     1      -4.670   5.908   2.401  1.00  0.00    -0.776 OA
HETATM   70  H38 UNL     1      -3.674   5.942   2.541  1.00  0.00     0.167 HD
ENDBRANCH  67  69
ENDBRANCH  66  67
ENDBRANCH  65  66
ENDBRANCH  14  65
ENDBRANCH   6   7
ENDBRANCH   5   6
ENDBRANCH   2   5
TORSDOF 28
ENDMDL
MODEL 20
REMARK VINA RESULT:      -6.9     19.608     22.076
REMARK  28 active torsions:
REMARK  status: ('A' for Active; 'I' for Inactive)
REMARK    1  A    between atoms: C1_2  and  O2_3 
REMARK    2  A    between atoms: C1_2  and  C2_4 
REMARK    3  A    between atoms: C2_4  and  C3_5 
REMARK    4  A    between atoms: C3_5  and  C4_6 
REMARK    5  A    between atoms: C5_7  and  C6_8 
REMARK    6  A    between atoms: C6_8  and  C7_9 
REMARK    7  A    between atoms: C7_9  and  O4_11 
REMARK    8  A    between atoms: C20_28  and  C21_29 
REMARK    9  A    between atoms: C21_29  and  C22_30 
REMARK   10  A    between atoms: C22_30  and  O6_32 
REMARK   11  A    between atoms: C23_33  and  C24_34 
REMARK   12  A    between atoms: C24_34  and  C25_35 
REMARK   13  A    between atoms: C25_35  and  C26_36 
REMARK   14  A    between atoms: C26_36  and  O8_38 
REMARK   15  A    between atoms: C27_39  and  C28_40 
REMARK   16  A    between atoms: C28_40  and  C29_41 
REMARK   17  A    between atoms: C29_41  and  O10_43 
REMARK   18  A    between atoms: C30_44  and  C31_45 
REMARK   19  A    between atoms: C31_45  and  C32_46 
REMARK   20  A    between atoms: C32_46  and  C33_47 
REMARK   21  A    between atoms: C33_47  and  O12_49 
REMARK   22  A    between atoms: C34_50  and  C35_51 
REMARK   23  A    between atoms: C35_51  and  C36_52 
REMARK   24  A    between atoms: C36_52  and  O14_54 
REMARK   25  A    between atoms: C37_55  and  C38_56 
REMARK   26  A    between atoms: C38_56  and  C39_57 
REMARK   27  A    between atoms: C39_57  and  C40_58 
REMARK   28  A    between atoms: C40_58  and  O16_60 
ROOT
HETATM    1  O1  UNL     1     -19.117  10.023   3.327  1.00  0.00    -0.650 OA
HETATM    2  C1  UNL     1     -18.718   8.855   3.241  1.00  0.00     0.139 C 
ENDROOT
BRANCH   2   3
HETATM    3  O2  UNL     1     -19.356   8.026   2.315  1.00  0.00    -0.776 OA
HETATM    4  H1  UNL     1     -19.336   7.014   2.385  1.00  0.00     0.167 HD
ENDBRANCH   2   3
BRANCH   2   5
HETATM    5  C2  UNL     1     -17.616   8.316   4.060  1.00  0.00     0.115 C 
BRANCH   5   6
HETATM    6  C3  UNL     1     -17.176   6.951   3.675  1.00  0.00     0.052 C 
BRANCH   6   7
HETATM    7  C4  UNL     1     -15.743   6.951   3.275  1.00  0.00    -0.020 A 
HETATM    8  C5  UNL     1     -15.238   7.108   2.048  1.00  0.00    -0.011 A 
HETATM    9  C8  UNL     1     -13.797   7.042   2.113  1.00  0.00     0.067 A 
HETATM   10  C9  UNL     1     -12.772   7.121   1.145  1.00  0.00     0.062 C 
HETATM   11  N4  UNL     1     -13.469   6.847   3.386  1.00  0.00    -0.248 NA
HETATM   12  C10 UNL     1     -11.419   6.896   1.391  1.00  0.00     0.041 A 
HETATM   13  N1  UNL     1     -10.766   6.012   2.169  1.00  0.00    -0.355 N 
HETATM   14  C37 UNL     1     -10.484   7.757   0.772  1.00  0.00    -0.022 A 
HETATM   15  C11 UNL     1      -9.452   6.286   2.071  1.00  0.00     0.042 A 
HETATM   16  H10 UNL     1     -11.226   5.184   2.759  1.00  0.00     0.166 HD
HETATM   17  C12 UNL     1      -8.316   5.742   2.674  1.00  0.00     0.062 C 
HETATM   18  C34 UNL     1      -9.265   7.378   1.195  1.00  0.00    -0.013 A 
HETATM   19  C13 UNL     1      -8.218   5.372   4.028  1.00  0.00     0.066 A 
HETATM   20  N2  UNL     1      -9.281   5.554   4.824  1.00  0.00    -0.248 NA
HETATM   21  C30 UNL     1      -7.170   4.788   4.828  1.00  0.00    -0.020 A 
HETATM   22  C14 UNL     1      -8.991   5.129   6.067  1.00  0.00     0.067 A 
HETATM   23  C15 UNL     1      -9.974   5.223   7.062  1.00  0.00     0.062 C 
HETATM   24  C27 UNL     1      -7.620   4.630   6.084  1.00  0.00    -0.011 A 
HETATM   25  C16 UNL     1     -11.358   5.432   6.876  1.00  0.00     0.041 A 
HETATM   26  N3  UNL     1     -12.004   6.216   6.005  1.00  0.00    -0.355 N 
HETATM   27  C23 UNL     1     -12.276   4.699   7.667  1.00  0.00    -0.022 A 
HETATM   28  C17 UNL     1     -13.317   6.026   6.183  1.00  0.00     0.042 A 
HETATM   29  H13 UNL     1     -11.536   6.928   5.273  1.00  0.00     0.166 HD
HETATM   30  C18 UNL     1     -14.430   6.584   5.526  1.00  0.00     0.062 C 
HETATM   31  C20 UNL     1     -13.519   5.083   7.212  1.00  0.00    -0.013 A 
HETATM   32  C19 UNL     1     -14.588   6.781   4.148  1.00  0.00     0.066 A 
BRANCH   8  33
HETATM   33  C6  UNL     1     -16.064   7.323   0.828  1.00  0.00     0.151 C 
BRANCH  33  34
HETATM   34  C7  UNL     1     -16.091   8.736   0.385  1.00  0.00     0.143 C 
HETATM   35  O3  UNL     1     -15.161   9.171  -0.322  1.00  0.00    -0.650 OA
BRANCH  34  36
HETATM   36  O4  UNL     1     -17.152   9.523   0.773  1.00  0.00    -0.776 OA
HETATM   37  H8  UNL     1     -17.494  10.234   0.127  1.00  0.00     0.167 HD
ENDBRANCH  34  36
ENDBRANCH  33  34
ENDBRANCH   8  33
BRANCH  31  38
HETATM   38  C21 UNL     1     -14.841   4.547   7.726  1.00  0.00     0.151 C 
BRANCH  38  39
HETATM   39  C22 UNL     1     -15.208   5.363   8.907  1.00  0.00     0.143 C 
HETATM   40  O5  UNL     1     -15.708   6.496   8.734  1.00  0.00    -0.650 OA
BRANCH  39  41
HETATM   41  O6  UNL     1     -15.025   4.931  10.211  1.00  0.00    -0.776 OA
HETATM   42  H17 UNL     1     -15.748   4.389  10.702  1.00  0.00     0.167 HD
ENDBRANCH  39  41
ENDBRANCH  38  39
ENDBRANCH  31  38
BRANCH  27  43
HETATM   43  C24 UNL     1     -12.030   3.717   8.757  1.00  0.00     0.052 C 
BRANCH  43  44
HETATM   44  C25 UNL     1     -11.871   2.348   8.247  1.00  0.00     0.115 C 
BRANCH  44  45
HETATM   45  C26 UNL     1     -10.544   1.874   7.863  1.00  0.00     0.139 C 
HETATM   46  O7  UNL     1      -9.496   1.822   8.497  1.00  0.00    -0.650 OA
BRANCH  45  47
HETATM   47  O8  UNL     1     -10.459   1.394   6.525  1.00  0.00    -0.776 OA
HETATM   48  H22 UNL     1     -10.989   1.777   5.782  1.00  0.00     0.167 HD
ENDBRANCH  45  47
ENDBRANCH  44  45
ENDBRANCH  43  44
ENDBRANCH  27  43
BRANCH  24  49
HETATM   49  C28 UNL     1      -6.891   4.058   7.259  1.00  0.00     0.151 C 
BRANCH  49  50
HETATM   50  C29 UNL     1      -6.578   2.624   7.042  1.00  0.00     0.143 C 
HETATM   51  O9  UNL     1      -5.474   2.185   7.436  1.00  0.00    -0.650 OA
BRANCH  50  52
HETATM   52  O10 UNL     1      -7.447   1.745   6.423  1.00  0.00    -0.776 OA
HETATM   53  H25 UNL     1      -7.503   1.671   5.398  1.00  0.00     0.167 HD
ENDBRANCH  50  52
ENDBRANCH  49  50
ENDBRANCH  24  49
BRANCH  21  54
HETATM   54  C31 UNL     1      -5.809   4.391   4.369  1.00  0.00     0.052 C 
BRANCH  54  55
HETATM   55  C32 UNL     1      -4.732   5.354   4.720  1.00  0.00     0.115 C 
BRANCH  55  56
HETATM   56  C33 UNL     1      -3.479   4.533   4.909  1.00  0.00     0.139 C 
HETATM   57  O11 UNL     1      -3.219   3.996   6.015  1.00  0.00    -0.650 OA
BRANCH  56  58
HETATM   58  O12 UNL     1      -2.570   4.339   3.878  1.00  0.00    -0.776 OA
HETATM   59  H30 UNL     1      -1.809   5.022   3.829  1.00  0.00     0.167 HD
ENDBRANCH  56  58
ENDBRANCH  55  56
ENDBRANCH  54  55
ENDBRANCH  21  54
BRANCH  18  60
HETATM   60  C35 UNL     1      -7.998   8.043   0.744  1.00  0.00     0.151 C 
BRANCH  60  61
HETATM   61  C36 UNL     1      -7.326   7.130  -0.183  1.00  0.00     0.143 C 
HETATM   62  O13 UNL     1      -6.203   6.641   0.125  1.00  0.00    -0.650 OA
BRANCH  61  63
HETATM   63  O14 UNL     1      -7.871   6.765  -1.406  1.00  0.00    -0.776 OA
HETATM   64  H33 UNL     1      -8.301   7.477  -1.973  1.00  0.00     0.167 HD
ENDBRANCH  61  63
ENDBRANCH  60  61
ENDBRANCH  18  60
BRANCH  14  65
HETATM   65  C38 UNL     1     -10.711   8.882  -0.195  1.00  0.00     0.052 C 
BRANCH  65  66
HETATM   66  C39 UNL     1     -11.312   8.340  -1.459  1.00  0.00     0.115 C 
BRANCH  66  67
HETATM   67  C40 UNL     1     -10.520   8.880  -2.628  1.00  0.00     0.139 C 
HETATM   68  O15 UNL     1     -11.109   9.277  -3.666  1.00  0.00    -0.650 OA
BRANCH  67  69
HETATM   69  O16 UNL     1      -9.155   8.944  -2.573  1.00  0.00    -0.776 OA
HETATM   70  H38 UNL     1      -8.632   8.480  -1.849  1.00  0.00     0.167 HD
ENDBRANCH  67  69
ENDBRANCH  66  67
ENDBRANCH  65  66
ENDBRANCH  14  65
ENDBRANCH   6   7
ENDBRANCH   5   6
ENDBRANCH   2   5
TORSDOF 28
ENDMDL
