MODEL 1
REMARK VINA RESULT:     -10.0      0.000      0.000
REMARK  28 active torsions:
REMARK  status: ('A' for Active; 'I' for Inactive)
REMARK    1  A    between atoms: C_2  and  O_3 
REMARK    2  A    between atoms: C_2  and  C_4 
REMARK    3  A    between atoms: C_4  and  C_5 
REMARK    4  A    between atoms: C_5  and  C_6 
REMARK    5  A    between atoms: C_7  and  C_8 
REMARK    6  A    between atoms: C_8  and  C_9 
REMARK    7  A    between atoms: C_9  and  O_11 
REMARK    8  A    between atoms: C_28  and  C_29 
REMARK    9  A    between atoms: C_29  and  C_30 
REMARK   10  A    between atoms: C_30  and  O_32 
REMARK   11  A    between atoms: C_33  and  C_34 
REMARK   12  A    between atoms: C_34  and  C_35 
REMARK   13  A    between atoms: C_35  and  C_36 
REMARK   14  A    between atoms: C_36  and  O_38 
REMARK   15  A    between atoms: C_39  and  C_40 
REMARK   16  A    between atoms: C_40  and  C_41 
REMARK   17  A    between atoms: C_41  and  C_42 
REMARK   18  A    between atoms: C_42  and  O_44 
REMARK   19  A    between atoms: C_45  and  C_46 
REMARK   20  A    between atoms: C_46  and  C_47 
REMARK   21  A    between atoms: C_47  and  O_49 
REMARK   22  A    between atoms: C_50  and  C_51 
REMARK   23  A    between atoms: C_51  and  C_52 
REMARK   24  A    between atoms: C_52  and  O_54 
REMARK   25  A    between atoms: C_55  and  C_56 
REMARK   26  A    between atoms: C_56  and  C_57 
REMARK   27  A    between atoms: C_57  and  C_58 
REMARK   28  A    between atoms: C_58  and  O_60 
ROOT
ATOM      1  O   UNK d   0      -1.257   3.763  29.538  0.00  0.00    -0.650 OA
ATOM      2  C   UNK d   0      -0.599   2.756  29.193  0.00  0.00     0.139 C 
ENDROOT
BRANCH   2   3
ATOM      3  O   UNK d   0       0.427   2.899  28.290  0.00  0.00    -0.776 OA
ATOM      4  H   UNK d   0       1.378   3.104  28.602  0.00  0.00     0.167 HD
ENDBRANCH   2   3
BRANCH   2   5
ATOM      5  C   UNK d   0      -0.930   1.416  29.757  0.00  0.00     0.115 C 
BRANCH   5   6
ATOM      6  C   UNK d   0      -0.132   0.349  29.058  0.00  0.00     0.052 C 
BRANCH   6   7
ATOM      7  C   UNK d   0      -0.936  -0.902  28.799  0.00  0.00    -0.020 A 
ATOM      8  C   UNK d   0      -0.587  -2.140  29.040  0.00  0.00    -0.011 A 
ATOM      9  C   UNK d   0      -1.679  -3.001  28.618  0.00  0.00     0.067 A 
ATOM     10  C   UNK d   0      -1.941  -4.380  28.622  0.00  0.00     0.062 C 
ATOM     11  N   UNK d   0      -2.651  -2.204  28.126  0.00  0.00    -0.248 NA
ATOM     12  C   UNK d   0      -3.175  -5.008  28.427  0.00  0.00     0.041 A 
ATOM     13  N   UNK d   0      -4.163  -4.767  27.543  0.00  0.00    -0.355 N 
ATOM     14  C   UNK d   0      -3.554  -6.049  29.294  0.00  0.00    -0.022 A 
ATOM     15  C   UNK d   0      -5.161  -5.623  27.833  0.00  0.00     0.042 A 
ATOM     16  H   UNK d   0      -4.146  -4.021  26.719  0.00  0.00     0.166 HD
ATOM     17  C   UNK d   0      -6.420  -5.798  27.223  0.00  0.00     0.062 C 
ATOM     18  C   UNK d   0      -4.817  -6.442  28.925  0.00  0.00    -0.013 A 
ATOM     19  C   UNK d   0      -7.325  -4.847  26.826  0.00  0.00     0.067 A 
ATOM     20  N   UNK d   0      -6.907  -3.579  26.822  0.00  0.00    -0.248 NA
ATOM     21  C   UNK d   0      -8.712  -4.842  26.391  0.00  0.00    -0.011 A 
ATOM     22  C   UNK d   0      -7.921  -2.745  26.418  0.00  0.00     0.066 A 
ATOM     23  C   UNK d   0      -7.611  -1.395  26.331  0.00  0.00     0.062 C 
ATOM     24  C   UNK d   0      -9.056  -3.609  26.158  0.00  0.00    -0.020 A 
ATOM     25  C   UNK d   0      -6.362  -0.786  26.519  0.00  0.00     0.041 A 
ATOM     26  N   UNK d   0      -5.386  -1.015  27.407  0.00  0.00    -0.355 N 
ATOM     27  C   UNK d   0      -5.980   0.256  25.645  0.00  0.00    -0.022 A 
ATOM     28  C   UNK d   0      -4.393  -0.157  27.126  0.00  0.00     0.042 A 
ATOM     29  H   UNK d   0      -5.409  -1.758  28.242  0.00  0.00     0.166 HD
ATOM     30  C   UNK d   0      -3.140   0.034  27.729  0.00  0.00     0.062 C 
ATOM     31  C   UNK d   0      -4.736   0.658  26.021  0.00  0.00    -0.013 A 
ATOM     32  C   UNK d   0      -2.266  -0.929  28.207  0.00  0.00     0.066 A 
BRANCH   8  33
ATOM     33  C   UNK d   0       0.684  -2.602  29.629  0.00  0.00     0.151 C 
BRANCH  33  34
ATOM     34  C   UNK d   0       0.508  -3.214  30.958  0.00  0.00     0.143 C 
ATOM     35  O   UNK d   0       0.924  -4.357  31.193  0.00  0.00    -0.650 OA
BRANCH  34  36
ATOM     36  O   UNK d   0      -0.130  -2.504  31.950  0.00  0.00    -0.776 OA
ATOM     37  H   UNK d   0      -0.727  -2.974  32.644  0.00  0.00     0.167 HD
ENDBRANCH  34  36
ENDBRANCH  33  34
ENDBRANCH   8  33
BRANCH  31  38
ATOM     38  C   UNK d   0      -3.913   1.743  25.365  0.00  0.00     0.151 C 
BRANCH  38  39
ATOM     39  C   UNK d   0      -3.956   2.996  26.089  0.00  0.00     0.143 C 
ATOM     40  O   UNK d   0      -4.744   3.910  25.790  0.00  0.00    -0.650 OA
BRANCH  39  41
ATOM     41  O   UNK d   0      -3.089   3.198  27.162  0.00  0.00    -0.776 OA
ATOM     42  H   UNK d   0      -2.746   4.152  27.305  0.00  0.00     0.167 HD
ENDBRANCH  39  41
ENDBRANCH  38  39
ENDBRANCH  31  38
BRANCH  27  43
ATOM     43  C   UNK d   0      -6.739   0.867  24.495  0.00  0.00     0.052 C 
BRANCH  43  44
ATOM     44  C   UNK d   0      -7.963   1.611  24.923  0.00  0.00     0.115 C 
BRANCH  44  45
ATOM     45  C   UNK d   0      -7.655   3.057  24.774  0.00  0.00     0.139 C 
ATOM     46  O   UNK d   0      -8.210   3.864  25.560  0.00  0.00    -0.650 OA
BRANCH  45  47
ATOM     47  O   UNK d   0      -6.787   3.542  23.819  0.00  0.00    -0.776 OA
ATOM     48  H   UNK d   0      -6.105   4.294  24.012  0.00  0.00     0.167 HD
ENDBRANCH  45  47
ENDBRANCH  44  45
ENDBRANCH  43  44
ENDBRANCH  27  43
BRANCH  24  49
ATOM     49  C   UNK d   0     -10.365  -3.151  25.662  0.00  0.00     0.052 C 
BRANCH  49  50
ATOM     50  C   UNK d   0     -10.988  -2.187  26.638  0.00  0.00     0.115 C 
BRANCH  50  51
ATOM     51  C   UNK d   0     -11.167  -2.650  28.008  0.00  0.00     0.139 C 
ATOM     52  O   UNK d   0     -11.952  -3.579  28.311  0.00  0.00    -0.650 OA
BRANCH  51  53
ATOM     53  O   UNK d   0     -10.451  -2.051  29.033  0.00  0.00    -0.776 OA
ATOM     54  H   UNK d   0     -10.676  -2.303  29.980  0.00  0.00     0.167 HD
ENDBRANCH  51  53
ENDBRANCH  50  51
ENDBRANCH  49  50
ENDBRANCH  24  49
BRANCH  21  55
ATOM     55  C   UNK d   0      -9.547  -6.072  26.250  0.00  0.00     0.151 C 
BRANCH  55  56
ATOM     56  C   UNK d   0      -9.433  -6.665  24.909  0.00  0.00     0.143 C 
ATOM     57  O   UNK d   0     -10.354  -6.619  24.070  0.00  0.00    -0.650 OA
BRANCH  56  58
ATOM     58  O   UNK d   0      -8.238  -7.302  24.580  0.00  0.00    -0.776 OA
ATOM     59  H   UNK d   0      -8.184  -7.654  23.608  0.00  0.00     0.167 HD
ENDBRANCH  56  58
ENDBRANCH  55  56
ENDBRANCH  21  55
BRANCH  18  60
ATOM     60  C   UNK d   0      -5.614  -7.532  29.598  0.00  0.00     0.151 C 
BRANCH  60  61
ATOM     61  C   UNK d   0      -5.523  -8.703  28.713  0.00  0.00     0.143 C 
ATOM     62  O   UNK d   0      -6.438  -9.225  28.076  0.00  0.00    -0.650 OA
BRANCH  61  63
ATOM     63  O   UNK d   0      -4.232  -9.273  28.599  0.00  0.00    -0.776 OA
ATOM     64  H   UNK d   0      -3.988  -9.851  27.814  0.00  0.00     0.167 HD
ENDBRANCH  61  63
ENDBRANCH  60  61
ENDBRANCH  18  60
BRANCH  14  65
ATOM     65  C   UNK d   0      -2.783  -6.758  30.371  0.00  0.00     0.052 C 
BRANCH  65  66
ATOM     66  C   UNK d   0      -3.115  -6.275  31.738  0.00  0.00     0.115 C 
BRANCH  66  67
ATOM     67  C   UNK d   0      -2.386  -5.174  32.301  0.00  0.00     0.139 C 
ATOM     68  O   UNK d   0      -2.786  -3.979  32.046  0.00  0.00    -0.650 OA
BRANCH  67  69
ATOM     69  O   UNK d   0      -1.257  -5.226  33.118  0.00  0.00    -0.776 OA
ATOM     70  H   UNK d   0      -0.632  -4.409  33.071  0.00  0.00     0.167 HD
ENDBRANCH  67  69
ENDBRANCH  66  67
ENDBRANCH  65  66
ENDBRANCH  14  65
ENDBRANCH   6   7
ENDBRANCH   5   6
ENDBRANCH   2   5
TORSDOF 28
ENDMDL
MODEL 2
REMARK VINA RESULT:      -9.9      1.745      7.685
REMARK  28 active torsions:
REMARK  status: ('A' for Active; 'I' for Inactive)
REMARK    1  A    between atoms: C_2  and  O_3 
REMARK    2  A    between atoms: C_2  and  C_4 
REMARK    3  A    between atoms: C_4  and  C_5 
REMARK    4  A    between atoms: C_5  and  C_6 
REMARK    5  A    between atoms: C_7  and  C_8 
REMARK    6  A    between atoms: C_8  and  C_9 
REMARK    7  A    between atoms: C_9  and  O_11 
REMARK    8  A    between atoms: C_28  and  C_29 
REMARK    9  A    between atoms: C_29  and  C_30 
REMARK   10  A    between atoms: C_30  and  O_32 
REMARK   11  A    between atoms: C_33  and  C_34 
REMARK   12  A    between atoms: C_34  and  C_35 
REMARK   13  A    between atoms: C_35  and  C_36 
REMARK   14  A    between atoms: C_36  and  O_38 
REMARK   15  A    between atoms: C_39  and  C_40 
REMARK   16  A    between atoms: C_40  and  C_41 
REMARK   17  A    between atoms: C_41  and  C_42 
REMARK   18  A    between atoms: C_42  and  O_44 
REMARK   19  A    between atoms: C_45  and  C_46 
REMARK   20  A    between atoms: C_46  and  C_47 
REMARK   21  A    between atoms: C_47  and  O_49 
REMARK   22  A    between atoms: C_50  and  C_51 
REMARK   23  A    between atoms: C_51  and  C_52 
REMARK   24  A    between atoms: C_52  and  O_54 
REMARK   25  A    between atoms: C_55  and  C_56 
REMARK   26  A    between atoms: C_56  and  C_57 
REMARK   27  A    between atoms: C_57  and  C_58 
REMARK   28  A    between atoms: C_58  and  O_60 
ROOT
ATOM      1  O   UNK d   0       1.395  -2.487  31.627  0.00  0.00    -0.650 OA
ATOM      2  C   UNK d   0       1.000  -1.314  31.810  0.00  0.00     0.139 C 
ENDROOT
BRANCH   2   3
ATOM      3  O   UNK d   0       0.297  -1.010  32.951  0.00  0.00    -0.776 OA
ATOM      4  H   UNK d   0      -0.714  -1.151  33.001  0.00  0.00     0.167 HD
ENDBRANCH   2   3
BRANCH   2   5
ATOM      5  C   UNK d   0       1.292  -0.260  30.798  0.00  0.00     0.115 C 
BRANCH   5   6
ATOM      6  C   UNK d   0       1.199  -0.836  29.411  0.00  0.00     0.052 C 
BRANCH   6   7
ATOM      7  C   UNK d   0      -0.208  -0.812  28.864  0.00  0.00    -0.020 A 
ATOM      8  C   UNK d   0      -0.840   0.202  28.330  0.00  0.00    -0.011 A 
ATOM      9  C   UNK d   0      -2.171  -0.249  27.959  0.00  0.00     0.067 A 
ATOM     10  C   UNK d   0      -3.298   0.319  27.345  0.00  0.00     0.062 C 
ATOM     11  N   UNK d   0      -2.265  -1.549  28.309  0.00  0.00    -0.248 NA
ATOM     12  C   UNK d   0      -4.404  -0.354  26.814  0.00  0.00     0.041 A 
ATOM     13  N   UNK d   0      -5.116  -1.396  27.284  0.00  0.00    -0.355 N 
ATOM     14  C   UNK d   0      -4.888   0.023  25.549  0.00  0.00    -0.022 A 
ATOM     15  C   UNK d   0      -6.035  -1.694  26.346  0.00  0.00     0.042 A 
ATOM     16  H   UNK d   0      -4.985  -1.898  28.268  0.00  0.00     0.166 HD
ATOM     17  C   UNK d   0      -7.031  -2.690  26.327  0.00  0.00     0.062 C 
ATOM     18  C   UNK d   0      -5.922  -0.826  25.243  0.00  0.00    -0.013 A 
ATOM     19  C   UNK d   0      -6.935  -4.012  26.679  0.00  0.00     0.067 A 
ATOM     20  N   UNK d   0      -5.821  -4.391  27.311  0.00  0.00    -0.248 NA
ATOM     21  C   UNK d   0      -7.766  -5.196  26.530  0.00  0.00    -0.011 A 
ATOM     22  C   UNK d   0      -5.862  -5.736  27.584  0.00  0.00     0.066 A 
ATOM     23  C   UNK d   0      -4.778  -6.258  28.275  0.00  0.00     0.062 C 
ATOM     24  C   UNK d   0      -7.130  -6.202  27.058  0.00  0.00    -0.020 A 
ATOM     25  C   UNK d   0      -3.683  -5.562  28.810  0.00  0.00     0.041 A 
ATOM     26  N   UNK d   0      -2.965  -4.537  28.336  0.00  0.00    -0.355 N 
ATOM     27  C   UNK d   0      -3.201  -5.939  30.083  0.00  0.00    -0.022 A 
ATOM     28  C   UNK d   0      -2.043  -4.243  29.267  0.00  0.00     0.042 A 
ATOM     29  H   UNK d   0      -3.091  -4.040  27.343  0.00  0.00     0.166 HD
ATOM     30  C   UNK d   0      -1.040  -3.261  29.294  0.00  0.00     0.062 C 
ATOM     31  C   UNK d   0      -2.164  -5.109  30.379  0.00  0.00    -0.013 A 
ATOM     32  C   UNK d   0      -1.117  -1.948  28.858  0.00  0.00     0.066 A 
BRANCH   8  33
ATOM     33  C   UNK d   0      -0.317   1.567  28.134  0.00  0.00     0.151 C 
BRANCH  33  34
ATOM     34  C   UNK d   0      -1.168   2.598  28.755  0.00  0.00     0.143 C 
ATOM     35  O   UNK d   0      -2.028   3.196  28.093  0.00  0.00    -0.650 OA
BRANCH  34  36
ATOM     36  O   UNK d   0      -1.002   2.898  30.087  0.00  0.00    -0.776 OA
ATOM     37  H   UNK d   0      -1.701   2.619  30.789  0.00  0.00     0.167 HD
ENDBRANCH  34  36
ENDBRANCH  33  34
ENDBRANCH   8  33
BRANCH  31  38
ATOM     38  C   UNK d   0      -1.343  -5.126  31.648  0.00  0.00     0.151 C 
BRANCH  38  39
ATOM     39  C   UNK d   0      -1.955  -4.373  32.722  0.00  0.00     0.143 C 
ATOM     40  O   UNK d   0      -3.068  -4.668  33.192  0.00  0.00    -0.650 OA
BRANCH  39  41
ATOM     41  O   UNK d   0      -1.283  -3.276  33.260  0.00  0.00    -0.776 OA
ATOM     42  H   UNK d   0      -0.912  -3.382  34.210  0.00  0.00     0.167 HD
ENDBRANCH  39  41
ENDBRANCH  38  39
ENDBRANCH  31  38
BRANCH  27  43
ATOM     43  C   UNK d   0      -3.678  -7.034  31.003  0.00  0.00     0.052 C 
BRANCH  43  44
ATOM     44  C   UNK d   0      -2.960  -8.329  30.802  0.00  0.00     0.115 C 
BRANCH  44  45
ATOM     45  C   UNK d   0      -2.036  -8.485  31.956  0.00  0.00     0.139 C 
ATOM     46  O   UNK d   0      -0.819  -8.682  31.717  0.00  0.00    -0.650 OA
BRANCH  45  47
ATOM     47  O   UNK d   0      -2.458  -8.416  33.266  0.00  0.00    -0.776 OA
ATOM     48  H   UNK d   0      -3.450  -8.501  33.540  0.00  0.00     0.167 HD
ENDBRANCH  45  47
ENDBRANCH  44  45
ENDBRANCH  43  44
ENDBRANCH  27  43
BRANCH  24  49
ATOM     49  C   UNK d   0      -7.625  -7.586  27.159  0.00  0.00     0.052 C 
BRANCH  49  50
ATOM     50  C   UNK d   0      -7.888  -8.150  25.786  0.00  0.00     0.115 C 
BRANCH  50  51
ATOM     51  C   UNK d   0      -9.088  -8.960  25.620  0.00  0.00     0.139 C 
ATOM     52  O   UNK d   0      -9.061 -10.118  25.140  0.00  0.00    -0.650 OA
BRANCH  51  53
ATOM     53  O   UNK d   0     -10.319  -8.448  25.997  0.00  0.00    -0.776 OA
ATOM     54  H   UNK d   0     -11.107  -9.071  26.017  0.00  0.00     0.167 HD
ENDBRANCH  51  53
ENDBRANCH  50  51
ENDBRANCH  49  50
ENDBRANCH  24  49
BRANCH  21  55
ATOM     55  C   UNK d   0      -9.109  -5.197  25.880  0.00  0.00     0.151 C 
BRANCH  55  56
ATOM     56  C   UNK d   0     -10.185  -4.897  26.837  0.00  0.00     0.143 C 
ATOM     57  O   UNK d   0     -10.545  -3.734  27.105  0.00  0.00    -0.650 OA
BRANCH  56  58
ATOM     58  O   UNK d   0     -10.818  -5.972  27.460  0.00  0.00    -0.776 OA
ATOM     59  H   UNK d   0     -10.667  -6.890  27.005  0.00  0.00     0.167 HD
ENDBRANCH  56  58
ENDBRANCH  55  56
ENDBRANCH  21  55
BRANCH  18  60
ATOM     60  C   UNK d   0      -6.727  -0.783  23.967  0.00  0.00     0.151 C 
BRANCH  60  61
ATOM     61  C   UNK d   0      -8.004  -0.143  24.317  0.00  0.00     0.143 C 
ATOM     62  O   UNK d   0      -8.162   0.944  24.873  0.00  0.00    -0.650 OA
BRANCH  61  63
ATOM     63  O   UNK d   0      -9.162  -0.878  23.965  0.00  0.00    -0.776 OA
ATOM     64  H   UNK d   0      -9.929  -0.976  24.607  0.00  0.00     0.167 HD
ENDBRANCH  61  63
ENDBRANCH  60  61
ENDBRANCH  18  60
BRANCH  14  65
ATOM     65  C   UNK d   0      -4.515   1.175  24.660  0.00  0.00     0.052 C 
BRANCH  65  66
ATOM     66  C   UNK d   0      -4.644   2.495  25.334  0.00  0.00     0.115 C 
BRANCH  66  67
ATOM     67  C   UNK d   0      -5.745   3.357  25.007  0.00  0.00     0.139 C 
ATOM     68  O   UNK d   0      -6.017   4.332  25.799  0.00  0.00    -0.650 OA
BRANCH  67  69
ATOM     69  O   UNK d   0      -6.594   3.275  23.904  0.00  0.00    -0.776 OA
ATOM     70  H   UNK d   0      -6.276   3.768  23.057  0.00  0.00     0.167 HD
ENDBRANCH  67  69
ENDBRANCH  66  67
ENDBRANCH  65  66
ENDBRANCH  14  65
ENDBRANCH   6   7
ENDBRANCH   5   6
ENDBRANCH   2   5
TORSDOF 28
ENDMDL
MODEL 3
REMARK VINA RESULT:      -9.7      1.516      2.086
REMARK  28 active torsions:
REMARK  status: ('A' for Active; 'I' for Inactive)
REMARK    1  A    between atoms: C_2  and  O_3 
REMARK    2  A    between atoms: C_2  and  C_4 
REMARK    3  A    between atoms: C_4  and  C_5 
REMARK    4  A    between atoms: C_5  and  C_6 
REMARK    5  A    between atoms: C_7  and  C_8 
REMARK    6  A    between atoms: C_8  and  C_9 
REMARK    7  A    between atoms: C_9  and  O_11 
REMARK    8  A    between atoms: C_28  and  C_29 
REMARK    9  A    between atoms: C_29  and  C_30 
REMARK   10  A    between atoms: C_30  and  O_32 
REMARK   11  A    between atoms: C_33  and  C_34 
REMARK   12  A    between atoms: C_34  and  C_35 
REMARK   13  A    between atoms: C_35  and  C_36 
REMARK   14  A    between atoms: C_36  and  O_38 
REMARK   15  A    between atoms: C_39  and  C_40 
REMARK   16  A    between atoms: C_40  and  C_41 
REMARK   17  A    between atoms: C_41  and  C_42 
REMARK   18  A    between atoms: C_42  and  O_44 
REMARK   19  A    between atoms: C_45  and  C_46 
REMARK   20  A    between atoms: C_46  and  C_47 
REMARK   21  A    between atoms: C_47  and  O_49 
REMARK   22  A    between atoms: C_50  and  C_51 
REMARK   23  A    between atoms: C_51  and  C_52 
REMARK   24  A    between atoms: C_52  and  O_54 
REMARK   25  A    between atoms: C_55  and  C_56 
REMARK   26  A    between atoms: C_56  and  C_57 
REMARK   27  A    between atoms: C_57  and  C_58 
REMARK   28  A    between atoms: C_58  and  O_60 
ROOT
ATOM      1  O   UNK d   0      -0.282   0.562  31.329  0.00  0.00    -0.650 OA
ATOM      2  C   UNK d   0       0.441  -0.400  31.670  0.00  0.00     0.139 C 
ENDROOT
BRANCH   2   3
ATOM      3  O   UNK d   0       0.200  -1.034  32.865  0.00  0.00    -0.776 OA
ATOM      4  H   UNK d   0       0.105  -0.504  33.734  0.00  0.00     0.167 HD
ENDBRANCH   2   3
BRANCH   2   5
ATOM      5  C   UNK d   0       1.554  -0.850  30.786  0.00  0.00     0.115 C 
BRANCH   5   6
ATOM      6  C   UNK d   0       1.113  -0.830  29.348  0.00  0.00     0.052 C 
BRANCH   6   7
ATOM      7  C   UNK d   0       0.175  -1.964  29.011  0.00  0.00    -0.020 A 
ATOM      8  C   UNK d   0       0.426  -3.248  29.058  0.00  0.00    -0.011 A 
ATOM      9  C   UNK d   0      -0.775  -3.951  28.638  0.00  0.00     0.067 A 
ATOM     10  C   UNK d   0      -1.164  -5.292  28.491  0.00  0.00     0.062 C 
ATOM     11  N   UNK d   0      -1.706  -3.017  28.348  0.00  0.00    -0.248 NA
ATOM     12  C   UNK d   0      -2.465  -5.784  28.338  0.00  0.00     0.041 A 
ATOM     13  N   UNK d   0      -3.497  -5.346  27.593  0.00  0.00    -0.355 N 
ATOM     14  C   UNK d   0      -2.864  -6.898  29.099  0.00  0.00    -0.022 A 
ATOM     15  C   UNK d   0      -4.543  -6.147  27.867  0.00  0.00     0.042 A 
ATOM     16  H   UNK d   0      -3.481  -4.498  26.873  0.00  0.00     0.166 HD
ATOM     17  C   UNK d   0      -5.860  -6.134  27.366  0.00  0.00     0.062 C 
ATOM     18  C   UNK d   0      -4.185  -7.133  28.808  0.00  0.00    -0.013 A 
ATOM     19  C   UNK d   0      -6.702  -5.067  27.182  0.00  0.00     0.067 A 
ATOM     20  N   UNK d   0      -6.169  -3.849  27.299  0.00  0.00    -0.248 NA
ATOM     21  C   UNK d   0      -8.115  -4.890  26.889  0.00  0.00    -0.011 A 
ATOM     22  C   UNK d   0      -7.130  -2.887  27.106  0.00  0.00     0.066 A 
ATOM     23  C   UNK d   0      -6.704  -1.569  27.162  0.00  0.00     0.062 C 
ATOM     24  C   UNK d   0      -8.360  -3.612  26.850  0.00  0.00    -0.020 A 
ATOM     25  C   UNK d   0      -5.390  -1.095  27.304  0.00  0.00     0.041 A 
ATOM     26  N   UNK d   0      -4.369  -1.522  28.056  0.00  0.00    -0.355 N 
ATOM     27  C   UNK d   0      -4.989   0.020  26.537  0.00  0.00    -0.022 A 
ATOM     28  C   UNK d   0      -3.326  -0.718  27.791  0.00  0.00     0.042 A 
ATOM     29  H   UNK d   0      -4.390  -2.367  28.787  0.00  0.00     0.166 HD
ATOM     30  C   UNK d   0      -2.014  -0.714  28.289  0.00  0.00     0.062 C 
ATOM     31  C   UNK d   0      -3.684   0.265  26.838  0.00  0.00    -0.013 A 
ATOM     32  C   UNK d   0      -1.197  -1.802  28.553  0.00  0.00     0.066 A 
BRANCH   8  33
ATOM     33  C   UNK d   0       1.693  -3.888  29.456  0.00  0.00     0.151 C 
BRANCH  33  34
ATOM     34  C   UNK d   0       1.606  -4.559  30.766  0.00  0.00     0.143 C 
ATOM     35  O   UNK d   0       2.185  -5.635  30.969  0.00  0.00    -0.650 OA
BRANCH  34  36
ATOM     36  O   UNK d   0       0.870  -3.980  31.774  0.00  0.00    -0.776 OA
ATOM     37  H   UNK d   0       1.214  -3.150  32.277  0.00  0.00     0.167 HD
ENDBRANCH  34  36
ENDBRANCH  33  34
ENDBRANCH   8  33
BRANCH  31  38
ATOM     38  C   UNK d   0      -2.823   1.357  26.248  0.00  0.00     0.151 C 
BRANCH  38  39
ATOM     39  C   UNK d   0      -2.827   2.567  27.044  0.00  0.00     0.143 C 
ATOM     40  O   UNK d   0      -2.050   2.737  28.000  0.00  0.00    -0.650 OA
BRANCH  39  41
ATOM     41  O   UNK d   0      -3.729   3.586  26.738  0.00  0.00    -0.776 OA
ATOM     42  H   UNK d   0      -4.278   3.965  27.515  0.00  0.00     0.167 HD
ENDBRANCH  39  41
ENDBRANCH  38  39
ENDBRANCH  31  38
BRANCH  27  43
ATOM     43  C   UNK d   0      -5.783   0.843  25.553  0.00  0.00     0.052 C 
BRANCH  43  44
ATOM     44  C   UNK d   0      -5.714   0.320  24.155  0.00  0.00     0.115 C 
BRANCH  44  45
ATOM     45  C   UNK d   0      -7.071  -0.188  23.824  0.00  0.00     0.139 C 
ATOM     46  O   UNK d   0      -8.018   0.111  24.593  0.00  0.00    -0.650 OA
BRANCH  45  47
ATOM     47  O   UNK d   0      -7.329  -0.964  22.715  0.00  0.00    -0.776 OA
ATOM     48  H   UNK d   0      -7.095  -0.663  21.755  0.00  0.00     0.167 HD
ENDBRANCH  45  47
ENDBRANCH  44  45
ENDBRANCH  43  44
ENDBRANCH  27  43
BRANCH  24  49
ATOM     49  C   UNK d   0      -9.657  -2.985  26.545  0.00  0.00     0.052 C 
BRANCH  49  50
ATOM     50  C   UNK d   0     -10.390  -2.650  27.820  0.00  0.00     0.115 C 
BRANCH  50  51
ATOM     51  C   UNK d   0     -11.641  -3.352  28.072  0.00  0.00     0.139 C 
ATOM     52  O   UNK d   0     -11.973  -4.387  27.448  0.00  0.00    -0.650 OA
BRANCH  51  53
ATOM     53  O   UNK d   0     -12.514  -2.872  29.036  0.00  0.00    -0.776 OA
ATOM     54  H   UNK d   0     -13.345  -2.396  28.730  0.00  0.00     0.167 HD
ENDBRANCH  51  53
ENDBRANCH  50  51
ENDBRANCH  49  50
ENDBRANCH  24  49
BRANCH  21  55
ATOM     55  C   UNK d   0      -9.071  -6.016  26.675  0.00  0.00     0.151 C 
BRANCH  55  56
ATOM     56  C   UNK d   0      -9.056  -6.495  25.284  0.00  0.00     0.143 C 
ATOM     57  O   UNK d   0      -8.107  -7.144  24.803  0.00  0.00    -0.650 OA
BRANCH  56  58
ATOM     58  O   UNK d   0     -10.160  -6.200  24.484  0.00  0.00    -0.776 OA
ATOM     59  H   UNK d   0     -10.508  -5.227  24.563  0.00  0.00     0.167 HD
ENDBRANCH  56  58
ENDBRANCH  55  56
ENDBRANCH  21  55
BRANCH  18  60
ATOM     60  C   UNK d   0      -5.021  -8.235  29.410  0.00  0.00     0.151 C 
BRANCH  60  61
ATOM     61  C   UNK d   0      -5.012  -9.331  28.429  0.00  0.00     0.143 C 
ATOM     62  O   UNK d   0      -4.051 -10.028  28.104  0.00  0.00    -0.650 OA
BRANCH  61  63
ATOM     63  O   UNK d   0      -6.256  -9.592  27.807  0.00  0.00    -0.776 OA
ATOM     64  H   UNK d   0      -6.707 -10.484  27.904  0.00  0.00     0.167 HD
ENDBRANCH  61  63
ENDBRANCH  60  61
ENDBRANCH  18  60
BRANCH  14  65
ATOM     65  C   UNK d   0      -2.074  -7.808  29.996  0.00  0.00     0.052 C 
BRANCH  65  66
ATOM     66  C   UNK d   0      -2.568  -7.813  31.399  0.00  0.00     0.115 C 
BRANCH  66  67
ATOM     67  C   UNK d   0      -2.129  -6.796  32.312  0.00  0.00     0.139 C 
ATOM     68  O   UNK d   0      -2.223  -7.022  33.575  0.00  0.00    -0.650 OA
BRANCH  67  69
ATOM     69  O   UNK d   0      -1.594  -5.546  32.004  0.00  0.00    -0.776 OA
ATOM     70  H   UNK d   0      -1.354  -4.950  32.809  0.00  0.00     0.167 HD
ENDBRANCH  67  69
ENDBRANCH  66  67
ENDBRANCH  65  66
ENDBRANCH  14  65
ENDBRANCH   6   7
ENDBRANCH   5   6
ENDBRANCH   2   5
TORSDOF 28
ENDMDL
MODEL 4
REMARK VINA RESULT:      -9.7      1.376      1.793
REMARK  28 active torsions:
REMARK  status: ('A' for Active; 'I' for Inactive)
REMARK    1  A    between atoms: C_2  and  O_3 
REMARK    2  A    between atoms: C_2  and  C_4 
REMARK    3  A    between atoms: C_4  and  C_5 
REMARK    4  A    between atoms: C_5  and  C_6 
REMARK    5  A    between atoms: C_7  and  C_8 
REMARK    6  A    between atoms: C_8  and  C_9 
REMARK    7  A    between atoms: C_9  and  O_11 
REMARK    8  A    between atoms: C_28  and  C_29 
REMARK    9  A    between atoms: C_29  and  C_30 
REMARK   10  A    between atoms: C_30  and  O_32 
REMARK   11  A    between atoms: C_33  and  C_34 
REMARK   12  A    between atoms: C_34  and  C_35 
REMARK   13  A    between atoms: C_35  and  C_36 
REMARK   14  A    between atoms: C_36  and  O_38 
REMARK   15  A    between atoms: C_39  and  C_40 
REMARK   16  A    between atoms: C_40  and  C_41 
REMARK   17  A    between atoms: C_41  and  C_42 
REMARK   18  A    between atoms: C_42  and  O_44 
REMARK   19  A    between atoms: C_45  and  C_46 
REMARK   20  A    between atoms: C_46  and  C_47 
REMARK   21  A    between atoms: C_47  and  O_49 
REMARK   22  A    between atoms: C_50  and  C_51 
REMARK   23  A    between atoms: C_51  and  C_52 
REMARK   24  A    between atoms: C_52  and  O_54 
REMARK   25  A    between atoms: C_55  and  C_56 
REMARK   26  A    between atoms: C_56  and  C_57 
REMARK   27  A    between atoms: C_57  and  C_58 
REMARK   28  A    between atoms: C_58  and  O_60 
ROOT
ATOM      1  O   UNK d   0       2.016  -0.229  30.748  0.00  0.00    -0.650 OA
ATOM      2  C   UNK d   0       0.785  -0.182  30.969  0.00  0.00     0.139 C 
ENDROOT
BRANCH   2   3
ATOM      3  O   UNK d   0       0.309  -0.541  32.207  0.00  0.00    -0.776 OA
ATOM      4  H   UNK d   0       0.201  -1.524  32.466  0.00  0.00     0.167 HD
ENDBRANCH   2   3
BRANCH   2   5
ATOM      5  C   UNK d   0      -0.151   0.258  29.896  0.00  0.00     0.115 C 
BRANCH   5   6
ATOM      6  C   UNK d   0       0.162  -0.458  28.610  0.00  0.00     0.052 C 
BRANCH   6   7
ATOM      7  C   UNK d   0      -0.776  -1.612  28.344  0.00  0.00    -0.020 A 
ATOM      8  C   UNK d   0      -0.514  -2.891  28.436  0.00  0.00    -0.011 A 
ATOM      9  C   UNK d   0      -1.720  -3.618  28.076  0.00  0.00     0.067 A 
ATOM     10  C   UNK d   0      -2.102  -4.966  27.995  0.00  0.00     0.062 C 
ATOM     11  N   UNK d   0      -2.665  -2.704  27.774  0.00  0.00    -0.248 NA
ATOM     12  C   UNK d   0      -3.402  -5.474  27.896  0.00  0.00     0.041 A 
ATOM     13  N   UNK d   0      -4.457  -5.072  27.161  0.00  0.00    -0.355 N 
ATOM     14  C   UNK d   0      -3.774  -6.558  28.711  0.00  0.00    -0.022 A 
ATOM     15  C   UNK d   0      -5.490  -5.869  27.494  0.00  0.00     0.042 A 
ATOM     16  H   UNK d   0      -4.466  -4.255  26.406  0.00  0.00     0.166 HD
ATOM     17  C   UNK d   0      -6.819  -5.885  27.027  0.00  0.00     0.062 C 
ATOM     18  C   UNK d   0      -5.100  -6.813  28.464  0.00  0.00    -0.013 A 
ATOM     19  C   UNK d   0      -7.674  -4.832  26.823  0.00  0.00     0.067 A 
ATOM     20  N   UNK d   0      -7.147  -3.606  26.877  0.00  0.00    -0.248 NA
ATOM     21  C   UNK d   0      -9.095  -4.676  26.560  0.00  0.00    -0.011 A 
ATOM     22  C   UNK d   0      -8.121  -2.660  26.669  0.00  0.00     0.066 A 
ATOM     23  C   UNK d   0      -7.703  -1.337  26.661  0.00  0.00     0.062 C 
ATOM     24  C   UNK d   0      -9.350  -3.403  26.475  0.00  0.00    -0.020 A 
ATOM     25  C   UNK d   0      -6.390  -0.849  26.750  0.00  0.00     0.041 A 
ATOM     26  N   UNK d   0      -5.346  -1.239  27.491  0.00  0.00    -0.355 N 
ATOM     27  C   UNK d   0      -6.017   0.236  25.927  0.00  0.00    -0.022 A 
ATOM     28  C   UNK d   0      -4.317  -0.440  27.167  0.00  0.00     0.042 A 
ATOM     29  H   UNK d   0      -5.341  -2.053  28.256  0.00  0.00     0.166 HD
ATOM     30  C   UNK d   0      -2.992  -0.407  27.630  0.00  0.00     0.062 C 
ATOM     31  C   UNK d   0      -4.707   0.502  26.184  0.00  0.00    -0.013 A 
ATOM     32  C   UNK d   0      -2.160  -1.477  27.916  0.00  0.00     0.066 A 
BRANCH   8  33
ATOM     33  C   UNK d   0       0.768  -3.506  28.827  0.00  0.00     0.151 C 
BRANCH  33  34
ATOM     34  C   UNK d   0       0.782  -3.952  30.232  0.00  0.00     0.143 C 
ATOM     35  O   UNK d   0       1.553  -4.847  30.608  0.00  0.00    -0.650 OA
BRANCH  34  36
ATOM     36  O   UNK d   0      -0.075  -3.367  31.135  0.00  0.00    -0.776 OA
ATOM     37  H   UNK d   0      -0.586  -3.929  31.828  0.00  0.00     0.167 HD
ENDBRANCH  34  36
ENDBRANCH  33  34
ENDBRANCH   8  33
BRANCH  31  38
ATOM     38  C   UNK d   0      -3.869   1.575  25.529  0.00  0.00     0.151 C 
BRANCH  38  39
ATOM     39  C   UNK d   0      -3.779   2.781  26.324  0.00  0.00     0.143 C 
ATOM     40  O   UNK d   0      -2.936   2.921  27.227  0.00  0.00    -0.650 OA
BRANCH  39  41
ATOM     41  O   UNK d   0      -4.662   3.832  26.079  0.00  0.00    -0.776 OA
ATOM     42  H   UNK d   0      -4.249   4.760  25.943  0.00  0.00     0.167 HD
ENDBRANCH  39  41
ENDBRANCH  38  39
ENDBRANCH  31  38
BRANCH  27  43
ATOM     43  C   UNK d   0      -6.842   1.013  24.932  0.00  0.00     0.052 C 
BRANCH  43  44
ATOM     44  C   UNK d   0      -7.756   2.008  25.571  0.00  0.00     0.115 C 
BRANCH  44  45
ATOM     45  C   UNK d   0      -7.540   3.297  24.865  0.00  0.00     0.139 C 
ATOM     46  O   UNK d   0      -8.206   4.295  25.237  0.00  0.00    -0.650 OA
BRANCH  45  47
ATOM     47  O   UNK d   0      -6.640   3.442  23.831  0.00  0.00    -0.776 OA
ATOM     48  H   UNK d   0      -6.599   2.792  23.030  0.00  0.00     0.167 HD
ENDBRANCH  45  47
ENDBRANCH  44  45
ENDBRANCH  43  44
ENDBRANCH  27  43
BRANCH  24  49
ATOM     49  C   UNK d   0     -10.661  -2.798  26.180  0.00  0.00     0.052 C 
BRANCH  49  50
ATOM     50  C   UNK d   0     -10.806  -2.558  24.699  0.00  0.00     0.115 C 
BRANCH  50  51
ATOM     51  C   UNK d   0     -10.951  -1.176  24.260  0.00  0.00     0.139 C 
ATOM     52  O   UNK d   0     -12.055  -0.583  24.249  0.00  0.00    -0.650 OA
BRANCH  51  53
ATOM     53  O   UNK d   0      -9.836  -0.472  23.831  0.00  0.00    -0.776 OA
ATOM     54  H   UNK d   0      -9.078  -0.342  24.478  0.00  0.00     0.167 HD
ENDBRANCH  51  53
ENDBRANCH  50  51
ENDBRANCH  49  50
ENDBRANCH  24  49
BRANCH  21  55
ATOM     55  C   UNK d   0     -10.048  -5.816  26.416  0.00  0.00     0.151 C 
BRANCH  55  56
ATOM     56  C   UNK d   0      -9.910  -6.490  25.116  0.00  0.00     0.143 C 
ATOM     57  O   UNK d   0      -9.172  -7.480  24.943  0.00  0.00    -0.650 OA
BRANCH  56  58
ATOM     58  O   UNK d   0     -10.642  -5.986  24.043  0.00  0.00    -0.776 OA
ATOM     59  H   UNK d   0     -10.113  -5.895  23.157  0.00  0.00     0.167 HD
ENDBRANCH  56  58
ENDBRANCH  55  56
ENDBRANCH  21  55
BRANCH  18  60
ATOM     60  C   UNK d   0      -5.911  -7.895  29.132  0.00  0.00     0.151 C 
BRANCH  60  61
ATOM     61  C   UNK d   0      -5.948  -9.017  28.182  0.00  0.00     0.143 C 
ATOM     62  O   UNK d   0      -6.854  -9.294  27.395  0.00  0.00    -0.650 OA
BRANCH  61  63
ATOM     63  O   UNK d   0      -4.806  -9.855  28.194  0.00  0.00    -0.776 OA
ATOM     64  H   UNK d   0      -3.881  -9.468  28.245  0.00  0.00     0.167 HD
ENDBRANCH  61  63
ENDBRANCH  60  61
ENDBRANCH  18  60
BRANCH  14  65
ATOM     65  C   UNK d   0      -2.954  -7.425  29.623  0.00  0.00     0.052 C 
BRANCH  65  66
ATOM     66  C   UNK d   0      -3.048  -7.020  31.051  0.00  0.00     0.115 C 
BRANCH  66  67
ATOM     67  C   UNK d   0      -2.160  -6.016  31.566  0.00  0.00     0.139 C 
ATOM     68  O   UNK d   0      -2.547  -4.789  31.553  0.00  0.00    -0.650 OA
BRANCH  67  69
ATOM     69  O   UNK d   0      -0.884  -6.197  32.099  0.00  0.00    -0.776 OA
ATOM     70  H   UNK d   0      -0.845  -6.407  33.106  0.00  0.00     0.167 HD
ENDBRANCH  67  69
ENDBRANCH  66  67
ENDBRANCH  65  66
ENDBRANCH  14  65
ENDBRANCH   6   7
ENDBRANCH   5   6
ENDBRANCH   2   5
TORSDOF 28
ENDMDL
MODEL 5
REMARK VINA RESULT:      -9.6      1.939      7.668
REMARK  28 active torsions:
REMARK  status: ('A' for Active; 'I' for Inactive)
REMARK    1  A    between atoms: C_2  and  O_3 
REMARK    2  A    between atoms: C_2  and  C_4 
REMARK    3  A    between atoms: C_4  and  C_5 
REMARK    4  A    between atoms: C_5  and  C_6 
REMARK    5  A    between atoms: C_7  and  C_8 
REMARK    6  A    between atoms: C_8  and  C_9 
REMARK    7  A    between atoms: C_9  and  O_11 
REMARK    8  A    between atoms: C_28  and  C_29 
REMARK    9  A    between atoms: C_29  and  C_30 
REMARK   10  A    between atoms: C_30  and  O_32 
REMARK   11  A    between atoms: C_33  and  C_34 
REMARK   12  A    between atoms: C_34  and  C_35 
REMARK   13  A    between atoms: C_35  and  C_36 
REMARK   14  A    between atoms: C_36  and  O_38 
REMARK   15  A    between atoms: C_39  and  C_40 
REMARK   16  A    between atoms: C_40  and  C_41 
REMARK   17  A    between atoms: C_41  and  C_42 
REMARK   18  A    between atoms: C_42  and  O_44 
REMARK   19  A    between atoms: C_45  and  C_46 
REMARK   20  A    between atoms: C_46  and  C_47 
REMARK   21  A    between atoms: C_47  and  O_49 
REMARK   22  A    between atoms: C_50  and  C_51 
REMARK   23  A    between atoms: C_51  and  C_52 
REMARK   24  A    between atoms: C_52  and  O_54 
REMARK   25  A    between atoms: C_55  and  C_56 
REMARK   26  A    between atoms: C_56  and  C_57 
REMARK   27  A    between atoms: C_57  and  C_58 
REMARK   28  A    between atoms: C_58  and  O_60 
ROOT
ATOM      1  O   UNK d   0      -2.021  -9.350  33.237  0.00  0.00    -0.650 OA
ATOM      2  C   UNK d   0      -2.434  -8.330  32.642  0.00  0.00     0.139 C 
ENDROOT
BRANCH   2   3
ATOM      3  O   UNK d   0      -2.503  -7.137  33.320  0.00  0.00    -0.776 OA
ATOM      4  H   UNK d   0      -2.552  -7.112  34.340  0.00  0.00     0.167 HD
ENDBRANCH   2   3
BRANCH   2   5
ATOM      5  C   UNK d   0      -2.847  -8.413  31.212  0.00  0.00     0.115 C 
BRANCH   5   6
ATOM      6  C   UNK d   0      -1.690  -8.061  30.318  0.00  0.00     0.052 C 
BRANCH   6   7
ATOM      7  C   UNK d   0      -1.594  -6.578  30.048  0.00  0.00    -0.020 A 
ATOM      8  C   UNK d   0      -0.733  -5.730  30.549  0.00  0.00    -0.011 A 
ATOM      9  C   UNK d   0      -1.036  -4.416  30.007  0.00  0.00     0.067 A 
ATOM     10  C   UNK d   0      -0.498  -3.125  30.121  0.00  0.00     0.062 C 
ATOM     11  N   UNK d   0      -2.100  -4.556  29.189  0.00  0.00    -0.248 NA
ATOM     12  C   UNK d   0      -0.757  -2.023  29.298  0.00  0.00     0.041 A 
ATOM     13  N   UNK d   0      -1.908  -1.557  28.777  0.00  0.00    -0.355 N 
ATOM     14  C   UNK d   0       0.322  -1.243  28.846  0.00  0.00    -0.022 A 
ATOM     15  C   UNK d   0      -1.586  -0.506  28.000  0.00  0.00     0.042 A 
ATOM     16  H   UNK d   0      -2.930  -1.951  28.971  0.00  0.00     0.166 HD
ATOM     17  C   UNK d   0      -2.403   0.343  27.227  0.00  0.00     0.062 C 
ATOM     18  C   UNK d   0      -0.196  -0.279  28.017  0.00  0.00    -0.013 A 
ATOM     19  C   UNK d   0      -3.436   0.015  26.386  0.00  0.00     0.067 A 
ATOM     20  N   UNK d   0      -3.878  -1.244  26.434  0.00  0.00    -0.248 NA
ATOM     21  C   UNK d   0      -4.224   0.707  25.381  0.00  0.00    -0.011 A 
ATOM     22  C   UNK d   0      -4.897  -1.426  25.532  0.00  0.00     0.066 A 
ATOM     23  C   UNK d   0      -5.477  -2.686  25.503  0.00  0.00     0.062 C 
ATOM     24  C   UNK d   0      -5.075  -0.143  24.881  0.00  0.00    -0.020 A 
ATOM     25  C   UNK d   0      -5.211  -3.775  26.347  0.00  0.00     0.041 A 
ATOM     26  N   UNK d   0      -4.066  -4.247  26.853  0.00  0.00    -0.355 N 
ATOM     27  C   UNK d   0      -6.296  -4.555  26.804  0.00  0.00    -0.022 A 
ATOM     28  C   UNK d   0      -4.383  -5.301  27.621  0.00  0.00     0.042 A 
ATOM     29  H   UNK d   0      -3.038  -3.857  26.649  0.00  0.00     0.166 HD
ATOM     30  C   UNK d   0      -3.580  -6.160  28.388  0.00  0.00     0.062 C 
ATOM     31  C   UNK d   0      -5.781  -5.522  27.611  0.00  0.00    -0.013 A 
ATOM     32  C   UNK d   0      -2.483  -5.833  29.170  0.00  0.00     0.066 A 
BRANCH   8  33
ATOM     33  C   UNK d   0       0.354  -6.029  31.500  0.00  0.00     0.151 C 
BRANCH  33  34
ATOM     34  C   UNK d   0       0.312  -5.177  32.702  0.00  0.00     0.143 C 
ATOM     35  O   UNK d   0      -0.684  -5.165  33.439  0.00  0.00    -0.650 OA
BRANCH  34  36
ATOM     36  O   UNK d   0       1.394  -4.384  33.006  0.00  0.00    -0.776 OA
ATOM     37  H   UNK d   0       2.356  -4.696  32.815  0.00  0.00     0.167 HD
ENDBRANCH  34  36
ENDBRANCH  33  34
ENDBRANCH   8  33
BRANCH  31  38
ATOM     38  C   UNK d   0      -6.568  -6.586  28.341  0.00  0.00     0.151 C 
BRANCH  38  39
ATOM     39  C   UNK d   0      -6.713  -7.804  27.573  0.00  0.00     0.143 C 
ATOM     40  O   UNK d   0      -6.183  -8.875  27.916  0.00  0.00    -0.650 OA
BRANCH  39  41
ATOM     41  O   UNK d   0      -7.474  -7.791  26.404  0.00  0.00    -0.776 OA
ATOM     42  H   UNK d   0      -7.136  -8.368  25.628  0.00  0.00     0.167 HD
ENDBRANCH  39  41
ENDBRANCH  38  39
ENDBRANCH  31  38
BRANCH  27  43
ATOM     43  C   UNK d   0      -7.768  -4.418  26.505  0.00  0.00     0.052 C 
BRANCH  43  44
ATOM     44  C   UNK d   0      -8.404  -3.253  27.192  0.00  0.00     0.115 C 
BRANCH  44  45
ATOM     45  C   UNK d   0      -9.849  -3.295  26.847  0.00  0.00     0.139 C 
ATOM     46  O   UNK d   0     -10.334  -2.326  26.212  0.00  0.00    -0.650 OA
BRANCH  45  47
ATOM     47  O   UNK d   0     -10.669  -4.349  27.190  0.00  0.00    -0.776 OA
ATOM     48  H   UNK d   0     -10.401  -5.336  27.048  0.00  0.00     0.167 HD
ENDBRANCH  45  47
ENDBRANCH  44  45
ENDBRANCH  43  44
ENDBRANCH  27  43
BRANCH  24  49
ATOM     49  C   UNK d   0      -6.094   0.148  23.858  0.00  0.00     0.052 C 
BRANCH  49  50
ATOM     50  C   UNK d   0      -7.403   0.512  24.510  0.00  0.00     0.115 C 
BRANCH  50  51
ATOM     51  C   UNK d   0      -8.587  -0.217  24.076  0.00  0.00     0.139 C 
ATOM     52  O   UNK d   0      -9.682   0.349  23.845  0.00  0.00    -0.650 OA
BRANCH  51  53
ATOM     53  O   UNK d   0      -8.524  -1.591  23.907  0.00  0.00    -0.776 OA
ATOM     54  H   UNK d   0      -8.378  -2.164  24.720  0.00  0.00     0.167 HD
ENDBRANCH  51  53
ENDBRANCH  50  51
ENDBRANCH  49  50
ENDBRANCH  24  49
BRANCH  21  55
ATOM     55  C   UNK d   0      -4.049   2.147  25.027  0.00  0.00     0.151 C 
BRANCH  55  56
ATOM     56  C   UNK d   0      -4.635   3.039  26.039  0.00  0.00     0.143 C 
ATOM     57  O   UNK d   0      -5.865   3.169  26.192  0.00  0.00    -0.650 OA
BRANCH  56  58
ATOM     58  O   UNK d   0      -3.763   3.761  26.851  0.00  0.00    -0.776 OA
ATOM     59  H   UNK d   0      -3.129   3.184  27.432  0.00  0.00     0.167 HD
ENDBRANCH  56  58
ENDBRANCH  55  56
ENDBRANCH  21  55
BRANCH  18  60
ATOM     60  C   UNK d   0       0.615   0.774  27.303  0.00  0.00     0.151 C 
BRANCH  60  61
ATOM     61  C   UNK d   0       0.720   1.906  28.237  0.00  0.00     0.143 C 
ATOM     62  O   UNK d   0      -0.204   2.484  28.809  0.00  0.00    -0.650 OA
BRANCH  61  63
ATOM     63  O   UNK d   0       2.037   2.359  28.488  0.00  0.00    -0.776 OA
ATOM     64  H   UNK d   0       2.289   2.755  29.376  0.00  0.00     0.167 HD
ENDBRANCH  61  63
ENDBRANCH  60  61
ENDBRANCH  18  60
BRANCH  14  65
ATOM     65  C   UNK d   0       1.779  -1.278  29.212  0.00  0.00     0.052 C 
BRANCH  65  66
ATOM     66  C   UNK d   0       2.096  -0.466  30.418  0.00  0.00     0.115 C 
BRANCH  66  67
ATOM     67  C   UNK d   0       1.294  -0.606  31.600  0.00  0.00     0.139 C 
ATOM     68  O   UNK d   0       1.567  -1.560  32.418  0.00  0.00    -0.650 OA
BRANCH  67  69
ATOM     69  O   UNK d   0       0.215   0.183  31.998  0.00  0.00    -0.776 OA
ATOM     70  H   UNK d   0      -0.702  -0.287  32.015  0.00  0.00     0.167 HD
ENDBRANCH  67  69
ENDBRANCH  66  67
ENDBRANCH  65  66
ENDBRANCH  14  65
ENDBRANCH   6   7
ENDBRANCH   5   6
ENDBRANCH   2   5
TORSDOF 28
ENDMDL
MODEL 6
REMARK VINA RESULT:      -9.6     32.856     34.901
REMARK  28 active torsions:
REMARK  status: ('A' for Active; 'I' for Inactive)
REMARK    1  A    between atoms: C_2  and  O_3 
REMARK    2  A    between atoms: C_2  and  C_4 
REMARK    3  A    between atoms: C_4  and  C_5 
REMARK    4  A    between atoms: C_5  and  C_6 
REMARK    5  A    between atoms: C_7  and  C_8 
REMARK    6  A    between atoms: C_8  and  C_9 
REMARK    7  A    between atoms: C_9  and  O_11 
REMARK    8  A    between atoms: C_28  and  C_29 
REMARK    9  A    between atoms: C_29  and  C_30 
REMARK   10  A    between atoms: C_30  and  O_32 
REMARK   11  A    between atoms: C_33  and  C_34 
REMARK   12  A    between atoms: C_34  and  C_35 
REMARK   13  A    between atoms: C_35  and  C_36 
REMARK   14  A    between atoms: C_36  and  O_38 
REMARK   15  A    between atoms: C_39  and  C_40 
REMARK   16  A    between atoms: C_40  and  C_41 
REMARK   17  A    between atoms: C_41  and  C_42 
REMARK   18  A    between atoms: C_42  and  O_44 
REMARK   19  A    between atoms: C_45  and  C_46 
REMARK   20  A    between atoms: C_46  and  C_47 
REMARK   21  A    between atoms: C_47  and  O_49 
REMARK   22  A    between atoms: C_50  and  C_51 
REMARK   23  A    between atoms: C_51  and  C_52 
REMARK   24  A    between atoms: C_52  and  O_54 
REMARK   25  A    between atoms: C_55  and  C_56 
REMARK   26  A    between atoms: C_56  and  C_57 
REMARK   27  A    between atoms: C_57  and  C_58 
REMARK   28  A    between atoms: C_58  and  O_60 
ROOT
ATOM      1  O   UNK d   0       9.843 -13.160  -6.606  0.00  0.00    -0.650 OA
ATOM      2  C   UNK d   0      10.178 -13.902  -5.656  0.00  0.00     0.139 C 
ENDROOT
BRANCH   2   3
ATOM      3  O   UNK d   0       9.205 -14.495  -4.889  0.00  0.00    -0.776 OA
ATOM      4  H   UNK d   0       9.003 -14.164  -3.943  0.00  0.00     0.167 HD
ENDBRANCH   2   3
BRANCH   2   5
ATOM      5  C   UNK d   0      11.621 -14.137  -5.362  0.00  0.00     0.115 C 
BRANCH   5   6
ATOM      6  C   UNK d   0      11.768 -14.925  -4.089  0.00  0.00     0.052 C 
BRANCH   6   7
ATOM      7  C   UNK d   0      12.301 -14.091  -2.948  0.00  0.00    -0.020 A 
ATOM      8  C   UNK d   0      13.340 -14.342  -2.194  0.00  0.00    -0.011 A 
ATOM      9  C   UNK d   0      13.459 -13.264  -1.226  0.00  0.00     0.067 A 
ATOM     10  C   UNK d   0      14.339 -12.930  -0.185  0.00  0.00     0.062 C 
ATOM     11  N   UNK d   0      12.447 -12.403  -1.461  0.00  0.00    -0.248 NA
ATOM     12  C   UNK d   0      14.454 -11.696   0.464  0.00  0.00     0.041 A 
ATOM     13  N   UNK d   0      13.516 -10.837   0.906  0.00  0.00    -0.355 N 
ATOM     14  C   UNK d   0      15.736 -11.161   0.685  0.00  0.00    -0.022 A 
ATOM     15  C   UNK d   0      14.170  -9.766   1.395  0.00  0.00     0.042 A 
ATOM     16  H   UNK d   0      12.415 -10.992   0.891  0.00  0.00     0.166 HD
ATOM     17  C   UNK d   0      13.676  -8.582   1.979  0.00  0.00     0.062 C 
ATOM     18  C   UNK d   0      15.563  -9.932   1.274  0.00  0.00    -0.013 A 
ATOM     19  C   UNK d   0      12.641  -7.784   1.565  0.00  0.00     0.067 A 
ATOM     20  N   UNK d   0      11.853  -8.266   0.601  0.00  0.00    -0.248 NA
ATOM     21  C   UNK d   0      12.142  -6.461   1.903  0.00  0.00    -0.011 A 
ATOM     22  C   UNK d   0      10.877  -7.354   0.282  0.00  0.00     0.066 A 
ATOM     23  C   UNK d   0       9.961  -7.744  -0.684  0.00  0.00     0.062 C 
ATOM     24  C   UNK d   0      11.112  -6.214   1.146  0.00  0.00    -0.020 A 
ATOM     25  C   UNK d   0       9.855  -8.993  -1.315  0.00  0.00     0.041 A 
ATOM     26  N   UNK d   0      10.786  -9.841  -1.768  0.00  0.00    -0.355 N 
ATOM     27  C   UNK d   0       8.568  -9.532  -1.533  0.00  0.00    -0.022 A 
ATOM     28  C   UNK d   0      10.136 -10.906  -2.264  0.00  0.00     0.042 A 
ATOM     29  H   UNK d   0      11.892  -9.678  -1.761  0.00  0.00     0.166 HD
ATOM     30  C   UNK d   0      10.615 -12.085  -2.856  0.00  0.00     0.062 C 
ATOM     31  C   UNK d   0       8.737 -10.742  -2.132  0.00  0.00    -0.013 A 
ATOM     32  C   UNK d   0      11.714 -12.843  -2.484  0.00  0.00     0.066 A 
BRANCH   8  33
ATOM     33  C   UNK d   0      14.240 -15.507  -2.287  0.00  0.00     0.151 C 
BRANCH  33  34
ATOM     34  C   UNK d   0      15.598 -15.144  -2.733  0.00  0.00     0.143 C 
ATOM     35  O   UNK d   0      15.806 -14.763  -3.894  0.00  0.00    -0.650 OA
BRANCH  34  36
ATOM     36  O   UNK d   0      16.646 -15.233  -1.847  0.00  0.00    -0.776 OA
ATOM     37  H   UNK d   0      17.305 -16.024  -1.876  0.00  0.00     0.167 HD
ENDBRANCH  34  36
ENDBRANCH  33  34
ENDBRANCH   8  33
BRANCH  31  38
ATOM     38  C   UNK d   0       7.638 -11.694  -2.544  0.00  0.00     0.151 C 
BRANCH  38  39
ATOM     39  C   UNK d   0       7.564 -12.866  -1.698  0.00  0.00     0.143 C 
ATOM     40  O   UNK d   0       7.322 -12.793  -0.480  0.00  0.00    -0.650 OA
BRANCH  39  41
ATOM     41  O   UNK d   0       7.768 -14.128  -2.254  0.00  0.00    -0.776 OA
ATOM     42  H   UNK d   0       8.622 -14.257  -2.806  0.00  0.00     0.167 HD
ENDBRANCH  39  41
ENDBRANCH  38  39
ENDBRANCH  31  38
BRANCH  27  43
ATOM     43  C   UNK d   0       7.217  -8.950  -1.201  0.00  0.00     0.052 C 
BRANCH  43  44
ATOM     44  C   UNK d   0       6.761  -9.268   0.186  0.00  0.00     0.115 C 
BRANCH  44  45
ATOM     45  C   UNK d   0       5.358  -9.746   0.073  0.00  0.00     0.139 C 
ATOM     46  O   UNK d   0       4.435  -8.899   0.166  0.00  0.00    -0.650 OA
BRANCH  45  47
ATOM     47  O   UNK d   0       5.034 -11.069  -0.133  0.00  0.00    -0.776 OA
ATOM     48  H   UNK d   0       5.413 -11.623  -0.919  0.00  0.00     0.167 HD
ENDBRANCH  45  47
ENDBRANCH  44  45
ENDBRANCH  43  44
ENDBRANCH  27  43
BRANCH  24  49
ATOM     49  C   UNK d   0      10.278  -5.000   1.183  0.00  0.00     0.052 C 
BRANCH  49  50
ATOM     50  C   UNK d   0      10.476  -4.190  -0.072  0.00  0.00     0.115 C 
BRANCH  50  51
ATOM     51  C   UNK d   0      10.492  -2.740   0.068  0.00  0.00     0.139 C 
ATOM     52  O   UNK d   0      10.325  -1.965  -0.903  0.00  0.00    -0.650 OA
BRANCH  51  53
ATOM     53  O   UNK d   0      10.700  -2.174   1.316  0.00  0.00    -0.776 OA
ATOM     54  H   UNK d   0      10.483  -1.200   1.438  0.00  0.00     0.167 HD
ENDBRANCH  51  53
ENDBRANCH  50  51
ENDBRANCH  49  50
ENDBRANCH  24  49
BRANCH  21  55
ATOM     55  C   UNK d   0      12.744  -5.584   2.951  0.00  0.00     0.151 C 
BRANCH  55  56
ATOM     56  C   UNK d   0      13.331  -4.363   2.377  0.00  0.00     0.143 C 
ATOM     57  O   UNK d   0      13.031  -3.220   2.774  0.00  0.00    -0.650 OA
BRANCH  56  58
ATOM     58  O   UNK d   0      14.259  -4.510   1.348  0.00  0.00    -0.776 OA
ATOM     59  H   UNK d   0      13.978  -5.168   0.599  0.00  0.00     0.167 HD
ENDBRANCH  56  58
ENDBRANCH  55  56
ENDBRANCH  21  55
BRANCH  18  60
ATOM     60  C   UNK d   0      16.681  -9.003   1.678  0.00  0.00     0.151 C 
BRANCH  60  61
ATOM     61  C   UNK d   0      16.584  -7.841   0.781  0.00  0.00     0.143 C 
ATOM     62  O   UNK d   0      16.617  -7.849  -0.450  0.00  0.00    -0.650 OA
BRANCH  61  63
ATOM     63  O   UNK d   0      16.437  -6.591   1.428  0.00  0.00    -0.776 OA
ATOM     64  H   UNK d   0      17.162  -5.896   1.384  0.00  0.00     0.167 HD
ENDBRANCH  61  63
ENDBRANCH  60  61
ENDBRANCH  18  60
BRANCH  14  65
ATOM     65  C   UNK d   0      17.098 -11.758   0.475  0.00  0.00     0.052 C 
BRANCH  65  66
ATOM     66  C   UNK d   0      17.457 -12.765   1.509  0.00  0.00     0.115 C 
BRANCH  66  67
ATOM     67  C   UNK d   0      18.791 -12.796   2.040  0.00  0.00     0.139 C 
ATOM     68  O   UNK d   0      19.768 -12.488   1.262  0.00  0.00    -0.650 OA
BRANCH  67  69
ATOM     69  O   UNK d   0      19.186 -13.127   3.335  0.00  0.00    -0.776 OA
ATOM     70  H   UNK d   0      19.868 -12.491   3.772  0.00  0.00     0.167 HD
ENDBRANCH  67  69
ENDBRANCH  66  67
ENDBRANCH  65  66
ENDBRANCH  14  65
ENDBRANCH   6   7
ENDBRANCH   5   6
ENDBRANCH   2   5
TORSDOF 28
ENDMDL
MODEL 7
REMARK VINA RESULT:      -9.5      2.174      7.808
REMARK  28 active torsions:
REMARK  status: ('A' for Active; 'I' for Inactive)
REMARK    1  A    between atoms: C_2  and  O_3 
REMARK    2  A    between atoms: C_2  and  C_4 
REMARK    3  A    between atoms: C_4  and  C_5 
REMARK    4  A    between atoms: C_5  and  C_6 
REMARK    5  A    between atoms: C_7  and  C_8 
REMARK    6  A    between atoms: C_8  and  C_9 
REMARK    7  A    between atoms: C_9  and  O_11 
REMARK    8  A    between atoms: C_28  and  C_29 
REMARK    9  A    between atoms: C_29  and  C_30 
REMARK   10  A    between atoms: C_30  and  O_32 
REMARK   11  A    between atoms: C_33  and  C_34 
REMARK   12  A    between atoms: C_34  and  C_35 
REMARK   13  A    between atoms: C_35  and  C_36 
REMARK   14  A    between atoms: C_36  and  O_38 
REMARK   15  A    between atoms: C_39  and  C_40 
REMARK   16  A    between atoms: C_40  and  C_41 
REMARK   17  A    between atoms: C_41  and  C_42 
REMARK   18  A    between atoms: C_42  and  O_44 
REMARK   19  A    between atoms: C_45  and  C_46 
REMARK   20  A    between atoms: C_46  and  C_47 
REMARK   21  A    between atoms: C_47  and  O_49 
REMARK   22  A    between atoms: C_50  and  C_51 
REMARK   23  A    between atoms: C_51  and  C_52 
REMARK   24  A    between atoms: C_52  and  O_54 
REMARK   25  A    between atoms: C_55  and  C_56 
REMARK   26  A    between atoms: C_56  and  C_57 
REMARK   27  A    between atoms: C_57  and  C_58 
REMARK   28  A    between atoms: C_58  and  O_60 
ROOT
ATOM      1  O   UNK d   0       1.175 -10.380  30.598  0.00  0.00    -0.650 OA
ATOM      2  C   UNK d   0      -0.059 -10.336  30.796  0.00  0.00     0.139 C 
ENDROOT
BRANCH   2   3
ATOM      3  O   UNK d   0      -0.606 -11.083  31.812  0.00  0.00    -0.776 OA
ATOM      4  H   UNK d   0      -1.182 -11.903  31.613  0.00  0.00     0.167 HD
ENDBRANCH   2   3
BRANCH   2   5
ATOM      5  C   UNK d   0      -0.925  -9.482  29.934  0.00  0.00     0.115 C 
BRANCH   5   6
ATOM      6  C   UNK d   0      -1.856  -8.663  30.786  0.00  0.00     0.052 C 
BRANCH   6   7
ATOM      7  C   UNK d   0      -1.799  -7.190  30.458  0.00  0.00    -0.020 A 
ATOM      8  C   UNK d   0      -1.015  -6.284  30.985  0.00  0.00    -0.011 A 
ATOM      9  C   UNK d   0      -1.328  -5.009  30.363  0.00  0.00     0.067 A 
ATOM     10  C   UNK d   0      -0.853  -3.692  30.459  0.00  0.00     0.062 C 
ATOM     11  N   UNK d   0      -2.318  -5.229  29.473  0.00  0.00    -0.248 NA
ATOM     12  C   UNK d   0      -1.091  -2.638  29.570  0.00  0.00     0.041 A 
ATOM     13  N   UNK d   0      -2.216  -2.245  28.942  0.00  0.00    -0.355 N 
ATOM     14  C   UNK d   0      -0.012  -1.830  29.167  0.00  0.00    -0.022 A 
ATOM     15  C   UNK d   0      -1.877  -1.214  28.145  0.00  0.00     0.042 A 
ATOM     16  H   UNK d   0      -3.233  -2.675  29.075  0.00  0.00     0.166 HD
ATOM     17  C   UNK d   0      -2.664  -0.435  27.275  0.00  0.00     0.062 C 
ATOM     18  C   UNK d   0      -0.503  -0.926  28.258  0.00  0.00    -0.013 A 
ATOM     19  C   UNK d   0      -3.615  -0.842  26.374  0.00  0.00     0.067 A 
ATOM     20  N   UNK d   0      -4.008  -2.117  26.444  0.00  0.00    -0.248 NA
ATOM     21  C   UNK d   0      -4.350  -0.228  25.281  0.00  0.00    -0.011 A 
ATOM     22  C   UNK d   0      -4.945  -2.381  25.476  0.00  0.00     0.066 A 
ATOM     23  C   UNK d   0      -5.470  -3.665  25.460  0.00  0.00     0.062 C 
ATOM     24  C   UNK d   0      -5.123  -1.135  24.757  0.00  0.00    -0.020 A 
ATOM     25  C   UNK d   0      -5.227  -4.705  26.369  0.00  0.00     0.041 A 
ATOM     26  N   UNK d   0      -4.106  -5.105  26.982  0.00  0.00    -0.355 N 
ATOM     27  C   UNK d   0      -6.311  -5.512  26.777  0.00  0.00    -0.022 A 
ATOM     28  C   UNK d   0      -4.440  -6.139  27.771  0.00  0.00     0.042 A 
ATOM     29  H   UNK d   0      -3.083  -4.679  26.840  0.00  0.00     0.166 HD
ATOM     30  C   UNK d   0      -3.665  -6.929  28.635  0.00  0.00     0.062 C 
ATOM     31  C   UNK d   0      -5.823  -6.421  27.665  0.00  0.00    -0.013 A 
ATOM     32  C   UNK d   0      -2.647  -6.522  29.482  0.00  0.00     0.066 A 
BRANCH   8  33
ATOM     33  C   UNK d   0       0.005  -6.496  32.028  0.00  0.00     0.151 C 
BRANCH  33  34
ATOM     34  C   UNK d   0       1.380  -6.449  31.499  0.00  0.00     0.143 C 
ATOM     35  O   UNK d   0       1.988  -5.374  31.401  0.00  0.00    -0.650 OA
BRANCH  34  36
ATOM     36  O   UNK d   0       1.993  -7.617  31.108  0.00  0.00    -0.776 OA
ATOM     37  H   UNK d   0       2.735  -7.618  30.394  0.00  0.00     0.167 HD
ENDBRANCH  34  36
ENDBRANCH  33  34
ENDBRANCH   8  33
BRANCH  31  38
ATOM     38  C   UNK d   0      -6.620  -7.486  28.380  0.00  0.00     0.151 C 
BRANCH  38  39
ATOM     39  C   UNK d   0      -6.632  -8.749  27.672  0.00  0.00     0.143 C 
ATOM     40  O   UNK d   0      -5.869  -9.685  27.970  0.00  0.00    -0.650 OA
BRANCH  39  41
ATOM     41  O   UNK d   0      -7.525  -8.937  26.618  0.00  0.00    -0.776 OA
ATOM     42  H   UNK d   0      -7.277  -9.649  25.924  0.00  0.00     0.167 HD
ENDBRANCH  39  41
ENDBRANCH  38  39
ENDBRANCH  31  38
BRANCH  27  43
ATOM     43  C   UNK d   0      -7.760  -5.452  26.362  0.00  0.00     0.052 C 
BRANCH  43  44
ATOM     44  C   UNK d   0      -8.461  -4.222  26.838  0.00  0.00     0.115 C 
BRANCH  44  45
ATOM     45  C   UNK d   0      -9.853  -4.300  26.323  0.00  0.00     0.139 C 
ATOM     46  O   UNK d   0     -10.640  -5.115  26.865  0.00  0.00    -0.650 OA
BRANCH  45  47
ATOM     47  O   UNK d   0     -10.311  -3.515  25.287  0.00  0.00    -0.776 OA
ATOM     48  H   UNK d   0      -9.761  -3.341  24.430  0.00  0.00     0.167 HD
ENDBRANCH  45  47
ENDBRANCH  44  45
ENDBRANCH  43  44
ENDBRANCH  27  43
BRANCH  24  49
ATOM     49  C   UNK d   0      -6.070  -0.932  23.647  0.00  0.00     0.052 C 
BRANCH  49  50
ATOM     50  C   UNK d   0      -7.466  -1.309  24.073  0.00  0.00     0.115 C 
BRANCH  50  51
ATOM     51  C   UNK d   0      -8.205  -0.336  24.866  0.00  0.00     0.139 C 
ATOM     52  O   UNK d   0      -8.096   0.901  24.693  0.00  0.00    -0.650 OA
BRANCH  51  53
ATOM     53  O   UNK d   0      -9.066  -0.774  25.861  0.00  0.00    -0.776 OA
ATOM     54  H   UNK d   0     -10.028  -0.937  25.619  0.00  0.00     0.167 HD
ENDBRANCH  51  53
ENDBRANCH  50  51
ENDBRANCH  49  50
ENDBRANCH  24  49
BRANCH  21  55
ATOM     55  C   UNK d   0      -4.205   1.202  24.877  0.00  0.00     0.151 C 
BRANCH  55  56
ATOM     56  C   UNK d   0      -4.682   2.121  25.922  0.00  0.00     0.143 C 
ATOM     57  O   UNK d   0      -3.909   2.768  26.655  0.00  0.00    -0.650 OA
BRANCH  56  58
ATOM     58  O   UNK d   0      -6.059   2.261  26.085  0.00  0.00    -0.776 OA
ATOM     59  H   UNK d   0      -6.345   2.906  26.843  0.00  0.00     0.167 HD
ENDBRANCH  56  58
ENDBRANCH  55  56
ENDBRANCH  21  55
BRANCH  18  60
ATOM     60  C   UNK d   0       0.318   0.131  27.561  0.00  0.00     0.151 C 
BRANCH  60  61
ATOM     61  C   UNK d   0      -0.129   1.419  28.113  0.00  0.00     0.143 C 
ATOM     62  O   UNK d   0       0.008   1.818  29.270  0.00  0.00    -0.650 OA
BRANCH  61  63
ATOM     63  O   UNK d   0      -0.783   2.274  27.195  0.00  0.00    -0.776 OA
ATOM     64  H   UNK d   0      -0.362   3.138  26.900  0.00  0.00     0.167 HD
ENDBRANCH  61  63
ENDBRANCH  60  61
ENDBRANCH  18  60
BRANCH  14  65
ATOM     65  C   UNK d   0       1.412  -1.786  29.643  0.00  0.00     0.052 C 
BRANCH  65  66
ATOM     66  C   UNK d   0       1.593  -0.945  30.856  0.00  0.00     0.115 C 
BRANCH  66  67
ATOM     67  C   UNK d   0       1.179  -1.444  32.137  0.00  0.00     0.139 C 
ATOM     68  O   UNK d   0       1.809  -2.447  32.638  0.00  0.00    -0.650 OA
BRANCH  67  69
ATOM     69  O   UNK d   0       0.145  -0.970  32.944  0.00  0.00    -0.776 OA
ATOM     70  H   UNK d   0      -0.071  -1.539  33.775  0.00  0.00     0.167 HD
ENDBRANCH  67  69
ENDBRANCH  66  67
ENDBRANCH  65  66
ENDBRANCH  14  65
ENDBRANCH   6   7
ENDBRANCH   5   6
ENDBRANCH   2   5
TORSDOF 28
ENDMDL
MODEL 8
REMARK VINA RESULT:      -9.5      5.672     11.181
REMARK  28 active torsions:
REMARK  status: ('A' for Active; 'I' for Inactive)
REMARK    1  A    between atoms: C_2  and  O_3 
REMARK    2  A    between atoms: C_2  and  C_4 
REMARK    3  A    between atoms: C_4  and  C_5 
REMARK    4  A    between atoms: C_5  and  C_6 
REMARK    5  A    between atoms: C_7  and  C_8 
REMARK    6  A    between atoms: C_8  and  C_9 
REMARK    7  A    between atoms: C_9  and  O_11 
REMARK    8  A    between atoms: C_28  and  C_29 
REMARK    9  A    between atoms: C_29  and  C_30 
REMARK   10  A    between atoms: C_30  and  O_32 
REMARK   11  A    between atoms: C_33  and  C_34 
REMARK   12  A    between atoms: C_34  and  C_35 
REMARK   13  A    between atoms: C_35  and  C_36 
REMARK   14  A    between atoms: C_36  and  O_38 
REMARK   15  A    between atoms: C_39  and  C_40 
REMARK   16  A    between atoms: C_40  and  C_41 
REMARK   17  A    between atoms: C_41  and  C_42 
REMARK   18  A    between atoms: C_42  and  O_44 
REMARK   19  A    between atoms: C_45  and  C_46 
REMARK   20  A    between atoms: C_46  and  C_47 
REMARK   21  A    between atoms: C_47  and  O_49 
REMARK   22  A    between atoms: C_50  and  C_51 
REMARK   23  A    between atoms: C_51  and  C_52 
REMARK   24  A    between atoms: C_52  and  O_54 
REMARK   25  A    between atoms: C_55  and  C_56 
REMARK   26  A    between atoms: C_56  and  C_57 
REMARK   27  A    between atoms: C_57  and  C_58 
REMARK   28  A    between atoms: C_58  and  O_60 
ROOT
ATOM      1  O   UNK d   0       9.199   0.392  24.527  0.00  0.00    -0.650 OA
ATOM      2  C   UNK d   0       7.958   0.456  24.672  0.00  0.00     0.139 C 
ENDROOT
BRANCH   2   3
ATOM      3  O   UNK d   0       7.290   1.587  24.268  0.00  0.00    -0.776 OA
ATOM      4  H   UNK d   0       6.450   1.906  24.755  0.00  0.00     0.167 HD
ENDBRANCH   2   3
BRANCH   2   5
ATOM      5  C   UNK d   0       7.216  -0.686  25.278  0.00  0.00     0.115 C 
BRANCH   5   6
ATOM      6  C   UNK d   0       7.288  -0.611  26.779  0.00  0.00     0.052 C 
BRANCH   6   7
ATOM      7  C   UNK d   0       5.975  -0.952  27.442  0.00  0.00    -0.020 A 
ATOM      8  C   UNK d   0       4.999  -0.135  27.747  0.00  0.00    -0.011 A 
ATOM      9  C   UNK d   0       3.947  -0.915  28.377  0.00  0.00     0.067 A 
ATOM     10  C   UNK d   0       2.670  -0.657  28.900  0.00  0.00     0.062 C 
ATOM     11  N   UNK d   0       4.369  -2.196  28.420  0.00  0.00    -0.248 NA
ATOM     12  C   UNK d   0       1.680  -1.593  29.218  0.00  0.00     0.041 A 
ATOM     13  N   UNK d   0       1.754  -2.785  29.839  0.00  0.00    -0.355 N 
ATOM     14  C   UNK d   0       0.357  -1.350  28.807  0.00  0.00    -0.022 A 
ATOM     15  C   UNK d   0       0.513  -3.308  29.826  0.00  0.00     0.042 A 
ATOM     16  H   UNK d   0       2.661  -3.239  30.295  0.00  0.00     0.166 HD
ATOM     17  C   UNK d   0       0.031  -4.529  30.338  0.00  0.00     0.062 C 
ATOM     18  C   UNK d   0      -0.390  -2.437  29.187  0.00  0.00    -0.013 A 
ATOM     19  C   UNK d   0       0.580  -5.782  30.241  0.00  0.00     0.067 A 
ATOM     20  N   UNK d   0       1.829  -5.861  29.776  0.00  0.00    -0.248 NA
ATOM     21  C   UNK d   0       0.138  -7.141  30.510  0.00  0.00    -0.011 A 
ATOM     22  C   UNK d   0       2.236  -7.171  29.721  0.00  0.00     0.066 A 
ATOM     23  C   UNK d   0       3.535  -7.396  29.289  0.00  0.00     0.062 C 
ATOM     24  C   UNK d   0       1.110  -7.949  30.200  0.00  0.00    -0.020 A 
ATOM     25  C   UNK d   0       4.518  -6.442  28.987  0.00  0.00     0.041 A 
ATOM     26  N   UNK d   0       4.448  -5.263  28.356  0.00  0.00    -0.355 N 
ATOM     27  C   UNK d   0       5.845  -6.684  29.404  0.00  0.00    -0.022 A 
ATOM     28  C   UNK d   0       5.685  -4.743  28.360  0.00  0.00     0.042 A 
ATOM     29  H   UNK d   0       3.538  -4.813  27.889  0.00  0.00     0.166 HD
ATOM     30  C   UNK d   0       6.181  -3.535  27.846  0.00  0.00     0.062 C 
ATOM     31  C   UNK d   0       6.590  -5.615  29.012  0.00  0.00    -0.013 A 
ATOM     32  C   UNK d   0       5.582  -2.285  27.873  0.00  0.00     0.066 A 
BRANCH   8  33
ATOM     33  C   UNK d   0       4.955   1.319  27.509  0.00  0.00     0.151 C 
BRANCH  33  34
ATOM     34  C   UNK d   0       4.421   2.070  28.659  0.00  0.00     0.143 C 
ATOM     35  O   UNK d   0       5.069   2.167  29.712  0.00  0.00    -0.650 OA
BRANCH  34  36
ATOM     36  O   UNK d   0       3.187   2.669  28.561  0.00  0.00    -0.776 OA
ATOM     37  H   UNK d   0       2.920   3.210  27.727  0.00  0.00     0.167 HD
ENDBRANCH  34  36
ENDBRANCH  33  34
ENDBRANCH   8  33
BRANCH  31  38
ATOM     38  C   UNK d   0       8.070  -5.423  29.252  0.00  0.00     0.151 C 
BRANCH  38  39
ATOM     39  C   UNK d   0       8.863  -5.627  28.059  0.00  0.00     0.143 C 
ATOM     40  O   UNK d   0       9.709  -4.800  27.673  0.00  0.00    -0.650 OA
BRANCH  39  41
ATOM     41  O   UNK d   0       8.686  -6.788  27.307  0.00  0.00    -0.776 OA
ATOM     42  H   UNK d   0       7.728  -7.005  27.013  0.00  0.00     0.167 HD
ENDBRANCH  39  41
ENDBRANCH  38  39
ENDBRANCH  31  38
BRANCH  27  43
ATOM     43  C   UNK d   0       6.417  -7.870  30.141  0.00  0.00     0.052 C 
BRANCH  43  44
ATOM     44  C   UNK d   0       7.194  -8.794  29.262  0.00  0.00     0.115 C 
BRANCH  44  45
ATOM     45  C   UNK d   0       6.200  -9.556  28.462  0.00  0.00     0.139 C 
ATOM     46  O   UNK d   0       5.688 -10.582  28.976  0.00  0.00    -0.650 OA
BRANCH  45  47
ATOM     47  O   UNK d   0       5.817  -9.181  27.193  0.00  0.00    -0.776 OA
ATOM     48  H   UNK d   0       6.209  -8.358  26.709  0.00  0.00     0.167 HD
ENDBRANCH  45  47
ENDBRANCH  44  45
ENDBRANCH  43  44
ENDBRANCH  27  43
BRANCH  24  49
ATOM     49  C   UNK d   0       1.104  -9.414  30.352  0.00  0.00     0.052 C 
BRANCH  49  50
ATOM     50  C   UNK d   0       1.007 -10.081  29.004  0.00  0.00     0.115 C 
BRANCH  50  51
ATOM     51  C   UNK d   0       2.168 -10.835  28.551  0.00  0.00     0.139 C 
ATOM     52  O   UNK d   0       2.419 -11.996  28.951  0.00  0.00    -0.650 OA
BRANCH  51  53
ATOM     53  O   UNK d   0       3.045 -10.263  27.642  0.00  0.00    -0.776 OA
ATOM     54  H   UNK d   0       3.625 -10.872  27.092  0.00  0.00     0.167 HD
ENDBRANCH  51  53
ENDBRANCH  50  51
ENDBRANCH  49  50
ENDBRANCH  24  49
BRANCH  21  55
ATOM     55  C   UNK d   0      -1.208  -7.488  31.054  0.00  0.00     0.151 C 
BRANCH  55  56
ATOM     56  C   UNK d   0      -2.209  -7.647  29.988  0.00  0.00     0.143 C 
ATOM     57  O   UNK d   0      -2.005  -7.289  28.811  0.00  0.00    -0.650 OA
BRANCH  56  58
ATOM     58  O   UNK d   0      -3.432  -8.225  30.326  0.00  0.00    -0.776 OA
ATOM     59  H   UNK d   0      -3.762  -8.960  29.675  0.00  0.00     0.167 HD
ENDBRANCH  56  58
ENDBRANCH  55  56
ENDBRANCH  21  55
BRANCH  18  60
ATOM     60  C   UNK d   0      -1.869  -2.601  28.936  0.00  0.00     0.151 C 
BRANCH  60  61
ATOM     61  C   UNK d   0      -1.984  -3.484  27.765  0.00  0.00     0.143 C 
ATOM     62  O   UNK d   0      -1.423  -3.351  26.677  0.00  0.00    -0.650 OA
BRANCH  61  63
ATOM     63  O   UNK d   0      -2.840  -4.599  27.934  0.00  0.00    -0.776 OA
ATOM     64  H   UNK d   0      -2.687  -5.451  27.425  0.00  0.00     0.167 HD
ENDBRANCH  61  63
ENDBRANCH  60  61
ENDBRANCH  18  60
BRANCH  14  65
ATOM     65  C   UNK d   0      -0.268  -0.137  28.177  0.00  0.00     0.052 C 
BRANCH  65  66
ATOM     66  C   UNK d   0      -0.556   0.944  29.157  0.00  0.00     0.115 C 
BRANCH  66  67
ATOM     67  C   UNK d   0      -0.681   2.301  28.704  0.00  0.00     0.139 C 
ATOM     68  O   UNK d   0      -1.843   2.728  28.358  0.00  0.00    -0.650 OA
BRANCH  67  69
ATOM     69  O   UNK d   0       0.328   3.256  28.582  0.00  0.00    -0.776 OA
ATOM     70  H   UNK d   0       1.221   3.025  29.041  0.00  0.00     0.167 HD
ENDBRANCH  67  69
ENDBRANCH  66  67
ENDBRANCH  65  66
ENDBRANCH  14  65
ENDBRANCH   6   7
ENDBRANCH   5   6
ENDBRANCH   2   5
TORSDOF 28
ENDMDL
MODEL 9
REMARK VINA RESULT:      -9.4      1.891      7.455
REMARK  28 active torsions:
REMARK  status: ('A' for Active; 'I' for Inactive)
REMARK    1  A    between atoms: C_2  and  O_3 
REMARK    2  A    between atoms: C_2  and  C_4 
REMARK    3  A    between atoms: C_4  and  C_5 
REMARK    4  A    between atoms: C_5  and  C_6 
REMARK    5  A    between atoms: C_7  and  C_8 
REMARK    6  A    between atoms: C_8  and  C_9 
REMARK    7  A    between atoms: C_9  and  O_11 
REMARK    8  A    between atoms: C_28  and  C_29 
REMARK    9  A    between atoms: C_29  and  C_30 
REMARK   10  A    between atoms: C_30  and  O_32 
REMARK   11  A    between atoms: C_33  and  C_34 
REMARK   12  A    between atoms: C_34  and  C_35 
REMARK   13  A    between atoms: C_35  and  C_36 
REMARK   14  A    between atoms: C_36  and  O_38 
REMARK   15  A    between atoms: C_39  and  C_40 
REMARK   16  A    between atoms: C_40  and  C_41 
REMARK   17  A    between atoms: C_41  and  C_42 
REMARK   18  A    between atoms: C_42  and  O_44 
REMARK   19  A    between atoms: C_45  and  C_46 
REMARK   20  A    between atoms: C_46  and  C_47 
REMARK   21  A    between atoms: C_47  and  O_49 
REMARK   22  A    between atoms: C_50  and  C_51 
REMARK   23  A    between atoms: C_51  and  C_52 
REMARK   24  A    between atoms: C_52  and  O_54 
REMARK   25  A    between atoms: C_55  and  C_56 
REMARK   26  A    between atoms: C_56  and  C_57 
REMARK   27  A    between atoms: C_57  and  C_58 
REMARK   28  A    between atoms: C_58  and  O_60 
ROOT
ATOM      1  O   UNK d   0       1.301  -8.285  30.684  0.00  0.00    -0.650 OA
ATOM      2  C   UNK d   0       1.963  -7.245  30.476  0.00  0.00     0.139 C 
ENDROOT
BRANCH   2   3
ATOM      3  O   UNK d   0       3.268  -7.350  30.057  0.00  0.00    -0.776 OA
ATOM      4  H   UNK d   0       4.042  -7.084  30.670  0.00  0.00     0.167 HD
ENDBRANCH   2   3
BRANCH   2   5
ATOM      5  C   UNK d   0       1.340  -5.907  30.681  0.00  0.00     0.115 C 
BRANCH   5   6
ATOM      6  C   UNK d   0       1.524  -5.056  29.454  0.00  0.00     0.052 C 
BRANCH   6   7
ATOM      7  C   UNK d   0       0.345  -4.151  29.191  0.00  0.00    -0.020 A 
ATOM      8  C   UNK d   0       0.313  -2.844  29.247  0.00  0.00    -0.011 A 
ATOM      9  C   UNK d   0      -1.039  -2.418  28.926  0.00  0.00     0.067 A 
ATOM     10  C   UNK d   0      -1.710  -1.192  28.795  0.00  0.00     0.062 C 
ATOM     11  N   UNK d   0      -1.766  -3.531  28.693  0.00  0.00    -0.248 NA
ATOM     12  C   UNK d   0      -2.957  -0.968  28.201  0.00  0.00     0.041 A 
ATOM     13  N   UNK d   0      -4.112  -1.655  28.281  0.00  0.00    -0.355 N 
ATOM     14  C   UNK d   0      -3.103   0.111  27.311  0.00  0.00    -0.022 A 
ATOM     15  C   UNK d   0      -4.985  -1.044  27.457  0.00  0.00     0.042 A 
ATOM     16  H   UNK d   0      -4.313  -2.542  28.921  0.00  0.00     0.166 HD
ATOM     17  C   UNK d   0      -6.330  -1.347  27.163  0.00  0.00     0.062 C 
ATOM     18  C   UNK d   0      -4.388   0.067  26.831  0.00  0.00    -0.013 A 
ATOM     19  C   UNK d   0      -6.900  -2.565  26.894  0.00  0.00     0.067 A 
ATOM     20  N   UNK d   0      -6.152  -3.648  27.124  0.00  0.00    -0.248 NA
ATOM     21  C   UNK d   0      -8.177  -3.030  26.379  0.00  0.00    -0.011 A 
ATOM     22  C   UNK d   0      -6.847  -4.786  26.796  0.00  0.00     0.066 A 
ATOM     23  C   UNK d   0      -6.198  -5.991  27.022  0.00  0.00     0.062 C 
ATOM     24  C   UNK d   0      -8.138  -4.330  26.320  0.00  0.00    -0.020 A 
ATOM     25  C   UNK d   0      -4.950  -6.195  27.631  0.00  0.00     0.041 A 
ATOM     26  N   UNK d   0      -3.797  -5.521  27.541  0.00  0.00    -0.355 N 
ATOM     27  C   UNK d   0      -4.806  -7.275  28.528  0.00  0.00    -0.022 A 
ATOM     28  C   UNK d   0      -2.922  -6.133  28.355  0.00  0.00     0.042 A 
ATOM     29  H   UNK d   0      -3.594  -4.636  26.889  0.00  0.00     0.166 HD
ATOM     30  C   UNK d   0      -1.580  -5.848  28.649  0.00  0.00     0.062 C 
ATOM     31  C   UNK d   0      -3.526  -7.243  28.991  0.00  0.00    -0.013 A 
ATOM     32  C   UNK d   0      -0.991  -4.607  28.836  0.00  0.00     0.066 A 
BRANCH   8  33
ATOM     33  C   UNK d   0       1.433  -1.945  29.580  0.00  0.00     0.151 C 
BRANCH  33  34
ATOM     34  C   UNK d   0       1.324  -1.376  30.936  0.00  0.00     0.143 C 
ATOM     35  O   UNK d   0       1.051  -0.179  31.103  0.00  0.00    -0.650 OA
BRANCH  34  36
ATOM     36  O   UNK d   0       1.531  -2.187  32.028  0.00  0.00    -0.776 OA
ATOM     37  H   UNK d   0       2.467  -2.297  32.441  0.00  0.00     0.167 HD
ENDBRANCH  34  36
ENDBRANCH  33  34
ENDBRANCH   8  33
BRANCH  31  38
ATOM     38  C   UNK d   0      -2.915  -8.200  29.989  0.00  0.00     0.151 C 
BRANCH  38  39
ATOM     39  C   UNK d   0      -2.552  -7.557  31.234  0.00  0.00     0.143 C 
ATOM     40  O   UNK d   0      -3.241  -6.655  31.743  0.00  0.00    -0.650 OA
BRANCH  39  41
ATOM     41  O   UNK d   0      -1.391  -7.953  31.897  0.00  0.00    -0.776 OA
ATOM     42  H   UNK d   0      -1.463  -8.778  32.501  0.00  0.00     0.167 HD
ENDBRANCH  39  41
ENDBRANCH  38  39
ENDBRANCH  31  38
BRANCH  27  43
ATOM     43  C   UNK d   0      -5.816  -8.313  28.949  0.00  0.00     0.052 C 
BRANCH  43  44
ATOM     44  C   UNK d   0      -5.645  -9.623  28.250  0.00  0.00     0.115 C 
BRANCH  44  45
ATOM     45  C   UNK d   0      -6.924  -9.898  27.545  0.00  0.00     0.139 C 
ATOM     46  O   UNK d   0      -7.454 -11.026  27.700  0.00  0.00    -0.650 OA
BRANCH  45  47
ATOM     47  O   UNK d   0      -7.548  -8.970  26.740  0.00  0.00    -0.776 OA
ATOM     48  H   UNK d   0      -8.543  -8.714  26.847  0.00  0.00     0.167 HD
ENDBRANCH  45  47
ENDBRANCH  44  45
ENDBRANCH  43  44
ENDBRANCH  27  43
BRANCH  24  49
ATOM     49  C   UNK d   0      -9.236  -5.213  25.891  0.00  0.00     0.052 C 
BRANCH  49  50
ATOM     50  C   UNK d   0      -9.941  -5.793  27.090  0.00  0.00     0.115 C 
BRANCH  50  51
ATOM     51  C   UNK d   0     -11.358  -5.490  27.238  0.00  0.00     0.139 C 
ATOM     52  O   UNK d   0     -12.224  -5.883  26.421  0.00  0.00    -0.650 OA
BRANCH  51  53
ATOM     53  O   UNK d   0     -11.789  -4.735  28.319  0.00  0.00    -0.776 OA
ATOM     54  H   UNK d   0     -12.108  -3.798  28.147  0.00  0.00     0.167 HD
ENDBRANCH  51  53
ENDBRANCH  50  51
ENDBRANCH  49  50
ENDBRANCH  24  49
BRANCH  21  55
ATOM     55  C   UNK d   0      -9.305  -2.127  26.004  0.00  0.00     0.151 C 
BRANCH  55  56
ATOM     56  C   UNK d   0     -10.322  -2.045  27.064  0.00  0.00     0.143 C 
ATOM     57  O   UNK d   0     -10.034  -2.050  28.277  0.00  0.00    -0.650 OA
BRANCH  56  58
ATOM     58  O   UNK d   0     -11.658  -1.959  26.676  0.00  0.00    -0.776 OA
ATOM     59  H   UNK d   0     -11.949  -2.648  25.959  0.00  0.00     0.167 HD
ENDBRANCH  56  58
ENDBRANCH  55  56
ENDBRANCH  21  55
BRANCH  18  60
ATOM     60  C   UNK d   0      -4.973   1.039  25.836  0.00  0.00     0.151 C 
BRANCH  60  61
ATOM     61  C   UNK d   0      -5.109   0.294  24.575  0.00  0.00     0.143 C 
ATOM     62  O   UNK d   0      -6.091   0.263  23.833  0.00  0.00    -0.650 OA
BRANCH  61  63
ATOM     63  O   UNK d   0      -3.973  -0.462  24.197  0.00  0.00    -0.776 OA
ATOM     64  H   UNK d   0      -3.251  -0.680  24.860  0.00  0.00     0.167 HD
ENDBRANCH  61  63
ENDBRANCH  60  61
ENDBRANCH  18  60
BRANCH  14  65
ATOM     65  C   UNK d   0      -2.160   1.226  26.958  0.00  0.00     0.052 C 
BRANCH  65  66
ATOM     66  C   UNK d   0      -1.761   2.045  28.134  0.00  0.00     0.115 C 
BRANCH  66  67
ATOM     67  C   UNK d   0      -0.373   2.330  28.365  0.00  0.00     0.139 C 
ATOM     68  O   UNK d   0       0.481   1.380  28.223  0.00  0.00    -0.650 OA
BRANCH  67  69
ATOM     69  O   UNK d   0       0.197   3.547  28.739  0.00  0.00    -0.776 OA
ATOM     70  H   UNK d   0       1.064   3.484  29.292  0.00  0.00     0.167 HD
ENDBRANCH  67  69
ENDBRANCH  66  67
ENDBRANCH  65  66
ENDBRANCH  14  65
ENDBRANCH   6   7
ENDBRANCH   5   6
ENDBRANCH   2   5
TORSDOF 28
ENDMDL
MODEL 10
REMARK VINA RESULT:      -9.4      1.728      8.024
REMARK  28 active torsions:
REMARK  status: ('A' for Active; 'I' for Inactive)
REMARK    1  A    between atoms: C_2  and  O_3 
REMARK    2  A    between atoms: C_2  and  C_4 
REMARK    3  A    between atoms: C_4  and  C_5 
REMARK    4  A    between atoms: C_5  and  C_6 
REMARK    5  A    between atoms: C_7  and  C_8 
REMARK    6  A    between atoms: C_8  and  C_9 
REMARK    7  A    between atoms: C_9  and  O_11 
REMARK    8  A    between atoms: C_28  and  C_29 
REMARK    9  A    between atoms: C_29  and  C_30 
REMARK   10  A    between atoms: C_30  and  O_32 
REMARK   11  A    between atoms: C_33  and  C_34 
REMARK   12  A    between atoms: C_34  and  C_35 
REMARK   13  A    between atoms: C_35  and  C_36 
REMARK   14  A    between atoms: C_36  and  O_38 
REMARK   15  A    between atoms: C_39  and  C_40 
REMARK   16  A    between atoms: C_40  and  C_41 
REMARK   17  A    between atoms: C_41  and  C_42 
REMARK   18  A    between atoms: C_42  and  O_44 
REMARK   19  A    between atoms: C_45  and  C_46 
REMARK   20  A    between atoms: C_46  and  C_47 
REMARK   21  A    between atoms: C_47  and  O_49 
REMARK   22  A    between atoms: C_50  and  C_51 
REMARK   23  A    between atoms: C_51  and  C_52 
REMARK   24  A    between atoms: C_52  and  O_54 
REMARK   25  A    between atoms: C_55  and  C_56 
REMARK   26  A    between atoms: C_56  and  C_57 
REMARK   27  A    between atoms: C_57  and  C_58 
REMARK   28  A    between atoms: C_58  and  O_60 
ROOT
ATOM      1  O   UNK d   0     -10.212  -6.468  24.545  0.00  0.00    -0.650 OA
ATOM      2  C   UNK d   0      -9.834  -5.762  25.507  0.00  0.00     0.139 C 
ENDROOT
BRANCH   2   3
ATOM      3  O   UNK d   0      -9.999  -4.399  25.447  0.00  0.00    -0.776 OA
ATOM      4  H   UNK d   0     -10.880  -3.987  25.134  0.00  0.00     0.167 HD
ENDBRANCH   2   3
BRANCH   2   5
ATOM      5  C   UNK d   0      -9.213  -6.397  26.703  0.00  0.00     0.115 C 
BRANCH   5   6
ATOM      6  C   UNK d   0      -7.936  -7.093  26.315  0.00  0.00     0.052 C 
BRANCH   6   7
ATOM      7  C   UNK d   0      -6.771  -6.700  27.191  0.00  0.00    -0.020 A 
ATOM      8  C   UNK d   0      -6.226  -7.398  28.155  0.00  0.00    -0.011 A 
ATOM      9  C   UNK d   0      -5.142  -6.609  28.717  0.00  0.00     0.067 A 
ATOM     10  C   UNK d   0      -4.182  -6.782  29.726  0.00  0.00     0.062 C 
ATOM     11  N   UNK d   0      -5.101  -5.443  28.038  0.00  0.00    -0.248 NA
ATOM     12  C   UNK d   0      -3.031  -6.016  29.941  0.00  0.00     0.041 A 
ATOM     13  N   UNK d   0      -2.833  -4.685  29.904  0.00  0.00    -0.355 N 
ATOM     14  C   UNK d   0      -1.814  -6.674  30.193  0.00  0.00    -0.022 A 
ATOM     15  C   UNK d   0      -1.519  -4.481  30.118  0.00  0.00     0.042 A 
ATOM     16  H   UNK d   0      -3.609  -3.904  29.748  0.00  0.00     0.166 HD
ATOM     17  C   UNK d   0      -0.779  -3.284  30.182  0.00  0.00     0.062 C 
ATOM     18  C   UNK d   0      -0.847  -5.705  30.303  0.00  0.00    -0.013 A 
ATOM     19  C   UNK d   0      -0.832  -2.192  29.354  0.00  0.00     0.067 A 
ATOM     20  N   UNK d   0      -1.841  -2.143  28.481  0.00  0.00    -0.248 NA
ATOM     21  C   UNK d   0      -0.027  -1.000  29.144  0.00  0.00    -0.011 A 
ATOM     22  C   UNK d   0      -1.754  -1.007  27.714  0.00  0.00     0.066 A 
ATOM     23  C   UNK d   0      -2.766  -0.810  26.786  0.00  0.00     0.062 C 
ATOM     24  C   UNK d   0      -0.569  -0.313  28.180  0.00  0.00    -0.020 A 
ATOM     25  C   UNK d   0      -3.921  -1.585  26.595  0.00  0.00     0.041 A 
ATOM     26  N   UNK d   0      -4.115  -2.909  26.617  0.00  0.00    -0.355 N 
ATOM     27  C   UNK d   0      -5.143  -0.924  26.346  0.00  0.00    -0.022 A 
ATOM     28  C   UNK d   0      -5.423  -3.115  26.395  0.00  0.00     0.042 A 
ATOM     29  H   UNK d   0      -3.332  -3.693  26.763  0.00  0.00     0.166 HD
ATOM     30  C   UNK d   0      -6.171  -4.301  26.320  0.00  0.00     0.062 C 
ATOM     31  C   UNK d   0      -6.099  -1.885  26.219  0.00  0.00    -0.013 A 
ATOM     32  C   UNK d   0      -6.055  -5.436  27.106  0.00  0.00     0.066 A 
BRANCH   8  33
ATOM     33  C   UNK d   0      -6.628  -8.742  28.610  0.00  0.00     0.151 C 
BRANCH  33  34
ATOM     34  C   UNK d   0      -5.985  -9.821  27.839  0.00  0.00     0.143 C 
ATOM     35  O   UNK d   0      -4.797 -10.118  28.030  0.00  0.00    -0.650 OA
BRANCH  34  36
ATOM     36  O   UNK d   0      -6.716 -10.505  26.896  0.00  0.00    -0.776 OA
ATOM     37  H   UNK d   0      -7.412 -11.212  27.168  0.00  0.00     0.167 HD
ENDBRANCH  34  36
ENDBRANCH  33  34
ENDBRANCH   8  33
BRANCH  31  38
ATOM     38  C   UNK d   0      -7.569  -1.651  25.960  0.00  0.00     0.151 C 
BRANCH  38  39
ATOM     39  C   UNK d   0      -8.362  -1.660  27.171  0.00  0.00     0.143 C 
ATOM     40  O   UNK d   0      -7.867  -1.447  28.292  0.00  0.00    -0.650 OA
BRANCH  39  41
ATOM     41  O   UNK d   0      -9.731  -1.915  27.094  0.00  0.00    -0.776 OA
ATOM     42  H   UNK d   0     -10.029  -2.884  27.242  0.00  0.00     0.167 HD
ENDBRANCH  39  41
ENDBRANCH  38  39
ENDBRANCH  31  38
BRANCH  27  43
ATOM     43  C   UNK d   0      -5.428   0.552  26.226  0.00  0.00     0.052 C 
BRANCH  43  44
ATOM     44  C   UNK d   0      -4.994   1.133  24.919  0.00  0.00     0.115 C 
BRANCH  44  45
ATOM     45  C   UNK d   0      -6.129   1.953  24.422  0.00  0.00     0.139 C 
ATOM     46  O   UNK d   0      -5.909   3.155  24.133  0.00  0.00    -0.650 OA
BRANCH  45  47
ATOM     47  O   UNK d   0      -7.402   1.448  24.261  0.00  0.00    -0.776 OA
ATOM     48  H   UNK d   0      -7.597   0.576  23.744  0.00  0.00     0.167 HD
ENDBRANCH  45  47
ENDBRANCH  44  45
ENDBRANCH  43  44
ENDBRANCH  27  43
BRANCH  24  49
ATOM     49  C   UNK d   0      -0.099   0.985  27.668  0.00  0.00     0.052 C 
BRANCH  49  50
ATOM     50  C   UNK d   0      -1.172   2.031  27.827  0.00  0.00     0.115 C 
BRANCH  50  51
ATOM     51  C   UNK d   0      -1.205   2.764  29.086  0.00  0.00     0.139 C 
ATOM     52  O   UNK d   0      -1.068   4.009  29.148  0.00  0.00    -0.650 OA
BRANCH  51  53
ATOM     53  O   UNK d   0      -1.391   2.077  30.276  0.00  0.00    -0.776 OA
ATOM     54  H   UNK d   0      -0.581   1.849  30.825  0.00  0.00     0.167 HD
ENDBRANCH  51  53
ENDBRANCH  50  51
ENDBRANCH  49  50
ENDBRANCH  24  49
BRANCH  21  55
ATOM     55  C   UNK d   0       1.198  -0.671  29.931  0.00  0.00     0.151 C 
BRANCH  55  56
ATOM     56  C   UNK d   0       0.900  -0.474  31.358  0.00  0.00     0.143 C 
ATOM     57  O   UNK d   0       0.013   0.304  31.761  0.00  0.00    -0.650 OA
BRANCH  56  58
ATOM     58  O   UNK d   0       1.652  -1.196  32.283  0.00  0.00    -0.776 OA
ATOM     59  H   UNK d   0       1.724  -0.761  33.221  0.00  0.00     0.167 HD
ENDBRANCH  56  58
ENDBRANCH  55  56
ENDBRANCH  21  55
BRANCH  18  60
ATOM     60  C   UNK d   0       0.615  -5.968  30.566  0.00  0.00     0.151 C 
BRANCH  60  61
ATOM     61  C   UNK d   0       0.962  -5.170  31.752  0.00  0.00     0.143 C 
ATOM     62  O   UNK d   0       1.822  -4.293  31.830  0.00  0.00    -0.650 OA
BRANCH  61  63
ATOM     63  O   UNK d   0       0.211  -5.462  32.916  0.00  0.00    -0.776 OA
ATOM     64  H   UNK d   0      -0.467  -4.811  33.272  0.00  0.00     0.167 HD
ENDBRANCH  61  63
ENDBRANCH  60  61
ENDBRANCH  18  60
BRANCH  14  65
ATOM     65  C   UNK d   0      -1.515  -8.126  30.433  0.00  0.00     0.052 C 
BRANCH  65  66
ATOM     66  C   UNK d   0      -1.117  -8.414  31.837  0.00  0.00     0.115 C 
BRANCH  66  67
ATOM     67  C   UNK d   0      -2.055  -8.196  32.902  0.00  0.00     0.139 C 
ATOM     68  O   UNK d   0      -2.334  -6.986  33.236  0.00  0.00    -0.650 OA
BRANCH  67  69
ATOM     69  O   UNK d   0      -2.732  -9.157  33.653  0.00  0.00    -0.776 OA
ATOM     70  H   UNK d   0      -2.159  -9.939  34.000  0.00  0.00     0.167 HD
ENDBRANCH  67  69
ENDBRANCH  66  67
ENDBRANCH  65  66
ENDBRANCH  14  65
ENDBRANCH   6   7
ENDBRANCH   5   6
ENDBRANCH   2   5
TORSDOF 28
ENDMDL
MODEL 11
REMARK VINA RESULT:      -9.4      1.830      7.865
REMARK  28 active torsions:
REMARK  status: ('A' for Active; 'I' for Inactive)
REMARK    1  A    between atoms: C_2  and  O_3 
REMARK    2  A    between atoms: C_2  and  C_4 
REMARK    3  A    between atoms: C_4  and  C_5 
REMARK    4  A    between atoms: C_5  and  C_6 
REMARK    5  A    between atoms: C_7  and  C_8 
REMARK    6  A    between atoms: C_8  and  C_9 
REMARK    7  A    between atoms: C_9  and  O_11 
REMARK    8  A    between atoms: C_28  and  C_29 
REMARK    9  A    between atoms: C_29  and  C_30 
REMARK   10  A    between atoms: C_30  and  O_32 
REMARK   11  A    between atoms: C_33  and  C_34 
REMARK   12  A    between atoms: C_34  and  C_35 
REMARK   13  A    between atoms: C_35  and  C_36 
REMARK   14  A    between atoms: C_36  and  O_38 
REMARK   15  A    between atoms: C_39  and  C_40 
REMARK   16  A    between atoms: C_40  and  C_41 
REMARK   17  A    between atoms: C_41  and  C_42 
REMARK   18  A    between atoms: C_42  and  O_44 
REMARK   19  A    between atoms: C_45  and  C_46 
REMARK   20  A    between atoms: C_46  and  C_47 
REMARK   21  A    between atoms: C_47  and  O_49 
REMARK   22  A    between atoms: C_50  and  C_51 
REMARK   23  A    between atoms: C_51  and  C_52 
REMARK   24  A    between atoms: C_52  and  O_54 
REMARK   25  A    between atoms: C_55  and  C_56 
REMARK   26  A    between atoms: C_56  and  C_57 
REMARK   27  A    between atoms: C_57  and  C_58 
REMARK   28  A    between atoms: C_58  and  O_60 
ROOT
ATOM      1  O   UNK d   0      -2.042 -12.293  28.211  0.00  0.00    -0.650 OA
ATOM      2  C   UNK d   0      -1.931 -11.227  28.857  0.00  0.00     0.139 C 
ENDROOT
BRANCH   2   3
ATOM      3  O   UNK d   0      -1.424 -11.263  30.133  0.00  0.00    -0.776 OA
ATOM      4  H   UNK d   0      -0.721 -10.588  30.441  0.00  0.00     0.167 HD
ENDBRANCH   2   3
BRANCH   2   5
ATOM      5  C   UNK d   0      -2.345  -9.934  28.243  0.00  0.00     0.115 C 
BRANCH   5   6
ATOM      6  C   UNK d   0      -3.317  -9.222  29.144  0.00  0.00     0.052 C 
BRANCH   6   7
ATOM      7  C   UNK d   0      -3.041  -7.740  29.243  0.00  0.00    -0.020 A 
ATOM      8  C   UNK d   0      -2.135  -7.145  29.976  0.00  0.00    -0.011 A 
ATOM      9  C   UNK d   0      -2.250  -5.714  29.750  0.00  0.00     0.067 A 
ATOM     10  C   UNK d   0      -1.586  -4.561  30.197  0.00  0.00     0.062 C 
ATOM     11  N   UNK d   0      -3.255  -5.527  28.869  0.00  0.00    -0.248 NA
ATOM     12  C   UNK d   0      -1.658  -3.276  29.650  0.00  0.00     0.041 A 
ATOM     13  N   UNK d   0      -2.707  -2.562  29.198  0.00  0.00    -0.355 N 
ATOM     14  C   UNK d   0      -0.468  -2.552  29.454  0.00  0.00    -0.022 A 
ATOM     15  C   UNK d   0      -2.212  -1.408  28.713  0.00  0.00     0.042 A 
ATOM     16  H   UNK d   0      -3.778  -2.860  29.239  0.00  0.00     0.166 HD
ATOM     17  C   UNK d   0      -2.869  -0.308  28.125  0.00  0.00     0.062 C 
ATOM     18  C   UNK d   0      -0.812  -1.365  28.855  0.00  0.00    -0.013 A 
ATOM     19  C   UNK d   0      -3.862  -0.302  27.179  0.00  0.00     0.067 A 
ATOM     20  N   UNK d   0      -4.440  -1.473  26.901  0.00  0.00    -0.248 NA
ATOM     21  C   UNK d   0      -4.489   0.697  26.330  0.00  0.00    -0.011 A 
ATOM     22  C   UNK d   0      -5.399  -1.313  25.931  0.00  0.00     0.066 A 
ATOM     23  C   UNK d   0      -6.108  -2.449  25.571  0.00  0.00     0.062 C 
ATOM     24  C   UNK d   0      -5.385   0.099  25.599  0.00  0.00    -0.020 A 
ATOM     25  C   UNK d   0      -6.029  -3.729  26.142  0.00  0.00     0.041 A 
ATOM     26  N   UNK d   0      -4.985  -4.444  26.578  0.00  0.00    -0.355 N 
ATOM     27  C   UNK d   0      -7.225  -4.453  26.343  0.00  0.00    -0.022 A 
ATOM     28  C   UNK d   0      -5.475  -5.599  27.055  0.00  0.00     0.042 A 
ATOM     29  H   UNK d   0      -3.909  -4.147  26.526  0.00  0.00     0.166 HD
ATOM     30  C   UNK d   0      -4.833  -6.705  27.633  0.00  0.00     0.062 C 
ATOM     31  C   UNK d   0      -6.883  -5.637  26.921  0.00  0.00    -0.013 A 
ATOM     32  C   UNK d   0      -3.772  -6.708  28.525  0.00  0.00     0.066 A 
BRANCH   8  33
ATOM     33  C   UNK d   0      -1.165  -7.789  30.881  0.00  0.00     0.151 C 
BRANCH  33  34
ATOM     34  C   UNK d   0      -1.755  -8.155  32.182  0.00  0.00     0.143 C 
ATOM     35  O   UNK d   0      -2.202  -7.286  32.945  0.00  0.00    -0.650 OA
BRANCH  34  36
ATOM     36  O   UNK d   0      -1.805  -9.478  32.553  0.00  0.00    -0.776 OA
ATOM     37  H   UNK d   0      -1.292  -9.823  33.376  0.00  0.00     0.167 HD
ENDBRANCH  34  36
ENDBRANCH  33  34
ENDBRANCH   8  33
BRANCH  31  38
ATOM     38  C   UNK d   0      -7.836  -6.735  27.334  0.00  0.00     0.151 C 
BRANCH  38  39
ATOM     39  C   UNK d   0      -7.997  -7.751  26.316  0.00  0.00     0.143 C 
ATOM     40  O   UNK d   0      -8.324  -7.476  25.147  0.00  0.00    -0.650 OA
BRANCH  39  41
ATOM     41  O   UNK d   0      -7.782  -9.089  26.642  0.00  0.00    -0.776 OA
ATOM     42  H   UNK d   0      -7.908  -9.351  27.625  0.00  0.00     0.167 HD
ENDBRANCH  39  41
ENDBRANCH  38  39
ENDBRANCH  31  38
BRANCH  27  43
ATOM     43  C   UNK d   0      -8.645  -4.069  26.012  0.00  0.00     0.052 C 
BRANCH  43  44
ATOM     44  C   UNK d   0      -9.287  -3.219  27.060  0.00  0.00     0.115 C 
BRANCH  44  45
ATOM     45  C   UNK d   0      -9.909  -2.069  26.352  0.00  0.00     0.139 C 
ATOM     46  O   UNK d   0      -9.241  -1.012  26.241  0.00  0.00    -0.650 OA
BRANCH  45  47
ATOM     47  O   UNK d   0     -11.176  -2.120  25.813  0.00  0.00    -0.776 OA
ATOM     48  H   UNK d   0     -11.364  -2.453  24.853  0.00  0.00     0.167 HD
ENDBRANCH  45  47
ENDBRANCH  44  45
ENDBRANCH  43  44
ENDBRANCH  27  43
BRANCH  24  49
ATOM     49  C   UNK d   0      -6.282   0.743  24.625  0.00  0.00     0.052 C 
BRANCH  49  50
ATOM     50  C   UNK d   0      -7.322   1.570  25.336  0.00  0.00     0.115 C 
BRANCH  50  51
ATOM     51  C   UNK d   0      -7.450   2.964  24.935  0.00  0.00     0.139 C 
ATOM     52  O   UNK d   0      -8.241   3.759  25.496  0.00  0.00    -0.650 OA
BRANCH  51  53
ATOM     53  O   UNK d   0      -6.678   3.452  23.892  0.00  0.00    -0.776 OA
ATOM     54  H   UNK d   0      -6.932   4.336  23.486  0.00  0.00     0.167 HD
ENDBRANCH  51  53
ENDBRANCH  50  51
ENDBRANCH  49  50
ENDBRANCH  24  49
BRANCH  21  55
ATOM     55  C   UNK d   0      -4.131   2.146  26.341  0.00  0.00     0.151 C 
BRANCH  55  56
ATOM     56  C   UNK d   0      -2.960   2.432  25.497  0.00  0.00     0.143 C 
ATOM     57  O   UNK d   0      -1.794   2.426  25.937  0.00  0.00    -0.650 OA
BRANCH  56  58
ATOM     58  O   UNK d   0      -3.184   2.717  24.151  0.00  0.00    -0.776 OA
ATOM     59  H   UNK d   0      -2.876   3.659  23.848  0.00  0.00     0.167 HD
ENDBRANCH  56  58
ENDBRANCH  55  56
ENDBRANCH  21  55
BRANCH  18  60
ATOM     60  C   UNK d   0       0.162  -0.284  28.456  0.00  0.00     0.151 C 
BRANCH  60  61
ATOM     61  C   UNK d   0      -0.167   0.883  29.288  0.00  0.00     0.143 C 
ATOM     62  O   UNK d   0      -0.308   2.047  28.911  0.00  0.00    -0.650 OA
BRANCH  61  63
ATOM     63  O   UNK d   0      -0.334   0.612  30.667  0.00  0.00    -0.776 OA
ATOM     64  H   UNK d   0      -0.162  -0.305  31.040  0.00  0.00     0.167 HD
ENDBRANCH  61  63
ENDBRANCH  60  61
ENDBRANCH  18  60
BRANCH  14  65
ATOM     65  C   UNK d   0       0.943  -2.851  29.874  0.00  0.00     0.052 C 
BRANCH  65  66
ATOM     66  C   UNK d   0       1.306  -2.231  31.176  0.00  0.00     0.115 C 
BRANCH  66  67
ATOM     67  C   UNK d   0       0.832  -2.814  32.399  0.00  0.00     0.139 C 
ATOM     68  O   UNK d   0       1.630  -3.569  33.068  0.00  0.00    -0.650 OA
BRANCH  67  69
ATOM     69  O   UNK d   0      -0.426  -2.668  32.983  0.00  0.00    -0.776 OA
ATOM     70  H   UNK d   0      -0.496  -2.951  33.971  0.00  0.00     0.167 HD
ENDBRANCH  67  69
ENDBRANCH  66  67
ENDBRANCH  65  66
ENDBRANCH  14  65
ENDBRANCH   6   7
ENDBRANCH   5   6
ENDBRANCH   2   5
TORSDOF 28
ENDMDL
MODEL 12
REMARK VINA RESULT:      -9.3      1.939      7.842
REMARK  28 active torsions:
REMARK  status: ('A' for Active; 'I' for Inactive)
REMARK    1  A    between atoms: C_2  and  O_3 
REMARK    2  A    between atoms: C_2  and  C_4 
REMARK    3  A    between atoms: C_4  and  C_5 
REMARK    4  A    between atoms: C_5  and  C_6 
REMARK    5  A    between atoms: C_7  and  C_8 
REMARK    6  A    between atoms: C_8  and  C_9 
REMARK    7  A    between atoms: C_9  and  O_11 
REMARK    8  A    between atoms: C_28  and  C_29 
REMARK    9  A    between atoms: C_29  and  C_30 
REMARK   10  A    between atoms: C_30  and  O_32 
REMARK   11  A    between atoms: C_33  and  C_34 
REMARK   12  A    between atoms: C_34  and  C_35 
REMARK   13  A    between atoms: C_35  and  C_36 
REMARK   14  A    between atoms: C_36  and  O_38 
REMARK   15  A    between atoms: C_39  and  C_40 
REMARK   16  A    between atoms: C_40  and  C_41 
REMARK   17  A    between atoms: C_41  and  C_42 
REMARK   18  A    between atoms: C_42  and  O_44 
REMARK   19  A    between atoms: C_45  and  C_46 
REMARK   20  A    between atoms: C_46  and  C_47 
REMARK   21  A    between atoms: C_47  and  O_49 
REMARK   22  A    between atoms: C_50  and  C_51 
REMARK   23  A    between atoms: C_51  and  C_52 
REMARK   24  A    between atoms: C_52  and  O_54 
REMARK   25  A    between atoms: C_55  and  C_56 
REMARK   26  A    between atoms: C_56  and  C_57 
REMARK   27  A    between atoms: C_57  and  C_58 
REMARK   28  A    between atoms: C_58  and  O_60 
ROOT
ATOM      1  O   UNK d   0      -2.000  -9.497  33.155  0.00  0.00    -0.650 OA
ATOM      2  C   UNK d   0      -2.217  -8.475  32.467  0.00  0.00     0.139 C 
ENDROOT
BRANCH   2   3
ATOM      3  O   UNK d   0      -2.444  -7.275  33.097  0.00  0.00    -0.776 OA
ATOM      4  H   UNK d   0      -3.393  -6.927  33.243  0.00  0.00     0.167 HD
ENDBRANCH   2   3
BRANCH   2   5
ATOM      5  C   UNK d   0      -2.229  -8.563  30.980  0.00  0.00     0.115 C 
BRANCH   5   6
ATOM      6  C   UNK d   0      -0.998  -7.910  30.412  0.00  0.00     0.052 C 
BRANCH   6   7
ATOM      7  C   UNK d   0      -1.189  -6.434  30.156  0.00  0.00    -0.020 A 
ATOM      8  C   UNK d   0      -0.457  -5.446  30.602  0.00  0.00    -0.011 A 
ATOM      9  C   UNK d   0      -1.030  -4.207  30.101  0.00  0.00     0.067 A 
ATOM     10  C   UNK d   0      -0.722  -2.840  30.191  0.00  0.00     0.062 C 
ATOM     11  N   UNK d   0      -2.111  -4.535  29.363  0.00  0.00    -0.248 NA
ATOM     12  C   UNK d   0      -1.235  -1.803  29.404  0.00  0.00     0.041 A 
ATOM     13  N   UNK d   0      -2.487  -1.550  28.977  0.00  0.00    -0.355 N 
ATOM     14  C   UNK d   0      -0.349  -0.843  28.883  0.00  0.00    -0.022 A 
ATOM     15  C   UNK d   0      -2.417  -0.459  28.191  0.00  0.00     0.042 A 
ATOM     16  H   UNK d   0      -3.405  -2.120  29.241  0.00  0.00     0.166 HD
ATOM     17  C   UNK d   0      -3.428   0.230  27.493  0.00  0.00     0.062 C 
ATOM     18  C   UNK d   0      -1.092   0.012  28.108  0.00  0.00    -0.013 A 
ATOM     19  C   UNK d   0      -4.447  -0.278  26.728  0.00  0.00     0.067 A 
ATOM     20  N   UNK d   0      -4.653  -1.596  26.792  0.00  0.00    -0.248 NA
ATOM     21  C   UNK d   0      -5.421   0.262  25.793  0.00  0.00    -0.011 A 
ATOM     22  C   UNK d   0      -5.689  -1.957  25.967  0.00  0.00     0.066 A 
ATOM     23  C   UNK d   0      -6.036  -3.300  25.965  0.00  0.00     0.062 C 
ATOM     24  C   UNK d   0      -6.142  -0.726  25.348  0.00  0.00    -0.020 A 
ATOM     25  C   UNK d   0      -5.518  -4.324  26.772  0.00  0.00     0.041 A 
ATOM     26  N   UNK d   0      -4.271  -4.584  27.185  0.00  0.00    -0.355 N 
ATOM     27  C   UNK d   0      -6.408  -5.285  27.299  0.00  0.00    -0.022 A 
ATOM     28  C   UNK d   0      -4.337  -5.677  27.961  0.00  0.00     0.042 A 
ATOM     29  H   UNK d   0      -3.348  -4.016  26.910  0.00  0.00     0.166 HD
ATOM     30  C   UNK d   0      -3.338  -6.378  28.655  0.00  0.00     0.062 C 
ATOM     31  C   UNK d   0      -5.670  -6.144  28.053  0.00  0.00    -0.013 A 
ATOM     32  C   UNK d   0      -2.261  -5.861  29.356  0.00  0.00     0.066 A 
BRANCH   8  33
ATOM     33  C   UNK d   0       0.735  -5.546  31.464  0.00  0.00     0.151 C 
BRANCH  33  34
ATOM     34  C   UNK d   0       0.499  -5.030  32.825  0.00  0.00     0.143 C 
ATOM     35  O   UNK d   0       1.395  -4.440  33.446  0.00  0.00    -0.650 OA
BRANCH  34  36
ATOM     36  O   UNK d   0      -0.732  -5.210  33.412  0.00  0.00    -0.776 OA
ATOM     37  H   UNK d   0      -1.442  -4.465  33.403  0.00  0.00     0.167 HD
ENDBRANCH  34  36
ENDBRANCH  33  34
ENDBRANCH   8  33
BRANCH  31  38
ATOM     38  C   UNK d   0      -6.197  -7.330  28.826  0.00  0.00     0.151 C 
BRANCH  38  39
ATOM     39  C   UNK d   0      -6.035  -8.581  28.115  0.00  0.00     0.143 C 
ATOM     40  O   UNK d   0      -6.905  -9.026  27.346  0.00  0.00    -0.650 OA
BRANCH  39  41
ATOM     41  O   UNK d   0      -4.867  -9.322  28.289  0.00  0.00    -0.776 OA
ATOM     42  H   UNK d   0      -4.976 -10.334  28.409  0.00  0.00     0.167 HD
ENDBRANCH  39  41
ENDBRANCH  38  39
ENDBRANCH  31  38
BRANCH  27  43
ATOM     43  C   UNK d   0      -7.900  -5.413  27.113  0.00  0.00     0.052 C 
BRANCH  43  44
ATOM     44  C   UNK d   0      -8.279  -6.227  25.919  0.00  0.00     0.115 C 
BRANCH  44  45
ATOM     45  C   UNK d   0      -9.688  -5.880  25.599  0.00  0.00     0.139 C 
ATOM     46  O   UNK d   0     -10.280  -6.560  24.724  0.00  0.00    -0.650 OA
BRANCH  45  47
ATOM     47  O   UNK d   0     -10.365  -4.855  26.222  0.00  0.00    -0.776 OA
ATOM     48  H   UNK d   0     -10.917  -4.991  27.085  0.00  0.00     0.167 HD
ENDBRANCH  45  47
ENDBRANCH  44  45
ENDBRANCH  43  44
ENDBRANCH  27  43
BRANCH  24  49
ATOM     49  C   UNK d   0      -7.271  -0.623  24.408  0.00  0.00     0.052 C 
BRANCH  49  50
ATOM     50  C   UNK d   0      -8.565  -0.444  25.160  0.00  0.00     0.115 C 
BRANCH  50  51
ATOM     51  C   UNK d   0      -9.385  -1.630  25.364  0.00  0.00     0.139 C 
ATOM     52  O   UNK d   0      -9.429  -2.572  24.538  0.00  0.00    -0.650 OA
BRANCH  51  53
ATOM     53  O   UNK d   0     -10.156  -1.743  26.511  0.00  0.00    -0.776 OA
ATOM     54  H   UNK d   0     -10.487  -2.654  26.773  0.00  0.00     0.167 HD
ENDBRANCH  51  53
ENDBRANCH  50  51
ENDBRANCH  49  50
ENDBRANCH  24  49
BRANCH  21  55
ATOM     55  C   UNK d   0      -5.531   1.710  25.446  0.00  0.00     0.151 C 
BRANCH  55  56
ATOM     56  C   UNK d   0      -4.255   2.260  24.964  0.00  0.00     0.143 C 
ATOM     57  O   UNK d   0      -3.782   1.985  23.843  0.00  0.00    -0.650 OA
BRANCH  56  58
ATOM     58  O   UNK d   0      -3.560   3.124  25.808  0.00  0.00    -0.776 OA
ATOM     59  H   UNK d   0      -3.655   2.916  26.819  0.00  0.00     0.167 HD
ENDBRANCH  56  58
ENDBRANCH  55  56
ENDBRANCH  21  55
BRANCH  18  60
ATOM     60  C   UNK d   0      -0.539   1.193  27.348  0.00  0.00     0.151 C 
BRANCH  60  61
ATOM     61  C   UNK d   0      -0.538   2.318  28.295  0.00  0.00     0.143 C 
ATOM     62  O   UNK d   0      -1.519   2.854  28.812  0.00  0.00    -0.650 OA
BRANCH  61  63
ATOM     63  O   UNK d   0       0.741   2.820  28.634  0.00  0.00    -0.776 OA
ATOM     64  H   UNK d   0       1.565   2.506  28.152  0.00  0.00     0.167 HD
ENDBRANCH  61  63
ENDBRANCH  60  61
ENDBRANCH  18  60
BRANCH  14  65
ATOM     65  C   UNK d   0       1.114  -0.617  29.138  0.00  0.00     0.052 C 
BRANCH  65  66
ATOM     66  C   UNK d   0       1.980  -1.110  28.033  0.00  0.00     0.115 C 
BRANCH  66  67
ATOM     67  C   UNK d   0       3.029  -0.274  27.524  0.00  0.00     0.139 C 
ATOM     68  O   UNK d   0       3.012   0.979  27.815  0.00  0.00    -0.650 OA
BRANCH  67  69
ATOM     69  O   UNK d   0       4.108  -0.649  26.724  0.00  0.00    -0.776 OA
ATOM     70  H   UNK d   0       3.921  -1.400  26.044  0.00  0.00     0.167 HD
ENDBRANCH  67  69
ENDBRANCH  66  67
ENDBRANCH  65  66
ENDBRANCH  14  65
ENDBRANCH   6   7
ENDBRANCH   5   6
ENDBRANCH   2   5
TORSDOF 28
ENDMDL
MODEL 13
REMARK VINA RESULT:      -9.3     32.267     34.319
REMARK  28 active torsions:
REMARK  status: ('A' for Active; 'I' for Inactive)
REMARK    1  A    between atoms: C_2  and  O_3 
REMARK    2  A    between atoms: C_2  and  C_4 
REMARK    3  A    between atoms: C_4  and  C_5 
REMARK    4  A    between atoms: C_5  and  C_6 
REMARK    5  A    between atoms: C_7  and  C_8 
REMARK    6  A    between atoms: C_8  and  C_9 
REMARK    7  A    between atoms: C_9  and  O_11 
REMARK    8  A    between atoms: C_28  and  C_29 
REMARK    9  A    between atoms: C_29  and  C_30 
REMARK   10  A    between atoms: C_30  and  O_32 
REMARK   11  A    between atoms: C_33  and  C_34 
REMARK   12  A    between atoms: C_34  and  C_35 
REMARK   13  A    between atoms: C_35  and  C_36 
REMARK   14  A    between atoms: C_36  and  O_38 
REMARK   15  A    between atoms: C_39  and  C_40 
REMARK   16  A    between atoms: C_40  and  C_41 
REMARK   17  A    between atoms: C_41  and  C_42 
REMARK   18  A    between atoms: C_42  and  O_44 
REMARK   19  A    between atoms: C_45  and  C_46 
REMARK   20  A    between atoms: C_46  and  C_47 
REMARK   21  A    between atoms: C_47  and  O_49 
REMARK   22  A    between atoms: C_50  and  C_51 
REMARK   23  A    between atoms: C_51  and  C_52 
REMARK   24  A    between atoms: C_52  and  O_54 
REMARK   25  A    between atoms: C_55  and  C_56 
REMARK   26  A    between atoms: C_56  and  C_57 
REMARK   27  A    between atoms: C_57  and  C_58 
REMARK   28  A    between atoms: C_58  and  O_60 
ROOT
ATOM      1  O   UNK d   0      15.798 -14.710  -2.301  0.00  0.00    -0.650 OA
ATOM      2  C   UNK d   0      14.841 -14.227  -2.946  0.00  0.00     0.139 C 
ENDROOT
BRANCH   2   3
ATOM      3  O   UNK d   0      15.067 -13.711  -4.200  0.00  0.00    -0.776 OA
ATOM      4  H   UNK d   0      14.500 -14.001  -4.999  0.00  0.00     0.167 HD
ENDBRANCH   2   3
BRANCH   2   5
ATOM      5  C   UNK d   0      13.472 -14.213  -2.357  0.00  0.00     0.115 C 
BRANCH   5   6
ATOM      6  C   UNK d   0      13.554 -14.272  -0.856  0.00  0.00     0.052 C 
BRANCH   6   7
ATOM      7  C   UNK d   0      13.608 -12.903  -0.222  0.00  0.00    -0.020 A 
ATOM      8  C   UNK d   0      14.477 -12.462   0.651  0.00  0.00    -0.011 A 
ATOM      9  C   UNK d   0      14.123 -11.091   0.977  0.00  0.00     0.067 A 
ATOM     10  C   UNK d   0      14.642 -10.079   1.801  0.00  0.00     0.062 C 
ATOM     11  N   UNK d   0      13.022 -10.780   0.261  0.00  0.00    -0.248 NA
ATOM     12  C   UNK d   0      14.322  -8.717   1.774  0.00  0.00     0.041 A 
ATOM     13  N   UNK d   0      13.138  -8.087   1.653  0.00  0.00    -0.355 N 
ATOM     14  C   UNK d   0      15.363  -7.772   1.824  0.00  0.00    -0.022 A 
ATOM     15  C   UNK d   0      13.402  -6.768   1.616  0.00  0.00     0.042 A 
ATOM     16  H   UNK d   0      12.134  -8.565   1.613  0.00  0.00     0.166 HD
ATOM     17  C   UNK d   0      12.531  -5.665   1.501  0.00  0.00     0.062 C 
ATOM     18  C   UNK d   0      14.786  -6.531   1.720  0.00  0.00    -0.013 A 
ATOM     19  C   UNK d   0      11.464  -5.494   0.657  0.00  0.00     0.067 A 
ATOM     20  N   UNK d   0      11.048  -6.568  -0.018  0.00  0.00    -0.248 NA
ATOM     21  C   UNK d   0      10.613  -4.384   0.261  0.00  0.00    -0.011 A 
ATOM     22  C   UNK d   0       9.989  -6.241  -0.829  0.00  0.00     0.066 A 
ATOM     23  C   UNK d   0       9.431  -7.278  -1.563  0.00  0.00     0.062 C 
ATOM     24  C   UNK d   0       9.755  -4.827  -0.612  0.00  0.00    -0.020 A 
ATOM     25  C   UNK d   0       9.759  -8.641  -1.512  0.00  0.00     0.041 A 
ATOM     26  N   UNK d   0      10.937  -9.268  -1.407  0.00  0.00    -0.355 N 
ATOM     27  C   UNK d   0       8.714  -9.589  -1.558  0.00  0.00    -0.022 A 
ATOM     28  C   UNK d   0      10.678 -10.585  -1.379  0.00  0.00     0.042 A 
ATOM     29  H   UNK d   0      11.946  -8.787  -1.378  0.00  0.00     0.166 HD
ATOM     30  C   UNK d   0      11.534 -11.692  -1.274  0.00  0.00     0.062 C 
ATOM     31  C   UNK d   0       9.286 -10.821  -1.473  0.00  0.00    -0.013 A 
ATOM     32  C   UNK d   0      12.663 -11.828  -0.481  0.00  0.00     0.066 A 
BRANCH   8  33
ATOM     33  C   UNK d   0      15.616 -13.206   1.221  0.00  0.00     0.151 C 
BRANCH  33  34
ATOM     34  C   UNK d   0      16.894 -12.886   0.561  0.00  0.00     0.143 C 
ATOM     35  O   UNK d   0      17.967 -12.977   1.175  0.00  0.00    -0.650 OA
BRANCH  34  36
ATOM     36  O   UNK d   0      16.893 -12.478  -0.753  0.00  0.00    -0.776 OA
ATOM     37  H   UNK d   0      17.749 -12.511  -1.323  0.00  0.00     0.167 HD
ENDBRANCH  34  36
ENDBRANCH  33  34
ENDBRANCH   8  33
BRANCH  31  38
ATOM     38  C   UNK d   0       8.556 -12.144  -1.469  0.00  0.00     0.151 C 
BRANCH  38  39
ATOM     39  C   UNK d   0       8.640 -12.836  -2.737  0.00  0.00     0.143 C 
ATOM     40  O   UNK d   0       9.088 -12.293  -3.763  0.00  0.00    -0.650 OA
BRANCH  39  41
ATOM     41  O   UNK d   0       8.207 -14.159  -2.828  0.00  0.00    -0.776 OA
ATOM     42  H   UNK d   0       7.994 -14.636  -1.946  0.00  0.00     0.167 HD
ENDBRANCH  39  41
ENDBRANCH  38  39
ENDBRANCH  31  38
BRANCH  27  43
ATOM     43  C   UNK d   0       7.226  -9.370  -1.678  0.00  0.00     0.052 C 
BRANCH  43  44
ATOM     44  C   UNK d   0       6.633  -8.678  -0.493  0.00  0.00     0.115 C 
BRANCH  44  45
ATOM     45  C   UNK d   0       5.701  -9.646   0.141  0.00  0.00     0.139 C 
ATOM     46  O   UNK d   0       6.189 -10.662   0.696  0.00  0.00    -0.650 OA
BRANCH  45  47
ATOM     47  O   UNK d   0       4.334  -9.472   0.149  0.00  0.00    -0.776 OA
ATOM     48  H   UNK d   0       3.880  -8.589  -0.138  0.00  0.00     0.167 HD
ENDBRANCH  45  47
ENDBRANCH  44  45
ENDBRANCH  43  44
ENDBRANCH  27  43
BRANCH  24  49
ATOM     49  C   UNK d   0       8.681  -4.045  -1.248  0.00  0.00     0.052 C 
BRANCH  49  50
ATOM     50  C   UNK d   0       9.264  -3.020  -2.187  0.00  0.00     0.115 C 
BRANCH  50  51
ATOM     51  C   UNK d   0       9.960  -3.517  -3.365  0.00  0.00     0.139 C 
ATOM     52  O   UNK d   0       9.634  -4.580  -3.945  0.00  0.00    -0.650 OA
BRANCH  51  53
ATOM     53  O   UNK d   0      11.031  -2.804  -3.882  0.00  0.00    -0.776 OA
ATOM     54  H   UNK d   0      11.243  -2.905  -4.859  0.00  0.00     0.167 HD
ENDBRANCH  51  53
ENDBRANCH  50  51
ENDBRANCH  49  50
ENDBRANCH  24  49
BRANCH  21  55
ATOM     55  C   UNK d   0      10.744  -2.998   0.799  0.00  0.00     0.151 C 
BRANCH  55  56
ATOM     56  C   UNK d   0      10.088  -2.850   2.107  0.00  0.00     0.143 C 
ATOM     57  O   UNK d   0       8.850  -2.775   2.237  0.00  0.00    -0.650 OA
BRANCH  56  58
ATOM     58  O   UNK d   0      10.901  -2.793   3.238  0.00  0.00    -0.776 OA
ATOM     59  H   UNK d   0      11.854  -2.422   3.072  0.00  0.00     0.167 HD
ENDBRANCH  56  58
ENDBRANCH  55  56
ENDBRANCH  21  55
BRANCH  18  60
ATOM     60  C   UNK d   0      15.540  -5.224   1.722  0.00  0.00     0.151 C 
BRANCH  60  61
ATOM     61  C   UNK d   0      15.640  -4.817   3.132  0.00  0.00     0.143 C 
ATOM     62  O   UNK d   0      14.718  -4.716   3.942  0.00  0.00    -0.650 OA
BRANCH  61  63
ATOM     63  O   UNK d   0      16.948  -4.515   3.580  0.00  0.00    -0.776 OA
ATOM     64  H   UNK d   0      17.291  -3.570   3.579  0.00  0.00     0.167 HD
ENDBRANCH  61  63
ENDBRANCH  60  61
ENDBRANCH  18  60
BRANCH  14  65
ATOM     65  C   UNK d   0      16.836  -7.948   2.058  0.00  0.00     0.052 C 
BRANCH  65  66
ATOM     66  C   UNK d   0      17.647  -7.769   0.823  0.00  0.00     0.115 C 
BRANCH  66  67
ATOM     67  C   UNK d   0      18.337  -8.893   0.256  0.00  0.00     0.139 C 
ATOM     68  O   UNK d   0      17.672  -9.715  -0.477  0.00  0.00    -0.650 OA
BRANCH  67  69
ATOM     69  O   UNK d   0      19.683  -9.228   0.397  0.00  0.00    -0.776 OA
ATOM     70  H   UNK d   0      20.023  -9.320   1.365  0.00  0.00     0.167 HD
ENDBRANCH  67  69
ENDBRANCH  66  67
ENDBRANCH  65  66
ENDBRANCH  14  65
ENDBRANCH   6   7
ENDBRANCH   5   6
ENDBRANCH   2   5
TORSDOF 28
ENDMDL
MODEL 14
REMARK VINA RESULT:      -9.3      1.961      3.306
REMARK  28 active torsions:
REMARK  status: ('A' for Active; 'I' for Inactive)
REMARK    1  A    between atoms: C_2  and  O_3 
REMARK    2  A    between atoms: C_2  and  C_4 
REMARK    3  A    between atoms: C_4  and  C_5 
REMARK    4  A    between atoms: C_5  and  C_6 
REMARK    5  A    between atoms: C_7  and  C_8 
REMARK    6  A    between atoms: C_8  and  C_9 
REMARK    7  A    between atoms: C_9  and  O_11 
REMARK    8  A    between atoms: C_28  and  C_29 
REMARK    9  A    between atoms: C_29  and  C_30 
REMARK   10  A    between atoms: C_30  and  O_32 
REMARK   11  A    between atoms: C_33  and  C_34 
REMARK   12  A    between atoms: C_34  and  C_35 
REMARK   13  A    between atoms: C_35  and  C_36 
REMARK   14  A    between atoms: C_36  and  O_38 
REMARK   15  A    between atoms: C_39  and  C_40 
REMARK   16  A    between atoms: C_40  and  C_41 
REMARK   17  A    between atoms: C_41  and  C_42 
REMARK   18  A    between atoms: C_42  and  O_44 
REMARK   19  A    between atoms: C_45  and  C_46 
REMARK   20  A    between atoms: C_46  and  C_47 
REMARK   21  A    between atoms: C_47  and  O_49 
REMARK   22  A    between atoms: C_50  and  C_51 
REMARK   23  A    between atoms: C_51  and  C_52 
REMARK   24  A    between atoms: C_52  and  O_54 
REMARK   25  A    between atoms: C_55  and  C_56 
REMARK   26  A    between atoms: C_56  and  C_57 
REMARK   27  A    between atoms: C_57  and  C_58 
REMARK   28  A    between atoms: C_58  and  O_60 
ROOT
ATOM      1  O   UNK d   0       1.269   0.155  30.941  0.00  0.00    -0.650 OA
ATOM      2  C   UNK d   0       1.942  -0.170  29.937  0.00  0.00     0.139 C 
ENDROOT
BRANCH   2   3
ATOM      3  O   UNK d   0       2.510   0.812  29.161  0.00  0.00    -0.776 OA
ATOM      4  H   UNK d   0       3.210   1.450  29.546  0.00  0.00     0.167 HD
ENDBRANCH   2   3
BRANCH   2   5
ATOM      5  C   UNK d   0       2.123  -1.608  29.590  0.00  0.00     0.115 C 
BRANCH   5   6
ATOM      6  C   UNK d   0       1.442  -2.477  30.612  0.00  0.00     0.052 C 
BRANCH   6   7
ATOM      7  C   UNK d   0       0.340  -3.320  30.017  0.00  0.00    -0.020 A 
ATOM      8  C   UNK d   0       0.266  -4.626  29.980  0.00  0.00    -0.011 A 
ATOM      9  C   UNK d   0      -0.969  -4.982  29.301  0.00  0.00     0.067 A 
ATOM     10  C   UNK d   0      -1.632  -6.172  28.963  0.00  0.00     0.062 C 
ATOM     11  N   UNK d   0      -1.582  -3.831  28.954  0.00  0.00    -0.248 NA
ATOM     12  C   UNK d   0      -2.961  -6.314  28.550  0.00  0.00     0.041 A 
ATOM     13  N   UNK d   0      -3.705  -5.591  27.691  0.00  0.00    -0.355 N 
ATOM     14  C   UNK d   0      -3.747  -7.331  29.123  0.00  0.00    -0.022 A 
ATOM     15  C   UNK d   0      -4.944  -6.118  27.710  0.00  0.00     0.042 A 
ATOM     16  H   UNK d   0      -3.356  -4.738  27.069  0.00  0.00     0.166 HD
ATOM     17  C   UNK d   0      -6.104  -5.749  27.002  0.00  0.00     0.062 C 
ATOM     18  C   UNK d   0      -5.009  -7.211  28.596  0.00  0.00    -0.013 A 
ATOM     19  C   UNK d   0      -6.621  -4.496  26.786  0.00  0.00     0.067 A 
ATOM     20  N   UNK d   0      -5.844  -3.459  27.107  0.00  0.00    -0.248 NA
ATOM     21  C   UNK d   0      -7.872  -3.955  26.283  0.00  0.00    -0.011 A 
ATOM     22  C   UNK d   0      -6.498  -2.278  26.852  0.00  0.00     0.066 A 
ATOM     23  C   UNK d   0      -5.788  -1.113  27.106  0.00  0.00     0.062 C 
ATOM     24  C   UNK d   0      -7.795  -2.656  26.328  0.00  0.00    -0.020 A 
ATOM     25  C   UNK d   0      -4.449  -0.992  27.508  0.00  0.00     0.041 A 
ATOM     26  N   UNK d   0      -3.714  -1.701  28.373  0.00  0.00    -0.355 N 
ATOM     27  C   UNK d   0      -3.660   0.026  26.929  0.00  0.00    -0.022 A 
ATOM     28  C   UNK d   0      -2.480  -1.172  28.363  0.00  0.00     0.042 A 
ATOM     29  H   UNK d   0      -4.069  -2.552  29.005  0.00  0.00     0.166 HD
ATOM     30  C   UNK d   0      -1.319  -1.524  29.069  0.00  0.00     0.062 C 
ATOM     31  C   UNK d   0      -2.413  -0.081  27.464  0.00  0.00    -0.013 A 
ATOM     32  C   UNK d   0      -0.846  -2.794  29.357  0.00  0.00     0.066 A 
BRANCH   8  33
ATOM     33  C   UNK d   0       1.249  -5.584  30.517  0.00  0.00     0.151 C 
BRANCH  33  34
ATOM     34  C   UNK d   0       0.828  -6.174  31.801  0.00  0.00     0.143 C 
ATOM     35  O   UNK d   0       1.174  -5.668  32.878  0.00  0.00    -0.650 OA
BRANCH  34  36
ATOM     36  O   UNK d   0       0.041  -7.302  31.799  0.00  0.00    -0.776 OA
ATOM     37  H   UNK d   0      -0.229  -7.767  32.677  0.00  0.00     0.167 HD
ENDBRANCH  34  36
ENDBRANCH  33  34
ENDBRANCH   8  33
BRANCH  31  38
ATOM     38  C   UNK d   0      -1.224   0.790  27.133  0.00  0.00     0.151 C 
BRANCH  38  39
ATOM     39  C   UNK d   0      -1.109   1.939  28.007  0.00  0.00     0.143 C 
ATOM     40  O   UNK d   0      -0.136   2.105  28.764  0.00  0.00    -0.650 OA
BRANCH  39  41
ATOM     41  O   UNK d   0      -2.118   2.902  28.009  0.00  0.00    -0.776 OA
ATOM     42  H   UNK d   0      -3.030   2.614  28.376  0.00  0.00     0.167 HD
ENDBRANCH  39  41
ENDBRANCH  38  39
ENDBRANCH  31  38
BRANCH  27  43
ATOM     43  C   UNK d   0      -4.041   1.073  25.913  0.00  0.00     0.052 C 
BRANCH  43  44
ATOM     44  C   UNK d   0      -5.040   2.059  26.426  0.00  0.00     0.115 C 
BRANCH  44  45
ATOM     45  C   UNK d   0      -4.816   3.320  25.673  0.00  0.00     0.139 C 
ATOM     46  O   UNK d   0      -3.981   4.141  26.128  0.00  0.00    -0.650 OA
BRANCH  45  47
ATOM     47  O   UNK d   0      -5.478   3.620  24.502  0.00  0.00    -0.776 OA
ATOM     48  H   UNK d   0      -6.276   4.275  24.462  0.00  0.00     0.167 HD
ENDBRANCH  45  47
ENDBRANCH  44  45
ENDBRANCH  43  44
ENDBRANCH  27  43
BRANCH  24  49
ATOM     49  C   UNK d   0      -8.829  -1.709  25.876  0.00  0.00     0.052 C 
BRANCH  49  50
ATOM     50  C   UNK d   0      -8.813  -1.593  24.373  0.00  0.00     0.115 C 
BRANCH  50  51
ATOM     51  C   UNK d   0      -7.790  -0.741  23.782  0.00  0.00     0.139 C 
ATOM     52  O   UNK d   0      -7.434   0.345  24.297  0.00  0.00    -0.650 OA
BRANCH  51  53
ATOM     53  O   UNK d   0      -7.173  -1.127  22.602  0.00  0.00    -0.776 OA
ATOM     54  H   UNK d   0      -6.381  -0.597  22.284  0.00  0.00     0.167 HD
ENDBRANCH  51  53
ENDBRANCH  50  51
ENDBRANCH  49  50
ENDBRANCH  24  49
BRANCH  21  55
ATOM     55  C   UNK d   0      -9.012  -4.792  25.805  0.00  0.00     0.151 C 
BRANCH  55  56
ATOM     56  C   UNK d   0      -9.900  -5.195  26.907  0.00  0.00     0.143 C 
ATOM     57  O   UNK d   0      -9.880  -6.337  27.407  0.00  0.00    -0.650 OA
BRANCH  56  58
ATOM     58  O   UNK d   0     -10.795  -4.246  27.399  0.00  0.00    -0.776 OA
ATOM     59  H   UNK d   0     -10.499  -3.261  27.273  0.00  0.00     0.167 HD
ENDBRANCH  56  58
ENDBRANCH  55  56
ENDBRANCH  21  55
BRANCH  18  60
ATOM     60  C   UNK d   0      -6.178  -8.099  28.943  0.00  0.00     0.151 C 
BRANCH  60  61
ATOM     61  C   UNK d   0      -6.196  -9.160  27.925  0.00  0.00     0.143 C 
ATOM     62  O   UNK d   0      -5.418 -10.110  27.830  0.00  0.00    -0.650 OA
BRANCH  61  63
ATOM     63  O   UNK d   0      -7.228  -9.054  26.962  0.00  0.00    -0.776 OA
ATOM     64  H   UNK d   0      -7.017  -8.910  25.990  0.00  0.00     0.167 HD
ENDBRANCH  61  63
ENDBRANCH  60  61
ENDBRANCH  18  60
BRANCH  14  65
ATOM     65  C   UNK d   0      -3.374  -8.457  30.046  0.00  0.00     0.052 C 
BRANCH  65  66
ATOM     66  C   UNK d   0      -2.434  -9.429  29.426  0.00  0.00     0.115 C 
BRANCH  66  67
ATOM     67  C   UNK d   0      -1.160  -9.678  30.040  0.00  0.00     0.139 C 
ATOM     68  O   UNK d   0      -0.097  -9.317  29.414  0.00  0.00    -0.650 OA
BRANCH  67  69
ATOM     69  O   UNK d   0      -0.910 -10.282  31.271  0.00  0.00    -0.776 OA
ATOM     70  H   UNK d   0      -1.742 -10.530  31.826  0.00  0.00     0.167 HD
ENDBRANCH  67  69
ENDBRANCH  66  67
ENDBRANCH  65  66
ENDBRANCH  14  65
ENDBRANCH   6   7
ENDBRANCH   5   6
ENDBRANCH   2   5
TORSDOF 28
ENDMDL
MODEL 15
REMARK VINA RESULT:      -9.2      1.869     10.458
REMARK  28 active torsions:
REMARK  status: ('A' for Active; 'I' for Inactive)
REMARK    1  A    between atoms: C_2  and  O_3 
REMARK    2  A    between atoms: C_2  and  C_4 
REMARK    3  A    between atoms: C_4  and  C_5 
REMARK    4  A    between atoms: C_5  and  C_6 
REMARK    5  A    between atoms: C_7  and  C_8 
REMARK    6  A    between atoms: C_8  and  C_9 
REMARK    7  A    between atoms: C_9  and  O_11 
REMARK    8  A    between atoms: C_28  and  C_29 
REMARK    9  A    between atoms: C_29  and  C_30 
REMARK   10  A    between atoms: C_30  and  O_32 
REMARK   11  A    between atoms: C_33  and  C_34 
REMARK   12  A    between atoms: C_34  and  C_35 
REMARK   13  A    between atoms: C_35  and  C_36 
REMARK   14  A    between atoms: C_36  and  O_38 
REMARK   15  A    between atoms: C_39  and  C_40 
REMARK   16  A    between atoms: C_40  and  C_41 
REMARK   17  A    between atoms: C_41  and  C_42 
REMARK   18  A    between atoms: C_42  and  O_44 
REMARK   19  A    between atoms: C_45  and  C_46 
REMARK   20  A    between atoms: C_46  and  C_47 
REMARK   21  A    between atoms: C_47  and  O_49 
REMARK   22  A    between atoms: C_50  and  C_51 
REMARK   23  A    between atoms: C_51  and  C_52 
REMARK   24  A    between atoms: C_52  and  O_54 
REMARK   25  A    between atoms: C_55  and  C_56 
REMARK   26  A    between atoms: C_56  and  C_57 
REMARK   27  A    between atoms: C_57  and  C_58 
REMARK   28  A    between atoms: C_58  and  O_60 
ROOT
ATOM      1  O   UNK d   0      -8.010 -10.124  26.287  0.00  0.00    -0.650 OA
ATOM      2  C   UNK d   0      -7.030 -10.468  26.984  0.00  0.00     0.139 C 
ENDROOT
BRANCH   2   3
ATOM      3  O   UNK d   0      -6.734 -11.803  27.119  0.00  0.00    -0.776 OA
ATOM      4  H   UNK d   0      -6.636 -12.407  26.300  0.00  0.00     0.167 HD
ENDBRANCH   2   3
BRANCH   2   5
ATOM      5  C   UNK d   0      -6.193  -9.435  27.660  0.00  0.00     0.115 C 
BRANCH   5   6
ATOM      6  C   UNK d   0      -7.049  -8.272  28.083  0.00  0.00     0.052 C 
BRANCH   6   7
ATOM      7  C   UNK d   0      -6.527  -6.951  27.572  0.00  0.00    -0.020 A 
ATOM      8  C   UNK d   0      -7.025  -6.213  26.614  0.00  0.00    -0.011 A 
ATOM      9  C   UNK d   0      -6.180  -5.039  26.471  0.00  0.00     0.067 A 
ATOM     10  C   UNK d   0      -6.174  -3.887  25.668  0.00  0.00     0.062 C 
ATOM     11  N   UNK d   0      -5.188  -5.147  27.379  0.00  0.00    -0.248 NA
ATOM     12  C   UNK d   0      -5.427  -2.721  25.866  0.00  0.00     0.041 A 
ATOM     13  N   UNK d   0      -4.144  -2.541  26.231  0.00  0.00    -0.355 N 
ATOM     14  C   UNK d   0      -6.065  -1.474  25.734  0.00  0.00    -0.022 A 
ATOM     15  C   UNK d   0      -3.953  -1.212  26.341  0.00  0.00     0.042 A 
ATOM     16  H   UNK d   0      -3.382  -3.336  26.388  0.00  0.00     0.166 HD
ATOM     17  C   UNK d   0      -2.800  -0.481  26.692  0.00  0.00     0.062 C 
ATOM     18  C   UNK d   0      -5.136  -0.511  26.038  0.00  0.00    -0.013 A 
ATOM     19  C   UNK d   0      -1.908  -0.712  27.707  0.00  0.00     0.067 A 
ATOM     20  N   UNK d   0      -2.005  -1.883  28.343  0.00  0.00    -0.248 NA
ATOM     21  C   UNK d   0      -0.822   0.025  28.332  0.00  0.00    -0.011 A 
ATOM     22  C   UNK d   0      -1.062  -1.964  29.338  0.00  0.00     0.066 A 
ATOM     23  C   UNK d   0      -1.026  -3.149  30.058  0.00  0.00     0.062 C 
ATOM     24  C   UNK d   0      -0.334  -0.711  29.288  0.00  0.00    -0.020 A 
ATOM     25  C   UNK d   0      -1.776  -4.314  29.835  0.00  0.00     0.041 A 
ATOM     26  N   UNK d   0      -3.056  -4.493  29.487  0.00  0.00    -0.355 N 
ATOM     27  C   UNK d   0      -1.133  -5.565  29.963  0.00  0.00    -0.022 A 
ATOM     28  C   UNK d   0      -3.251  -5.818  29.385  0.00  0.00     0.042 A 
ATOM     29  H   UNK d   0      -3.822  -3.693  29.340  0.00  0.00     0.166 HD
ATOM     30  C   UNK d   0      -4.394  -6.559  29.047  0.00  0.00     0.062 C 
ATOM     31  C   UNK d   0      -2.059  -6.522  29.679  0.00  0.00    -0.013 A 
ATOM     32  C   UNK d   0      -5.340  -6.275  28.074  0.00  0.00     0.066 A 
BRANCH   8  33
ATOM     33  C   UNK d   0      -8.224  -6.503  25.806  0.00  0.00     0.151 C 
BRANCH  33  34
ATOM     34  C   UNK d   0      -9.479  -6.189  26.513  0.00  0.00     0.143 C 
ATOM     35  O   UNK d   0      -9.634  -5.099  27.081  0.00  0.00    -0.650 OA
BRANCH  34  36
ATOM     36  O   UNK d   0     -10.489  -7.122  26.542  0.00  0.00    -0.776 OA
ATOM     37  H   UNK d   0     -10.518  -7.900  25.869  0.00  0.00     0.167 HD
ENDBRANCH  34  36
ENDBRANCH  33  34
ENDBRANCH   8  33
BRANCH  31  38
ATOM     38  C   UNK d   0      -1.826  -8.014  29.675  0.00  0.00     0.151 C 
BRANCH  38  39
ATOM     39  C   UNK d   0      -1.515  -8.530  28.358  0.00  0.00     0.143 C 
ATOM     40  O   UNK d   0      -1.954  -9.620  27.950  0.00  0.00    -0.650 OA
BRANCH  39  41
ATOM     41  O   UNK d   0      -0.697  -7.789  27.506  0.00  0.00    -0.776 OA
ATOM     42  H   UNK d   0      -1.005  -6.837  27.283  0.00  0.00     0.167 HD
ENDBRANCH  39  41
ENDBRANCH  38  39
ENDBRANCH  31  38
BRANCH  27  43
ATOM     43  C   UNK d   0       0.294  -5.875  30.339  0.00  0.00     0.052 C 
BRANCH  43  44
ATOM     44  C   UNK d   0       0.429  -6.482  31.698  0.00  0.00     0.115 C 
BRANCH  44  45
ATOM     45  C   UNK d   0       0.323  -5.365  32.673  0.00  0.00     0.139 C 
ATOM     46  O   UNK d   0      -0.792  -5.152  33.210  0.00  0.00    -0.650 OA
BRANCH  45  47
ATOM     47  O   UNK d   0       1.393  -4.565  33.012  0.00  0.00    -0.776 OA
ATOM     48  H   UNK d   0       2.280  -4.563  32.484  0.00  0.00     0.167 HD
ENDBRANCH  45  47
ENDBRANCH  44  45
ENDBRANCH  43  44
ENDBRANCH  27  43
BRANCH  24  49
ATOM     49  C   UNK d   0       0.806  -0.365  30.155  0.00  0.00     0.052 C 
BRANCH  49  50
ATOM     50  C   UNK d   0       0.362  -0.271  31.592  0.00  0.00     0.115 C 
BRANCH  50  51
ATOM     51  C   UNK d   0       0.648  -1.412  32.452  0.00  0.00     0.139 C 
ATOM     52  O   UNK d   0       1.802  -1.880  32.593  0.00  0.00    -0.650 OA
BRANCH  51  53
ATOM     53  O   UNK d   0      -0.384  -2.022  33.149  0.00  0.00    -0.776 OA
ATOM     54  H   UNK d   0      -0.788  -2.858  32.765  0.00  0.00     0.167 HD
ENDBRANCH  51  53
ENDBRANCH  50  51
ENDBRANCH  49  50
ENDBRANCH  24  49
BRANCH  21  55
ATOM     55  C   UNK d   0      -0.383   1.386  27.904  0.00  0.00     0.151 C 
BRANCH  55  56
ATOM     56  C   UNK d   0      -1.230   2.444  28.477  0.00  0.00     0.143 C 
ATOM     57  O   UNK d   0      -1.029   2.933  29.606  0.00  0.00    -0.650 OA
BRANCH  56  58
ATOM     58  O   UNK d   0      -2.297   2.907  27.709  0.00  0.00    -0.776 OA
ATOM     59  H   UNK d   0      -2.305   2.576  26.728  0.00  0.00     0.167 HD
ENDBRANCH  56  58
ENDBRANCH  55  56
ENDBRANCH  21  55
BRANCH  18  60
ATOM     60  C   UNK d   0      -5.396   0.975  26.032  0.00  0.00     0.151 C 
BRANCH  60  61
ATOM     61  C   UNK d   0      -5.109   1.430  24.662  0.00  0.00     0.143 C 
ATOM     62  O   UNK d   0      -4.002   1.549  24.137  0.00  0.00    -0.650 OA
BRANCH  61  63
ATOM     63  O   UNK d   0      -6.247   1.758  23.886  0.00  0.00    -0.776 OA
ATOM     64  H   UNK d   0      -6.729   2.630  24.016  0.00  0.00     0.167 HD
ENDBRANCH  61  63
ENDBRANCH  60  61
ENDBRANCH  18  60
BRANCH  14  65
ATOM     65  C   UNK d   0      -7.445  -1.124  25.253  0.00  0.00     0.052 C 
BRANCH  65  66
ATOM     66  C   UNK d   0      -8.406  -0.889  26.363  0.00  0.00     0.115 C 
BRANCH  66  67
ATOM     67  C   UNK d   0      -9.506  -1.792  26.555  0.00  0.00     0.139 C 
ATOM     68  O   UNK d   0     -10.032  -1.879  27.725  0.00  0.00    -0.650 OA
BRANCH  67  69
ATOM     69  O   UNK d   0     -10.104  -2.622  25.607  0.00  0.00    -0.776 OA
ATOM     70  H   UNK d   0      -9.793  -2.487  24.634  0.00  0.00     0.167 HD
ENDBRANCH  67  69
ENDBRANCH  66  67
ENDBRANCH  65  66
ENDBRANCH  14  65
ENDBRANCH   6   7
ENDBRANCH   5   6
ENDBRANCH   2   5
TORSDOF 28
ENDMDL
MODEL 16
REMARK VINA RESULT:      -9.1      1.830      6.927
REMARK  28 active torsions:
REMARK  status: ('A' for Active; 'I' for Inactive)
REMARK    1  A    between atoms: C_2  and  O_3 
REMARK    2  A    between atoms: C_2  and  C_4 
REMARK    3  A    between atoms: C_4  and  C_5 
REMARK    4  A    between atoms: C_5  and  C_6 
REMARK    5  A    between atoms: C_7  and  C_8 
REMARK    6  A    between atoms: C_8  and  C_9 
REMARK    7  A    between atoms: C_9  and  O_11 
REMARK    8  A    between atoms: C_28  and  C_29 
REMARK    9  A    between atoms: C_29  and  C_30 
REMARK   10  A    between atoms: C_30  and  O_32 
REMARK   11  A    between atoms: C_33  and  C_34 
REMARK   12  A    between atoms: C_34  and  C_35 
REMARK   13  A    between atoms: C_35  and  C_36 
REMARK   14  A    between atoms: C_36  and  O_38 
REMARK   15  A    between atoms: C_39  and  C_40 
REMARK   16  A    between atoms: C_40  and  C_41 
REMARK   17  A    between atoms: C_41  and  C_42 
REMARK   18  A    between atoms: C_42  and  O_44 
REMARK   19  A    between atoms: C_45  and  C_46 
REMARK   20  A    between atoms: C_46  and  C_47 
REMARK   21  A    between atoms: C_47  and  O_49 
REMARK   22  A    between atoms: C_50  and  C_51 
REMARK   23  A    between atoms: C_51  and  C_52 
REMARK   24  A    between atoms: C_52  and  O_54 
REMARK   25  A    between atoms: C_55  and  C_56 
REMARK   26  A    between atoms: C_56  and  C_57 
REMARK   27  A    between atoms: C_57  and  C_58 
REMARK   28  A    between atoms: C_58  and  O_60 
ROOT
ATOM      1  O   UNK d   0       2.038  -5.276  31.252  0.00  0.00    -0.650 OA
ATOM      2  C   UNK d   0       1.110  -5.687  31.984  0.00  0.00     0.139 C 
ENDROOT
BRANCH   2   3
ATOM      3  O   UNK d   0       0.876  -5.064  33.186  0.00  0.00    -0.776 OA
ATOM      4  H   UNK d   0       1.133  -4.086  33.333  0.00  0.00     0.167 HD
ENDBRANCH   2   3
BRANCH   2   5
ATOM      5  C   UNK d   0       0.271  -6.841  31.553  0.00  0.00     0.115 C 
BRANCH   5   6
ATOM      6  C   UNK d   0      -1.163  -6.612  31.945  0.00  0.00     0.052 C 
BRANCH   6   7
ATOM      7  C   UNK d   0      -2.046  -6.296  30.761  0.00  0.00    -0.020 A 
ATOM      8  C   UNK d   0      -2.899  -7.091  30.166  0.00  0.00    -0.011 A 
ATOM      9  C   UNK d   0      -3.508  -6.352  29.073  0.00  0.00     0.067 A 
ATOM     10  C   UNK d   0      -4.482  -6.609  28.096  0.00  0.00     0.062 C 
ATOM     11  N   UNK d   0      -2.963  -5.117  29.071  0.00  0.00    -0.248 NA
ATOM     12  C   UNK d   0      -5.144  -5.674  27.293  0.00  0.00     0.041 A 
ATOM     13  N   UNK d   0      -4.690  -4.592  26.634  0.00  0.00    -0.355 N 
ATOM     14  C   UNK d   0      -6.539  -5.778  27.137  0.00  0.00    -0.022 A 
ATOM     15  C   UNK d   0      -5.761  -4.001  26.070  0.00  0.00     0.042 A 
ATOM     16  H   UNK d   0      -3.630  -4.262  26.552  0.00  0.00     0.166 HD
ATOM     17  C   UNK d   0      -5.851  -2.843  25.273  0.00  0.00     0.062 C 
ATOM     18  C   UNK d   0      -6.938  -4.716  26.363  0.00  0.00    -0.013 A 
ATOM     19  C   UNK d   0      -5.251  -1.623  25.454  0.00  0.00     0.067 A 
ATOM     20  N   UNK d   0      -4.298  -1.550  26.388  0.00  0.00    -0.248 NA
ATOM     21  C   UNK d   0      -5.388  -0.295  24.879  0.00  0.00    -0.011 A 
ATOM     22  C   UNK d   0      -3.804  -0.271  26.465  0.00  0.00     0.066 A 
ATOM     23  C   UNK d   0      -2.777  -0.061  27.373  0.00  0.00     0.062 C 
ATOM     24  C   UNK d   0      -4.542   0.492  25.477  0.00  0.00    -0.020 A 
ATOM     25  C   UNK d   0      -2.116  -1.016  28.161  0.00  0.00     0.041 A 
ATOM     26  N   UNK d   0      -2.570  -2.084  28.828  0.00  0.00    -0.355 N 
ATOM     27  C   UNK d   0      -0.716  -0.914  28.313  0.00  0.00    -0.022 A 
ATOM     28  C   UNK d   0      -1.505  -2.669  29.399  0.00  0.00     0.042 A 
ATOM     29  H   UNK d   0      -3.636  -2.408  28.918  0.00  0.00     0.166 HD
ATOM     30  C   UNK d   0      -1.402  -3.816  30.201  0.00  0.00     0.062 C 
ATOM     31  C   UNK d   0      -0.321  -1.956  29.094  0.00  0.00    -0.013 A 
ATOM     32  C   UNK d   0      -2.076  -5.020  30.062  0.00  0.00     0.066 A 
BRANCH   8  33
ATOM     33  C   UNK d   0      -3.200  -8.490  30.521  0.00  0.00     0.151 C 
BRANCH  33  34
ATOM     34  C   UNK d   0      -2.324  -9.455  29.833  0.00  0.00     0.143 C 
ATOM     35  O   UNK d   0      -2.516  -9.755  28.646  0.00  0.00    -0.650 OA
BRANCH  34  36
ATOM     36  O   UNK d   0      -1.280 -10.030  30.520  0.00  0.00    -0.776 OA
ATOM     37  H   UNK d   0      -0.331  -9.635  30.478  0.00  0.00     0.167 HD
ENDBRANCH  34  36
ENDBRANCH  33  34
ENDBRANCH   8  33
BRANCH  31  38
ATOM     38  C   UNK d   0       1.096  -2.267  29.517  0.00  0.00     0.151 C 
BRANCH  38  39
ATOM     39  C   UNK d   0       1.812  -3.059  28.541  0.00  0.00     0.143 C 
ATOM     40  O   UNK d   0       2.593  -2.553  27.716  0.00  0.00    -0.650 OA
BRANCH  39  41
ATOM     41  O   UNK d   0       1.631  -4.442  28.514  0.00  0.00    -0.776 OA
ATOM     42  H   UNK d   0       2.265  -4.979  27.914  0.00  0.00     0.167 HD
ENDBRANCH  39  41
ENDBRANCH  38  39
ENDBRANCH  31  38
BRANCH  27  43
ATOM     43  C   UNK d   0       0.236   0.116  27.758  0.00  0.00     0.052 C 
BRANCH  43  44
ATOM     44  C   UNK d   0       0.503   1.243  28.702  0.00  0.00     0.115 C 
BRANCH  44  45
ATOM     45  C   UNK d   0      -0.374   2.366  28.282  0.00  0.00     0.139 C 
ATOM     46  O   UNK d   0      -0.555   3.310  29.090  0.00  0.00    -0.650 OA
BRANCH  45  47
ATOM     47  O   UNK d   0      -0.986   2.415  27.048  0.00  0.00    -0.776 OA
ATOM     48  H   UNK d   0      -1.959   2.104  26.893  0.00  0.00     0.167 HD
ENDBRANCH  45  47
ENDBRANCH  44  45
ENDBRANCH  43  44
ENDBRANCH  27  43
BRANCH  24  49
ATOM     49  C   UNK d   0      -4.320   1.917  25.177  0.00  0.00     0.052 C 
BRANCH  49  50
ATOM     50  C   UNK d   0      -5.230   2.778  26.016  0.00  0.00     0.115 C 
BRANCH  50  51
ATOM     51  C   UNK d   0      -6.175   3.631  25.308  0.00  0.00     0.139 C 
ATOM     52  O   UNK d   0      -6.700   4.641  25.835  0.00  0.00    -0.650 OA
BRANCH  51  53
ATOM     53  O   UNK d   0      -6.524   3.332  24.000  0.00  0.00    -0.776 OA
ATOM     54  H   UNK d   0      -5.787   3.209  23.328  0.00  0.00     0.167 HD
ENDBRANCH  51  53
ENDBRANCH  50  51
ENDBRANCH  49  50
ENDBRANCH  24  49
BRANCH  21  55
ATOM     55  C   UNK d   0      -6.348   0.047  23.788  0.00  0.00     0.151 C 
BRANCH  55  56
ATOM     56  C   UNK d   0      -7.742   0.046  24.259  0.00  0.00     0.143 C 
ATOM     57  O   UNK d   0      -8.182   0.889  25.065  0.00  0.00    -0.650 OA
BRANCH  56  58
ATOM     58  O   UNK d   0      -8.591  -0.947  23.772  0.00  0.00    -0.776 OA
ATOM     59  H   UNK d   0      -9.464  -0.599  23.337  0.00  0.00     0.167 HD
ENDBRANCH  56  58
ENDBRANCH  55  56
ENDBRANCH  21  55
BRANCH  18  60
ATOM     60  C   UNK d   0      -8.362  -4.433  25.954  0.00  0.00     0.151 C 
BRANCH  60  61
ATOM     61  C   UNK d   0      -8.907  -3.535  26.983  0.00  0.00     0.143 C 
ATOM     62  O   UNK d   0      -8.333  -2.588  27.522  0.00  0.00    -0.650 OA
BRANCH  61  63
ATOM     63  O   UNK d   0     -10.238  -3.810  27.379  0.00  0.00    -0.776 OA
ATOM     64  H   UNK d   0     -10.504  -4.724  27.702  0.00  0.00     0.167 HD
ENDBRANCH  61  63
ENDBRANCH  60  61
ENDBRANCH  18  60
BRANCH  14  65
ATOM     65  C   UNK d   0      -7.498  -6.848  27.576  0.00  0.00     0.052 C 
BRANCH  65  66
ATOM     66  C   UNK d   0      -7.466  -8.051  26.702  0.00  0.00     0.115 C 
BRANCH  66  67
ATOM     67  C   UNK d   0      -8.513  -8.261  25.742  0.00  0.00     0.139 C 
ATOM     68  O   UNK d   0      -8.445  -7.645  24.615  0.00  0.00    -0.650 OA
BRANCH  67  69
ATOM     69  O   UNK d   0      -9.638  -9.075  25.870  0.00  0.00    -0.776 OA
ATOM     70  H   UNK d   0     -10.529  -8.584  26.035  0.00  0.00     0.167 HD
ENDBRANCH  67  69
ENDBRANCH  66  67
ENDBRANCH  65  66
ENDBRANCH  14  65
ENDBRANCH   6   7
ENDBRANCH   5   6
ENDBRANCH   2   5
TORSDOF 28
ENDMDL
MODEL 17
REMARK VINA RESULT:      -9.1      2.184      8.398
REMARK  28 active torsions:
REMARK  status: ('A' for Active; 'I' for Inactive)
REMARK    1  A    between atoms: C_2  and  O_3 
REMARK    2  A    between atoms: C_2  and  C_4 
REMARK    3  A    between atoms: C_4  and  C_5 
REMARK    4  A    between atoms: C_5  and  C_6 
REMARK    5  A    between atoms: C_7  and  C_8 
REMARK    6  A    between atoms: C_8  and  C_9 
REMARK    7  A    between atoms: C_9  and  O_11 
REMARK    8  A    between atoms: C_28  and  C_29 
REMARK    9  A    between atoms: C_29  and  C_30 
REMARK   10  A    between atoms: C_30  and  O_32 
REMARK   11  A    between atoms: C_33  and  C_34 
REMARK   12  A    between atoms: C_34  and  C_35 
REMARK   13  A    between atoms: C_35  and  C_36 
REMARK   14  A    between atoms: C_36  and  O_38 
REMARK   15  A    between atoms: C_39  and  C_40 
REMARK   16  A    between atoms: C_40  and  C_41 
REMARK   17  A    between atoms: C_41  and  C_42 
REMARK   18  A    between atoms: C_42  and  O_44 
REMARK   19  A    between atoms: C_45  and  C_46 
REMARK   20  A    between atoms: C_46  and  C_47 
REMARK   21  A    between atoms: C_47  and  O_49 
REMARK   22  A    between atoms: C_50  and  C_51 
REMARK   23  A    between atoms: C_51  and  C_52 
REMARK   24  A    between atoms: C_52  and  O_54 
REMARK   25  A    between atoms: C_55  and  C_56 
REMARK   26  A    between atoms: C_56  and  C_57 
REMARK   27  A    between atoms: C_57  and  C_58 
REMARK   28  A    between atoms: C_58  and  O_60 
ROOT
ATOM      1  O   UNK d   0     -10.122  -8.061  24.825  0.00  0.00    -0.650 OA
ATOM      2  C   UNK d   0     -10.143  -7.418  25.898  0.00  0.00     0.139 C 
ENDROOT
BRANCH   2   3
ATOM      3  O   UNK d   0     -11.301  -7.380  26.637  0.00  0.00    -0.776 OA
ATOM      4  H   UNK d   0     -12.006  -6.656  26.477  0.00  0.00     0.167 HD
ENDBRANCH   2   3
BRANCH   2   5
ATOM      5  C   UNK d   0      -8.923  -6.702  26.366  0.00  0.00     0.115 C 
BRANCH   5   6
ATOM      6  C   UNK d   0      -7.716  -7.589  26.226  0.00  0.00     0.052 C 
BRANCH   6   7
ATOM      7  C   UNK d   0      -6.631  -7.256  27.222  0.00  0.00    -0.020 A 
ATOM      8  C   UNK d   0      -6.233  -7.975  28.240  0.00  0.00    -0.011 A 
ATOM      9  C   UNK d   0      -5.173  -7.244  28.914  0.00  0.00     0.067 A 
ATOM     10  C   UNK d   0      -4.338  -7.463  30.021  0.00  0.00     0.062 C 
ATOM     11  N   UNK d   0      -4.994  -6.088  28.242  0.00  0.00    -0.248 NA
ATOM     12  C   UNK d   0      -3.175  -6.761  30.357  0.00  0.00     0.041 A 
ATOM     13  N   UNK d   0      -2.899  -5.443  30.339  0.00  0.00    -0.355 N 
ATOM     14  C   UNK d   0      -2.031  -7.483  30.739  0.00  0.00    -0.022 A 
ATOM     15  C   UNK d   0      -1.607  -5.311  30.692  0.00  0.00     0.042 A 
ATOM     16  H   UNK d   0      -3.609  -4.621  30.100  0.00  0.00     0.166 HD
ATOM     17  C   UNK d   0      -0.811  -4.157  30.834  0.00  0.00     0.062 C 
ATOM     18  C   UNK d   0      -1.029  -6.569  30.951  0.00  0.00    -0.013 A 
ATOM     19  C   UNK d   0      -0.713  -3.070  30.003  0.00  0.00     0.067 A 
ATOM     20  N   UNK d   0      -1.619  -2.972  29.026  0.00  0.00    -0.248 NA
ATOM     21  C   UNK d   0       0.176  -1.927  29.878  0.00  0.00    -0.011 A 
ATOM     22  C   UNK d   0      -1.386  -1.848  28.271  0.00  0.00     0.066 A 
ATOM     23  C   UNK d   0      -2.280  -1.602  27.240  0.00  0.00     0.062 C 
ATOM     24  C   UNK d   0      -0.221  -1.218  28.861  0.00  0.00    -0.020 A 
ATOM     25  C   UNK d   0      -3.450  -2.313  26.927  0.00  0.00     0.041 A 
ATOM     26  N   UNK d   0      -3.720  -3.623  26.931  0.00  0.00    -0.355 N 
ATOM     27  C   UNK d   0      -4.599  -1.586  26.548  0.00  0.00    -0.022 A 
ATOM     28  C   UNK d   0      -5.006  -3.758  26.570  0.00  0.00     0.042 A 
ATOM     29  H   UNK d   0      -3.002  -4.449  27.161  0.00  0.00     0.166 HD
ATOM     30  C   UNK d   0      -5.807  -4.900  26.416  0.00  0.00     0.062 C 
ATOM     31  C   UNK d   0      -5.589  -2.493  26.320  0.00  0.00    -0.013 A 
ATOM     32  C   UNK d   0      -5.840  -6.034  27.213  0.00  0.00     0.066 A 
BRANCH   8  33
ATOM     33  C   UNK d   0      -6.756  -9.291  28.652  0.00  0.00     0.151 C 
BRANCH  33  34
ATOM     34  C   UNK d   0      -6.344 -10.378  27.746  0.00  0.00     0.143 C 
ATOM     35  O   UNK d   0      -5.154 -10.712  27.653  0.00  0.00    -0.650 OA
BRANCH  34  36
ATOM     36  O   UNK d   0      -7.295 -11.027  26.994  0.00  0.00    -0.776 OA
ATOM     37  H   UNK d   0      -7.359 -10.887  25.976  0.00  0.00     0.167 HD
ENDBRANCH  34  36
ENDBRANCH  33  34
ENDBRANCH   8  33
BRANCH  31  38
ATOM     38  C   UNK d   0      -7.007  -2.179  25.904  0.00  0.00     0.151 C 
BRANCH  38  39
ATOM     39  C   UNK d   0      -7.950  -2.286  26.997  0.00  0.00     0.143 C 
ATOM     40  O   UNK d   0      -8.833  -3.160  27.031  0.00  0.00    -0.650 OA
BRANCH  39  41
ATOM     41  O   UNK d   0      -7.876  -1.383  28.058  0.00  0.00    -0.776 OA
ATOM     42  H   UNK d   0      -8.765  -1.076  28.465  0.00  0.00     0.167 HD
ENDBRANCH  39  41
ENDBRANCH  38  39
ENDBRANCH  31  38
BRANCH  27  43
ATOM     43  C   UNK d   0      -4.785  -0.097  26.395  0.00  0.00     0.052 C 
BRANCH  43  44
ATOM     44  C   UNK d   0      -4.549   0.388  25.001  0.00  0.00     0.115 C 
BRANCH  44  45
ATOM     45  C   UNK d   0      -4.180   1.823  25.109  0.00  0.00     0.139 C 
ATOM     46  O   UNK d   0      -4.129   2.502  24.053  0.00  0.00    -0.650 OA
BRANCH  45  47
ATOM     47  O   UNK d   0      -3.900   2.435  26.311  0.00  0.00    -0.776 OA
ATOM     48  H   UNK d   0      -3.062   3.021  26.460  0.00  0.00     0.167 HD
ENDBRANCH  45  47
ENDBRANCH  44  45
ENDBRANCH  43  44
ENDBRANCH  27  43
BRANCH  24  49
ATOM     49  C   UNK d   0       0.374   0.048  28.400  0.00  0.00     0.052 C 
BRANCH  49  50
ATOM     50  C   UNK d   0      -0.356   1.221  29.004  0.00  0.00     0.115 C 
BRANCH  50  51
ATOM     51  C   UNK d   0      -1.036   2.124  28.086  0.00  0.00     0.139 C 
ATOM     52  O   UNK d   0      -1.823   3.019  28.477  0.00  0.00    -0.650 OA
BRANCH  51  53
ATOM     53  O   UNK d   0      -0.822   2.006  26.722  0.00  0.00    -0.776 OA
ATOM     54  H   UNK d   0      -1.518   2.376  26.098  0.00  0.00     0.167 HD
ENDBRANCH  51  53
ENDBRANCH  50  51
ENDBRANCH  49  50
ENDBRANCH  24  49
BRANCH  21  55
ATOM     55  C   UNK d   0       1.326  -1.660  30.792  0.00  0.00     0.151 C 
BRANCH  55  56
ATOM     56  C   UNK d   0       0.915  -1.638  32.204  0.00  0.00     0.143 C 
ATOM     57  O   UNK d   0       0.060  -0.845  32.646  0.00  0.00    -0.650 OA
BRANCH  56  58
ATOM     58  O   UNK d   0       1.517  -2.549  33.070  0.00  0.00    -0.776 OA
ATOM     59  H   UNK d   0       2.464  -2.283  33.393  0.00  0.00     0.167 HD
ENDBRANCH  56  58
ENDBRANCH  55  56
ENDBRANCH  21  55
BRANCH  18  60
ATOM     60  C   UNK d   0       0.380  -6.912  31.370  0.00  0.00     0.151 C 
BRANCH  60  61
ATOM     61  C   UNK d   0       1.129  -7.134  30.124  0.00  0.00     0.143 C 
ATOM     62  O   UNK d   0       0.906  -6.629  29.023  0.00  0.00    -0.650 OA
BRANCH  61  63
ATOM     63  O   UNK d   0       2.219  -8.031  30.228  0.00  0.00    -0.776 OA
ATOM     64  H   UNK d   0       2.265  -8.859  29.662  0.00  0.00     0.167 HD
ENDBRANCH  61  63
ENDBRANCH  60  61
ENDBRANCH  18  60
BRANCH  14  65
ATOM     65  C   UNK d   0      -1.842  -8.948  31.013  0.00  0.00     0.052 C 
BRANCH  65  66
ATOM     66  C   UNK d   0      -1.477  -9.725  29.797  0.00  0.00     0.115 C 
BRANCH  66  67
ATOM     67  C   UNK d   0      -0.266 -10.495  29.781  0.00  0.00     0.139 C 
ATOM     68  O   UNK d   0       0.036 -11.142  28.712  0.00  0.00    -0.650 OA
BRANCH  67  69
ATOM     69  O   UNK d   0       0.664 -10.644  30.810  0.00  0.00    -0.776 OA
ATOM     70  H   UNK d   0       0.727 -11.586  31.223  0.00  0.00     0.167 HD
ENDBRANCH  67  69
ENDBRANCH  66  67
ENDBRANCH  65  66
ENDBRANCH  14  65
ENDBRANCH   6   7
ENDBRANCH   5   6
ENDBRANCH   2   5
TORSDOF 28
ENDMDL
MODEL 18
REMARK VINA RESULT:      -9.1      2.068      6.027
REMARK  28 active torsions:
REMARK  status: ('A' for Active; 'I' for Inactive)
REMARK    1  A    between atoms: C_2  and  O_3 
REMARK    2  A    between atoms: C_2  and  C_4 
REMARK    3  A    between atoms: C_4  and  C_5 
REMARK    4  A    between atoms: C_5  and  C_6 
REMARK    5  A    between atoms: C_7  and  C_8 
REMARK    6  A    between atoms: C_8  and  C_9 
REMARK    7  A    between atoms: C_9  and  O_11 
REMARK    8  A    between atoms: C_28  and  C_29 
REMARK    9  A    between atoms: C_29  and  C_30 
REMARK   10  A    between atoms: C_30  and  O_32 
REMARK   11  A    between atoms: C_33  and  C_34 
REMARK   12  A    between atoms: C_34  and  C_35 
REMARK   13  A    between atoms: C_35  and  C_36 
REMARK   14  A    between atoms: C_36  and  O_38 
REMARK   15  A    between atoms: C_39  and  C_40 
REMARK   16  A    between atoms: C_40  and  C_41 
REMARK   17  A    between atoms: C_41  and  C_42 
REMARK   18  A    between atoms: C_42  and  O_44 
REMARK   19  A    between atoms: C_45  and  C_46 
REMARK   20  A    between atoms: C_46  and  C_47 
REMARK   21  A    between atoms: C_47  and  O_49 
REMARK   22  A    between atoms: C_50  and  C_51 
REMARK   23  A    between atoms: C_51  and  C_52 
REMARK   24  A    between atoms: C_52  and  O_54 
REMARK   25  A    between atoms: C_55  and  C_56 
REMARK   26  A    between atoms: C_56  and  C_57 
REMARK   27  A    between atoms: C_57  and  C_58 
REMARK   28  A    between atoms: C_58  and  O_60 
ROOT
ATOM      1  O   UNK d   0      -0.725  -3.937  33.190  0.00  0.00    -0.650 OA
ATOM      2  C   UNK d   0       0.439  -4.363  33.021  0.00  0.00     0.139 C 
ENDROOT
BRANCH   2   3
ATOM      3  O   UNK d   0       1.501  -3.510  33.200  0.00  0.00    -0.776 OA
ATOM      4  H   UNK d   0       2.455  -3.866  33.289  0.00  0.00     0.167 HD
ENDBRANCH   2   3
BRANCH   2   5
ATOM      5  C   UNK d   0       0.666  -5.783  32.628  0.00  0.00     0.115 C 
BRANCH   5   6
ATOM      6  C   UNK d   0       0.990  -5.868  31.162  0.00  0.00     0.052 C 
BRANCH   6   7
ATOM      7  C   UNK d   0      -0.245  -5.877  30.293  0.00  0.00    -0.020 A 
ATOM      8  C   UNK d   0      -0.947  -6.914  29.913  0.00  0.00    -0.011 A 
ATOM      9  C   UNK d   0      -2.037  -6.433  29.081  0.00  0.00     0.067 A 
ATOM     10  C   UNK d   0      -3.122  -7.009  28.401  0.00  0.00     0.062 C 
ATOM     11  N   UNK d   0      -1.919  -5.091  29.002  0.00  0.00    -0.248 NA
ATOM     12  C   UNK d   0      -4.238  -6.350  27.874  0.00  0.00     0.041 A 
ATOM     13  N   UNK d   0      -4.342  -5.200  27.182  0.00  0.00    -0.355 N 
ATOM     14  C   UNK d   0      -5.517  -6.885  28.108  0.00  0.00    -0.022 A 
ATOM     15  C   UNK d   0      -5.656  -4.987  26.977  0.00  0.00     0.042 A 
ATOM     16  H   UNK d   0      -3.504  -4.561  26.828  0.00  0.00     0.166 HD
ATOM     17  C   UNK d   0      -6.319  -3.938  26.310  0.00  0.00     0.062 C 
ATOM     18  C   UNK d   0      -6.424  -6.023  27.544  0.00  0.00    -0.013 A 
ATOM     19  C   UNK d   0      -6.094  -2.587  26.390  0.00  0.00     0.067 A 
ATOM     20  N   UNK d   0      -4.985  -2.195  27.023  0.00  0.00    -0.248 NA
ATOM     21  C   UNK d   0      -6.788  -1.385  25.958  0.00  0.00    -0.011 A 
ATOM     22  C   UNK d   0      -4.905  -0.824  27.037  0.00  0.00     0.066 A 
ATOM     23  C   UNK d   0      -3.777  -0.279  27.632  0.00  0.00     0.062 C 
ATOM     24  C   UNK d   0      -6.089  -0.357  26.343  0.00  0.00    -0.020 A 
ATOM     25  C   UNK d   0      -2.661  -0.959  28.144  0.00  0.00     0.041 A 
ATOM     26  N   UNK d   0      -2.557  -2.094  28.845  0.00  0.00    -0.355 N 
ATOM     27  C   UNK d   0      -1.376  -0.423  27.905  0.00  0.00    -0.022 A 
ATOM     28  C   UNK d   0      -1.248  -2.304  29.058  0.00  0.00     0.042 A 
ATOM     29  H   UNK d   0      -3.402  -2.729  29.209  0.00  0.00     0.166 HD
ATOM     30  C   UNK d   0      -0.576  -3.338  29.728  0.00  0.00     0.062 C 
ATOM     31  C   UNK d   0      -0.477  -1.268  28.479  0.00  0.00    -0.013 A 
ATOM     32  C   UNK d   0      -0.861  -4.694  29.710  0.00  0.00     0.066 A 
BRANCH   8  33
ATOM     33  C   UNK d   0      -0.692  -8.327  30.252  0.00  0.00     0.151 C 
BRANCH  33  34
ATOM     34  C   UNK d   0      -1.400  -8.757  31.471  0.00  0.00     0.143 C 
ATOM     35  O   UNK d   0      -1.256  -9.904  31.920  0.00  0.00    -0.650 OA
BRANCH  34  36
ATOM     36  O   UNK d   0      -2.233  -7.873  32.117  0.00  0.00    -0.776 OA
ATOM     37  H   UNK d   0      -3.068  -8.198  32.623  0.00  0.00     0.167 HD
ENDBRANCH  34  36
ENDBRANCH  33  34
ENDBRANCH   8  33
BRANCH  31  38
ATOM     38  C   UNK d   0       1.026  -1.111  28.470  0.00  0.00     0.151 C 
BRANCH  38  39
ATOM     39  C   UNK d   0       1.638  -1.644  27.271  0.00  0.00     0.143 C 
ATOM     40  O   UNK d   0       2.194  -0.917  26.428  0.00  0.00    -0.650 OA
BRANCH  39  41
ATOM     41  O   UNK d   0       1.612  -3.019  27.040  0.00  0.00    -0.776 OA
ATOM     42  H   UNK d   0       2.327  -3.394  26.409  0.00  0.00     0.167 HD
ENDBRANCH  39  41
ENDBRANCH  38  39
ENDBRANCH  31  38
BRANCH  27  43
ATOM     43  C   UNK d   0      -0.983   0.834  27.170  0.00  0.00     0.052 C 
BRANCH  43  44
ATOM     44  C   UNK d   0      -1.698   2.052  27.658  0.00  0.00     0.115 C 
BRANCH  44  45
ATOM     45  C   UNK d   0      -0.886   2.601  28.775  0.00  0.00     0.139 C 
ATOM     46  O   UNK d   0      -1.310   2.445  29.947  0.00  0.00    -0.650 OA
BRANCH  45  47
ATOM     47  O   UNK d   0       0.306   3.264  28.577  0.00  0.00    -0.776 OA
ATOM     48  H   UNK d   0       1.096   3.207  29.240  0.00  0.00     0.167 HD
ENDBRANCH  45  47
ENDBRANCH  44  45
ENDBRANCH  43  44
ENDBRANCH  27  43
BRANCH  24  49
ATOM     49  C   UNK d   0      -6.407   1.057  26.081  0.00  0.00     0.052 C 
BRANCH  49  50
ATOM     50  C   UNK d   0      -5.152   1.826  25.760  0.00  0.00     0.115 C 
BRANCH  50  51
ATOM     51  C   UNK d   0      -5.197   3.273  25.928  0.00  0.00     0.139 C 
ATOM     52  O   UNK d   0      -4.222   3.934  26.358  0.00  0.00    -0.650 OA
BRANCH  51  53
ATOM     53  O   UNK d   0      -6.355   3.965  25.610  0.00  0.00    -0.776 OA
ATOM     54  H   UNK d   0      -6.268   4.909  25.277  0.00  0.00     0.167 HD
ENDBRANCH  51  53
ENDBRANCH  50  51
ENDBRANCH  49  50
ENDBRANCH  24  49
BRANCH  21  55
ATOM     55  C   UNK d   0      -8.075  -1.390  25.202  0.00  0.00     0.151 C 
BRANCH  55  56
ATOM     56  C   UNK d   0      -7.929  -0.808  23.859  0.00  0.00     0.143 C 
ATOM     57  O   UNK d   0      -7.000  -1.118  23.087  0.00  0.00    -0.650 OA
BRANCH  56  58
ATOM     58  O   UNK d   0      -8.877   0.129  23.451  0.00  0.00    -0.776 OA
ATOM     59  H   UNK d   0      -8.994   0.211  22.425  0.00  0.00     0.167 HD
ENDBRANCH  56  58
ENDBRANCH  55  56
ENDBRANCH  21  55
BRANCH  18  60
ATOM     60  C   UNK d   0      -7.922  -6.207  27.567  0.00  0.00     0.151 C 
BRANCH  60  61
ATOM     61  C   UNK d   0      -8.279  -6.770  26.256  0.00  0.00     0.143 C 
ATOM     62  O   UNK d   0      -8.014  -7.897  25.835  0.00  0.00    -0.650 OA
BRANCH  61  63
ATOM     63  O   UNK d   0      -9.007  -5.903  25.406  0.00  0.00    -0.776 OA
ATOM     64  H   UNK d   0      -9.427  -5.062  25.760  0.00  0.00     0.167 HD
ENDBRANCH  61  63
ENDBRANCH  60  61
ENDBRANCH  18  60
BRANCH  14  65
ATOM     65  C   UNK d   0      -5.938  -8.186  28.732  0.00  0.00     0.052 C 
BRANCH  65  66
ATOM     66  C   UNK d   0      -5.434  -9.374  27.993  0.00  0.00     0.115 C 
BRANCH  66  67
ATOM     67  C   UNK d   0      -6.347 -10.415  27.612  0.00  0.00     0.139 C 
ATOM     68  O   UNK d   0      -5.930 -11.632  27.624  0.00  0.00    -0.650 OA
BRANCH  67  69
ATOM     69  O   UNK d   0      -7.676 -10.280  27.213  0.00  0.00    -0.776 OA
ATOM     70  H   UNK d   0      -7.827  -9.814  26.307  0.00  0.00     0.167 HD
ENDBRANCH  67  69
ENDBRANCH  66  67
ENDBRANCH  65  66
ENDBRANCH  14  65
ENDBRANCH   6   7
ENDBRANCH   5   6
ENDBRANCH   2   5
TORSDOF 28
ENDMDL
MODEL 19
REMARK VINA RESULT:      -9.1      1.982      6.206
REMARK  28 active torsions:
REMARK  status: ('A' for Active; 'I' for Inactive)
REMARK    1  A    between atoms: C_2  and  O_3 
REMARK    2  A    between atoms: C_2  and  C_4 
REMARK    3  A    between atoms: C_4  and  C_5 
REMARK    4  A    between atoms: C_5  and  C_6 
REMARK    5  A    between atoms: C_7  and  C_8 
REMARK    6  A    between atoms: C_8  and  C_9 
REMARK    7  A    between atoms: C_9  and  O_11 
REMARK    8  A    between atoms: C_28  and  C_29 
REMARK    9  A    between atoms: C_29  and  C_30 
REMARK   10  A    between atoms: C_30  and  O_32 
REMARK   11  A    between atoms: C_33  and  C_34 
REMARK   12  A    between atoms: C_34  and  C_35 
REMARK   13  A    between atoms: C_35  and  C_36 
REMARK   14  A    between atoms: C_36  and  O_38 
REMARK   15  A    between atoms: C_39  and  C_40 
REMARK   16  A    between atoms: C_40  and  C_41 
REMARK   17  A    between atoms: C_41  and  C_42 
REMARK   18  A    between atoms: C_42  and  O_44 
REMARK   19  A    between atoms: C_45  and  C_46 
REMARK   20  A    between atoms: C_46  and  C_47 
REMARK   21  A    between atoms: C_47  and  O_49 
REMARK   22  A    between atoms: C_50  and  C_51 
REMARK   23  A    between atoms: C_51  and  C_52 
REMARK   24  A    between atoms: C_52  and  O_54 
REMARK   25  A    between atoms: C_55  and  C_56 
REMARK   26  A    between atoms: C_56  and  C_57 
REMARK   27  A    between atoms: C_57  and  C_58 
REMARK   28  A    between atoms: C_58  and  O_60 
ROOT
ATOM      1  O   UNK d   0      -5.669   2.849  24.163  0.00  0.00    -0.650 OA
ATOM      2  C   UNK d   0      -4.961   3.141  25.153  0.00  0.00     0.139 C 
ENDROOT
BRANCH   2   3
ATOM      3  O   UNK d   0      -5.374   4.136  26.007  0.00  0.00    -0.776 OA
ATOM      4  H   UNK d   0      -4.936   5.059  25.991  0.00  0.00     0.167 HD
ENDBRANCH   2   3
BRANCH   2   5
ATOM      5  C   UNK d   0      -3.684   2.413  25.400  0.00  0.00     0.115 C 
BRANCH   5   6
ATOM      6  C   UNK d   0      -3.523   2.133  26.870  0.00  0.00     0.052 C 
BRANCH   6   7
ATOM      7  C   UNK d   0      -2.853   0.807  27.139  0.00  0.00    -0.020 A 
ATOM      8  C   UNK d   0      -1.579   0.580  27.326  0.00  0.00    -0.011 A 
ATOM      9  C   UNK d   0      -1.407  -0.847  27.540  0.00  0.00     0.067 A 
ATOM     10  C   UNK d   0      -0.333  -1.709  27.809  0.00  0.00     0.062 C 
ATOM     11  N   UNK d   0      -2.630  -1.414  27.459  0.00  0.00    -0.248 NA
ATOM     12  C   UNK d   0      -0.400  -3.031  28.263  0.00  0.00     0.041 A 
ATOM     13  N   UNK d   0      -1.200  -4.052  27.902  0.00  0.00    -0.355 N 
ATOM     14  C   UNK d   0       0.444  -3.434  29.314  0.00  0.00    -0.022 A 
ATOM     15  C   UNK d   0      -0.891  -5.090  28.703  0.00  0.00     0.042 A 
ATOM     16  H   UNK d   0      -1.955  -4.046  27.085  0.00  0.00     0.166 HD
ATOM     17  C   UNK d   0      -1.421  -6.394  28.752  0.00  0.00     0.062 C 
ATOM     18  C   UNK d   0       0.135  -4.740  29.601  0.00  0.00    -0.013 A 
ATOM     19  C   UNK d   0      -2.732  -6.795  28.709  0.00  0.00     0.067 A 
ATOM     20  N   UNK d   0      -3.637  -5.869  28.380  0.00  0.00    -0.248 NA
ATOM     21  C   UNK d   0      -3.455  -8.032  28.952  0.00  0.00    -0.011 A 
ATOM     22  C   UNK d   0      -4.899  -6.411  28.393  0.00  0.00     0.066 A 
ATOM     23  C   UNK d   0      -5.936  -5.564  28.032  0.00  0.00     0.062 C 
ATOM     24  C   UNK d   0      -4.723  -7.799  28.770  0.00  0.00    -0.020 A 
ATOM     25  C   UNK d   0      -5.847  -4.243  27.567  0.00  0.00     0.041 A 
ATOM     26  N   UNK d   0      -5.062  -3.223  27.935  0.00  0.00    -0.355 N 
ATOM     27  C   UNK d   0      -6.691  -3.841  26.509  0.00  0.00    -0.022 A 
ATOM     28  C   UNK d   0      -5.374  -2.185  27.144  0.00  0.00     0.042 A 
ATOM     29  H   UNK d   0      -4.311  -3.228  28.763  0.00  0.00     0.166 HD
ATOM     30  C   UNK d   0      -4.861  -0.879  27.090  0.00  0.00     0.062 C 
ATOM     31  C   UNK d   0      -6.398  -2.540  26.235  0.00  0.00    -0.013 A 
ATOM     32  C   UNK d   0      -3.543  -0.472  27.220  0.00  0.00     0.066 A 
BRANCH   8  33
ATOM     33  C   UNK d   0      -0.492   1.577  27.321  0.00  0.00     0.151 C 
BRANCH  33  34
ATOM     34  C   UNK d   0      -0.405   2.333  28.584  0.00  0.00     0.143 C 
ATOM     35  O   UNK d   0      -1.041   1.974  29.585  0.00  0.00    -0.650 OA
BRANCH  34  36
ATOM     36  O   UNK d   0       0.393   3.452  28.647  0.00  0.00    -0.776 OA
ATOM     37  H   UNK d   0      -0.011   4.398  28.643  0.00  0.00     0.167 HD
ENDBRANCH  34  36
ENDBRANCH  33  34
ENDBRANCH   8  33
BRANCH  31  38
ATOM     38  C   UNK d   0      -7.041  -1.688  25.166  0.00  0.00     0.151 C 
BRANCH  38  39
ATOM     39  C   UNK d   0      -6.243  -1.601  23.961  0.00  0.00     0.143 C 
ATOM     40  O   UNK d   0      -6.657  -1.050  22.927  0.00  0.00    -0.650 OA
BRANCH  39  41
ATOM     41  O   UNK d   0      -4.961  -2.150  23.947  0.00  0.00    -0.776 OA
ATOM     42  H   UNK d   0      -4.863  -3.083  23.534  0.00  0.00     0.167 HD
ENDBRANCH  39  41
ENDBRANCH  38  39
ENDBRANCH  31  38
BRANCH  27  43
ATOM     43  C   UNK d   0      -7.743  -4.630  25.769  0.00  0.00     0.052 C 
BRANCH  43  44
ATOM     44  C   UNK d   0      -9.126  -4.399  26.285  0.00  0.00     0.115 C 
BRANCH  44  45
ATOM     45  C   UNK d   0      -9.810  -5.718  26.269  0.00  0.00     0.139 C 
ATOM     46  O   UNK d   0      -9.785  -6.385  25.205  0.00  0.00    -0.650 OA
BRANCH  45  47
ATOM     47  O   UNK d   0     -10.461  -6.236  27.368  0.00  0.00    -0.776 OA
ATOM     48  H   UNK d   0     -11.324  -5.822  27.755  0.00  0.00     0.167 HD
ENDBRANCH  45  47
ENDBRANCH  44  45
ENDBRANCH  43  44
ENDBRANCH  27  43
BRANCH  24  49
ATOM     49  C   UNK d   0      -5.811  -8.787  28.875  0.00  0.00     0.052 C 
BRANCH  49  50
ATOM     50  C   UNK d   0      -6.322  -9.152  27.504  0.00  0.00     0.115 C 
BRANCH  50  51
ATOM     51  C   UNK d   0      -6.675 -10.547  27.276  0.00  0.00     0.139 C 
ATOM     52  O   UNK d   0      -7.796 -11.018  27.578  0.00  0.00    -0.650 OA
BRANCH  51  53
ATOM     53  O   UNK d   0      -5.747 -11.405  26.706  0.00  0.00    -0.776 OA
ATOM     54  H   UNK d   0      -4.875 -11.548  27.184  0.00  0.00     0.167 HD
ENDBRANCH  51  53
ENDBRANCH  50  51
ENDBRANCH  49  50
ENDBRANCH  24  49
BRANCH  21  55
ATOM     55  C   UNK d   0      -2.803  -9.319  29.337  0.00  0.00     0.151 C 
BRANCH  55  56
ATOM     56  C   UNK d   0      -2.312 -10.060  28.166  0.00  0.00     0.143 C 
ATOM     57  O   UNK d   0      -1.207  -9.831  27.636  0.00  0.00    -0.650 OA
BRANCH  56  58
ATOM     58  O   UNK d   0      -3.130 -11.058  27.639  0.00  0.00    -0.776 OA
ATOM     59  H   UNK d   0      -4.147 -10.896  27.757  0.00  0.00     0.167 HD
ENDBRANCH  56  58
ENDBRANCH  55  56
ENDBRANCH  21  55
BRANCH  18  60
ATOM     60  C   UNK d   0       0.797  -5.568  30.674  0.00  0.00     0.151 C 
BRANCH  60  61
ATOM     61  C   UNK d   0       0.054  -5.293  31.913  0.00  0.00     0.143 C 
ATOM     62  O   UNK d   0      -1.165  -5.163  32.034  0.00  0.00    -0.650 OA
BRANCH  61  63
ATOM     63  O   UNK d   0       0.849  -5.169  33.078  0.00  0.00    -0.776 OA
ATOM     64  H   UNK d   0       0.830  -5.872  33.795  0.00  0.00     0.167 HD
ENDBRANCH  61  63
ENDBRANCH  60  61
ENDBRANCH  18  60
BRANCH  14  65
ATOM     65  C   UNK d   0       1.576  -2.716  29.993  0.00  0.00     0.052 C 
BRANCH  65  66
ATOM     66  C   UNK d   0       1.121  -1.576  30.833  0.00  0.00     0.115 C 
BRANCH  66  67
ATOM     67  C   UNK d   0       1.053  -1.725  32.259  0.00  0.00     0.139 C 
ATOM     68  O   UNK d   0       1.790  -2.618  32.818  0.00  0.00    -0.650 OA
BRANCH  67  69
ATOM     69  O   UNK d   0       0.264  -1.005  33.156  0.00  0.00    -0.776 OA
ATOM     70  H   UNK d   0      -0.295  -0.242  32.748  0.00  0.00     0.167 HD
ENDBRANCH  67  69
ENDBRANCH  66  67
ENDBRANCH  65  66
ENDBRANCH  14  65
ENDBRANCH   6   7
ENDBRANCH   5   6
ENDBRANCH   2   5
TORSDOF 28
ENDMDL
MODEL 20
REMARK VINA RESULT:      -8.8      2.467      7.786
REMARK  28 active torsions:
REMARK  status: ('A' for Active; 'I' for Inactive)
REMARK    1  A    between atoms: C_2  and  O_3 
REMARK    2  A    between atoms: C_2  and  C_4 
REMARK    3  A    between atoms: C_4  and  C_5 
REMARK    4  A    between atoms: C_5  and  C_6 
REMARK    5  A    between atoms: C_7  and  C_8 
REMARK    6  A    between atoms: C_8  and  C_9 
REMARK    7  A    between atoms: C_9  and  O_11 
REMARK    8  A    between atoms: C_28  and  C_29 
REMARK    9  A    between atoms: C_29  and  C_30 
REMARK   10  A    between atoms: C_30  and  O_32 
REMARK   11  A    between atoms: C_33  and  C_34 
REMARK   12  A    between atoms: C_34  and  C_35 
REMARK   13  A    between atoms: C_35  and  C_36 
REMARK   14  A    between atoms: C_36  and  O_38 
REMARK   15  A    between atoms: C_39  and  C_40 
REMARK   16  A    between atoms: C_40  and  C_41 
REMARK   17  A    between atoms: C_41  and  C_42 
REMARK   18  A    between atoms: C_42  and  O_44 
REMARK   19  A    between atoms: C_45  and  C_46 
REMARK   20  A    between atoms: C_46  and  C_47 
REMARK   21  A    between atoms: C_47  and  O_49 
REMARK   22  A    between atoms: C_50  and  C_51 
REMARK   23  A    between atoms: C_51  and  C_52 
REMARK   24  A    between atoms: C_52  and  O_54 
REMARK   25  A    between atoms: C_55  and  C_56 
REMARK   26  A    between atoms: C_56  and  C_57 
REMARK   27  A    between atoms: C_57  and  C_58 
REMARK   28  A    between atoms: C_58  and  O_60 
ROOT
ATOM      1  O   UNK d   0      -0.504  -9.121  27.472  0.00  0.00    -0.650 OA
ATOM      2  C   UNK d   0      -0.878  -9.679  28.528  0.00  0.00     0.139 C 
ENDROOT
BRANCH   2   3
ATOM      3  O   UNK d   0       0.034 -10.383  29.276  0.00  0.00    -0.776 OA
ATOM      4  H   UNK d   0      -0.190 -10.696  30.223  0.00  0.00     0.167 HD
ENDBRANCH   2   3
BRANCH   2   5
ATOM      5  C   UNK d   0      -2.299  -9.579  28.965  0.00  0.00     0.115 C 
BRANCH   5   6
ATOM      6  C   UNK d   0      -2.388  -8.834  30.269  0.00  0.00     0.052 C 
BRANCH   6   7
ATOM      7  C   UNK d   0      -2.100  -7.359  30.116  0.00  0.00    -0.020 A 
ATOM      8  C   UNK d   0      -1.184  -6.657  30.732  0.00  0.00    -0.011 A 
ATOM      9  C   UNK d   0      -1.291  -5.283  30.270  0.00  0.00     0.067 A 
ATOM     10  C   UNK d   0      -0.614  -4.078  30.513  0.00  0.00     0.062 C 
ATOM     11  N   UNK d   0      -2.304  -5.238  29.380  0.00  0.00    -0.248 NA
ATOM     12  C   UNK d   0      -0.683  -2.901  29.760  0.00  0.00     0.041 A 
ATOM     13  N   UNK d   0      -1.732  -2.264  29.204  0.00  0.00    -0.355 N 
ATOM     14  C   UNK d   0       0.510  -2.230  29.435  0.00  0.00    -0.022 A 
ATOM     15  C   UNK d   0      -1.234  -1.211  28.528  0.00  0.00     0.042 A 
ATOM     16  H   UNK d   0      -2.804  -2.542  29.304  0.00  0.00     0.166 HD
ATOM     17  C   UNK d   0      -1.889  -0.220  27.771  0.00  0.00     0.062 C 
ATOM     18  C   UNK d   0       0.168  -1.157  28.649  0.00  0.00    -0.013 A 
ATOM     19  C   UNK d   0      -2.892  -0.363  26.846  0.00  0.00     0.067 A 
ATOM     20  N   UNK d   0      -3.481  -1.559  26.773  0.00  0.00    -0.248 NA
ATOM     21  C   UNK d   0      -3.520   0.486  25.848  0.00  0.00    -0.011 A 
ATOM     22  C   UNK d   0      -4.448  -1.555  25.798  0.00  0.00     0.066 A 
ATOM     23  C   UNK d   0      -5.169  -2.729  25.640  0.00  0.00     0.062 C 
ATOM     24  C   UNK d   0      -4.427  -0.219  25.235  0.00  0.00    -0.020 A 
ATOM     25  C   UNK d   0      -5.093  -3.896  26.415  0.00  0.00     0.041 A 
ATOM     26  N   UNK d   0      -4.049  -4.537  26.955  0.00  0.00    -0.355 N 
ATOM     27  C   UNK d   0      -6.291  -4.567  26.745  0.00  0.00    -0.022 A 
ATOM     28  C   UNK d   0      -4.542  -5.593  27.622  0.00  0.00     0.042 A 
ATOM     29  H   UNK d   0      -2.971  -4.263  26.845  0.00  0.00     0.166 HD
ATOM     30  C   UNK d   0      -3.902  -6.592  28.372  0.00  0.00     0.062 C 
ATOM     31  C   UNK d   0      -5.952  -5.641  27.509  0.00  0.00    -0.013 A 
ATOM     32  C   UNK d   0      -2.832  -6.455  29.242  0.00  0.00     0.066 A 
BRANCH   8  33
ATOM     33  C   UNK d   0      -0.209  -7.150  31.723  0.00  0.00     0.151 C 
BRANCH  33  34
ATOM     34  C   UNK d   0       1.164  -7.215  31.190  0.00  0.00     0.143 C 
ATOM     35  O   UNK d   0       1.959  -6.280  31.363  0.00  0.00    -0.650 OA
BRANCH  34  36
ATOM     36  O   UNK d   0       1.564  -8.330  30.490  0.00  0.00    -0.776 OA
ATOM     37  H   UNK d   0       0.878  -8.971  30.069  0.00  0.00     0.167 HD
ENDBRANCH  34  36
ENDBRANCH  33  34
ENDBRANCH   8  33
BRANCH  31  38
ATOM     38  C   UNK d   0      -6.908  -6.646  28.108  0.00  0.00     0.151 C 
BRANCH  38  39
ATOM     39  C   UNK d   0      -7.076  -7.822  27.282  0.00  0.00     0.143 C 
ATOM     40  O   UNK d   0      -6.544  -8.912  27.558  0.00  0.00    -0.650 OA
BRANCH  39  41
ATOM     41  O   UNK d   0      -7.861  -7.746  26.132  0.00  0.00    -0.776 OA
ATOM     42  H   UNK d   0      -8.832  -7.443  26.255  0.00  0.00     0.167 HD
ENDBRANCH  39  41
ENDBRANCH  38  39
ENDBRANCH  31  38
BRANCH  27  43
ATOM     43  C   UNK d   0      -7.712  -4.231  26.367  0.00  0.00     0.052 C 
BRANCH  43  44
ATOM     44  C   UNK d   0      -8.230  -3.004  27.044  0.00  0.00     0.115 C 
BRANCH  44  45
ATOM     45  C   UNK d   0      -9.626  -2.815  26.571  0.00  0.00     0.139 C 
ATOM     46  O   UNK d   0      -9.927  -3.242  25.429  0.00  0.00    -0.650 OA
BRANCH  45  47
ATOM     47  O   UNK d   0     -10.596  -2.201  27.333  0.00  0.00    -0.776 OA
ATOM     48  H   UNK d   0     -10.555  -1.203  27.594  0.00  0.00     0.167 HD
ENDBRANCH  45  47
ENDBRANCH  44  45
ENDBRANCH  43  44
ENDBRANCH  27  43
BRANCH  24  49
ATOM     49  C   UNK d   0      -5.330   0.261  24.175  0.00  0.00     0.052 C 
BRANCH  49  50
ATOM     50  C   UNK d   0      -6.759   0.246  24.656  0.00  0.00     0.115 C 
BRANCH  50  51
ATOM     51  C   UNK d   0      -7.742  -0.405  23.800  0.00  0.00     0.139 C 
ATOM     52  O   UNK d   0      -8.973  -0.366  24.033  0.00  0.00    -0.650 OA
BRANCH  51  53
ATOM     53  O   UNK d   0      -7.320  -1.104  22.679  0.00  0.00    -0.776 OA
ATOM     54  H   UNK d   0      -7.921  -1.821  22.312  0.00  0.00     0.167 HD
ENDBRANCH  51  53
ENDBRANCH  50  51
ENDBRANCH  49  50
ENDBRANCH  24  49
BRANCH  21  55
ATOM     55  C   UNK d   0      -3.152   1.913  25.613  0.00  0.00     0.151 C 
BRANCH  55  56
ATOM     56  C   UNK d   0      -3.965   2.833  26.424  0.00  0.00     0.143 C 
ATOM     57  O   UNK d   0      -5.211   2.789  26.449  0.00  0.00    -0.650 OA
BRANCH  56  58
ATOM     58  O   UNK d   0      -3.297   3.787  27.190  0.00  0.00    -0.776 OA
ATOM     59  H   UNK d   0      -3.073   3.491  28.157  0.00  0.00     0.167 HD
ENDBRANCH  56  58
ENDBRANCH  55  56
ENDBRANCH  21  55
BRANCH  18  60
ATOM     60  C   UNK d   0       1.145  -0.167  28.066  0.00  0.00     0.151 C 
BRANCH  60  61
ATOM     61  C   UNK d   0       1.960  -0.922  27.102  0.00  0.00     0.143 C 
ATOM     62  O   UNK d   0       3.153  -0.756  26.848  0.00  0.00    -0.650 OA
BRANCH  61  63
ATOM     63  O   UNK d   0       1.273  -1.945  26.405  0.00  0.00    -0.776 OA
ATOM     64  H   UNK d   0       1.016  -2.801  26.862  0.00  0.00     0.167 HD
ENDBRANCH  61  63
ENDBRANCH  60  61
ENDBRANCH  18  60
BRANCH  14  65
ATOM     65  C   UNK d   0       1.923  -2.467  29.886  0.00  0.00     0.052 C 
BRANCH  65  66
ATOM     66  C   UNK d   0       2.493  -3.741  29.370  0.00  0.00     0.115 C 
BRANCH  66  67
ATOM     67  C   UNK d   0       3.697  -3.717  28.590  0.00  0.00     0.139 C 
ATOM     68  O   UNK d   0       4.826  -3.783  29.201  0.00  0.00    -0.650 OA
BRANCH  67  69
ATOM     69  O   UNK d   0       3.814  -3.628  27.203  0.00  0.00    -0.776 OA
ATOM     70  H   UNK d   0       4.772  -3.684  26.829  0.00  0.00     0.167 HD
ENDBRANCH  67  69
ENDBRANCH  66  67
ENDBRANCH  65  66
ENDBRANCH  14  65
ENDBRANCH   6   7
ENDBRANCH   5   6
ENDBRANCH   2   5
TORSDOF 28
ENDMDL
