MODEL 1
REMARK VINA RESULT:     -10.4      0.000      0.000
REMARK  16 active torsions:
REMARK  status: ('A' for Active; 'I' for Inactive)
REMARK    1  A    between atoms: C_6  and  C_7 
REMARK    2  A    between atoms: C_7  and  C_8 
REMARK    3  A    between atoms: C_8  and  C_9 
REMARK    4  A    between atoms: C_9  and  O_11 
REMARK    5  A    between atoms: C_16  and  C_17 
REMARK    6  A    between atoms: C_17  and  C_18 
REMARK    7  A    between atoms: C_18  and  C_19 
REMARK    8  A    between atoms: C_19  and  O_21 
REMARK    9  A    between atoms: C_28  and  C_29 
REMARK   10  A    between atoms: C_29  and  C_30 
REMARK   11  A    between atoms: C_30  and  C_31 
REMARK   12  A    between atoms: C_31  and  O_33 
REMARK   13  A    between atoms: C_42  and  C_43 
REMARK   14  A    between atoms: C_43  and  C_44 
REMARK   15  A    between atoms: C_44  and  C_45 
REMARK   16  A    between atoms: C_45  and  O_47 
ROOT
HETATM    1  C   UNK     0      35.730  16.152  64.758  0.00  0.00     0.051 C 
HETATM    2  C   UNK     0      35.224  15.693  63.406  0.00  0.00    -0.031 A 
HETATM    3  C   UNK     0      35.877  14.968  62.421  0.00  0.00     0.021 A 
HETATM    4  N   UNK     0      35.047  14.813  61.363  0.00  0.00    -0.361 N 
HETATM    5  C   UNK     0      33.876  15.416  61.655  0.00  0.00     0.022 A 
HETATM    6  C   UNK     0      33.953  15.979  62.924  0.00  0.00    -0.027 A 
HETATM    7  C   UNK     0      32.603  15.455  60.868  0.00  0.00     0.115 C 
HETATM    8  C   UNK     0      32.168  14.156  60.211  0.00  0.00     0.021 A 
HETATM    9  N   UNK     0      32.304  12.902  60.668  0.00  0.00    -0.361 N 
HETATM   10  C   UNK     0      31.859  12.058  59.713  0.00  0.00     0.022 A 
HETATM   11  C   UNK     0      31.416  12.789  58.615  0.00  0.00    -0.027 A 
HETATM   12  C   UNK     0      31.608  14.112  58.922  0.00  0.00    -0.031 A 
HETATM   13  C   UNK     0      31.263  15.277  58.022  0.00  0.00     0.051 C 
HETATM   14  C   UNK     0      31.884  10.533  59.775  0.00  0.00     0.115 C 
HETATM   15  C   UNK     0      33.279   9.944  59.908  0.00  0.00     0.021 A 
HETATM   16  N   UNK     0      34.178  10.175  60.883  0.00  0.00    -0.361 N 
HETATM   17  C   UNK     0      35.309   9.524  60.600  0.00  0.00     0.022 A 
HETATM   18  C   UNK     0      35.134   8.828  59.387  0.00  0.00    -0.027 A 
HETATM   19  C   UNK     0      33.859   9.099  58.965  0.00  0.00    -0.031 A 
HETATM   20  C   UNK     0      33.245   8.514  57.706  0.00  0.00     0.051 C 
HETATM   21  C   UNK     0      36.632   9.512  61.330  0.00  0.00     0.115 C 
HETATM   22  C   UNK     0      37.057  10.784  62.026  0.00  0.00     0.022 A 
HETATM   23  N   UNK     0      36.930  12.047  61.597  0.00  0.00    -0.361 N 
HETATM   24  C   UNK     0      37.307  12.872  62.594  0.00  0.00     0.021 A 
HETATM   25  C   UNK     0      37.695  12.123  63.688  0.00  0.00    -0.031 A 
HETATM   26  C   UNK     0      38.232  12.594  65.024  0.00  0.00     0.051 C 
HETATM   27  C   UNK     0      37.544  10.784  63.349  0.00  0.00    -0.027 A 
HETATM   28  C   UNK     0      37.251  14.390  62.615  0.00  0.00     0.115 C 
HETATM   29  H   UNK     0      35.308  14.314  60.402  0.00  0.00     0.165 HD
HETATM   30  H   UNK     0      32.668  12.610  61.684  0.00  0.00     0.165 HD
HETATM   31  H   UNK     0      33.996  10.771  61.815  0.00  0.00     0.165 HD
HETATM   32  H   UNK     0      36.614  12.366  60.570  0.00  0.00     0.165 HD
ENDROOT
BRANCH   6  33
HETATM   33  C   UNK     0      32.925  16.761  63.703  0.00  0.00     0.051 C 
BRANCH  33  34
HETATM   34  C   UNK     0      32.133  15.848  64.609  0.00  0.00     0.114 C 
BRANCH  34  35
HETATM   35  C   UNK     0      30.688  16.104  64.348  0.00  0.00     0.139 C 
HETATM   36  O   UNK     0      29.827  15.871  65.246  0.00  0.00    -0.650 OA
BRANCH  35  37
HETATM   37  O   UNK     0      30.222  16.602  63.137  0.00  0.00    -0.776 OA
HETATM   38  H   UNK     0      29.407  17.191  63.079  0.00  0.00     0.167 HD
ENDBRANCH  35  37
ENDBRANCH  34  35
ENDBRANCH  33  34
ENDBRANCH   6  33
BRANCH  27  39
HETATM   39  C   UNK     0      37.932   9.669  64.255  0.00  0.00     0.051 C 
BRANCH  39  40
HETATM   40  C   UNK     0      39.249   9.058  64.079  0.00  0.00     0.114 C 
BRANCH  40  41
HETATM   41  C   UNK     0      40.366   9.371  64.941  0.00  0.00     0.139 C 
HETATM   42  O   UNK     0      40.574   8.805  66.023  0.00  0.00    -0.650 OA
BRANCH  41  43
HETATM   43  O   UNK     0      41.286  10.382  64.542  0.00  0.00    -0.776 OA
HETATM   44  H   UNK     0      40.852  11.225  64.185  0.00  0.00     0.167 HD
ENDBRANCH  41  43
ENDBRANCH  40  41
ENDBRANCH  39  40
ENDBRANCH  27  39
BRANCH  11  45
HETATM   45  C   UNK     0      30.831  12.286  57.323  0.00  0.00     0.051 C 
BRANCH  45  46
HETATM   46  C   UNK     0      29.407  11.874  57.422  0.00  0.00     0.114 C 
BRANCH  46  47
HETATM   47  C   UNK     0      29.377  10.383  57.402  0.00  0.00     0.139 C 
HETATM   48  O   UNK     0      29.970   9.791  56.490  0.00  0.00    -0.650 OA
BRANCH  47  49
HETATM   49  O   UNK     0      28.707   9.681  58.372  0.00  0.00    -0.776 OA
HETATM   50  H   UNK     0      27.681   9.632  58.398  0.00  0.00     0.167 HD
ENDBRANCH  47  49
ENDBRANCH  46  47
ENDBRANCH  45  46
ENDBRANCH  11  45
BRANCH  18  51
HETATM   51  C   UNK     0      36.123   7.937  58.680  0.00  0.00     0.051 C 
BRANCH  51  52
HETATM   52  C   UNK     0      35.622   6.513  58.868  0.00  0.00     0.114 C 
BRANCH  52  53
HETATM   53  C   UNK     0      36.454   5.760  59.827  0.00  0.00     0.139 C 
HETATM   54  O   UNK     0      36.467   6.082  61.026  0.00  0.00    -0.650 OA
BRANCH  53  55
HETATM   55  O   UNK     0      37.215   4.705  59.384  0.00  0.00    -0.776 OA
HETATM   56  H   UNK     0      37.828   4.155  59.938  0.00  0.00     0.167 HD
ENDBRANCH  53  55
ENDBRANCH  52  53
ENDBRANCH  51  52
ENDBRANCH  18  51
TORSDOF 16
ENDMDL
MODEL 2
REMARK VINA RESULT:     -10.4      1.206      1.390
REMARK  16 active torsions:
REMARK  status: ('A' for Active; 'I' for Inactive)
REMARK    1  A    between atoms: C_6  and  C_7 
REMARK    2  A    between atoms: C_7  and  C_8 
REMARK    3  A    between atoms: C_8  and  C_9 
REMARK    4  A    between atoms: C_9  and  O_11 
REMARK    5  A    between atoms: C_16  and  C_17 
REMARK    6  A    between atoms: C_17  and  C_18 
REMARK    7  A    between atoms: C_18  and  C_19 
REMARK    8  A    between atoms: C_19  and  O_21 
REMARK    9  A    between atoms: C_28  and  C_29 
REMARK   10  A    between atoms: C_29  and  C_30 
REMARK   11  A    between atoms: C_30  and  C_31 
REMARK   12  A    between atoms: C_31  and  O_33 
REMARK   13  A    between atoms: C_42  and  C_43 
REMARK   14  A    between atoms: C_43  and  C_44 
REMARK   15  A    between atoms: C_44  and  C_45 
REMARK   16  A    between atoms: C_45  and  O_47 
ROOT
HETATM    1  C   UNK     0      36.490  15.677  64.636  0.00  0.00     0.051 C 
HETATM    2  C   UNK     0      35.843  15.261  63.330  0.00  0.00    -0.031 A 
HETATM    3  C   UNK     0      36.383  14.555  62.266  0.00  0.00     0.021 A 
HETATM    4  N   UNK     0      35.449  14.440  61.293  0.00  0.00    -0.361 N 
HETATM    5  C   UNK     0      34.322  15.049  61.717  0.00  0.00     0.022 A 
HETATM    6  C   UNK     0      34.535  15.577  62.986  0.00  0.00    -0.027 A 
HETATM    7  C   UNK     0      32.977  15.125  61.064  0.00  0.00     0.115 C 
HETATM    8  C   UNK     0      32.459  13.851  60.421  0.00  0.00     0.021 A 
HETATM    9  N   UNK     0      32.621  12.583  60.829  0.00  0.00    -0.361 N 
HETATM   10  C   UNK     0      32.069  11.770  59.903  0.00  0.00     0.022 A 
HETATM   11  C   UNK     0      31.529  12.537  58.874  0.00  0.00    -0.027 A 
HETATM   12  C   UNK     0      31.771  13.848  59.194  0.00  0.00    -0.031 A 
HETATM   13  C   UNK     0      31.356  15.042  58.363  0.00  0.00     0.051 C 
HETATM   14  C   UNK     0      32.076  10.244  59.923  0.00  0.00     0.115 C 
HETATM   15  C   UNK     0      33.468   9.635  59.900  0.00  0.00     0.021 A 
HETATM   16  N   UNK     0      34.464   9.827  60.785  0.00  0.00    -0.361 N 
HETATM   17  C   UNK     0      35.550   9.170  60.372  0.00  0.00     0.022 A 
HETATM   18  C   UNK     0      35.245   8.509  59.166  0.00  0.00    -0.027 A 
HETATM   19  C   UNK     0      33.937   8.807  58.881  0.00  0.00    -0.031 A 
HETATM   20  C   UNK     0      33.191   8.265  57.676  0.00  0.00     0.051 C 
HETATM   21  C   UNK     0      36.940   9.121  60.965  0.00  0.00     0.115 C 
HETATM   22  C   UNK     0      37.452  10.368  61.647  0.00  0.00     0.022 A 
HETATM   23  N   UNK     0      37.303  11.643  61.265  0.00  0.00    -0.361 N 
HETATM   24  C   UNK     0      37.790  12.437  62.240  0.00  0.00     0.021 A 
HETATM   25  C   UNK     0      38.275  11.654  63.270  0.00  0.00    -0.031 A 
HETATM   26  C   UNK     0      38.950  12.081  64.556  0.00  0.00     0.051 C 
HETATM   27  C   UNK     0      38.070  10.326  62.913  0.00  0.00    -0.027 A 
HETATM   28  C   UNK     0      37.760  13.954  62.305  0.00  0.00     0.115 C 
HETATM   29  H   UNK     0      35.604  13.963  60.298  0.00  0.00     0.165 HD
HETATM   30  H   UNK     0      33.080  12.259  61.795  0.00  0.00     0.165 HD
HETATM   31  H   UNK     0      34.386  10.400  61.745  0.00  0.00     0.165 HD
HETATM   32  H   UNK     0      36.890  11.995  60.284  0.00  0.00     0.165 HD
ENDROOT
BRANCH   6  33
HETATM   33  C   UNK     0      33.603  16.349  63.884  0.00  0.00     0.051 C 
BRANCH  33  34
HETATM   34  C   UNK     0      32.890  15.423  64.841  0.00  0.00     0.114 C 
BRANCH  34  35
HETATM   35  C   UNK     0      31.450  15.807  64.845  0.00  0.00     0.139 C 
HETATM   36  O   UNK     0      30.981  16.532  63.919  0.00  0.00    -0.650 OA
BRANCH  35  37
HETATM   37  O   UNK     0      30.568  15.399  65.839  0.00  0.00    -0.776 OA
HETATM   38  H   UNK     0      29.865  16.014  66.215  0.00  0.00     0.167 HD
ENDBRANCH  35  37
ENDBRANCH  34  35
ENDBRANCH  33  34
ENDBRANCH   6  33
BRANCH  27  39
HETATM   39  C   UNK     0      38.530   9.182  63.747  0.00  0.00     0.051 C 
BRANCH  39  40
HETATM   40  C   UNK     0      37.535   8.449  64.529  0.00  0.00     0.114 C 
BRANCH  40  41
HETATM   41  C   UNK     0      37.522   7.005  64.599  0.00  0.00     0.139 C 
HETATM   42  O   UNK     0      37.501   6.373  65.664  0.00  0.00    -0.650 OA
BRANCH  41  43
HETATM   43  O   UNK     0      37.534   6.254  63.390  0.00  0.00    -0.776 OA
HETATM   44  H   UNK     0      37.487   6.815  62.548  0.00  0.00     0.167 HD
ENDBRANCH  41  43
ENDBRANCH  40  41
ENDBRANCH  39  40
ENDBRANCH  27  39
BRANCH  11  45
HETATM   45  C   UNK     0      30.810  12.077  57.635  0.00  0.00     0.051 C 
BRANCH  45  46
HETATM   46  C   UNK     0      29.376  11.752  57.851  0.00  0.00     0.114 C 
BRANCH  46  47
HETATM   47  C   UNK     0      29.231  10.276  57.705  0.00  0.00     0.139 C 
HETATM   48  O   UNK     0      29.987   9.680  56.925  0.00  0.00    -0.650 OA
BRANCH  47  49
HETATM   49  O   UNK     0      28.280   9.590  58.417  0.00  0.00    -0.776 OA
HETATM   50  H   UNK     0      27.679   8.880  57.981  0.00  0.00     0.167 HD
ENDBRANCH  47  49
ENDBRANCH  46  47
ENDBRANCH  45  46
ENDBRANCH  11  45
BRANCH  18  51
HETATM   51  C   UNK     0      36.143   7.625  58.340  0.00  0.00     0.051 C 
BRANCH  51  52
HETATM   52  C   UNK     0      35.661   6.200  58.565  0.00  0.00     0.114 C 
BRANCH  52  53
HETATM   53  C   UNK     0      36.472   5.499  59.579  0.00  0.00     0.139 C 
HETATM   54  O   UNK     0      36.326   5.762  60.783  0.00  0.00    -0.650 OA
BRANCH  53  55
HETATM   55  O   UNK     0      37.391   4.557  59.182  0.00  0.00    -0.776 OA
HETATM   56  H   UNK     0      38.367   4.701  59.079  0.00  0.00     0.167 HD
ENDBRANCH  53  55
ENDBRANCH  52  53
ENDBRANCH  51  52
ENDBRANCH  18  51
TORSDOF 16
ENDMDL
MODEL 3
REMARK VINA RESULT:     -10.0      2.626      4.192
REMARK  16 active torsions:
REMARK  status: ('A' for Active; 'I' for Inactive)
REMARK    1  A    between atoms: C_6  and  C_7 
REMARK    2  A    between atoms: C_7  and  C_8 
REMARK    3  A    between atoms: C_8  and  C_9 
REMARK    4  A    between atoms: C_9  and  O_11 
REMARK    5  A    between atoms: C_16  and  C_17 
REMARK    6  A    between atoms: C_17  and  C_18 
REMARK    7  A    between atoms: C_18  and  C_19 
REMARK    8  A    between atoms: C_19  and  O_21 
REMARK    9  A    between atoms: C_28  and  C_29 
REMARK   10  A    between atoms: C_29  and  C_30 
REMARK   11  A    between atoms: C_30  and  C_31 
REMARK   12  A    between atoms: C_31  and  O_33 
REMARK   13  A    between atoms: C_42  and  C_43 
REMARK   14  A    between atoms: C_43  and  C_44 
REMARK   15  A    between atoms: C_44  and  C_45 
REMARK   16  A    between atoms: C_45  and  O_47 
ROOT
HETATM    1  C   UNK     0      38.748  13.181  66.184  0.00  0.00     0.051 C 
HETATM    2  C   UNK     0      38.003  13.538  64.914  0.00  0.00    -0.031 A 
HETATM    3  C   UNK     0      38.138  13.013  63.638  0.00  0.00     0.021 A 
HETATM    4  N   UNK     0      37.288  13.657  62.804  0.00  0.00    -0.361 N 
HETATM    5  C   UNK     0      36.608  14.576  63.522  0.00  0.00     0.022 A 
HETATM    6  C   UNK     0      37.034  14.530  64.845  0.00  0.00    -0.027 A 
HETATM    7  C   UNK     0      35.493  15.480  63.099  0.00  0.00     0.115 C 
HETATM    8  C   UNK     0      34.419  14.871  62.215  0.00  0.00     0.021 A 
HETATM    9  N   UNK     0      33.919  13.626  62.245  0.00  0.00    -0.361 N 
HETATM   10  C   UNK     0      33.052  13.497  61.218  0.00  0.00     0.022 A 
HETATM   11  C   UNK     0      32.986  14.696  60.513  0.00  0.00    -0.027 A 
HETATM   12  C   UNK     0      33.844  15.565  61.136  0.00  0.00    -0.031 A 
HETATM   13  C   UNK     0      34.095  16.996  60.717  0.00  0.00     0.051 C 
HETATM   14  C   UNK     0      32.296  12.230  60.829  0.00  0.00     0.115 C 
HETATM   15  C   UNK     0      33.198  11.064  60.458  0.00  0.00     0.021 A 
HETATM   16  N   UNK     0      34.141  10.480  61.220  0.00  0.00    -0.361 N 
HETATM   17  C   UNK     0      34.762   9.538  60.506  0.00  0.00     0.022 A 
HETATM   18  C   UNK     0      34.189   9.501  59.219  0.00  0.00    -0.027 A 
HETATM   19  C   UNK     0      33.210  10.460  59.202  0.00  0.00    -0.031 A 
HETATM   20  C   UNK     0      32.314  10.731  58.007  0.00  0.00     0.051 C 
HETATM   21  C   UNK     0      35.931   8.653  60.872  0.00  0.00     0.115 C 
HETATM   22  C   UNK     0      36.985   9.232  61.787  0.00  0.00     0.022 A 
HETATM   23  N   UNK     0      37.498  10.469  61.783  0.00  0.00    -0.361 N 
HETATM   24  C   UNK     0      38.299  10.598  62.860  0.00  0.00     0.021 A 
HETATM   25  C   UNK     0      38.310   9.412  63.569  0.00  0.00    -0.031 A 
HETATM   26  C   UNK     0      39.086   9.056  64.820  0.00  0.00     0.051 C 
HETATM   27  C   UNK     0      37.476   8.522  62.901  0.00  0.00    -0.027 A 
HETATM   28  C   UNK     0      39.030  11.844  63.331  0.00  0.00     0.115 C 
HETATM   29  H   UNK     0      37.202  13.486  61.706  0.00  0.00     0.165 HD
HETATM   30  H   UNK     0      34.138  12.850  63.019  0.00  0.00     0.165 HD
HETATM   31  H   UNK     0      34.342  10.703  62.300  0.00  0.00     0.165 HD
HETATM   32  H   UNK     0      37.334  11.249  60.995  0.00  0.00     0.165 HD
ENDROOT
BRANCH   6  33
HETATM   33  C   UNK     0      36.596  15.348  66.034  0.00  0.00     0.051 C 
BRANCH  33  34
HETATM   34  C   UNK     0      37.381  16.635  66.116  0.00  0.00     0.114 C 
BRANCH  34  35
HETATM   35  C   UNK     0      36.423  17.758  65.900  0.00  0.00     0.139 C 
HETATM   36  O   UNK     0      35.182  17.578  66.073  0.00  0.00    -0.650 OA
BRANCH  35  37
HETATM   37  O   UNK     0      36.832  19.027  65.511  0.00  0.00    -0.776 OA
HETATM   38  H   UNK     0      36.266  19.845  65.675  0.00  0.00     0.167 HD
ENDBRANCH  35  37
ENDBRANCH  34  35
ENDBRANCH  33  34
ENDBRANCH   6  33
BRANCH  27  39
HETATM   39  C   UNK     0      37.289   7.109  63.331  0.00  0.00     0.051 C 
BRANCH  39  40
HETATM   40  C   UNK     0      36.064   6.759  64.049  0.00  0.00     0.114 C 
BRANCH  40  41
HETATM   41  C   UNK     0      35.980   6.793  65.492  0.00  0.00     0.139 C 
HETATM   42  O   UNK     0      36.957   6.635  66.237  0.00  0.00    -0.650 OA
BRANCH  41  43
HETATM   43  O   UNK     0      34.715   7.019  66.105  0.00  0.00    -0.776 OA
HETATM   44  H   UNK     0      34.684   6.800  67.094  0.00  0.00     0.167 HD
ENDBRANCH  41  43
ENDBRANCH  40  41
ENDBRANCH  39  40
ENDBRANCH  27  39
BRANCH  11  45
HETATM   45  C   UNK     0      32.154  15.032  59.304  0.00  0.00     0.051 C 
BRANCH  45  46
HETATM   46  C   UNK     0      31.011  15.936  59.587  0.00  0.00     0.114 C 
BRANCH  46  47
HETATM   47  C   UNK     0      30.932  16.914  58.463  0.00  0.00     0.139 C 
HETATM   48  O   UNK     0      31.416  18.043  58.626  0.00  0.00    -0.650 OA
BRANCH  47  49
HETATM   49  O   UNK     0      30.337  16.572  57.276  0.00  0.00    -0.776 OA
HETATM   50  H   UNK     0      29.719  15.756  57.190  0.00  0.00     0.167 HD
ENDBRANCH  47  49
ENDBRANCH  46  47
ENDBRANCH  45  46
ENDBRANCH  11  45
BRANCH  18  51
HETATM   51  C   UNK     0      34.540   8.585  58.075  0.00  0.00     0.051 C 
BRANCH  51  52
HETATM   52  C   UNK     0      33.450   7.525  58.027  0.00  0.00     0.114 C 
BRANCH  52  53
HETATM   53  C   UNK     0      33.091   7.169  56.641  0.00  0.00     0.139 C 
HETATM   54  O   UNK     0      33.789   6.364  56.005  0.00  0.00    -0.650 OA
BRANCH  53  55
HETATM   55  O   UNK     0      31.983   7.736  56.059  0.00  0.00    -0.776 OA
HETATM   56  H   UNK     0      31.161   8.030  56.532  0.00  0.00     0.167 HD
ENDBRANCH  53  55
ENDBRANCH  52  53
ENDBRANCH  51  52
ENDBRANCH  18  51
TORSDOF 16
ENDMDL
MODEL 4
REMARK VINA RESULT:      -9.7     29.109     31.681
REMARK  16 active torsions:
REMARK  status: ('A' for Active; 'I' for Inactive)
REMARK    1  A    between atoms: C_6  and  C_7 
REMARK    2  A    between atoms: C_7  and  C_8 
REMARK    3  A    between atoms: C_8  and  C_9 
REMARK    4  A    between atoms: C_9  and  O_11 
REMARK    5  A    between atoms: C_16  and  C_17 
REMARK    6  A    between atoms: C_17  and  C_18 
REMARK    7  A    between atoms: C_18  and  C_19 
REMARK    8  A    between atoms: C_19  and  O_21 
REMARK    9  A    between atoms: C_28  and  C_29 
REMARK   10  A    between atoms: C_29  and  C_30 
REMARK   11  A    between atoms: C_30  and  C_31 
REMARK   12  A    between atoms: C_31  and  O_33 
REMARK   13  A    between atoms: C_42  and  C_43 
REMARK   14  A    between atoms: C_43  and  C_44 
REMARK   15  A    between atoms: C_44  and  C_45 
REMARK   16  A    between atoms: C_45  and  O_47 
ROOT
HETATM    1  C   UNK     0      45.875  19.598  31.340  0.00  0.00     0.051 C 
HETATM    2  C   UNK     0      46.491  19.108  32.635  0.00  0.00    -0.031 A 
HETATM    3  C   UNK     0      46.053  18.115  33.497  0.00  0.00     0.021 A 
HETATM    4  N   UNK     0      46.902  18.038  34.549  0.00  0.00    -0.361 N 
HETATM    5  C   UNK     0      47.877  18.953  34.371  0.00  0.00     0.022 A 
HETATM    6  C   UNK     0      47.649  19.642  33.185  0.00  0.00    -0.027 A 
HETATM    7  C   UNK     0      49.103  19.211  35.191  0.00  0.00     0.115 C 
HETATM    8  C   UNK     0      49.861  17.991  35.685  0.00  0.00     0.021 A 
HETATM    9  N   UNK     0      50.049  16.816  35.065  0.00  0.00    -0.361 N 
HETATM   10  C   UNK     0      50.702  15.994  35.913  0.00  0.00     0.022 A 
HETATM   11  C   UNK     0      50.950  16.661  37.109  0.00  0.00    -0.027 A 
HETATM   12  C   UNK     0      50.423  17.920  36.972  0.00  0.00    -0.031 A 
HETATM   13  C   UNK     0      50.462  19.003  38.026  0.00  0.00     0.051 C 
HETATM   14  C   UNK     0      51.070  14.536  35.651  0.00  0.00     0.115 C 
HETATM   15  C   UNK     0      49.872  13.633  35.404  0.00  0.00     0.021 A 
HETATM   16  N   UNK     0      48.937  13.754  34.443  0.00  0.00    -0.361 N 
HETATM   17  C   UNK     0      48.014  12.804  34.607  0.00  0.00     0.022 A 
HETATM   18  C   UNK     0      48.369  12.021  35.723  0.00  0.00    -0.027 A 
HETATM   19  C   UNK     0      49.536  12.550  36.212  0.00  0.00    -0.031 A 
HETATM   20  C   UNK     0      50.288  11.979  37.400  0.00  0.00     0.051 C 
HETATM   21  C   UNK     0      46.733  12.552  33.845  0.00  0.00     0.115 C 
HETATM   22  C   UNK     0      45.991  13.755  33.310  0.00  0.00     0.022 A 
HETATM   23  N   UNK     0      45.792  14.938  33.904  0.00  0.00    -0.361 N 
HETATM   24  C   UNK     0      45.209  15.766  33.013  0.00  0.00     0.021 A 
HETATM   25  C   UNK     0      45.019  15.096  31.820  0.00  0.00    -0.031 A 
HETATM   26  C   UNK     0      44.370  15.587  30.543  0.00  0.00     0.051 C 
HETATM   27  C   UNK     0      45.511  13.806  31.985  0.00  0.00    -0.027 A 
HETATM   28  C   UNK     0      44.873  17.236  33.192  0.00  0.00     0.115 C 
HETATM   29  H   UNK     0      46.785  17.364  35.429  0.00  0.00     0.165 HD
HETATM   30  H   UNK     0      49.766  16.579  34.010  0.00  0.00     0.165 HD
HETATM   31  H   UNK     0      48.954  14.496  33.602  0.00  0.00     0.165 HD
HETATM   32  H   UNK     0      46.022  15.188  34.972  0.00  0.00     0.165 HD
ENDROOT
BRANCH   6  33
HETATM   33  C   UNK     0      48.436  20.757  32.543  0.00  0.00     0.051 C 
BRANCH  33  34
HETATM   34  C   UNK     0      49.473  20.203  31.595  0.00  0.00     0.114 C 
BRANCH  34  35
HETATM   35  C   UNK     0      50.503  21.262  31.392  0.00  0.00     0.139 C 
HETATM   36  O   UNK     0      50.474  22.321  32.084  0.00  0.00    -0.650 OA
BRANCH  35  37
HETATM   37  O   UNK     0      51.525  21.143  30.458  0.00  0.00    -0.776 OA
HETATM   38  H   UNK     0      51.750  20.264  30.020  0.00  0.00     0.167 HD
ENDBRANCH  35  37
ENDBRANCH  34  35
ENDBRANCH  33  34
ENDBRANCH   6  33
BRANCH  27  39
HETATM   39  C   UNK     0      45.416  12.760  30.931  0.00  0.00     0.051 C 
BRANCH  39  40
HETATM   40  C   UNK     0      46.463  12.707  29.910  0.00  0.00     0.114 C 
BRANCH  40  41
HETATM   41  C   UNK     0      47.749  12.095  30.157  0.00  0.00     0.139 C 
HETATM   42  O   UNK     0      48.786  12.421  29.564  0.00  0.00    -0.650 OA
BRANCH  41  43
HETATM   43  O   UNK     0      47.846  11.059  31.129  0.00  0.00    -0.776 OA
HETATM   44  H   UNK     0      46.957  10.753  31.506  0.00  0.00     0.167 HD
ENDBRANCH  41  43
ENDBRANCH  40  41
ENDBRANCH  39  40
ENDBRANCH  27  39
BRANCH  11  45
HETATM   45  C   UNK     0      51.654  16.157  38.340  0.00  0.00     0.051 C 
BRANCH  45  46
HETATM   46  C   UNK     0      53.131  16.299  38.295  0.00  0.00     0.114 C 
BRANCH  46  47
HETATM   47  C   UNK     0      53.704  14.927  38.173  0.00  0.00     0.139 C 
HETATM   48  O   UNK     0      54.318  14.632  37.138  0.00  0.00    -0.650 OA
BRANCH  47  49
HETATM   49  O   UNK     0      53.553  14.010  39.182  0.00  0.00    -0.776 OA
HETATM   50  H   UNK     0      53.974  14.145  40.108  0.00  0.00     0.167 HD
ENDBRANCH  47  49
ENDBRANCH  46  47
ENDBRANCH  45  46
ENDBRANCH  11  45
BRANCH  18  51
HETATM   51  C   UNK     0      47.648  10.821  36.280  0.00  0.00     0.051 C 
BRANCH  51  52
HETATM   52  C   UNK     0      48.392   9.599  35.762  0.00  0.00     0.114 C 
BRANCH  52  53
HETATM   53  C   UNK     0      47.688   8.966  34.630  0.00  0.00     0.139 C 
HETATM   54  O   UNK     0      47.928   9.329  33.467  0.00  0.00    -0.650 OA
BRANCH  53  55
HETATM   55  O   UNK     0      46.765   7.977  34.870  0.00  0.00    -0.776 OA
HETATM   56  H   UNK     0      46.202   7.890  35.683  0.00  0.00     0.167 HD
ENDBRANCH  53  55
ENDBRANCH  52  53
ENDBRANCH  51  52
ENDBRANCH  18  51
TORSDOF 16
ENDMDL
MODEL 5
REMARK VINA RESULT:      -9.6      3.231      5.804
REMARK  16 active torsions:
REMARK  status: ('A' for Active; 'I' for Inactive)
REMARK    1  A    between atoms: C_6  and  C_7 
REMARK    2  A    between atoms: C_7  and  C_8 
REMARK    3  A    between atoms: C_8  and  C_9 
REMARK    4  A    between atoms: C_9  and  O_11 
REMARK    5  A    between atoms: C_16  and  C_17 
REMARK    6  A    between atoms: C_17  and  C_18 
REMARK    7  A    between atoms: C_18  and  C_19 
REMARK    8  A    between atoms: C_19  and  O_21 
REMARK    9  A    between atoms: C_28  and  C_29 
REMARK   10  A    between atoms: C_29  and  C_30 
REMARK   11  A    between atoms: C_30  and  C_31 
REMARK   12  A    between atoms: C_31  and  O_33 
REMARK   13  A    between atoms: C_42  and  C_43 
REMARK   14  A    between atoms: C_43  and  C_44 
REMARK   15  A    between atoms: C_44  and  C_45 
REMARK   16  A    between atoms: C_45  and  O_47 
ROOT
HETATM    1  C   UNK     0      41.173  14.799  66.541  0.00  0.00     0.051 C 
HETATM    2  C   UNK     0      39.968  14.981  65.641  0.00  0.00    -0.031 A 
HETATM    3  C   UNK     0      39.646  14.331  64.460  0.00  0.00     0.021 A 
HETATM    4  N   UNK     0      38.486  14.838  63.979  0.00  0.00    -0.361 N 
HETATM    5  C   UNK     0      38.058  15.792  64.832  0.00  0.00     0.022 A 
HETATM    6  C   UNK     0      38.963  15.909  65.881  0.00  0.00    -0.027 A 
HETATM    7  C   UNK     0      36.790  16.588  64.811  0.00  0.00     0.115 C 
HETATM    8  C   UNK     0      35.517  15.834  64.470  0.00  0.00     0.021 A 
HETATM    9  N   UNK     0      35.180  14.575  64.791  0.00  0.00    -0.361 N 
HETATM   10  C   UNK     0      33.999  14.294  64.200  0.00  0.00     0.022 A 
HETATM   11  C   UNK     0      33.559  15.406  63.487  0.00  0.00    -0.027 A 
HETATM   12  C   UNK     0      34.511  16.379  63.653  0.00  0.00    -0.031 A 
HETATM   13  C   UNK     0      34.453  17.769  63.059  0.00  0.00     0.051 C 
HETATM   14  C   UNK     0      33.267  12.956  64.240  0.00  0.00     0.115 C 
HETATM   15  C   UNK     0      34.055  11.805  63.636  0.00  0.00     0.021 A 
HETATM   16  N   UNK     0      35.267  11.354  64.010  0.00  0.00    -0.361 N 
HETATM   17  C   UNK     0      35.645  10.374  63.186  0.00  0.00     0.022 A 
HETATM   18  C   UNK     0      34.625  10.171  62.234  0.00  0.00    -0.027 A 
HETATM   19  C   UNK     0      33.635  11.072  62.528  0.00  0.00    -0.031 A 
HETATM   20  C   UNK     0      32.328  11.168  61.764  0.00  0.00     0.051 C 
HETATM   21  C   UNK     0      36.938   9.594  63.132  0.00  0.00     0.115 C 
HETATM   22  C   UNK     0      38.207  10.320  63.511  0.00  0.00     0.022 A 
HETATM   23  N   UNK     0      38.568  11.574  63.209  0.00  0.00    -0.361 N 
HETATM   24  C   UNK     0      39.708  11.858  63.871  0.00  0.00     0.021 A 
HETATM   25  C   UNK     0      40.096  10.756  64.610  0.00  0.00    -0.031 A 
HETATM   26  C   UNK     0      41.323  10.576  65.479  0.00  0.00     0.051 C 
HETATM   27  C   UNK     0      39.151   9.759  64.395  0.00  0.00    -0.027 A 
HETATM   28  C   UNK     0      40.450  13.182  63.919  0.00  0.00     0.115 C 
HETATM   29  H   UNK     0      37.999  14.547  63.020  0.00  0.00     0.165 HD
HETATM   30  H   UNK     0      35.748  13.899  65.475  0.00  0.00     0.165 HD
HETATM   31  H   UNK     0      35.849  11.701  64.904  0.00  0.00     0.165 HD
HETATM   32  H   UNK     0      38.044  12.257  62.491  0.00  0.00     0.165 HD
ENDROOT
BRANCH   6  33
HETATM   33  C   UNK     0      38.947  16.825  67.079  0.00  0.00     0.051 C 
BRANCH  33  34
HETATM   34  C   UNK     0      39.534  18.172  66.729  0.00  0.00     0.114 C 
BRANCH  34  35
HETATM   35  C   UNK     0      40.751  18.361  67.571  0.00  0.00     0.139 C 
HETATM   36  O   UNK     0      41.902  18.194  67.073  0.00  0.00    -0.650 OA
BRANCH  35  37
HETATM   37  O   UNK     0      40.686  18.723  68.911  0.00  0.00    -0.776 OA
HETATM   38  H   UNK     0      39.835  19.056  69.334  0.00  0.00     0.167 HD
ENDBRANCH  35  37
ENDBRANCH  34  35
ENDBRANCH  33  34
ENDBRANCH   6  33
BRANCH  27  39
HETATM   39  C   UNK     0      39.270   8.392  64.972  0.00  0.00     0.051 C 
BRANCH  39  40
HETATM   40  C   UNK     0      38.168   7.886  65.789  0.00  0.00     0.114 C 
BRANCH  40  41
HETATM   41  C   UNK     0      37.191   6.954  65.273  0.00  0.00     0.139 C 
HETATM   42  O   UNK     0      36.113   6.713  65.835  0.00  0.00    -0.650 OA
BRANCH  41  43
HETATM   43  O   UNK     0      37.465   6.268  64.057  0.00  0.00    -0.776 OA
HETATM   44  H   UNK     0      36.768   6.401  63.334  0.00  0.00     0.167 HD
ENDBRANCH  41  43
ENDBRANCH  40  41
ENDBRANCH  39  40
ENDBRANCH  27  39
BRANCH  11  45
HETATM   45  C   UNK     0      32.300  15.568  62.679  0.00  0.00     0.051 C 
BRANCH  45  46
HETATM   46  C   UNK     0      31.211  16.285  63.391  0.00  0.00     0.114 C 
BRANCH  46  47
HETATM   47  C   UNK     0      30.518  17.144  62.388  0.00  0.00     0.139 C 
HETATM   48  O   UNK     0      31.087  18.172  61.994  0.00  0.00    -0.650 OA
BRANCH  47  49
HETATM   49  O   UNK     0      29.277  16.805  61.912  0.00  0.00    -0.776 OA
HETATM   50  H   UNK     0      28.679  17.480  61.419  0.00  0.00     0.167 HD
ENDBRANCH  47  49
ENDBRANCH  46  47
ENDBRANCH  45  46
ENDBRANCH  11  45
BRANCH  18  51
HETATM   51  C   UNK     0      34.588   9.158  61.119  0.00  0.00     0.051 C 
BRANCH  51  52
HETATM   52  C   UNK     0      35.193   9.842  59.902  0.00  0.00     0.114 C 
BRANCH  52  53
HETATM   53  C   UNK     0      34.608   9.341  58.643  0.00  0.00     0.139 C 
HETATM   54  O   UNK     0      33.384   9.159  58.556  0.00  0.00    -0.650 OA
BRANCH  53  55
HETATM   55  O   UNK     0      35.427   9.076  57.572  0.00  0.00    -0.776 OA
HETATM   56  H   UNK     0      35.585   9.674  56.796  0.00  0.00     0.167 HD
ENDBRANCH  53  55
ENDBRANCH  52  53
ENDBRANCH  51  52
ENDBRANCH  18  51
TORSDOF 16
ENDMDL
MODEL 6
REMARK VINA RESULT:      -9.5     29.584     32.206
REMARK  16 active torsions:
REMARK  status: ('A' for Active; 'I' for Inactive)
REMARK    1  A    between atoms: C_6  and  C_7 
REMARK    2  A    between atoms: C_7  and  C_8 
REMARK    3  A    between atoms: C_8  and  C_9 
REMARK    4  A    between atoms: C_9  and  O_11 
REMARK    5  A    between atoms: C_16  and  C_17 
REMARK    6  A    between atoms: C_17  and  C_18 
REMARK    7  A    between atoms: C_18  and  C_19 
REMARK    8  A    between atoms: C_19  and  O_21 
REMARK    9  A    between atoms: C_28  and  C_29 
REMARK   10  A    between atoms: C_29  and  C_30 
REMARK   11  A    between atoms: C_30  and  C_31 
REMARK   12  A    between atoms: C_31  and  O_33 
REMARK   13  A    between atoms: C_42  and  C_43 
REMARK   14  A    between atoms: C_43  and  C_44 
REMARK   15  A    between atoms: C_44  and  C_45 
REMARK   16  A    between atoms: C_45  and  O_47 
ROOT
HETATM    1  C   UNK     0      43.243  18.611  29.365  0.00  0.00     0.051 C 
HETATM    2  C   UNK     0      44.128  17.429  29.705  0.00  0.00    -0.031 A 
HETATM    3  C   UNK     0      45.489  17.395  29.963  0.00  0.00     0.021 A 
HETATM    4  N   UNK     0      45.863  16.113  30.190  0.00  0.00    -0.361 N 
HETATM    5  C   UNK     0      44.768  15.331  30.090  0.00  0.00     0.022 A 
HETATM    6  C   UNK     0      43.665  16.122  29.785  0.00  0.00    -0.027 A 
HETATM    7  C   UNK     0      44.621  13.863  30.341  0.00  0.00     0.115 C 
HETATM    8  C   UNK     0      45.333  13.306  31.561  0.00  0.00     0.021 A 
HETATM    9  N   UNK     0      45.524  13.886  32.756  0.00  0.00    -0.361 N 
HETATM   10  C   UNK     0      46.288  13.063  33.505  0.00  0.00     0.022 A 
HETATM   11  C   UNK     0      46.589  11.916  32.776  0.00  0.00    -0.027 A 
HETATM   12  C   UNK     0      45.990  12.062  31.551  0.00  0.00    -0.031 A 
HETATM   13  C   UNK     0      46.044  11.053  30.426  0.00  0.00     0.051 C 
HETATM   14  C   UNK     0      46.806  13.346  34.912  0.00  0.00     0.115 C 
HETATM   15  C   UNK     0      47.707  14.567  35.002  0.00  0.00     0.021 A 
HETATM   16  N   UNK     0      47.406  15.836  34.667  0.00  0.00    -0.361 N 
HETATM   17  C   UNK     0      48.489  16.600  34.826  0.00  0.00     0.022 A 
HETATM   18  C   UNK     0      49.543  15.792  35.297  0.00  0.00    -0.027 A 
HETATM   19  C   UNK     0      49.040  14.522  35.405  0.00  0.00    -0.031 A 
HETATM   20  C   UNK     0      49.840  13.337  35.915  0.00  0.00     0.051 C 
HETATM   21  C   UNK     0      48.697  18.066  34.522  0.00  0.00     0.115 C 
HETATM   22  C   UNK     0      47.960  18.645  33.338  0.00  0.00     0.022 A 
HETATM   23  N   UNK     0      47.751  18.088  32.138  0.00  0.00    -0.361 N 
HETATM   24  C   UNK     0      46.924  18.890  31.437  0.00  0.00     0.021 A 
HETATM   25  C   UNK     0      46.601  19.995  32.200  0.00  0.00    -0.031 A 
HETATM   26  C   UNK     0      45.742  21.188  31.835  0.00  0.00     0.051 C 
HETATM   27  C   UNK     0      47.253  19.861  33.421  0.00  0.00    -0.027 A 
HETATM   28  C   UNK     0      46.329  18.637  30.062  0.00  0.00     0.115 C 
HETATM   29  H   UNK     0      46.905  15.765  30.379  0.00  0.00     0.165 HD
HETATM   30  H   UNK     0      45.080  14.855  33.092  0.00  0.00     0.165 HD
HETATM   31  H   UNK     0      46.396  16.210  34.356  0.00  0.00     0.165 HD
HETATM   32  H   UNK     0      48.220  17.143  31.758  0.00  0.00     0.165 HD
ENDROOT
BRANCH   6  33
HETATM   33  C   UNK     0      42.225  15.734  29.564  0.00  0.00     0.051 C 
BRANCH  33  34
HETATM   34  C   UNK     0      42.062  15.009  28.250  0.00  0.00     0.114 C 
BRANCH  34  35
HETATM   35  C   UNK     0      41.097  15.791  27.424  0.00  0.00     0.139 C 
HETATM   36  O   UNK     0      40.704  16.930  27.812  0.00  0.00    -0.650 OA
BRANCH  35  37
HETATM   37  O   UNK     0      40.593  15.325  26.216  0.00  0.00    -0.776 OA
HETATM   38  H   UNK     0      39.789  15.741  25.776  0.00  0.00     0.167 HD
ENDBRANCH  35  37
ENDBRANCH  34  35
ENDBRANCH  33  34
ENDBRANCH   6  33
BRANCH  27  39
HETATM   39  C   UNK     0      47.201  20.900  34.485  0.00  0.00     0.051 C 
BRANCH  39  40
HETATM   40  C   UNK     0      48.268  21.899  34.532  0.00  0.00     0.114 C 
BRANCH  40  41
HETATM   41  C   UNK     0      49.424  21.834  33.666  0.00  0.00     0.139 C 
HETATM   42  O   UNK     0      49.482  22.388  32.560  0.00  0.00    -0.650 OA
BRANCH  41  43
HETATM   43  O   UNK     0      50.565  21.096  34.091  0.00  0.00    -0.776 OA
HETATM   44  H   UNK     0      51.417  21.641  34.154  0.00  0.00     0.167 HD
ENDBRANCH  41  43
ENDBRANCH  40  41
ENDBRANCH  39  40
ENDBRANCH  27  39
BRANCH  11  45
HETATM   45  C   UNK     0      47.400  10.720  33.195  0.00  0.00     0.051 C 
BRANCH  45  46
HETATM   46  C   UNK     0      47.209  10.325  34.614  0.00  0.00     0.114 C 
BRANCH  46  47
HETATM   47  C   UNK     0      47.684   8.917  34.748  0.00  0.00     0.139 C 
HETATM   48  O   UNK     0      48.894   8.715  34.924  0.00  0.00    -0.650 OA
BRANCH  47  49
HETATM   49  O   UNK     0      46.802   7.869  34.678  0.00  0.00    -0.776 OA
HETATM   50  H   UNK     0      46.034   7.848  33.997  0.00  0.00     0.167 HD
ENDBRANCH  47  49
ENDBRANCH  46  47
ENDBRANCH  45  46
ENDBRANCH  11  45
BRANCH  18  51
HETATM   51  C   UNK     0      50.948  16.212  35.646  0.00  0.00     0.051 C 
BRANCH  51  52
HETATM   52  C   UNK     0      50.875  16.826  37.037  0.00  0.00     0.114 C 
BRANCH  52  53
HETATM   53  C   UNK     0      51.329  15.884  38.078  0.00  0.00     0.139 C 
HETATM   54  O   UNK     0      52.391  15.259  37.930  0.00  0.00    -0.650 OA
BRANCH  53  55
HETATM   55  O   UNK     0      50.569  15.701  39.207  0.00  0.00    -0.776 OA
HETATM   56  H   UNK     0      50.648  16.214  40.054  0.00  0.00     0.167 HD
ENDBRANCH  53  55
ENDBRANCH  52  53
ENDBRANCH  51  52
ENDBRANCH  18  51
TORSDOF 16
ENDMDL
MODEL 7
REMARK VINA RESULT:      -9.5     31.254     33.677
REMARK  16 active torsions:
REMARK  status: ('A' for Active; 'I' for Inactive)
REMARK    1  A    between atoms: C_6  and  C_7 
REMARK    2  A    between atoms: C_7  and  C_8 
REMARK    3  A    between atoms: C_8  and  C_9 
REMARK    4  A    between atoms: C_9  and  O_11 
REMARK    5  A    between atoms: C_16  and  C_17 
REMARK    6  A    between atoms: C_17  and  C_18 
REMARK    7  A    between atoms: C_18  and  C_19 
REMARK    8  A    between atoms: C_19  and  O_21 
REMARK    9  A    between atoms: C_28  and  C_29 
REMARK   10  A    between atoms: C_29  and  C_30 
REMARK   11  A    between atoms: C_30  and  C_31 
REMARK   12  A    between atoms: C_31  and  O_33 
REMARK   13  A    between atoms: C_42  and  C_43 
REMARK   14  A    between atoms: C_43  and  C_44 
REMARK   15  A    between atoms: C_44  and  C_45 
REMARK   16  A    between atoms: C_45  and  O_47 
ROOT
HETATM    1  C   UNK     0      42.237  13.701  30.709  0.00  0.00     0.051 C 
HETATM    2  C   UNK     0      42.288  15.164  31.099  0.00  0.00    -0.031 A 
HETATM    3  C   UNK     0      43.055  15.790  32.069  0.00  0.00     0.021 A 
HETATM    4  N   UNK     0      42.750  17.109  32.090  0.00  0.00    -0.361 N 
HETATM    5  C   UNK     0      41.811  17.339  31.149  0.00  0.00     0.022 A 
HETATM    6  C   UNK     0      41.496  16.143  30.512  0.00  0.00    -0.027 A 
HETATM    7  C   UNK     0      41.204  18.634  30.706  0.00  0.00     0.115 C 
HETATM    8  C   UNK     0      42.152  19.809  30.542  0.00  0.00     0.021 A 
HETATM    9  N   UNK     0      43.421  19.806  30.106  0.00  0.00    -0.361 N 
HETATM   10  C   UNK     0      43.904  21.062  30.213  0.00  0.00     0.022 A 
HETATM   11  C   UNK     0      42.917  21.899  30.724  0.00  0.00    -0.027 A 
HETATM   12  C   UNK     0      41.810  21.116  30.933  0.00  0.00    -0.031 A 
HETATM   13  C   UNK     0      40.486  21.603  31.478  0.00  0.00     0.051 C 
HETATM   14  C   UNK     0      45.327  21.510  29.890  0.00  0.00     0.115 C 
HETATM   15  C   UNK     0      46.394  20.828  30.731  0.00  0.00     0.021 A 
HETATM   16  N   UNK     0      46.643  19.508  30.829  0.00  0.00    -0.361 N 
HETATM   17  C   UNK     0      47.613  19.311  31.724  0.00  0.00     0.022 A 
HETATM   18  C   UNK     0      48.022  20.562  32.227  0.00  0.00    -0.027 A 
HETATM   19  C   UNK     0      47.252  21.504  31.596  0.00  0.00    -0.031 A 
HETATM   20  C   UNK     0      47.393  22.998  31.821  0.00  0.00     0.051 C 
HETATM   21  C   UNK     0      48.205  18.021  32.247  0.00  0.00     0.115 C 
HETATM   22  C   UNK     0      47.284  16.831  32.373  0.00  0.00     0.022 A 
HETATM   23  N   UNK     0      46.015  16.806  32.801  0.00  0.00    -0.361 N 
HETATM   24  C   UNK     0      45.529  15.562  32.612  0.00  0.00     0.021 A 
HETATM   25  C   UNK     0      46.512  14.765  32.059  0.00  0.00    -0.031 A 
HETATM   26  C   UNK     0      46.459  13.293  31.705  0.00  0.00     0.051 C 
HETATM   27  C   UNK     0      47.645  15.554  31.897  0.00  0.00    -0.027 A 
HETATM   28  C   UNK     0      44.113  15.071  32.857  0.00  0.00     0.115 C 
HETATM   29  H   UNK     0      43.171  17.861  32.797  0.00  0.00     0.165 HD
HETATM   30  H   UNK     0      43.962  18.929  29.674  0.00  0.00     0.165 HD
HETATM   31  H   UNK     0      46.158  18.702  30.219  0.00  0.00     0.165 HD
HETATM   32  H   UNK     0      45.463  17.656  33.280  0.00  0.00     0.165 HD
ENDROOT
BRANCH   6  33
HETATM   33  C   UNK     0      40.512  15.864  29.404  0.00  0.00     0.051 C 
BRANCH  33  34
HETATM   34  C   UNK     0      40.960  16.511  28.115  0.00  0.00     0.114 C 
BRANCH  34  35
HETATM   35  C   UNK     0      41.289  15.417  27.157  0.00  0.00     0.139 C 
HETATM   36  O   UNK     0      42.324  14.710  27.328  0.00  0.00    -0.650 OA
BRANCH  35  37
HETATM   37  O   UNK     0      40.495  15.123  26.055  0.00  0.00    -0.776 OA
HETATM   38  H   UNK     0      40.030  15.841  25.524  0.00  0.00     0.167 HD
ENDBRANCH  35  37
ENDBRANCH  34  35
ENDBRANCH  33  34
ENDBRANCH   6  33
BRANCH  27  39
HETATM   39  C   UNK     0      48.939  15.022  31.391  0.00  0.00     0.051 C 
BRANCH  39  40
HETATM   40  C   UNK     0      49.282  15.250  29.988  0.00  0.00     0.114 C 
BRANCH  40  41
HETATM   41  C   UNK     0      49.782  16.521  29.514  0.00  0.00     0.139 C 
HETATM   42  O   UNK     0      50.668  17.165  30.091  0.00  0.00    -0.650 OA
BRANCH  41  43
HETATM   43  O   UNK     0      49.237  17.076  28.321  0.00  0.00    -0.776 OA
HETATM   44  H   UNK     0      48.659  17.895  28.467  0.00  0.00     0.167 HD
ENDBRANCH  41  43
ENDBRANCH  40  41
ENDBRANCH  39  40
ENDBRANCH  27  39
BRANCH  11  45
HETATM   45  C   UNK     0      42.988  23.375  31.008  0.00  0.00     0.051 C 
BRANCH  45  46
HETATM   46  C   UNK     0      43.720  23.718  32.254  0.00  0.00     0.114 C 
BRANCH  46  47
HETATM   47  C   UNK     0      44.151  25.140  32.136  0.00  0.00     0.139 C 
HETATM   48  O   UNK     0      43.670  25.972  32.918  0.00  0.00    -0.650 OA
BRANCH  47  49
HETATM   49  O   UNK     0      45.060  25.521  31.182  0.00  0.00    -0.776 OA
HETATM   50  H   UNK     0      45.894  24.961  30.968  0.00  0.00     0.167 HD
ENDBRANCH  47  49
ENDBRANCH  46  47
ENDBRANCH  45  46
ENDBRANCH  11  45
BRANCH  18  51
HETATM   51  C   UNK     0      49.103  20.845  33.238  0.00  0.00     0.051 C 
BRANCH  51  52
HETATM   52  C   UNK     0      50.371  21.116  32.441  0.00  0.00     0.114 C 
BRANCH  52  53
HETATM   53  C   UNK     0      51.133  22.253  32.992  0.00  0.00     0.139 C 
HETATM   54  O   UNK     0      50.578  23.351  33.158  0.00  0.00    -0.650 OA
BRANCH  53  55
HETATM   55  O   UNK     0      52.458  22.090  33.315  0.00  0.00    -0.776 OA
HETATM   56  H   UNK     0      53.206  22.675  33.025  0.00  0.00     0.167 HD
ENDBRANCH  53  55
ENDBRANCH  52  53
ENDBRANCH  51  52
ENDBRANCH  18  51
TORSDOF 16
ENDMDL
MODEL 8
REMARK VINA RESULT:      -9.5     29.070     31.580
REMARK  16 active torsions:
REMARK  status: ('A' for Active; 'I' for Inactive)
REMARK    1  A    between atoms: C_6  and  C_7 
REMARK    2  A    between atoms: C_7  and  C_8 
REMARK    3  A    between atoms: C_8  and  C_9 
REMARK    4  A    between atoms: C_9  and  O_11 
REMARK    5  A    between atoms: C_16  and  C_17 
REMARK    6  A    between atoms: C_17  and  C_18 
REMARK    7  A    between atoms: C_18  and  C_19 
REMARK    8  A    between atoms: C_19  and  O_21 
REMARK    9  A    between atoms: C_28  and  C_29 
REMARK   10  A    between atoms: C_29  and  C_30 
REMARK   11  A    between atoms: C_30  and  C_31 
REMARK   12  A    between atoms: C_31  and  O_33 
REMARK   13  A    between atoms: C_42  and  C_43 
REMARK   14  A    between atoms: C_43  and  C_44 
REMARK   15  A    between atoms: C_44  and  C_45 
REMARK   16  A    between atoms: C_45  and  O_47 
ROOT
HETATM    1  C   UNK     0      47.256  20.588  31.240  0.00  0.00     0.051 C 
HETATM    2  C   UNK     0      47.605  19.967  32.577  0.00  0.00    -0.031 A 
HETATM    3  C   UNK     0      46.940  18.981  33.289  0.00  0.00     0.021 A 
HETATM    4  N   UNK     0      47.596  18.758  34.452  0.00  0.00    -0.361 N 
HETATM    5  C   UNK     0      48.670  19.574  34.493  0.00  0.00     0.022 A 
HETATM    6  C   UNK     0      48.704  20.346  33.337  0.00  0.00    -0.027 A 
HETATM    7  C   UNK     0      49.765  19.656  35.510  0.00  0.00     0.115 C 
HETATM    8  C   UNK     0      50.313  18.339  36.029  0.00  0.00     0.021 A 
HETATM    9  N   UNK     0      50.487  17.186  35.365  0.00  0.00    -0.361 N 
HETATM   10  C   UNK     0      50.913  16.255  36.245  0.00  0.00     0.022 A 
HETATM   11  C   UNK     0      51.026  16.827  37.509  0.00  0.00    -0.027 A 
HETATM   12  C   UNK     0      50.650  18.140  37.380  0.00  0.00    -0.031 A 
HETATM   13  C   UNK     0      50.621  19.155  38.500  0.00  0.00     0.051 C 
HETATM   14  C   UNK     0      51.178  14.783  35.942  0.00  0.00     0.115 C 
HETATM   15  C   UNK     0      49.956  14.026  35.448  0.00  0.00     0.021 A 
HETATM   16  N   UNK     0      49.206  14.296  34.364  0.00  0.00    -0.361 N 
HETATM   17  C   UNK     0      48.182  13.441  34.315  0.00  0.00     0.022 A 
HETATM   18  C   UNK     0      48.275  12.565  35.415  0.00  0.00    -0.027 A 
HETATM   19  C   UNK     0      49.392  12.941  36.116  0.00  0.00    -0.031 A 
HETATM   20  C   UNK     0      49.883  12.231  37.364  0.00  0.00     0.051 C 
HETATM   21  C   UNK     0      47.023  13.366  33.347  0.00  0.00     0.115 C 
HETATM   22  C   UNK     0      46.496  14.667  32.788  0.00  0.00     0.022 A 
HETATM   23  N   UNK     0      46.316  15.831  33.425  0.00  0.00    -0.361 N 
HETATM   24  C   UNK     0      45.967  16.763  32.515  0.00  0.00     0.021 A 
HETATM   25  C   UNK     0      45.910  16.181  31.263  0.00  0.00    -0.031 A 
HETATM   26  C   UNK     0      45.526  16.807  29.938  0.00  0.00     0.051 C 
HETATM   27  C   UNK     0      46.244  14.840  31.412  0.00  0.00    -0.027 A 
HETATM   28  C   UNK     0      45.747  18.248  32.742  0.00  0.00     0.115 C 
HETATM   29  H   UNK     0      47.275  18.054  35.254  0.00  0.00     0.165 HD
HETATM   30  H   UNK     0      50.358  17.038  34.265  0.00  0.00     0.165 HD
HETATM   31  H   UNK     0      49.428  15.076  33.590  0.00  0.00     0.165 HD
HETATM   32  H   UNK     0      46.392  15.997  34.531  0.00  0.00     0.165 HD
ENDROOT
BRANCH   6  33
HETATM   33  C   UNK     0      49.687  21.405  32.906  0.00  0.00     0.051 C 
BRANCH  33  34
HETATM   34  C   UNK     0      49.226  22.774  33.348  0.00  0.00     0.114 C 
BRANCH  34  35
HETATM   35  C   UNK     0      50.042  23.157  34.536  0.00  0.00     0.139 C 
HETATM   36  O   UNK     0      49.479  23.409  35.641  0.00  0.00    -0.650 OA
BRANCH  35  37
HETATM   37  O   UNK     0      51.427  23.253  34.495  0.00  0.00    -0.776 OA
HETATM   38  H   UNK     0      52.012  22.858  35.213  0.00  0.00     0.167 HD
ENDBRANCH  35  37
ENDBRANCH  34  35
ENDBRANCH  33  34
ENDBRANCH   6  33
BRANCH  27  39
HETATM   39  C   UNK     0      46.222  13.869  30.285  0.00  0.00     0.051 C 
BRANCH  39  40
HETATM   40  C   UNK     0      45.154  12.870  30.249  0.00  0.00     0.114 C 
BRANCH  40  41
HETATM   41  C   UNK     0      45.427  11.452  30.199  0.00  0.00     0.139 C 
HETATM   42  O   UNK     0      45.497  10.806  29.145  0.00  0.00    -0.650 OA
BRANCH  41  43
HETATM   43  O   UNK     0      45.628  10.743  31.418  0.00  0.00    -0.776 OA
HETATM   44  H   UNK     0      46.496  10.223  31.462  0.00  0.00     0.167 HD
ENDBRANCH  41  43
ENDBRANCH  40  41
ENDBRANCH  39  40
ENDBRANCH  27  39
BRANCH  11  45
HETATM   45  C   UNK     0      51.470  16.186  38.796  0.00  0.00     0.051 C 
BRANCH  45  46
HETATM   46  C   UNK     0      52.943  16.160  38.985  0.00  0.00     0.114 C 
BRANCH  46  47
HETATM   47  C   UNK     0      53.395  14.760  38.741  0.00  0.00     0.139 C 
HETATM   48  O   UNK     0      54.205  14.551  37.827  0.00  0.00    -0.650 OA
BRANCH  47  49
HETATM   49  O   UNK     0      52.924  13.726  39.509  0.00  0.00    -0.776 OA
HETATM   50  H   UNK     0      51.978  13.344  39.389  0.00  0.00     0.167 HD
ENDBRANCH  47  49
ENDBRANCH  46  47
ENDBRANCH  45  46
ENDBRANCH  11  45
BRANCH  18  51
HETATM   51  C   UNK     0      47.363  11.419  35.767  0.00  0.00     0.051 C 
BRANCH  51  52
HETATM   52  C   UNK     0      48.147  10.147  35.481  0.00  0.00     0.114 C 
BRANCH  52  53
HETATM   53  C   UNK     0      47.532   9.354  34.399  0.00  0.00     0.139 C 
HETATM   54  O   UNK     0      47.568   9.766  33.229  0.00  0.00    -0.650 OA
BRANCH  53  55
HETATM   55  O   UNK     0      46.917   8.162  34.695  0.00  0.00    -0.776 OA
HETATM   56  H   UNK     0      46.432   7.947  35.534  0.00  0.00     0.167 HD
ENDBRANCH  53  55
ENDBRANCH  52  53
ENDBRANCH  51  52
ENDBRANCH  18  51
TORSDOF 16
ENDMDL
MODEL 9
REMARK VINA RESULT:      -9.4     31.360     33.779
REMARK  16 active torsions:
REMARK  status: ('A' for Active; 'I' for Inactive)
REMARK    1  A    between atoms: C_6  and  C_7 
REMARK    2  A    between atoms: C_7  and  C_8 
REMARK    3  A    between atoms: C_8  and  C_9 
REMARK    4  A    between atoms: C_9  and  O_11 
REMARK    5  A    between atoms: C_16  and  C_17 
REMARK    6  A    between atoms: C_17  and  C_18 
REMARK    7  A    between atoms: C_18  and  C_19 
REMARK    8  A    between atoms: C_19  and  O_21 
REMARK    9  A    between atoms: C_28  and  C_29 
REMARK   10  A    between atoms: C_29  and  C_30 
REMARK   11  A    between atoms: C_30  and  C_31 
REMARK   12  A    between atoms: C_31  and  O_33 
REMARK   13  A    between atoms: C_42  and  C_43 
REMARK   14  A    between atoms: C_43  and  C_44 
REMARK   15  A    between atoms: C_44  and  C_45 
REMARK   16  A    between atoms: C_45  and  O_47 
ROOT
HETATM    1  C   UNK     0      44.336  13.223  31.142  0.00  0.00     0.051 C 
HETATM    2  C   UNK     0      43.970  14.673  31.385  0.00  0.00    -0.031 A 
HETATM    3  C   UNK     0      44.449  15.553  32.342  0.00  0.00     0.021 A 
HETATM    4  N   UNK     0      43.815  16.742  32.206  0.00  0.00    -0.361 N 
HETATM    5  C   UNK     0      42.947  16.641  31.178  0.00  0.00     0.022 A 
HETATM    6  C   UNK     0      43.017  15.359  30.643  0.00  0.00    -0.027 A 
HETATM    7  C   UNK     0      42.077  17.691  30.560  0.00  0.00     0.115 C 
HETATM    8  C   UNK     0      42.702  19.059  30.352  0.00  0.00     0.021 A 
HETATM    9  N   UNK     0      43.967  19.358  30.017  0.00  0.00    -0.361 N 
HETATM   10  C   UNK     0      44.099  20.701  30.033  0.00  0.00     0.022 A 
HETATM   11  C   UNK     0      42.883  21.284  30.379  0.00  0.00    -0.027 A 
HETATM   12  C   UNK     0      41.999  20.255  30.581  0.00  0.00    -0.031 A 
HETATM   13  C   UNK     0      40.546  20.414  30.970  0.00  0.00     0.051 C 
HETATM   14  C   UNK     0      45.383  21.484  29.777  0.00  0.00     0.115 C 
HETATM   15  C   UNK     0      46.499  21.176  30.762  0.00  0.00     0.021 A 
HETATM   16  N   UNK     0      47.068  19.981  31.012  0.00  0.00    -0.361 N 
HETATM   17  C   UNK     0      47.961  20.118  31.995  0.00  0.00     0.022 A 
HETATM   18  C   UNK     0      47.982  21.468  32.398  0.00  0.00    -0.027 A 
HETATM   19  C   UNK     0      47.063  22.120  31.618  0.00  0.00    -0.031 A 
HETATM   20  C   UNK     0      46.792  23.611  31.701  0.00  0.00     0.051 C 
HETATM   21  C   UNK     0      48.808  19.076  32.689  0.00  0.00     0.115 C 
HETATM   22  C   UNK     0      48.215  17.698  32.864  0.00  0.00     0.022 A 
HETATM   23  N   UNK     0      46.959  17.371  33.193  0.00  0.00    -0.361 N 
HETATM   24  C   UNK     0      46.830  16.032  33.094  0.00  0.00     0.021 A 
HETATM   25  C   UNK     0      48.036  15.483  32.702  0.00  0.00    -0.031 A 
HETATM   26  C   UNK     0      48.399  14.027  32.496  0.00  0.00     0.051 C 
HETATM   27  C   UNK     0      48.938  16.529  32.549  0.00  0.00    -0.027 A 
HETATM   28  C   UNK     0      45.571  15.203  33.278  0.00  0.00     0.115 C 
HETATM   29  H   UNK     0      43.955  17.631  32.863  0.00  0.00     0.165 HD
HETATM   30  H   UNK     0      44.756  18.625  29.719  0.00  0.00     0.165 HD
HETATM   31  H   UNK     0      46.870  19.031  30.451  0.00  0.00     0.165 HD
HETATM   32  H   UNK     0      46.162  18.078  33.540  0.00  0.00     0.165 HD
ENDROOT
BRANCH   6  33
HETATM   33  C   UNK     0      42.254  14.744  29.497  0.00  0.00     0.051 C 
BRANCH  33  34
HETATM   34  C   UNK     0      43.165  14.505  28.315  0.00  0.00     0.114 C 
BRANCH  34  35
HETATM   35  C   UNK     0      42.648  15.324  27.181  0.00  0.00     0.139 C 
HETATM   36  O   UNK     0      41.518  15.887  27.265  0.00  0.00    -0.650 OA
BRANCH  35  37
HETATM   37  O   UNK     0      43.363  15.508  26.004  0.00  0.00    -0.776 OA
HETATM   38  H   UNK     0      43.511  16.422  25.606  0.00  0.00     0.167 HD
ENDBRANCH  35  37
ENDBRANCH  34  35
ENDBRANCH  33  34
ENDBRANCH   6  33
BRANCH  27  39
HETATM   39  C   UNK     0      50.370  16.321  32.200  0.00  0.00     0.051 C 
BRANCH  39  40
HETATM   40  C   UNK     0      50.739  16.262  30.786  0.00  0.00     0.114 C 
BRANCH  40  41
HETATM   41  C   UNK     0      50.316  17.268  29.837  0.00  0.00     0.139 C 
HETATM   42  O   UNK     0      50.617  18.466  29.932  0.00  0.00    -0.650 OA
BRANCH  41  43
HETATM   43  O   UNK     0      49.512  16.878  28.729  0.00  0.00    -0.776 OA
HETATM   44  H   UNK     0      48.698  17.462  28.577  0.00  0.00     0.167 HD
ENDBRANCH  41  43
ENDBRANCH  40  41
ENDBRANCH  39  40
ENDBRANCH  27  39
BRANCH  11  45
HETATM   45  C   UNK     0      42.544  22.744  30.517  0.00  0.00     0.051 C 
BRANCH  45  46
HETATM   46  C   UNK     0      43.236  23.423  31.642  0.00  0.00     0.114 C 
BRANCH  46  47
HETATM   47  C   UNK     0      42.732  24.825  31.688  0.00  0.00     0.139 C 
HETATM   48  O   UNK     0      43.278  25.626  32.460  0.00  0.00    -0.650 OA
BRANCH  47  49
HETATM   49  O   UNK     0      41.685  25.222  30.895  0.00  0.00    -0.776 OA
HETATM   50  H   UNK     0      41.347  24.651  30.112  0.00  0.00     0.167 HD
ENDBRANCH  47  49
ENDBRANCH  46  47
ENDBRANCH  45  46
ENDBRANCH  11  45
BRANCH  18  51
HETATM   51  C   UNK     0      48.846  22.105  33.455  0.00  0.00     0.051 C 
BRANCH  51  52
HETATM   52  C   UNK     0      49.905  22.907  32.713  0.00  0.00     0.114 C 
BRANCH  52  53
HETATM   53  C   UNK     0      51.140  22.127  32.506  0.00  0.00     0.139 C 
HETATM   54  O   UNK     0      51.287  21.458  31.471  0.00  0.00    -0.650 OA
BRANCH  53  55
HETATM   55  O   UNK     0      52.123  22.144  33.466  0.00  0.00    -0.776 OA
HETATM   56  H   UNK     0      52.324  21.415  34.109  0.00  0.00     0.167 HD
ENDBRANCH  53  55
ENDBRANCH  52  53
ENDBRANCH  51  52
ENDBRANCH  18  51
TORSDOF 16
ENDMDL
MODEL 10
REMARK VINA RESULT:      -9.4     28.870     31.215
REMARK  16 active torsions:
REMARK  status: ('A' for Active; 'I' for Inactive)
REMARK    1  A    between atoms: C_6  and  C_7 
REMARK    2  A    between atoms: C_7  and  C_8 
REMARK    3  A    between atoms: C_8  and  C_9 
REMARK    4  A    between atoms: C_9  and  O_11 
REMARK    5  A    between atoms: C_16  and  C_17 
REMARK    6  A    between atoms: C_17  and  C_18 
REMARK    7  A    between atoms: C_18  and  C_19 
REMARK    8  A    between atoms: C_19  and  O_21 
REMARK    9  A    between atoms: C_28  and  C_29 
REMARK   10  A    between atoms: C_29  and  C_30 
REMARK   11  A    between atoms: C_30  and  C_31 
REMARK   12  A    between atoms: C_31  and  O_33 
REMARK   13  A    between atoms: C_42  and  C_43 
REMARK   14  A    between atoms: C_43  and  C_44 
REMARK   15  A    between atoms: C_44  and  C_45 
REMARK   16  A    between atoms: C_45  and  O_47 
ROOT
HETATM    1  C   UNK     0      45.993  19.361  30.166  0.00  0.00     0.051 C 
HETATM    2  C   UNK     0      46.332  17.917  30.474  0.00  0.00    -0.031 A 
HETATM    3  C   UNK     0      47.557  17.349  30.790  0.00  0.00     0.021 A 
HETATM    4  N   UNK     0      47.395  16.015  30.957  0.00  0.00    -0.361 N 
HETATM    5  C   UNK     0      46.093  15.722  30.763  0.00  0.00     0.022 A 
HETATM    6  C   UNK     0      45.400  16.888  30.456  0.00  0.00    -0.027 A 
HETATM    7  C   UNK     0      45.378  14.416  30.919  0.00  0.00     0.115 C 
HETATM    8  C   UNK     0      45.742  13.581  32.134  0.00  0.00     0.021 A 
HETATM    9  N   UNK     0      46.064  13.997  33.369  0.00  0.00    -0.361 N 
HETATM   10  C   UNK     0      46.404  12.915  34.101  0.00  0.00     0.022 A 
HETATM   11  C   UNK     0      46.288  11.769  33.319  0.00  0.00    -0.027 A 
HETATM   12  C   UNK     0      45.871  12.182  32.079  0.00  0.00    -0.031 A 
HETATM   13  C   UNK     0      45.604  11.273  30.900  0.00  0.00     0.051 C 
HETATM   14  C   UNK     0      46.900  12.922  35.544  0.00  0.00     0.115 C 
HETATM   15  C   UNK     0      48.193  13.697  35.746  0.00  0.00     0.021 A 
HETATM   16  N   UNK     0      48.424  14.994  35.474  0.00  0.00    -0.361 N 
HETATM   17  C   UNK     0      49.705  15.274  35.726  0.00  0.00     0.022 A 
HETATM   18  C   UNK     0      50.336  14.104  36.194  0.00  0.00    -0.027 A 
HETATM   19  C   UNK     0      49.378  13.124  36.204  0.00  0.00    -0.031 A 
HETATM   20  C   UNK     0      49.628  11.704  36.678  0.00  0.00     0.051 C 
HETATM   21  C   UNK     0      50.479  16.556  35.519  0.00  0.00     0.115 C 
HETATM   22  C   UNK     0      50.097  17.419  34.339  0.00  0.00     0.022 A 
HETATM   23  N   UNK     0      49.768  17.031  33.100  0.00  0.00    -0.361 N 
HETATM   24  C   UNK     0      49.359  18.116  32.412  0.00  0.00     0.021 A 
HETATM   25  C   UNK     0      49.437  19.231  33.225  0.00  0.00    -0.031 A 
HETATM   26  C   UNK     0      49.126  20.676  32.893  0.00  0.00     0.051 C 
HETATM   27  C   UNK     0      49.907  18.810  34.463  0.00  0.00    -0.027 A 
HETATM   28  C   UNK     0      48.801  18.166  31.000  0.00  0.00     0.115 C 
HETATM   29  H   UNK     0      48.209  15.285  31.171  0.00  0.00     0.165 HD
HETATM   30  H   UNK     0      46.006  15.049  33.741  0.00  0.00     0.165 HD
HETATM   31  H   UNK     0      47.657  15.741  35.141  0.00  0.00     0.165 HD
HETATM   32  H   UNK     0      49.862  15.994  32.686  0.00  0.00     0.165 HD
ENDROOT
BRANCH   6  33
HETATM   33  C   UNK     0      43.938  17.096  30.149  0.00  0.00     0.051 C 
BRANCH  33  34
HETATM   34  C   UNK     0      43.206  17.622  31.361  0.00  0.00     0.114 C 
BRANCH  34  35
HETATM   35  C   UNK     0      42.873  16.452  32.224  0.00  0.00     0.139 C 
HETATM   36  O   UNK     0      43.551  16.216  33.266  0.00  0.00    -0.650 OA
BRANCH  35  37
HETATM   37  O   UNK     0      41.827  15.584  31.938  0.00  0.00    -0.776 OA
HETATM   38  H   UNK     0      41.048  15.461  32.565  0.00  0.00     0.167 HD
ENDBRANCH  35  37
ENDBRANCH  34  35
ENDBRANCH  33  34
ENDBRANCH   6  33
BRANCH  27  39
HETATM   39  C   UNK     0      50.191  19.747  35.584  0.00  0.00     0.051 C 
BRANCH  39  40
HETATM   40  C   UNK     0      49.357  19.667  36.783  0.00  0.00     0.114 C 
BRANCH  40  41
HETATM   41  C   UNK     0      49.920  19.665  38.114  0.00  0.00     0.139 C 
HETATM   42  O   UNK     0      50.612  18.740  38.562  0.00  0.00    -0.650 OA
BRANCH  41  43
HETATM   43  O   UNK     0      49.677  20.777  38.970  0.00  0.00    -0.776 OA
HETATM   44  H   UNK     0      48.984  21.429  38.622  0.00  0.00     0.167 HD
ENDBRANCH  41  43
ENDBRANCH  40  41
ENDBRANCH  39  40
ENDBRANCH  27  39
BRANCH  11  45
HETATM   45  C   UNK     0      46.549  10.337  33.702  0.00  0.00     0.051 C 
BRANCH  45  46
HETATM   46  C   UNK     0      47.979   9.942  33.627  0.00  0.00     0.114 C 
BRANCH  46  47
HETATM   47  C   UNK     0      48.089   8.573  34.208  0.00  0.00     0.139 C 
HETATM   48  O   UNK     0      49.203   8.030  34.239  0.00  0.00    -0.650 OA
BRANCH  47  49
HETATM   49  O   UNK     0      46.983   7.926  34.696  0.00  0.00    -0.776 OA
HETATM   50  H   UNK     0      46.670   7.022  34.322  0.00  0.00     0.167 HD
ENDBRANCH  47  49
ENDBRANCH  46  47
ENDBRANCH  45  46
ENDBRANCH  11  45
BRANCH  18  51
HETATM   51  C   UNK     0      51.769  13.936  36.630  0.00  0.00     0.051 C 
BRANCH  51  52
HETATM   52  C   UNK     0      51.763  14.003  38.150  0.00  0.00     0.114 C 
BRANCH  52  53
HETATM   53  C   UNK     0      51.850  15.393  38.638  0.00  0.00     0.139 C 
HETATM   54  O   UNK     0      52.896  16.043  38.481  0.00  0.00    -0.650 OA
BRANCH  53  55
HETATM   55  O   UNK     0      50.769  15.960  39.270  0.00  0.00    -0.776 OA
HETATM   56  H   UNK     0      50.804  16.674  39.958  0.00  0.00     0.167 HD
ENDBRANCH  53  55
ENDBRANCH  52  53
ENDBRANCH  51  52
ENDBRANCH  18  51
TORSDOF 16
ENDMDL
MODEL 11
REMARK VINA RESULT:      -9.4     29.640     31.878
REMARK  16 active torsions:
REMARK  status: ('A' for Active; 'I' for Inactive)
REMARK    1  A    between atoms: C_6  and  C_7 
REMARK    2  A    between atoms: C_7  and  C_8 
REMARK    3  A    between atoms: C_8  and  C_9 
REMARK    4  A    between atoms: C_9  and  O_11 
REMARK    5  A    between atoms: C_16  and  C_17 
REMARK    6  A    between atoms: C_17  and  C_18 
REMARK    7  A    between atoms: C_18  and  C_19 
REMARK    8  A    between atoms: C_19  and  O_21 
REMARK    9  A    between atoms: C_28  and  C_29 
REMARK   10  A    between atoms: C_29  and  C_30 
REMARK   11  A    between atoms: C_30  and  C_31 
REMARK   12  A    between atoms: C_31  and  O_33 
REMARK   13  A    between atoms: C_42  and  C_43 
REMARK   14  A    between atoms: C_43  and  C_44 
REMARK   15  A    between atoms: C_44  and  C_45 
REMARK   16  A    between atoms: C_45  and  O_47 
ROOT
HETATM    1  C   UNK     0      45.200  20.932  29.950  0.00  0.00     0.051 C 
HETATM    2  C   UNK     0      45.564  19.470  30.111  0.00  0.00    -0.031 A 
HETATM    3  C   UNK     0      46.795  18.894  30.383  0.00  0.00     0.021 A 
HETATM    4  N   UNK     0      46.657  17.547  30.408  0.00  0.00    -0.361 N 
HETATM    5  C   UNK     0      45.362  17.252  30.167  0.00  0.00     0.022 A 
HETATM    6  C   UNK     0      44.651  18.432  29.974  0.00  0.00    -0.027 A 
HETATM    7  C   UNK     0      44.670  15.925  30.177  0.00  0.00     0.115 C 
HETATM    8  C   UNK     0      45.036  14.975  31.303  0.00  0.00     0.021 A 
HETATM    9  N   UNK     0      45.337  15.265  32.579  0.00  0.00    -0.361 N 
HETATM   10  C   UNK     0      45.688  14.119  33.199  0.00  0.00     0.022 A 
HETATM   11  C   UNK     0      45.603  13.059  32.301  0.00  0.00    -0.027 A 
HETATM   12  C   UNK     0      45.192  13.591  31.105  0.00  0.00    -0.031 A 
HETATM   13  C   UNK     0      44.957  12.806  29.834  0.00  0.00     0.051 C 
HETATM   14  C   UNK     0      46.168  13.985  34.641  0.00  0.00     0.115 C 
HETATM   15  C   UNK     0      47.443  14.756  34.940  0.00  0.00     0.021 A 
HETATM   16  N   UNK     0      47.653  16.079  34.807  0.00  0.00    -0.361 N 
HETATM   17  C   UNK     0      48.925  16.353  35.105  0.00  0.00     0.022 A 
HETATM   18  C   UNK     0      49.572  15.153  35.458  0.00  0.00    -0.027 A 
HETATM   19  C   UNK     0      48.633  14.160  35.352  0.00  0.00    -0.031 A 
HETATM   20  C   UNK     0      48.904  12.703  35.680  0.00  0.00     0.051 C 
HETATM   21  C   UNK     0      49.677  17.664  35.043  0.00  0.00     0.115 C 
HETATM   22  C   UNK     0      49.293  18.638  33.954  0.00  0.00     0.022 A 
HETATM   23  N   UNK     0      48.985  18.376  32.677  0.00  0.00    -0.361 N 
HETATM   24  C   UNK     0      48.563  19.519  32.100  0.00  0.00     0.021 A 
HETATM   25  C   UNK     0      48.611  20.544  33.025  0.00  0.00    -0.031 A 
HETATM   26  C   UNK     0      48.277  22.010  32.842  0.00  0.00     0.051 C 
HETATM   27  C   UNK     0      49.075  20.005  34.219  0.00  0.00    -0.027 A 
HETATM   28  C   UNK     0      48.021  19.706  30.694  0.00  0.00     0.115 C 
HETATM   29  H   UNK     0      47.482  16.813  30.556  0.00  0.00     0.165 HD
HETATM   30  H   UNK     0      45.254  16.272  33.058  0.00  0.00     0.165 HD
HETATM   31  H   UNK     0      46.875  16.843  34.544  0.00  0.00     0.165 HD
HETATM   32  H   UNK     0      49.103  17.389  32.159  0.00  0.00     0.165 HD
ENDROOT
BRANCH   6  33
HETATM   33  C   UNK     0      43.190  18.645  29.670  0.00  0.00     0.051 C 
BRANCH  33  34
HETATM   34  C   UNK     0      42.435  19.033  30.919  0.00  0.00     0.114 C 
BRANCH  34  35
HETATM   35  C   UNK     0      41.957  17.775  31.562  0.00  0.00     0.139 C 
HETATM   36  O   UNK     0      42.419  17.418  32.685  0.00  0.00    -0.650 OA
BRANCH  35  37
HETATM   37  O   UNK     0      41.004  16.950  30.977  0.00  0.00    -0.776 OA
HETATM   38  H   UNK     0      41.251  16.084  30.525  0.00  0.00     0.167 HD
ENDBRANCH  35  37
ENDBRANCH  34  35
ENDBRANCH  33  34
ENDBRANCH   6  33
BRANCH  27  39
HETATM   39  C   UNK     0      49.327  20.825  35.435  0.00  0.00     0.051 C 
BRANCH  39  40
HETATM   40  C   UNK     0      50.704  21.223  35.730  0.00  0.00     0.114 C 
BRANCH  40  41
HETATM   41  C   UNK     0      51.352  22.320  35.047  0.00  0.00     0.139 C 
HETATM   42  O   UNK     0      50.761  23.350  34.695  0.00  0.00    -0.650 OA
BRANCH  41  43
HETATM   43  O   UNK     0      52.742  22.228  34.755  0.00  0.00    -0.776 OA
HETATM   44  H   UNK     0      52.977  22.385  33.783  0.00  0.00     0.167 HD
ENDBRANCH  41  43
ENDBRANCH  40  41
ENDBRANCH  39  40
ENDBRANCH  27  39
BRANCH  11  45
HETATM   45  C   UNK     0      45.887  11.600  32.536  0.00  0.00     0.051 C 
BRANCH  45  46
HETATM   46  C   UNK     0      47.327  11.243  32.462  0.00  0.00     0.114 C 
BRANCH  46  47
HETATM   47  C   UNK     0      47.518  10.006  33.271  0.00  0.00     0.139 C 
HETATM   48  O   UNK     0      48.327   9.157  32.873  0.00  0.00    -0.650 OA
BRANCH  47  49
HETATM   49  O   UNK     0      46.812   9.809  34.431  0.00  0.00    -0.776 OA
HETATM   50  H   UNK     0      46.175   9.013  34.553  0.00  0.00     0.167 HD
ENDBRANCH  47  49
ENDBRANCH  46  47
ENDBRANCH  45  46
ENDBRANCH  11  45
BRANCH  18  51
HETATM   51  C   UNK     0      51.003  14.965  35.892  0.00  0.00     0.051 C 
BRANCH  51  52
HETATM   52  C   UNK     0      50.965  14.746  37.398  0.00  0.00     0.114 C 
BRANCH  52  53
HETATM   53  C   UNK     0      51.242  15.991  38.141  0.00  0.00     0.139 C 
HETATM   54  O   UNK     0      51.962  16.868  37.637  0.00  0.00    -0.650 OA
BRANCH  53  55
HETATM   55  O   UNK     0      50.703  16.170  39.391  0.00  0.00    -0.776 OA
HETATM   56  H   UNK     0      50.868  16.942  39.993  0.00  0.00     0.167 HD
ENDBRANCH  53  55
ENDBRANCH  52  53
ENDBRANCH  51  52
ENDBRANCH  18  51
TORSDOF 16
ENDMDL
MODEL 12
REMARK VINA RESULT:      -9.3     29.647     32.448
REMARK  16 active torsions:
REMARK  status: ('A' for Active; 'I' for Inactive)
REMARK    1  A    between atoms: C_6  and  C_7 
REMARK    2  A    between atoms: C_7  and  C_8 
REMARK    3  A    between atoms: C_8  and  C_9 
REMARK    4  A    between atoms: C_9  and  O_11 
REMARK    5  A    between atoms: C_16  and  C_17 
REMARK    6  A    between atoms: C_17  and  C_18 
REMARK    7  A    between atoms: C_18  and  C_19 
REMARK    8  A    between atoms: C_19  and  O_21 
REMARK    9  A    between atoms: C_28  and  C_29 
REMARK   10  A    between atoms: C_29  and  C_30 
REMARK   11  A    between atoms: C_30  and  C_31 
REMARK   12  A    between atoms: C_31  and  O_33 
REMARK   13  A    between atoms: C_42  and  C_43 
REMARK   14  A    between atoms: C_43  and  C_44 
REMARK   15  A    between atoms: C_44  and  C_45 
REMARK   16  A    between atoms: C_45  and  O_47 
ROOT
HETATM    1  C   UNK     0      49.992  19.355  35.411  0.00  0.00     0.051 C 
HETATM    2  C   UNK     0      49.272  18.028  35.293  0.00  0.00    -0.031 A 
HETATM    3  C   UNK     0      47.941  17.771  35.002  0.00  0.00     0.021 A 
HETATM    4  N   UNK     0      47.733  16.433  35.033  0.00  0.00    -0.361 N 
HETATM    5  C   UNK     0      48.904  15.831  35.328  0.00  0.00     0.022 A 
HETATM    6  C   UNK     0      49.887  16.800  35.500  0.00  0.00    -0.027 A 
HETATM    7  C   UNK     0      49.235  14.373  35.390  0.00  0.00     0.115 C 
HETATM    8  C   UNK     0      48.665  13.497  34.288  0.00  0.00     0.021 A 
HETATM    9  N   UNK     0      48.477  13.797  32.994  0.00  0.00    -0.361 N 
HETATM   10  C   UNK     0      47.860  12.751  32.406  0.00  0.00     0.022 A 
HETATM   11  C   UNK     0      47.652  11.745  33.345  0.00  0.00    -0.027 A 
HETATM   12  C   UNK     0      48.157  12.208  34.533  0.00  0.00    -0.031 A 
HETATM   13  C   UNK     0      48.156  11.447  35.840  0.00  0.00     0.051 C 
HETATM   14  C   UNK     0      47.395  12.678  30.954  0.00  0.00     0.115 C 
HETATM   15  C   UNK     0      46.365  13.733  30.584  0.00  0.00     0.021 A 
HETATM   16  N   UNK     0      46.496  15.071  30.660  0.00  0.00    -0.361 N 
HETATM   17  C   UNK     0      45.342  15.645  30.311  0.00  0.00     0.022 A 
HETATM   18  C   UNK     0      44.419  14.633  29.982  0.00  0.00    -0.027 A 
HETATM   19  C   UNK     0      45.072  13.440  30.156  0.00  0.00    -0.031 A 
HETATM   20  C   UNK     0      44.446  12.087  29.874  0.00  0.00     0.051 C 
HETATM   21  C   UNK     0      44.948  17.104  30.298  0.00  0.00     0.115 C 
HETATM   22  C   UNK     0      45.542  17.997  31.362  0.00  0.00     0.022 A 
HETATM   23  N   UNK     0      45.745  17.723  32.658  0.00  0.00    -0.361 N 
HETATM   24  C   UNK     0      46.430  18.747  33.205  0.00  0.00     0.021 A 
HETATM   25  C   UNK     0      46.666  19.708  32.241  0.00  0.00    -0.031 A 
HETATM   26  C   UNK     0      47.358  21.048  32.381  0.00  0.00     0.051 C 
HETATM   27  C   UNK     0      46.107  19.251  31.053  0.00  0.00    -0.027 A 
HETATM   28  C   UNK     0      46.970  18.852  34.621  0.00  0.00     0.115 C 
HETATM   29  H   UNK     0      46.751  15.926  34.884  0.00  0.00     0.165 HD
HETATM   30  H   UNK     0      48.825  14.727  32.481  0.00  0.00     0.165 HD
HETATM   31  H   UNK     0      47.436  15.624  30.920  0.00  0.00     0.165 HD
HETATM   32  H   UNK     0      45.367  16.822  33.209  0.00  0.00     0.165 HD
ENDROOT
BRANCH   6  33
HETATM   33  C   UNK     0      51.347  16.649  35.844  0.00  0.00     0.051 C 
BRANCH  33  34
HETATM   34  C   UNK     0      51.576  16.874  37.320  0.00  0.00     0.114 C 
BRANCH  34  35
HETATM   35  C   UNK     0      51.975  15.567  37.915  0.00  0.00     0.139 C 
HETATM   36  O   UNK     0      52.302  14.600  37.167  0.00  0.00    -0.650 OA
BRANCH  35  37
HETATM   37  O   UNK     0      52.012  15.348  39.286  0.00  0.00    -0.776 OA
HETATM   38  H   UNK     0      51.310  14.801  39.759  0.00  0.00     0.167 HD
ENDBRANCH  35  37
ENDBRANCH  34  35
ENDBRANCH  33  34
ENDBRANCH   6  33
BRANCH  27  39
HETATM   39  C   UNK     0      46.099  20.053  29.800  0.00  0.00     0.051 C 
BRANCH  39  40
HETATM   40  C   UNK     0      45.150  21.161  29.691  0.00  0.00     0.114 C 
BRANCH  40  41
HETATM   41  C   UNK     0      43.774  21.041  30.117  0.00  0.00     0.139 C 
HETATM   42  O   UNK     0      43.282  21.712  31.034  0.00  0.00    -0.650 OA
BRANCH  41  43
HETATM   43  O   UNK     0      42.925  20.108  29.457  0.00  0.00    -0.776 OA
HETATM   44  H   UNK     0      43.314  19.177  29.370  0.00  0.00     0.167 HD
ENDBRANCH  41  43
ENDBRANCH  40  41
ENDBRANCH  39  40
ENDBRANCH  27  39
BRANCH  11  45
HETATM   45  C   UNK     0      47.011  10.396  33.155  0.00  0.00     0.051 C 
BRANCH  45  46
HETATM   46  C   UNK     0      47.978   9.292  32.927  0.00  0.00     0.114 C 
BRANCH  46  47
HETATM   47  C   UNK     0      47.931   8.408  34.127  0.00  0.00     0.139 C 
HETATM   48  O   UNK     0      48.999   8.049  34.640  0.00  0.00    -0.650 OA
BRANCH  47  49
HETATM   49  O   UNK     0      46.730   8.000  34.652  0.00  0.00    -0.776 OA
HETATM   50  H   UNK     0      45.836   8.206  34.191  0.00  0.00     0.167 HD
ENDBRANCH  47  49
ENDBRANCH  46  47
ENDBRANCH  45  46
ENDBRANCH  11  45
BRANCH  18  51
HETATM   51  C   UNK     0      42.998  14.794  29.507  0.00  0.00     0.051 C 
BRANCH  51  52
HETATM   52  C   UNK     0      43.049  14.754  27.987  0.00  0.00     0.114 C 
BRANCH  52  53
HETATM   53  C   UNK     0      42.222  15.815  27.381  0.00  0.00     0.139 C 
HETATM   54  O   UNK     0      42.296  16.980  27.804  0.00  0.00    -0.650 OA
BRANCH  53  55
HETATM   55  O   UNK     0      41.368  15.505  26.350  0.00  0.00    -0.776 OA
HETATM   56  H   UNK     0      41.634  15.186  25.448  0.00  0.00     0.167 HD
ENDBRANCH  53  55
ENDBRANCH  52  53
ENDBRANCH  51  52
ENDBRANCH  18  51
TORSDOF 16
ENDMDL
MODEL 13
REMARK VINA RESULT:      -9.2     29.980     32.442
REMARK  16 active torsions:
REMARK  status: ('A' for Active; 'I' for Inactive)
REMARK    1  A    between atoms: C_6  and  C_7 
REMARK    2  A    between atoms: C_7  and  C_8 
REMARK    3  A    between atoms: C_8  and  C_9 
REMARK    4  A    between atoms: C_9  and  O_11 
REMARK    5  A    between atoms: C_16  and  C_17 
REMARK    6  A    between atoms: C_17  and  C_18 
REMARK    7  A    between atoms: C_18  and  C_19 
REMARK    8  A    between atoms: C_19  and  O_21 
REMARK    9  A    between atoms: C_28  and  C_29 
REMARK   10  A    between atoms: C_29  and  C_30 
REMARK   11  A    between atoms: C_30  and  C_31 
REMARK   12  A    between atoms: C_31  and  O_33 
REMARK   13  A    between atoms: C_42  and  C_43 
REMARK   14  A    between atoms: C_43  and  C_44 
REMARK   15  A    between atoms: C_44  and  C_45 
REMARK   16  A    between atoms: C_45  and  O_47 
ROOT
HETATM    1  C   UNK     0      43.242  13.847  30.816  0.00  0.00     0.051 C 
HETATM    2  C   UNK     0      43.580  15.298  31.090  0.00  0.00    -0.031 A 
HETATM    3  C   UNK     0      44.006  15.896  32.265  0.00  0.00     0.021 A 
HETATM    4  N   UNK     0      44.157  17.225  32.055  0.00  0.00    -0.361 N 
HETATM    5  C   UNK     0      43.845  17.486  30.769  0.00  0.00     0.022 A 
HETATM    6  C   UNK     0      43.477  16.303  30.137  0.00  0.00    -0.027 A 
HETATM    7  C   UNK     0      43.936  18.773  30.009  0.00  0.00     0.115 C 
HETATM    8  C   UNK     0      45.179  19.614  30.240  0.00  0.00     0.021 A 
HETATM    9  N   UNK     0      46.438  19.204  30.459  0.00  0.00    -0.361 N 
HETATM   10  C   UNK     0      47.197  20.292  30.703  0.00  0.00     0.022 A 
HETATM   11  C   UNK     0      46.408  21.437  30.629  0.00  0.00    -0.027 A 
HETATM   12  C   UNK     0      45.135  21.016  30.338  0.00  0.00    -0.031 A 
HETATM   13  C   UNK     0      43.936  21.920  30.157  0.00  0.00     0.051 C 
HETATM   14  C   UNK     0      48.679  20.295  31.066  0.00  0.00     0.115 C 
HETATM   15  C   UNK     0      48.999  19.553  32.354  0.00  0.00     0.021 A 
HETATM   16  N   UNK     0      48.749  18.262  32.643  0.00  0.00    -0.361 N 
HETATM   17  C   UNK     0      49.117  18.015  33.902  0.00  0.00     0.022 A 
HETATM   18  C   UNK     0      49.641  19.199  34.457  0.00  0.00    -0.027 A 
HETATM   19  C   UNK     0      49.562  20.154  33.478  0.00  0.00    -0.031 A 
HETATM   20  C   UNK     0      50.058  21.579  33.647  0.00  0.00     0.051 C 
HETATM   21  C   UNK     0      48.982  16.753  34.723  0.00  0.00     0.115 C 
HETATM   22  C   UNK     0      47.772  15.883  34.473  0.00  0.00     0.022 A 
HETATM   23  N   UNK     0      46.508  16.265  34.248  0.00  0.00    -0.361 N 
HETATM   24  C   UNK     0      45.786  15.171  33.931  0.00  0.00     0.021 A 
HETATM   25  C   UNK     0      46.602  14.057  33.963  0.00  0.00    -0.031 A 
HETATM   26  C   UNK     0      46.244  12.606  33.721  0.00  0.00     0.051 C 
HETATM   27  C   UNK     0      47.878  14.488  34.308  0.00  0.00    -0.027 A 
HETATM   28  C   UNK     0      44.329  15.111  33.505  0.00  0.00     0.115 C 
HETATM   29  H   UNK     0      44.445  17.975  32.827  0.00  0.00     0.165 HD
HETATM   30  H   UNK     0      46.803  18.150  30.394  0.00  0.00     0.165 HD
HETATM   31  H   UNK     0      48.348  17.497  31.928  0.00  0.00     0.165 HD
HETATM   32  H   UNK     0      46.104  17.305  34.353  0.00  0.00     0.165 HD
ENDROOT
BRANCH   6  33
HETATM   33  C   UNK     0      43.038  16.059  28.715  0.00  0.00     0.051 C 
BRANCH  33  34
HETATM   34  C   UNK     0      41.547  16.256  28.574  0.00  0.00     0.114 C 
BRANCH  34  35
HETATM   35  C   UNK     0      41.138  15.651  27.274  0.00  0.00     0.139 C 
HETATM   36  O   UNK     0      39.916  15.428  27.032  0.00  0.00    -0.650 OA
BRANCH  35  37
HETATM   37  O   UNK     0      42.053  15.311  26.285  0.00  0.00    -0.776 OA
HETATM   38  H   UNK     0      41.807  14.711  25.513  0.00  0.00     0.167 HD
ENDBRANCH  35  37
ENDBRANCH  34  35
ENDBRANCH  33  34
ENDBRANCH   6  33
BRANCH  27  39
HETATM   39  C   UNK     0      49.021  13.556  34.512  0.00  0.00     0.051 C 
BRANCH  39  40
HETATM   40  C   UNK     0      49.416  13.232  35.882  0.00  0.00     0.114 C 
BRANCH  40  41
HETATM   41  C   UNK     0      48.691  12.277  36.689  0.00  0.00     0.139 C 
HETATM   42  O   UNK     0      49.041  11.097  36.832  0.00  0.00    -0.650 OA
BRANCH  41  43
HETATM   43  O   UNK     0      47.509  12.697  37.362  0.00  0.00    -0.776 OA
HETATM   44  H   UNK     0      47.412  12.335  38.303  0.00  0.00     0.167 HD
ENDBRANCH  41  43
ENDBRANCH  40  41
ENDBRANCH  39  40
ENDBRANCH  27  39
BRANCH  11  45
HETATM   45  C   UNK     0      46.813  22.874  30.819  0.00  0.00     0.051 C 
BRANCH  45  46
HETATM   46  C   UNK     0      46.760  23.338  32.229  0.00  0.00     0.114 C 
BRANCH  46  47
HETATM   47  C   UNK     0      45.700  24.384  32.309  0.00  0.00     0.139 C 
HETATM   48  O   UNK     0      45.091  24.529  33.378  0.00  0.00    -0.650 OA
BRANCH  47  49
HETATM   49  O   UNK     0      45.404  25.169  31.224  0.00  0.00    -0.776 OA
HETATM   50  H   UNK     0      44.462  25.545  31.063  0.00  0.00     0.167 HD
ENDBRANCH  47  49
ENDBRANCH  46  47
ENDBRANCH  45  46
ENDBRANCH  11  45
BRANCH  18  51
HETATM   51  C   UNK     0      50.205  19.403  35.840  0.00  0.00     0.051 C 
BRANCH  51  52
HETATM   52  C   UNK     0      49.030  19.785  36.727  0.00  0.00     0.114 C 
BRANCH  52  53
HETATM   53  C   UNK     0      49.349  20.934  37.596  0.00  0.00     0.139 C 
HETATM   54  O   UNK     0      49.162  22.092  37.189  0.00  0.00    -0.650 OA
BRANCH  53  55
HETATM   55  O   UNK     0      49.855  20.715  38.854  0.00  0.00    -0.776 OA
HETATM   56  H   UNK     0      49.635  19.949  39.447  0.00  0.00     0.167 HD
ENDBRANCH  53  55
ENDBRANCH  52  53
ENDBRANCH  51  52
ENDBRANCH  18  51
TORSDOF 16
ENDMDL
MODEL 14
REMARK VINA RESULT:      -9.2     31.013     33.291
REMARK  16 active torsions:
REMARK  status: ('A' for Active; 'I' for Inactive)
REMARK    1  A    between atoms: C_6  and  C_7 
REMARK    2  A    between atoms: C_7  and  C_8 
REMARK    3  A    between atoms: C_8  and  C_9 
REMARK    4  A    between atoms: C_9  and  O_11 
REMARK    5  A    between atoms: C_16  and  C_17 
REMARK    6  A    between atoms: C_17  and  C_18 
REMARK    7  A    between atoms: C_18  and  C_19 
REMARK    8  A    between atoms: C_19  and  O_21 
REMARK    9  A    between atoms: C_28  and  C_29 
REMARK   10  A    between atoms: C_29  and  C_30 
REMARK   11  A    between atoms: C_30  and  C_31 
REMARK   12  A    between atoms: C_31  and  O_33 
REMARK   13  A    between atoms: C_42  and  C_43 
REMARK   14  A    between atoms: C_43  and  C_44 
REMARK   15  A    between atoms: C_44  and  C_45 
REMARK   16  A    between atoms: C_45  and  O_47 
ROOT
HETATM    1  C   UNK     0      42.592  22.533  30.774  0.00  0.00     0.051 C 
HETATM    2  C   UNK     0      43.007  21.094  30.543  0.00  0.00    -0.031 A 
HETATM    3  C   UNK     0      44.208  20.590  30.068  0.00  0.00     0.021 A 
HETATM    4  N   UNK     0      44.122  19.241  29.995  0.00  0.00    -0.361 N 
HETATM    5  C   UNK     0      42.896  18.873  30.420  0.00  0.00     0.022 A 
HETATM    6  C   UNK     0      42.171  20.008  30.769  0.00  0.00    -0.027 A 
HETATM    7  C   UNK     0      42.330  17.502  30.622  0.00  0.00     0.115 C 
HETATM    8  C   UNK     0      43.243  16.477  31.272  0.00  0.00     0.021 A 
HETATM    9  N   UNK     0      44.159  16.664  32.235  0.00  0.00    -0.361 N 
HETATM   10  C   UNK     0      44.798  15.493  32.438  0.00  0.00     0.022 A 
HETATM   11  C   UNK     0      44.273  14.522  31.590  0.00  0.00    -0.027 A 
HETATM   12  C   UNK     0      43.293  15.135  30.853  0.00  0.00    -0.031 A 
HETATM   13  C   UNK     0      42.441  14.463  29.799  0.00  0.00     0.051 C 
HETATM   14  C   UNK     0      45.961  15.255  33.398  0.00  0.00     0.115 C 
HETATM   15  C   UNK     0      47.194  16.089  33.090  0.00  0.00     0.021 A 
HETATM   16  N   UNK     0      47.285  17.431  33.032  0.00  0.00    -0.361 N 
HETATM   17  C   UNK     0      48.521  17.771  32.662  0.00  0.00     0.022 A 
HETATM   18  C   UNK     0      49.275  16.595  32.480  0.00  0.00    -0.027 A 
HETATM   19  C   UNK     0      48.433  15.548  32.752  0.00  0.00    -0.031 A 
HETATM   20  C   UNK     0      48.856  14.091  32.710  0.00  0.00     0.051 C 
HETATM   21  C   UNK     0      49.112  19.135  32.384  0.00  0.00     0.115 C 
HETATM   22  C   UNK     0      48.203  20.178  31.778  0.00  0.00     0.022 A 
HETATM   23  N   UNK     0      47.279  20.020  30.822  0.00  0.00    -0.361 N 
HETATM   24  C   UNK     0      46.602  21.178  30.691  0.00  0.00     0.021 A 
HETATM   25  C   UNK     0      47.109  22.109  31.577  0.00  0.00    -0.031 A 
HETATM   26  C   UNK     0      46.707  23.556  31.774  0.00  0.00     0.051 C 
HETATM   27  C   UNK     0      48.135  21.492  32.284  0.00  0.00    -0.027 A 
HETATM   28  C   UNK     0      45.404  21.459  29.800  0.00  0.00     0.115 C 
HETATM   29  H   UNK     0      44.914  18.561  29.605  0.00  0.00     0.165 HD
HETATM   30  H   UNK     0      44.323  17.609  32.808  0.00  0.00     0.165 HD
HETATM   31  H   UNK     0      46.473  18.155  33.303  0.00  0.00     0.165 HD
HETATM   32  H   UNK     0      47.124  19.100  30.199  0.00  0.00     0.165 HD
ENDROOT
BRANCH   6  33
HETATM   33  C   UNK     0      40.763  20.137  31.291  0.00  0.00     0.051 C 
BRANCH  33  34
HETATM   34  C   UNK     0      39.814  20.526  30.181  0.00  0.00     0.114 C 
BRANCH  34  35
HETATM   35  C   UNK     0      39.444  19.278  29.453  0.00  0.00     0.139 C 
HETATM   36  O   UNK     0      38.756  18.385  30.027  0.00  0.00    -0.650 OA
BRANCH  35  37
HETATM   37  O   UNK     0      39.823  19.038  28.137  0.00  0.00    -0.776 OA
HETATM   38  H   UNK     0      39.675  19.715  27.406  0.00  0.00     0.167 HD
ENDBRANCH  35  37
ENDBRANCH  34  35
ENDBRANCH  33  34
ENDBRANCH   6  33
BRANCH  27  39
HETATM   39  C   UNK     0      48.972  22.206  33.286  0.00  0.00     0.051 C 
BRANCH  39  40
HETATM   40  C   UNK     0      50.157  22.925  32.816  0.00  0.00     0.114 C 
BRANCH  40  41
HETATM   41  C   UNK     0      51.407  22.252  32.541  0.00  0.00     0.139 C 
HETATM   42  O   UNK     0      51.676  21.728  31.452  0.00  0.00    -0.650 OA
BRANCH  41  43
HETATM   43  O   UNK     0      52.392  22.180  33.566  0.00  0.00    -0.776 OA
HETATM   44  H   UNK     0      53.329  22.417  33.264  0.00  0.00     0.167 HD
ENDBRANCH  41  43
ENDBRANCH  40  41
ENDBRANCH  39  40
ENDBRANCH  27  39
BRANCH  11  45
HETATM   45  C   UNK     0      44.660  13.073  31.463  0.00  0.00     0.051 C 
BRANCH  45  46
HETATM   46  C   UNK     0      45.753  12.820  30.490  0.00  0.00     0.114 C 
BRANCH  46  47
HETATM   47  C   UNK     0      46.513  11.634  30.977  0.00  0.00     0.139 C 
HETATM   48  O   UNK     0      47.695  11.505  30.630  0.00  0.00    -0.650 OA
BRANCH  47  49
HETATM   49  O   UNK     0      45.918  10.704  31.792  0.00  0.00    -0.776 OA
HETATM   50  H   UNK     0      45.176  10.079  31.455  0.00  0.00     0.167 HD
ENDBRANCH  47  49
ENDBRANCH  46  47
ENDBRANCH  45  46
ENDBRANCH  11  45
BRANCH  18  51
HETATM   51  C   UNK     0      50.726  16.475  32.088  0.00  0.00     0.051 C 
BRANCH  51  52
HETATM   52  C   UNK     0      50.739  16.022  30.636  0.00  0.00     0.114 C 
BRANCH  52  53
HETATM   53  C   UNK     0      50.169  17.044  29.736  0.00  0.00     0.139 C 
HETATM   54  O   UNK     0      49.090  16.833  29.161  0.00  0.00    -0.650 OA
BRANCH  53  55
HETATM   55  O   UNK     0      50.841  18.225  29.537  0.00  0.00    -0.776 OA
HETATM   56  H   UNK     0      50.565  18.959  28.928  0.00  0.00     0.167 HD
ENDBRANCH  53  55
ENDBRANCH  52  53
ENDBRANCH  51  52
ENDBRANCH  18  51
TORSDOF 16
ENDMDL
MODEL 15
REMARK VINA RESULT:      -9.2     29.304     31.760
REMARK  16 active torsions:
REMARK  status: ('A' for Active; 'I' for Inactive)
REMARK    1  A    between atoms: C_6  and  C_7 
REMARK    2  A    between atoms: C_7  and  C_8 
REMARK    3  A    between atoms: C_8  and  C_9 
REMARK    4  A    between atoms: C_9  and  O_11 
REMARK    5  A    between atoms: C_16  and  C_17 
REMARK    6  A    between atoms: C_17  and  C_18 
REMARK    7  A    between atoms: C_18  and  C_19 
REMARK    8  A    between atoms: C_19  and  O_21 
REMARK    9  A    between atoms: C_28  and  C_29 
REMARK   10  A    between atoms: C_29  and  C_30 
REMARK   11  A    between atoms: C_30  and  C_31 
REMARK   12  A    between atoms: C_31  and  O_33 
REMARK   13  A    between atoms: C_42  and  C_43 
REMARK   14  A    between atoms: C_43  and  C_44 
REMARK   15  A    between atoms: C_44  and  C_45 
REMARK   16  A    between atoms: C_45  and  O_47 
ROOT
HETATM    1  C   UNK     0      43.473  20.507  29.994  0.00  0.00     0.051 C 
HETATM    2  C   UNK     0      44.092  19.126  30.069  0.00  0.00    -0.031 A 
HETATM    3  C   UNK     0      45.415  18.765  30.271  0.00  0.00     0.021 A 
HETATM    4  N   UNK     0      45.515  17.415  30.231  0.00  0.00    -0.361 N 
HETATM    5  C   UNK     0      44.283  16.908  30.017  0.00  0.00     0.022 A 
HETATM    6  C   UNK     0      43.370  17.951  29.907  0.00  0.00    -0.027 A 
HETATM    7  C   UNK     0      43.835  15.480  29.981  0.00  0.00     0.115 C 
HETATM    8  C   UNK     0      44.406  14.560  31.045  0.00  0.00     0.021 A 
HETATM    9  N   UNK     0      44.703  14.842  32.323  0.00  0.00    -0.361 N 
HETATM   10  C   UNK     0      45.274  13.748  32.872  0.00  0.00     0.022 A 
HETATM   11  C   UNK     0      45.338  12.731  31.924  0.00  0.00    -0.027 A 
HETATM   12  C   UNK     0      44.793  13.236  30.771  0.00  0.00    -0.031 A 
HETATM   13  C   UNK     0      44.647  12.479  29.470  0.00  0.00     0.051 C 
HETATM   14  C   UNK     0      45.828  13.636  34.290  0.00  0.00     0.115 C 
HETATM   15  C   UNK     0      46.960  14.606  34.587  0.00  0.00     0.021 A 
HETATM   16  N   UNK     0      46.930  15.950  34.515  0.00  0.00    -0.361 N 
HETATM   17  C   UNK     0      48.146  16.431  34.785  0.00  0.00     0.022 A 
HETATM   18  C   UNK     0      49.007  15.349  35.055  0.00  0.00    -0.027 A 
HETATM   19  C   UNK     0      48.252  14.212  34.929  0.00  0.00    -0.031 A 
HETATM   20  C   UNK     0      48.786  12.812  35.172  0.00  0.00     0.051 C 
HETATM   21  C   UNK     0      48.654  17.855  34.766  0.00  0.00     0.115 C 
HETATM   22  C   UNK     0      48.062  18.793  33.742  0.00  0.00     0.022 A 
HETATM   23  N   UNK     0      47.753  18.539  32.464  0.00  0.00    -0.361 N 
HETATM   24  C   UNK     0      47.115  19.615  31.960  0.00  0.00     0.021 A 
HETATM   25  C   UNK     0      47.020  20.590  32.934  0.00  0.00    -0.031 A 
HETATM   26  C   UNK     0      46.428  21.980  32.837  0.00  0.00     0.051 C 
HETATM   27  C   UNK     0      47.620  20.087  34.084  0.00  0.00    -0.027 A 
HETATM   28  C   UNK     0      46.492  19.765  30.583  0.00  0.00     0.115 C 
HETATM   29  H   UNK     0      46.461  16.832  30.315  0.00  0.00     0.165 HD
HETATM   30  H   UNK     0      44.465  15.795  32.856  0.00  0.00     0.165 HD
HETATM   31  H   UNK     0      46.021  16.576  34.317  0.00  0.00     0.165 HD
HETATM   32  H   UNK     0      48.021  17.613  31.892  0.00  0.00     0.165 HD
ENDROOT
BRANCH   6  33
HETATM   33  C   UNK     0      41.882  17.916  29.662  0.00  0.00     0.051 C 
BRANCH  33  34
HETATM   34  C   UNK     0      41.586  17.784  28.187  0.00  0.00     0.114 C 
BRANCH  34  35
HETATM   35  C   UNK     0      40.844  16.505  27.994  0.00  0.00     0.139 C 
HETATM   36  O   UNK     0      40.447  15.841  28.995  0.00  0.00    -0.650 OA
BRANCH  35  37
HETATM   37  O   UNK     0      40.555  15.990  26.736  0.00  0.00    -0.776 OA
HETATM   38  H   UNK     0      40.172  15.066  26.612  0.00  0.00     0.167 HD
ENDBRANCH  35  37
ENDBRANCH  34  35
ENDBRANCH  33  34
ENDBRANCH   6  33
BRANCH  27  39
HETATM   39  C   UNK     0      47.775  20.884  35.331  0.00  0.00     0.051 C 
BRANCH  39  40
HETATM   40  C   UNK     0      46.886  20.592  36.456  0.00  0.00     0.114 C 
BRANCH  40  41
HETATM   41  C   UNK     0      47.384  20.376  37.795  0.00  0.00     0.139 C 
HETATM   42  O   UNK     0      46.812  20.792  38.812  0.00  0.00    -0.650 OA
BRANCH  41  43
HETATM   43  O   UNK     0      48.594  19.647  37.974  0.00  0.00    -0.776 OA
HETATM   44  H   UNK     0      49.007  19.741  38.894  0.00  0.00     0.167 HD
ENDBRANCH  41  43
ENDBRANCH  40  41
ENDBRANCH  39  40
ENDBRANCH  27  39
BRANCH  11  45
HETATM   45  C   UNK     0      45.883  11.336  32.075  0.00  0.00     0.051 C 
BRANCH  45  46
HETATM   46  C   UNK     0      47.366  11.262  32.089  0.00  0.00     0.114 C 
BRANCH  46  47
HETATM   47  C   UNK     0      47.741  10.082  32.919  0.00  0.00     0.139 C 
HETATM   48  O   UNK     0      47.167   9.914  34.004  0.00  0.00    -0.650 OA
BRANCH  47  49
HETATM   49  O   UNK     0      48.703   9.201  32.494  0.00  0.00    -0.776 OA
HETATM   50  H   UNK     0      48.470   8.257  32.163  0.00  0.00     0.167 HD
ENDBRANCH  47  49
ENDBRANCH  46  47
ENDBRANCH  45  46
ENDBRANCH  11  45
BRANCH  18  51
HETATM   51  C   UNK     0      50.465  15.397  35.433  0.00  0.00     0.051 C 
BRANCH  51  52
HETATM   52  C   UNK     0      50.508  15.465  36.953  0.00  0.00     0.114 C 
BRANCH  52  53
HETATM   53  C   UNK     0      51.311  14.369  37.529  0.00  0.00     0.139 C 
HETATM   54  O   UNK     0      52.550  14.439  37.529  0.00  0.00    -0.650 OA
BRANCH  53  55
HETATM   55  O   UNK     0      50.679  13.271  38.061  0.00  0.00    -0.776 OA
HETATM   56  H   UNK     0      50.187  12.576  37.550  0.00  0.00     0.167 HD
ENDBRANCH  53  55
ENDBRANCH  52  53
ENDBRANCH  51  52
ENDBRANCH  18  51
TORSDOF 16
ENDMDL
MODEL 16
REMARK VINA RESULT:      -9.1     30.978     33.499
REMARK  16 active torsions:
REMARK  status: ('A' for Active; 'I' for Inactive)
REMARK    1  A    between atoms: C_6  and  C_7 
REMARK    2  A    between atoms: C_7  and  C_8 
REMARK    3  A    between atoms: C_8  and  C_9 
REMARK    4  A    between atoms: C_9  and  O_11 
REMARK    5  A    between atoms: C_16  and  C_17 
REMARK    6  A    between atoms: C_17  and  C_18 
REMARK    7  A    between atoms: C_18  and  C_19 
REMARK    8  A    between atoms: C_19  and  O_21 
REMARK    9  A    between atoms: C_28  and  C_29 
REMARK   10  A    between atoms: C_29  and  C_30 
REMARK   11  A    between atoms: C_30  and  C_31 
REMARK   12  A    between atoms: C_31  and  O_33 
REMARK   13  A    between atoms: C_42  and  C_43 
REMARK   14  A    between atoms: C_43  and  C_44 
REMARK   15  A    between atoms: C_44  and  C_45 
REMARK   16  A    between atoms: C_45  and  O_47 
ROOT
HETATM    1  C   UNK     0      43.706  15.032  29.268  0.00  0.00     0.051 C 
HETATM    2  C   UNK     0      43.692  16.392  29.935  0.00  0.00    -0.031 A 
HETATM    3  C   UNK     0      44.188  16.770  31.172  0.00  0.00     0.021 A 
HETATM    4  N   UNK     0      43.925  18.084  31.370  0.00  0.00    -0.361 N 
HETATM    5  C   UNK     0      43.280  18.553  30.282  0.00  0.00     0.022 A 
HETATM    6  C   UNK     0      43.115  17.520  29.365  0.00  0.00    -0.027 A 
HETATM    7  C   UNK     0      42.851  19.950  29.958  0.00  0.00     0.115 C 
HETATM    8  C   UNK     0      43.841  21.057  30.276  0.00  0.00     0.021 A 
HETATM    9  N   UNK     0      45.180  21.033  30.190  0.00  0.00    -0.361 N 
HETATM   10  C   UNK     0      45.652  22.206  30.660  0.00  0.00     0.022 A 
HETATM   11  C   UNK     0      44.587  23.013  31.051  0.00  0.00    -0.027 A 
HETATM   12  C   UNK     0      43.443  22.296  30.811  0.00  0.00    -0.031 A 
HETATM   13  C   UNK     0      42.036  22.779  31.080  0.00  0.00     0.051 C 
HETATM   14  C   UNK     0      47.121  22.592  30.809  0.00  0.00     0.115 C 
HETATM   15  C   UNK     0      47.903  21.688  31.748  0.00  0.00     0.021 A 
HETATM   16  N   UNK     0      48.080  20.357  31.648  0.00  0.00    -0.361 N 
HETATM   17  C   UNK     0      48.768  19.925  32.708  0.00  0.00     0.022 A 
HETATM   18  C   UNK     0      49.062  21.029  33.533  0.00  0.00    -0.027 A 
HETATM   19  C   UNK     0      48.516  22.127  32.920  0.00  0.00    -0.031 A 
HETATM   20  C   UNK     0      48.633  23.541  33.460  0.00  0.00     0.051 C 
HETATM   21  C   UNK     0      49.162  18.520  33.104  0.00  0.00     0.115 C 
HETATM   22  C   UNK     0      48.207  17.403  32.755  0.00  0.00     0.022 A 
HETATM   23  N   UNK     0      46.869  17.402  32.827  0.00  0.00    -0.361 N 
HETATM   24  C   UNK     0      46.417  16.255  32.281  0.00  0.00     0.021 A 
HETATM   25  C   UNK     0      47.490  15.495  31.857  0.00  0.00    -0.031 A 
HETATM   26  C   UNK     0      47.493  14.119  31.222  0.00  0.00     0.051 C 
HETATM   27  C   UNK     0      48.646  16.209  32.149  0.00  0.00    -0.027 A 
HETATM   28  C   UNK     0      44.974  15.840  32.052  0.00  0.00     0.115 C 
HETATM   29  H   UNK     0      44.162  18.661  32.294  0.00  0.00     0.165 HD
HETATM   30  H   UNK     0      45.792  20.207  29.751  0.00  0.00     0.165 HD
HETATM   31  H   UNK     0      47.754  19.715  30.789  0.00  0.00     0.165 HD
HETATM   32  H   UNK     0      46.233  18.192  33.303  0.00  0.00     0.165 HD
ENDROOT
BRANCH   6  33
HETATM   33  C   UNK     0      42.457  17.523  28.009  0.00  0.00     0.051 C 
BRANCH  33  34
HETATM   34  C   UNK     0      40.955  17.431  28.142  0.00  0.00     0.114 C 
BRANCH  34  35
HETATM   35  C   UNK     0      40.538  16.111  27.588  0.00  0.00     0.139 C 
HETATM   36  O   UNK     0      39.652  15.425  28.176  0.00  0.00    -0.650 OA
BRANCH  35  37
HETATM   37  O   UNK     0      41.082  15.580  26.425  0.00  0.00    -0.776 OA
HETATM   38  H   UNK     0      41.688  14.776  26.438  0.00  0.00     0.167 HD
ENDBRANCH  35  37
ENDBRANCH  34  35
ENDBRANCH  33  34
ENDBRANCH   6  33
BRANCH  27  39
HETATM   39  C   UNK     0      50.013  15.675  31.901  0.00  0.00     0.051 C 
BRANCH  39  40
HETATM   40  C   UNK     0      50.685  16.040  30.654  0.00  0.00     0.114 C 
BRANCH  40  41
HETATM   41  C   UNK     0      50.223  17.126  29.819  0.00  0.00     0.139 C 
HETATM   42  O   UNK     0      50.542  18.309  29.999  0.00  0.00    -0.650 OA
BRANCH  41  43
HETATM   43  O   UNK     0      49.354  16.838  28.728  0.00  0.00    -0.776 OA
HETATM   44  H   UNK     0      48.822  17.633  28.396  0.00  0.00     0.167 HD
ENDBRANCH  41  43
ENDBRANCH  40  41
ENDBRANCH  39  40
ENDBRANCH  27  39
BRANCH  11  45
HETATM   45  C   UNK     0      44.621  24.404  31.626  0.00  0.00     0.051 C 
BRANCH  45  46
HETATM   46  C   UNK     0      44.798  24.447  33.100  0.00  0.00     0.114 C 
BRANCH  46  47
HETATM   47  C   UNK     0      43.663  25.235  33.658  0.00  0.00     0.139 C 
HETATM   48  O   UNK     0      43.595  25.389  34.886  0.00  0.00    -0.650 OA
BRANCH  47  49
HETATM   49  O   UNK     0      42.712  25.779  32.832  0.00  0.00    -0.776 OA
HETATM   50  H   UNK     0      42.504  26.785  32.828  0.00  0.00     0.167 HD
ENDBRANCH  47  49
ENDBRANCH  46  47
ENDBRANCH  45  46
ENDBRANCH  11  45
BRANCH  18  51
HETATM   51  C   UNK     0      49.839  21.040  34.823  0.00  0.00     0.051 C 
BRANCH  51  52
HETATM   52  C   UNK     0      48.838  20.726  35.926  0.00  0.00     0.114 C 
BRANCH  52  53
HETATM   53  C   UNK     0      49.350  19.702  36.857  0.00  0.00     0.139 C 
HETATM   54  O   UNK     0      50.207  18.888  36.476  0.00  0.00    -0.650 OA
BRANCH  53  55
HETATM   55  O   UNK     0      48.872  19.654  38.144  0.00  0.00    -0.776 OA
HETATM   56  H   UNK     0      48.957  20.370  38.826  0.00  0.00     0.167 HD
ENDBRANCH  53  55
ENDBRANCH  52  53
ENDBRANCH  51  52
ENDBRANCH  18  51
TORSDOF 16
ENDMDL
MODEL 17
REMARK VINA RESULT:      -9.1      2.431      7.673
REMARK  16 active torsions:
REMARK  status: ('A' for Active; 'I' for Inactive)
REMARK    1  A    between atoms: C_6  and  C_7 
REMARK    2  A    between atoms: C_7  and  C_8 
REMARK    3  A    between atoms: C_8  and  C_9 
REMARK    4  A    between atoms: C_9  and  O_11 
REMARK    5  A    between atoms: C_16  and  C_17 
REMARK    6  A    between atoms: C_17  and  C_18 
REMARK    7  A    between atoms: C_18  and  C_19 
REMARK    8  A    between atoms: C_19  and  O_21 
REMARK    9  A    between atoms: C_28  and  C_29 
REMARK   10  A    between atoms: C_29  and  C_30 
REMARK   11  A    between atoms: C_30  and  C_31 
REMARK   12  A    between atoms: C_31  and  O_33 
REMARK   13  A    between atoms: C_42  and  C_43 
REMARK   14  A    between atoms: C_43  and  C_44 
REMARK   15  A    between atoms: C_44  and  C_45 
REMARK   16  A    between atoms: C_45  and  O_47 
ROOT
HETATM    1  C   UNK     0      37.207   6.948  61.459  0.00  0.00     0.051 C 
HETATM    2  C   UNK     0      36.222   8.088  61.624  0.00  0.00    -0.031 A 
HETATM    3  C   UNK     0      35.846   8.766  62.773  0.00  0.00     0.021 A 
HETATM    4  N   UNK     0      34.911   9.692  62.452  0.00  0.00    -0.361 N 
HETATM    5  C   UNK     0      34.689   9.624  61.123  0.00  0.00     0.022 A 
HETATM    6  C   UNK     0      35.491   8.628  60.574  0.00  0.00    -0.027 A 
HETATM    7  C   UNK     0      33.824  10.486  60.257  0.00  0.00     0.115 C 
HETATM    8  C   UNK     0      33.868  11.980  60.523  0.00  0.00     0.021 A 
HETATM    9  N   UNK     0      34.914  12.733  60.898  0.00  0.00    -0.361 N 
HETATM   10  C   UNK     0      34.471  13.991  61.108  0.00  0.00     0.022 A 
HETATM   11  C   UNK     0      33.105  14.052  60.852  0.00  0.00    -0.027 A 
HETATM   12  C   UNK     0      32.718  12.789  60.483  0.00  0.00    -0.031 A 
HETATM   13  C   UNK     0      31.312  12.381  60.104  0.00  0.00     0.051 C 
HETATM   14  C   UNK     0      35.304  15.168  61.608  0.00  0.00     0.115 C 
HETATM   15  C   UNK     0      35.911  14.952  62.985  0.00  0.00     0.021 A 
HETATM   16  N   UNK     0      36.747  13.969  63.369  0.00  0.00    -0.361 N 
HETATM   17  C   UNK     0      36.995  14.090  64.675  0.00  0.00     0.022 A 
HETATM   18  C   UNK     0      36.295  15.212  65.163  0.00  0.00    -0.027 A 
HETATM   19  C   UNK     0      35.622  15.744  64.094  0.00  0.00    -0.031 A 
HETATM   20  C   UNK     0      34.765  16.994  64.173  0.00  0.00     0.051 C 
HETATM   21  C   UNK     0      37.805  13.207  65.597  0.00  0.00     0.115 C 
HETATM   22  C   UNK     0      37.806  11.723  65.317  0.00  0.00     0.022 A 
HETATM   23  N   UNK     0      36.781  10.948  64.938  0.00  0.00    -0.361 N 
HETATM   24  C   UNK     0      37.259   9.719  64.660  0.00  0.00     0.021 A 
HETATM   25  C   UNK     0      38.624   9.698  64.875  0.00  0.00    -0.031 A 
HETATM   26  C   UNK     0      39.593   8.542  64.739  0.00  0.00     0.051 C 
HETATM   27  C   UNK     0      38.997  10.969  65.296  0.00  0.00    -0.027 A 
HETATM   28  C   UNK     0      36.496   8.528  64.106  0.00  0.00     0.115 C 
HETATM   29  H   UNK     0      34.385  10.360  63.173  0.00  0.00     0.165 HD
HETATM   30  H   UNK     0      35.975  12.390  60.968  0.00  0.00     0.165 HD
HETATM   31  H   UNK     0      37.209  13.201  62.696  0.00  0.00     0.165 HD
HETATM   32  H   UNK     0      35.702  11.251  64.905  0.00  0.00     0.165 HD
ENDROOT
BRANCH   6  33
HETATM   33  C   UNK     0      35.611   8.157  59.147  0.00  0.00     0.051 C 
BRANCH  33  34
HETATM   34  C   UNK     0      34.501   7.190  58.808  0.00  0.00     0.114 C 
BRANCH  34  35
HETATM   35  C   UNK     0      34.574   6.924  57.342  0.00  0.00     0.139 C 
HETATM   36  O   UNK     0      33.514   6.758  56.671  0.00  0.00    -0.650 OA
BRANCH  35  37
HETATM   37  O   UNK     0      35.779   6.848  56.654  0.00  0.00    -0.776 OA
HETATM   38  H   UNK     0      35.827   6.555  55.691  0.00  0.00     0.167 HD
ENDBRANCH  35  37
ENDBRANCH  34  35
ENDBRANCH  33  34
ENDBRANCH   6  33
BRANCH  27  39
HETATM   39  C   UNK     0      40.389  11.314  65.694  0.00  0.00     0.051 C 
BRANCH  39  40
HETATM   40  C   UNK     0      40.675  11.514  67.115  0.00  0.00     0.114 C 
BRANCH  40  41
HETATM   41  C   UNK     0      41.168  10.449  67.959  0.00  0.00     0.139 C 
HETATM   42  O   UNK     0      42.318   9.995  67.886  0.00  0.00    -0.650 OA
BRANCH  41  43
HETATM   43  O   UNK     0      40.298   9.879  68.931  0.00  0.00    -0.776 OA
HETATM   44  H   UNK     0      40.407  10.258  69.864  0.00  0.00     0.167 HD
ENDBRANCH  41  43
ENDBRANCH  40  41
ENDBRANCH  39  40
ENDBRANCH  27  39
BRANCH  11  45
HETATM   45  C   UNK     0      32.182  15.238  60.941  0.00  0.00     0.051 C 
BRANCH  45  46
HETATM   46  C   UNK     0      31.869  15.659  62.331  0.00  0.00     0.114 C 
BRANCH  46  47
HETATM   47  C   UNK     0      30.924  16.809  62.241  0.00  0.00     0.139 C 
HETATM   48  O   UNK     0      31.368  17.955  62.397  0.00  0.00    -0.650 OA
BRANCH  47  49
HETATM   49  O   UNK     0      29.590  16.604  61.993  0.00  0.00    -0.776 OA
HETATM   50  H   UNK     0      28.869  16.788  62.701  0.00  0.00     0.167 HD
ENDBRANCH  47  49
ENDBRANCH  46  47
ENDBRANCH  45  46
ENDBRANCH  11  45
BRANCH  18  51
HETATM   51  C   UNK     0      36.286  15.760  66.566  0.00  0.00     0.051 C 
BRANCH  51  52
HETATM   52  C   UNK     0      37.107  17.040  66.529  0.00  0.00     0.114 C 
BRANCH  52  53
HETATM   53  C   UNK     0      38.528  16.774  66.230  0.00  0.00     0.139 C 
HETATM   54  O   UNK     0      39.207  16.083  67.005  0.00  0.00    -0.650 OA
BRANCH  53  55
HETATM   55  O   UNK     0      39.092  17.297  65.092  0.00  0.00    -0.776 OA
HETATM   56  H   UNK     0      38.615  17.801  64.382  0.00  0.00     0.167 HD
ENDBRANCH  53  55
ENDBRANCH  52  53
ENDBRANCH  51  52
ENDBRANCH  18  51
TORSDOF 16
ENDMDL
MODEL 18
REMARK VINA RESULT:      -9.1     29.724     31.812
REMARK  16 active torsions:
REMARK  status: ('A' for Active; 'I' for Inactive)
REMARK    1  A    between atoms: C_6  and  C_7 
REMARK    2  A    between atoms: C_7  and  C_8 
REMARK    3  A    between atoms: C_8  and  C_9 
REMARK    4  A    between atoms: C_9  and  O_11 
REMARK    5  A    between atoms: C_16  and  C_17 
REMARK    6  A    between atoms: C_17  and  C_18 
REMARK    7  A    between atoms: C_18  and  C_19 
REMARK    8  A    between atoms: C_19  and  O_21 
REMARK    9  A    between atoms: C_28  and  C_29 
REMARK   10  A    between atoms: C_29  and  C_30 
REMARK   11  A    between atoms: C_30  and  C_31 
REMARK   12  A    between atoms: C_31  and  O_33 
REMARK   13  A    between atoms: C_42  and  C_43 
REMARK   14  A    between atoms: C_43  and  C_44 
REMARK   15  A    between atoms: C_44  and  C_45 
REMARK   16  A    between atoms: C_45  and  O_47 
ROOT
HETATM    1  C   UNK     0      50.638  17.537  35.707  0.00  0.00     0.051 C 
HETATM    2  C   UNK     0      49.731  17.764  34.515  0.00  0.00    -0.031 A 
HETATM    3  C   UNK     0      49.420  16.908  33.471  0.00  0.00     0.021 A 
HETATM    4  N   UNK     0      48.590  17.545  32.611  0.00  0.00    -0.361 N 
HETATM    5  C   UNK     0      48.358  18.785  33.089  0.00  0.00     0.022 A 
HETATM    6  C   UNK     0      49.058  18.956  34.278  0.00  0.00    -0.027 A 
HETATM    7  C   UNK     0      47.443  19.850  32.570  0.00  0.00     0.115 C 
HETATM    8  C   UNK     0      46.071  19.400  32.099  0.00  0.00     0.021 A 
HETATM    9  N   UNK     0      45.291  18.429  32.601  0.00  0.00    -0.361 N 
HETATM   10  C   UNK     0      44.203  18.316  31.811  0.00  0.00     0.022 A 
HETATM   11  C   UNK     0      44.279  19.245  30.777  0.00  0.00    -0.027 A 
HETATM   12  C   UNK     0      45.453  19.931  30.953  0.00  0.00    -0.031 A 
HETATM   13  C   UNK     0      45.955  21.048  30.065  0.00  0.00     0.051 C 
HETATM   14  C   UNK     0      43.078  17.296  31.966  0.00  0.00     0.115 C 
HETATM   15  C   UNK     0      43.538  15.851  31.858  0.00  0.00     0.021 A 
HETATM   16  N   UNK     0      44.454  15.221  32.618  0.00  0.00    -0.361 N 
HETATM   17  C   UNK     0      44.626  13.979  32.158  0.00  0.00     0.022 A 
HETATM   18  C   UNK     0      43.774  13.788  31.052  0.00  0.00    -0.027 A 
HETATM   19  C   UNK     0      43.097  14.967  30.875  0.00  0.00    -0.031 A 
HETATM   20  C   UNK     0      42.044  15.182  29.805  0.00  0.00     0.051 C 
HETATM   21  C   UNK     0      45.583  12.900  32.610  0.00  0.00     0.115 C 
HETATM   22  C   UNK     0      46.935  13.336  33.123  0.00  0.00     0.022 A 
HETATM   23  N   UNK     0      47.731  14.302  32.646  0.00  0.00    -0.361 N 
HETATM   24  C   UNK     0      48.770  14.450  33.492  0.00  0.00     0.021 A 
HETATM   25  C   UNK     0      48.646  13.551  34.534  0.00  0.00    -0.031 A 
HETATM   26  C   UNK     0      49.579  13.310  35.702  0.00  0.00     0.051 C 
HETATM   27  C   UNK     0      47.479  12.827  34.320  0.00  0.00    -0.027 A 
HETATM   28  C   UNK     0      49.885  15.480  33.424  0.00  0.00     0.115 C 
HETATM   29  H   UNK     0      48.205  17.128  31.651  0.00  0.00     0.165 HD
HETATM   30  H   UNK     0      45.482  17.856  33.541  0.00  0.00     0.165 HD
HETATM   31  H   UNK     0      44.956  15.645  33.526  0.00  0.00     0.165 HD
HETATM   32  H   UNK     0      47.590  14.859  31.684  0.00  0.00     0.165 HD
ENDROOT
BRANCH   6  33
HETATM   33  C   UNK     0      49.139  20.152  35.193  0.00  0.00     0.051 C 
BRANCH  33  34
HETATM   34  C   UNK     0      50.200  21.117  34.721  0.00  0.00     0.114 C 
BRANCH  34  35
HETATM   35  C   UNK     0      51.048  21.460  35.899  0.00  0.00     0.139 C 
HETATM   36  O   UNK     0      50.751  21.019  37.047  0.00  0.00    -0.650 OA
BRANCH  35  37
HETATM   37  O   UNK     0      52.180  22.259  35.799  0.00  0.00    -0.776 OA
HETATM   38  H   UNK     0      52.983  22.125  36.393  0.00  0.00     0.167 HD
ENDBRANCH  35  37
ENDBRANCH  34  35
ENDBRANCH  33  34
ENDBRANCH   6  33
BRANCH  27  39
HETATM   39  C   UNK     0      47.044  11.709  35.202  0.00  0.00     0.051 C 
BRANCH  39  40
HETATM   40  C   UNK     0      47.798  10.457  35.157  0.00  0.00     0.114 C 
BRANCH  40  41
HETATM   41  C   UNK     0      47.496   9.409  34.208  0.00  0.00     0.139 C 
HETATM   42  O   UNK     0      47.669   9.522  32.987  0.00  0.00    -0.650 OA
BRANCH  41  43
HETATM   43  O   UNK     0      46.972   8.174  34.685  0.00  0.00    -0.776 OA
HETATM   44  H   UNK     0      47.007   7.417  34.014  0.00  0.00     0.167 HD
ENDBRANCH  41  43
ENDBRANCH  40  41
ENDBRANCH  39  40
ENDBRANCH  27  39
BRANCH  11  45
HETATM   45  C   UNK     0      43.299  19.496  29.663  0.00  0.00     0.051 C 
BRANCH  45  46
HETATM   46  C   UNK     0      42.245  20.488  29.995  0.00  0.00     0.114 C 
BRANCH  46  47
HETATM   47  C   UNK     0      40.944  19.920  29.538  0.00  0.00     0.139 C 
HETATM   48  O   UNK     0      40.206  20.622  28.833  0.00  0.00    -0.650 OA
BRANCH  47  49
HETATM   49  O   UNK     0      40.570  18.648  29.892  0.00  0.00    -0.776 OA
HETATM   50  H   UNK     0      39.586  18.382  30.009  0.00  0.00     0.167 HD
ENDBRANCH  47  49
ENDBRANCH  46  47
ENDBRANCH  45  46
ENDBRANCH  11  45
BRANCH  18  51
HETATM   51  C   UNK     0      43.599  12.542  30.223  0.00  0.00     0.051 C 
BRANCH  51  52
HETATM   52  C   UNK     0      44.529  12.691  29.029  0.00  0.00     0.114 C 
BRANCH  52  53
HETATM   53  C   UNK     0      45.645  11.727  29.078  0.00  0.00     0.139 C 
HETATM   54  O   UNK     0      45.459  10.544  28.751  0.00  0.00    -0.650 OA
BRANCH  53  55
HETATM   55  O   UNK     0      46.887  12.146  29.489  0.00  0.00    -0.776 OA
HETATM   56  H   UNK     0      47.757  11.856  29.109  0.00  0.00     0.167 HD
ENDBRANCH  53  55
ENDBRANCH  52  53
ENDBRANCH  51  52
ENDBRANCH  18  51
TORSDOF 16
ENDMDL
MODEL 19
REMARK VINA RESULT:      -9.0     28.386     30.233
REMARK  16 active torsions:
REMARK  status: ('A' for Active; 'I' for Inactive)
REMARK    1  A    between atoms: C_6  and  C_7 
REMARK    2  A    between atoms: C_7  and  C_8 
REMARK    3  A    between atoms: C_8  and  C_9 
REMARK    4  A    between atoms: C_9  and  O_11 
REMARK    5  A    between atoms: C_16  and  C_17 
REMARK    6  A    between atoms: C_17  and  C_18 
REMARK    7  A    between atoms: C_18  and  C_19 
REMARK    8  A    between atoms: C_19  and  O_21 
REMARK    9  A    between atoms: C_28  and  C_29 
REMARK   10  A    between atoms: C_29  and  C_30 
REMARK   11  A    between atoms: C_30  and  C_31 
REMARK   12  A    between atoms: C_31  and  O_33 
REMARK   13  A    between atoms: C_42  and  C_43 
REMARK   14  A    between atoms: C_43  and  C_44 
REMARK   15  A    between atoms: C_44  and  C_45 
REMARK   16  A    between atoms: C_45  and  O_47 
ROOT
HETATM    1  C   UNK     0      51.831  17.577  38.626  0.00  0.00     0.051 C 
HETATM    2  C   UNK     0      51.007  17.666  37.358  0.00  0.00    -0.031 A 
HETATM    3  C   UNK     0      50.967  16.806  36.272  0.00  0.00     0.021 A 
HETATM    4  N   UNK     0      50.106  17.299  35.350  0.00  0.00    -0.361 N 
HETATM    5  C   UNK     0      49.590  18.450  35.829  0.00  0.00     0.022 A 
HETATM    6  C   UNK     0      50.134  18.711  37.082  0.00  0.00    -0.027 A 
HETATM    7  C   UNK     0      48.531  19.334  35.246  0.00  0.00     0.115 C 
HETATM    8  C   UNK     0      47.324  18.641  34.639  0.00  0.00     0.021 A 
HETATM    9  N   UNK     0      46.712  17.518  35.045  0.00  0.00    -0.361 N 
HETATM   10  C   UNK     0      45.743  17.223  34.153  0.00  0.00     0.022 A 
HETATM   11  C   UNK     0      45.723  18.187  33.150  0.00  0.00    -0.027 A 
HETATM   12  C   UNK     0      46.717  19.084  33.450  0.00  0.00    -0.031 A 
HETATM   13  C   UNK     0      47.063  20.310  32.635  0.00  0.00     0.051 C 
HETATM   14  C   UNK     0      44.835  15.997  34.182  0.00  0.00     0.115 C 
HETATM   15  C   UNK     0      45.581  14.675  34.089  0.00  0.00     0.021 A 
HETATM   16  N   UNK     0      46.532  14.209  34.920  0.00  0.00    -0.361 N 
HETATM   17  C   UNK     0      46.988  13.044  34.455  0.00  0.00     0.022 A 
HETATM   18  C   UNK     0      46.293  12.731  33.269  0.00  0.00    -0.027 A 
HETATM   19  C   UNK     0      45.414  13.760  33.052  0.00  0.00    -0.031 A 
HETATM   20  C   UNK     0      44.438  13.805  31.891  0.00  0.00     0.051 C 
HETATM   21  C   UNK     0      48.097  12.157  34.974  0.00  0.00     0.115 C 
HETATM   22  C   UNK     0      49.284  12.831  35.621  0.00  0.00     0.022 A 
HETATM   23  N   UNK     0      49.911  13.952  35.240  0.00  0.00    -0.361 N 
HETATM   24  C   UNK     0      50.821  14.269  36.184  0.00  0.00     0.021 A 
HETATM   25  C   UNK     0      50.785  13.324  37.191  0.00  0.00    -0.031 A 
HETATM   26  C   UNK     0      51.640  13.227  38.438  0.00  0.00     0.051 C 
HETATM   27  C   UNK     0      49.810  12.393  36.853  0.00  0.00    -0.027 A 
HETATM   28  C   UNK     0      51.709  15.500  36.242  0.00  0.00     0.115 C 
HETATM   29  H   UNK     0      49.899  16.851  34.350  0.00  0.00     0.165 HD
HETATM   30  H   UNK     0      46.929  16.958  35.988  0.00  0.00     0.165 HD
HETATM   31  H   UNK     0      46.857  14.689  35.880  0.00  0.00     0.165 HD
HETATM   32  H   UNK     0      49.748  14.506  34.280  0.00  0.00     0.165 HD
ENDROOT
BRANCH   6  33
HETATM   33  C   UNK     0      49.893  19.864  38.023  0.00  0.00     0.051 C 
BRANCH  33  34
HETATM   34  C   UNK     0      50.768  21.041  37.663  0.00  0.00     0.114 C 
BRANCH  34  35
HETATM   35  C   UNK     0      50.110  22.267  38.201  0.00  0.00     0.139 C 
HETATM   36  O   UNK     0      49.626  22.269  39.370  0.00  0.00    -0.650 OA
BRANCH  35  37
HETATM   37  O   UNK     0      50.000  23.441  37.466  0.00  0.00    -0.776 OA
HETATM   38  H   UNK     0      50.375  23.526  36.535  0.00  0.00     0.167 HD
ENDBRANCH  35  37
ENDBRANCH  34  35
ENDBRANCH  33  34
ENDBRANCH   6  33
BRANCH  27  39
HETATM   39  C   UNK     0      49.530  11.180  37.668  0.00  0.00     0.051 C 
BRANCH  39  40
HETATM   40  C   UNK     0      50.596  10.191  37.828  0.00  0.00     0.114 C 
BRANCH  40  41
HETATM   41  C   UNK     0      51.040   9.740  39.128  0.00  0.00     0.139 C 
HETATM   42  O   UNK     0      50.929  10.415  40.160  0.00  0.00    -0.650 OA
BRANCH  41  43
HETATM   43  O   UNK     0      51.640   8.454  39.245  0.00  0.00    -0.776 OA
HETATM   44  H   UNK     0      51.731   7.952  38.370  0.00  0.00     0.167 HD
ENDBRANCH  41  43
ENDBRANCH  40  41
ENDBRANCH  39  40
ENDBRANCH  27  39
BRANCH  11  45
HETATM   45  C   UNK     0      44.816  18.283  31.953  0.00  0.00     0.051 C 
BRANCH  45  46
HETATM   46  C   UNK     0      45.336  17.598  30.742  0.00  0.00     0.114 C 
BRANCH  46  47
HETATM   47  C   UNK     0      44.168  16.992  30.041  0.00  0.00     0.139 C 
HETATM   48  O   UNK     0      43.059  17.036  30.592  0.00  0.00    -0.650 OA
BRANCH  47  49
HETATM   49  O   UNK     0      44.316  16.397  28.814  0.00  0.00    -0.776 OA
HETATM   50  H   UNK     0      44.451  16.945  27.956  0.00  0.00     0.167 HD
ENDBRANCH  47  49
ENDBRANCH  46  47
ENDBRANCH  45  46
ENDBRANCH  11  45
BRANCH  18  51
HETATM   51  C   UNK     0      46.444  11.508  32.403  0.00  0.00     0.051 C 
BRANCH  51  52
HETATM   52  C   UNK     0      47.659  11.757  31.522  0.00  0.00     0.114 C 
BRANCH  52  53
HETATM   53  C   UNK     0      47.300  11.805  30.091  0.00  0.00     0.139 C 
HETATM   54  O   UNK     0      46.147  11.519  29.730  0.00  0.00    -0.650 OA
BRANCH  53  55
HETATM   55  O   UNK     0      48.248  12.163  29.164  0.00  0.00    -0.776 OA
HETATM   56  H   UNK     0      48.779  11.541  28.601  0.00  0.00     0.167 HD
ENDBRANCH  53  55
ENDBRANCH  52  53
ENDBRANCH  51  52
ENDBRANCH  18  51
TORSDOF 16
ENDMDL
MODEL 20
REMARK VINA RESULT:      -8.9     29.060     30.962
REMARK  16 active torsions:
REMARK  status: ('A' for Active; 'I' for Inactive)
REMARK    1  A    between atoms: C_6  and  C_7 
REMARK    2  A    between atoms: C_7  and  C_8 
REMARK    3  A    between atoms: C_8  and  C_9 
REMARK    4  A    between atoms: C_9  and  O_11 
REMARK    5  A    between atoms: C_16  and  C_17 
REMARK    6  A    between atoms: C_17  and  C_18 
REMARK    7  A    between atoms: C_18  and  C_19 
REMARK    8  A    between atoms: C_19  and  O_21 
REMARK    9  A    between atoms: C_28  and  C_29 
REMARK   10  A    between atoms: C_29  and  C_30 
REMARK   11  A    between atoms: C_30  and  C_31 
REMARK   12  A    between atoms: C_31  and  O_33 
REMARK   13  A    between atoms: C_42  and  C_43 
REMARK   14  A    between atoms: C_43  and  C_44 
REMARK   15  A    between atoms: C_44  and  C_45 
REMARK   16  A    between atoms: C_45  and  O_47 
ROOT
HETATM    1  C   UNK     0      50.259  18.919  36.731  0.00  0.00     0.051 C 
HETATM    2  C   UNK     0      49.504  18.734  35.431  0.00  0.00    -0.031 A 
HETATM    3  C   UNK     0      49.579  17.702  34.509  0.00  0.00     0.021 A 
HETATM    4  N   UNK     0      48.743  17.970  33.478  0.00  0.00    -0.361 N 
HETATM    5  C   UNK     0      48.130  19.146  33.727  0.00  0.00     0.022 A 
HETATM    6  C   UNK     0      48.585  19.652  34.940  0.00  0.00    -0.027 A 
HETATM    7  C   UNK     0      47.053  19.840  32.954  0.00  0.00     0.115 C 
HETATM    8  C   UNK     0      45.928  18.971  32.421  0.00  0.00     0.021 A 
HETATM    9  N   UNK     0      45.365  17.892  32.986  0.00  0.00    -0.361 N 
HETATM   10  C   UNK     0      44.468  17.382  32.116  0.00  0.00     0.022 A 
HETATM   11  C   UNK     0      44.446  18.160  30.962  0.00  0.00    -0.027 A 
HETATM   12  C   UNK     0      45.363  19.162  31.147  0.00  0.00    -0.031 A 
HETATM   13  C   UNK     0      45.678  20.255  30.150  0.00  0.00     0.051 C 
HETATM   14  C   UNK     0      43.638  16.117  32.315  0.00  0.00     0.115 C 
HETATM   15  C   UNK     0      44.469  14.856  32.485  0.00  0.00     0.021 A 
HETATM   16  N   UNK     0      45.399  14.606  33.426  0.00  0.00    -0.361 N 
HETATM   17  C   UNK     0      45.952  13.414  33.190  0.00  0.00     0.022 A 
HETATM   18  C   UNK     0      45.346  12.857  32.046  0.00  0.00    -0.027 A 
HETATM   19  C   UNK     0      44.419  13.769  31.615  0.00  0.00    -0.031 A 
HETATM   20  C   UNK     0      43.509  13.547  30.420  0.00  0.00     0.051 C 
HETATM   21  C   UNK     0      47.083  12.709  33.904  0.00  0.00     0.115 C 
HETATM   22  C   UNK     0      48.187  13.565  34.478  0.00  0.00     0.022 A 
HETATM   23  N   UNK     0      48.764  14.647  33.939  0.00  0.00    -0.361 N 
HETATM   24  C   UNK     0      49.597  15.183  34.853  0.00  0.00     0.021 A 
HETATM   25  C   UNK     0      49.563  14.422  36.006  0.00  0.00    -0.031 A 
HETATM   26  C   UNK     0      50.350  14.598  37.288  0.00  0.00     0.051 C 
HETATM   27  C   UNK     0      48.668  13.380  35.790  0.00  0.00    -0.027 A 
HETATM   28  C   UNK     0      50.402  16.466  34.738  0.00  0.00     0.115 C 
HETATM   29  H   UNK     0      48.622  17.346  32.562  0.00  0.00     0.165 HD
HETATM   30  H   UNK     0      45.563  17.517  34.020  0.00  0.00     0.165 HD
HETATM   31  H   UNK     0      45.638  15.263  34.302  0.00  0.00     0.165 HD
HETATM   32  H   UNK     0      48.621  15.018  32.890  0.00  0.00     0.165 HD
ENDROOT
BRANCH   6  33
HETATM   33  C   UNK     0      48.219  20.928  35.657  0.00  0.00     0.051 C 
BRANCH  33  34
HETATM   34  C   UNK     0      46.867  20.802  36.316  0.00  0.00     0.114 C 
BRANCH  34  35
HETATM   35  C   UNK     0      47.005  21.295  37.717  0.00  0.00     0.139 C 
HETATM   36  O   UNK     0      46.941  22.534  37.965  0.00  0.00    -0.650 OA
BRANCH  35  37
HETATM   37  O   UNK     0      47.205  20.441  38.795  0.00  0.00    -0.776 OA
HETATM   38  H   UNK     0      47.938  20.594  39.469  0.00  0.00     0.167 HD
ENDBRANCH  35  37
ENDBRANCH  34  35
ENDBRANCH  33  34
ENDBRANCH   6  33
BRANCH  27  39
HETATM   39  C   UNK     0      48.419  12.305  36.788  0.00  0.00     0.051 C 
BRANCH  39  40
HETATM   40  C   UNK     0      49.283  11.126  36.769  0.00  0.00     0.114 C 
BRANCH  40  41
HETATM   41  C   UNK     0      49.472  10.289  37.932  0.00  0.00     0.139 C 
HETATM   42  O   UNK     0      50.484   9.601  38.123  0.00  0.00    -0.650 OA
BRANCH  41  43
HETATM   43  O   UNK     0      48.449  10.241  38.922  0.00  0.00    -0.776 OA
HETATM   44  H   UNK     0      48.568   9.509  39.612  0.00  0.00     0.167 HD
ENDBRANCH  41  43
ENDBRANCH  40  41
ENDBRANCH  39  40
ENDBRANCH  27  39
BRANCH  11  45
HETATM   45  C   UNK     0      43.604  17.987  29.726  0.00  0.00     0.051 C 
BRANCH  45  46
HETATM   46  C   UNK     0      44.055  16.889  28.834  0.00  0.00     0.114 C 
BRANCH  46  47
HETATM   47  C   UNK     0      42.957  16.634  27.857  0.00  0.00     0.139 C 
HETATM   48  O   UNK     0      41.895  17.258  27.985  0.00  0.00    -0.650 OA
BRANCH  47  49
HETATM   49  O   UNK     0      43.118  15.728  26.840  0.00  0.00    -0.776 OA
HETATM   50  H   UNK     0      43.380  16.015  25.890  0.00  0.00     0.167 HD
ENDBRANCH  47  49
ENDBRANCH  46  47
ENDBRANCH  45  46
ENDBRANCH  11  45
BRANCH  18  51
HETATM   51  C   UNK     0      45.622  11.518  31.411  0.00  0.00     0.051 C 
BRANCH  51  52
HETATM   52  C   UNK     0      46.669  11.764  30.335  0.00  0.00     0.114 C 
BRANCH  52  53
HETATM   53  C   UNK     0      46.178  11.392  28.995  0.00  0.00     0.139 C 
HETATM   54  O   UNK     0      45.021  10.964  28.854  0.00  0.00    -0.650 OA
BRANCH  53  55
HETATM   55  O   UNK     0      47.008  11.517  27.907  0.00  0.00    -0.776 OA
HETATM   56  H   UNK     0      47.484  12.342  27.628  0.00  0.00     0.167 HD
ENDBRANCH  53  55
ENDBRANCH  52  53
ENDBRANCH  51  52
ENDBRANCH  18  51
TORSDOF 16
ENDMDL
