MODEL 1
REMARK VINA RESULT:     -10.6      0.000      0.000
REMARK  16 active torsions:
REMARK  status: ('A' for Active; 'I' for Inactive)
REMARK    1  A    between atoms: C_6  and  C_7 
REMARK    2  A    between atoms: C_7  and  C_8 
REMARK    3  A    between atoms: C_8  and  C_9 
REMARK    4  A    between atoms: C_9  and  O_11 
REMARK    5  A    between atoms: C_16  and  C_17 
REMARK    6  A    between atoms: C_17  and  C_18 
REMARK    7  A    between atoms: C_18  and  C_19 
REMARK    8  A    between atoms: C_19  and  O_21 
REMARK    9  A    between atoms: C_28  and  C_29 
REMARK   10  A    between atoms: C_29  and  C_30 
REMARK   11  A    between atoms: C_30  and  C_31 
REMARK   12  A    between atoms: C_31  and  O_33 
REMARK   13  A    between atoms: C_42  and  C_43 
REMARK   14  A    between atoms: C_43  and  C_44 
REMARK   15  A    between atoms: C_44  and  C_45 
REMARK   16  A    between atoms: C_45  and  O_47 
ROOT
HETATM    1  C   UNK     0       9.396 -16.007  -1.367  0.00  0.00     0.051 C 
HETATM    2  C   UNK     0      10.381 -14.870  -1.548  0.00  0.00    -0.031 A 
HETATM    3  C   UNK     0      11.200 -14.579  -2.627  0.00  0.00     0.021 A 
HETATM    4  N   UNK     0      11.940 -13.483  -2.337  0.00  0.00    -0.361 N 
HETATM    5  C   UNK     0      11.604 -13.064  -1.100  0.00  0.00     0.022 A 
HETATM    6  C   UNK     0      10.634 -13.910  -0.576  0.00  0.00    -0.027 A 
HETATM    7  C   UNK     0      12.058 -11.850  -0.350  0.00  0.00     0.115 C 
HETATM    8  C   UNK     0      12.150 -10.556  -1.140  0.00  0.00     0.021 A 
HETATM    9  N   UNK     0      11.357 -10.125  -2.133  0.00  0.00    -0.361 N 
HETATM   10  C   UNK     0      11.867  -8.966  -2.603  0.00  0.00     0.022 A 
HETATM   11  C   UNK     0      13.013  -8.637  -1.886  0.00  0.00    -0.027 A 
HETATM   12  C   UNK     0      13.197  -9.635  -0.963  0.00  0.00    -0.031 A 
HETATM   13  C   UNK     0      14.323  -9.696   0.045  0.00  0.00     0.051 C 
HETATM   14  C   UNK     0      11.326  -8.154  -3.776  0.00  0.00     0.115 C 
HETATM   15  C   UNK     0      11.325  -8.905  -5.097  0.00  0.00     0.021 A 
HETATM   16  N   UNK     0      10.701 -10.064  -5.383  0.00  0.00    -0.361 N 
HETATM   17  C   UNK     0      11.004 -10.429  -6.630  0.00  0.00     0.022 A 
HETATM   18  C   UNK     0      11.859  -9.458  -7.188  0.00  0.00    -0.027 A 
HETATM   19  C   UNK     0      12.051  -8.508  -6.218  0.00  0.00    -0.031 A 
HETATM   20  C   UNK     0      12.886  -7.256  -6.416  0.00  0.00     0.051 C 
HETATM   21  C   UNK     0      10.623 -11.674  -7.398  0.00  0.00     0.115 C 
HETATM   22  C   UNK     0      10.485 -12.960  -6.618  0.00  0.00     0.022 A 
HETATM   23  N   UNK     0      11.257 -13.413  -5.621  0.00  0.00    -0.361 N 
HETATM   24  C   UNK     0      10.687 -14.527  -5.117  0.00  0.00     0.021 A 
HETATM   25  C   UNK     0       9.526 -14.803  -5.813  0.00  0.00    -0.031 A 
HETATM   26  C   UNK     0       8.567 -15.964  -5.644  0.00  0.00     0.051 C 
HETATM   27  C   UNK     0       9.375 -13.815  -6.779  0.00  0.00    -0.027 A 
HETATM   28  C   UNK     0      11.143 -15.343  -3.920  0.00  0.00     0.115 C 
HETATM   29  H   UNK     0      12.723 -13.036  -2.993  0.00  0.00     0.165 HD
HETATM   30  H   UNK     0      10.409 -10.610  -2.472  0.00  0.00     0.165 HD
HETATM   31  H   UNK     0       9.993 -10.611  -4.707  0.00  0.00     0.165 HD
HETATM   32  H   UNK     0      12.234 -12.975  -5.292  0.00  0.00     0.165 HD
ENDROOT
BRANCH   6  33
HETATM   33  C   UNK     0       9.938 -13.879   0.762  0.00  0.00     0.051 C 
BRANCH  33  34
HETATM   34  C   UNK     0       9.495 -12.476   1.101  0.00  0.00     0.114 C 
BRANCH  34  35
HETATM   35  C   UNK     0       9.951 -12.187   2.491  0.00  0.00     0.139 C 
HETATM   36  O   UNK     0       9.799 -13.051   3.404  0.00  0.00    -0.650 OA
BRANCH  35  37
HETATM   37  O   UNK     0      10.555 -10.988   2.848  0.00  0.00    -0.776 OA
HETATM   38  H   UNK     0      11.230 -10.930   3.594  0.00  0.00     0.167 HD
ENDBRANCH  35  37
ENDBRANCH  34  35
ENDBRANCH  33  34
ENDBRANCH   6  33
BRANCH  27  39
HETATM   39  C   UNK     0       8.270 -13.817  -7.775  0.00  0.00     0.051 C 
BRANCH  39  40
HETATM   40  C   UNK     0       8.584 -14.164  -9.160  0.00  0.00     0.114 C 
BRANCH  40  41
HETATM   41  C   UNK     0       8.676 -13.168 -10.203  0.00  0.00     0.139 C 
HETATM   42  O   UNK     0       9.222 -13.370 -11.296  0.00  0.00    -0.650 OA
BRANCH  41  43
HETATM   43  O   UNK     0       8.113 -11.879  -9.979  0.00  0.00    -0.776 OA
HETATM   44  H   UNK     0       7.486 -11.828  -9.185  0.00  0.00     0.167 HD
ENDBRANCH  41  43
ENDBRANCH  40  41
ENDBRANCH  39  40
ENDBRANCH  27  39
BRANCH  11  45
HETATM   45  C   UNK     0      13.912  -7.440  -2.044  0.00  0.00     0.051 C 
BRANCH  45  46
HETATM   46  C   UNK     0      13.484  -6.498  -3.109  0.00  0.00     0.114 C 
BRANCH  46  47
HETATM   47  C   UNK     0      14.310  -5.265  -2.966  0.00  0.00     0.139 C 
HETATM   48  O   UNK     0      15.169  -5.023  -3.826  0.00  0.00    -0.650 OA
BRANCH  47  49
HETATM   49  O   UNK     0      14.126  -4.415  -1.904  0.00  0.00    -0.776 OA
HETATM   50  H   UNK     0      14.878  -3.812  -1.552  0.00  0.00     0.167 HD
ENDBRANCH  47  49
ENDBRANCH  46  47
ENDBRANCH  45  46
ENDBRANCH  11  45
BRANCH  18  51
HETATM   51  C   UNK     0      12.444  -9.425  -8.576  0.00  0.00     0.051 C 
BRANCH  51  52
HETATM   52  C   UNK     0      11.392  -8.782  -9.467  0.00  0.00     0.114 C 
BRANCH  52  53
HETATM   53  C   UNK     0      11.274  -9.474 -10.765  0.00  0.00     0.139 C 
HETATM   54  O   UNK     0      12.082  -9.229 -11.675  0.00  0.00    -0.650 OA
BRANCH  53  55
HETATM   55  O   UNK     0      10.264 -10.385 -10.960  0.00  0.00    -0.776 OA
HETATM   56  H   UNK     0       9.337 -10.177 -11.247  0.00  0.00     0.167 HD
ENDBRANCH  53  55
ENDBRANCH  52  53
ENDBRANCH  51  52
ENDBRANCH  18  51
TORSDOF 16
ENDMDL
MODEL 2
REMARK VINA RESULT:     -10.2      2.250      6.957
REMARK  16 active torsions:
REMARK  status: ('A' for Active; 'I' for Inactive)
REMARK    1  A    between atoms: C_6  and  C_7 
REMARK    2  A    between atoms: C_7  and  C_8 
REMARK    3  A    between atoms: C_8  and  C_9 
REMARK    4  A    between atoms: C_9  and  O_11 
REMARK    5  A    between atoms: C_16  and  C_17 
REMARK    6  A    between atoms: C_17  and  C_18 
REMARK    7  A    between atoms: C_18  and  C_19 
REMARK    8  A    between atoms: C_19  and  O_21 
REMARK    9  A    between atoms: C_28  and  C_29 
REMARK   10  A    between atoms: C_29  and  C_30 
REMARK   11  A    between atoms: C_30  and  C_31 
REMARK   12  A    between atoms: C_31  and  O_33 
REMARK   13  A    between atoms: C_42  and  C_43 
REMARK   14  A    between atoms: C_43  and  C_44 
REMARK   15  A    between atoms: C_44  and  C_45 
REMARK   16  A    between atoms: C_45  and  O_47 
ROOT
HETATM    1  C   UNK     0      13.661  -7.143  -2.354  0.00  0.00     0.051 C 
HETATM    2  C   UNK     0      12.747  -8.333  -2.143  0.00  0.00    -0.031 A 
HETATM    3  C   UNK     0      11.610  -8.703  -2.844  0.00  0.00     0.021 A 
HETATM    4  N   UNK     0      11.093  -9.824  -2.285  0.00  0.00    -0.361 N 
HETATM    5  C   UNK     0      11.881 -10.180  -1.250  0.00  0.00     0.022 A 
HETATM    6  C   UNK     0      12.924  -9.267  -1.131  0.00  0.00    -0.027 A 
HETATM    7  C   UNK     0      11.805 -11.386  -0.367  0.00  0.00     0.115 C 
HETATM    8  C   UNK     0      11.510 -12.711  -1.047  0.00  0.00     0.021 A 
HETATM    9  N   UNK     0      11.910 -13.139  -2.254  0.00  0.00    -0.361 N 
HETATM   10  C   UNK     0      11.335 -14.338  -2.486  0.00  0.00     0.022 A 
HETATM   11  C   UNK     0      10.550 -14.697  -1.394  0.00  0.00    -0.027 A 
HETATM   12  C   UNK     0      10.656 -13.676  -0.484  0.00  0.00    -0.031 A 
HETATM   13  C   UNK     0       9.972 -13.634   0.865  0.00  0.00     0.051 C 
HETATM   14  C   UNK     0      11.458 -15.166  -3.762  0.00  0.00     0.115 C 
HETATM   15  C   UNK     0      10.933 -14.464  -5.004  0.00  0.00     0.021 A 
HETATM   16  N   UNK     0      11.340 -13.287  -5.517  0.00  0.00    -0.361 N 
HETATM   17  C   UNK     0      10.581 -12.984  -6.573  0.00  0.00     0.022 A 
HETATM   18  C   UNK     0       9.642 -14.016  -6.763  0.00  0.00    -0.027 A 
HETATM   19  C   UNK     0       9.873 -14.938  -5.775  0.00  0.00    -0.031 A 
HETATM   20  C   UNK     0       9.100 -16.236  -5.634  0.00  0.00     0.051 C 
HETATM   21  C   UNK     0      10.582 -11.750  -7.447  0.00  0.00     0.115 C 
HETATM   22  C   UNK     0      10.918 -10.431  -6.792  0.00  0.00     0.022 A 
HETATM   23  N   UNK     0      10.537  -9.981  -5.590  0.00  0.00    -0.361 N 
HETATM   24  C   UNK     0      11.183  -8.822  -5.347  0.00  0.00     0.021 A 
HETATM   25  C   UNK     0      11.992  -8.514  -6.424  0.00  0.00    -0.031 A 
HETATM   26  C   UNK     0      12.876  -7.303  -6.637  0.00  0.00     0.051 C 
HETATM   27  C   UNK     0      11.839  -9.529  -7.362  0.00  0.00    -0.027 A 
HETATM   28  C   UNK     0      11.147  -7.986  -4.080  0.00  0.00     0.115 C 
HETATM   29  H   UNK     0      10.153 -10.332  -2.602  0.00  0.00     0.165 HD
HETATM   30  H   UNK     0      12.638 -12.620  -2.924  0.00  0.00     0.165 HD
HETATM   31  H   UNK     0      12.211 -12.681  -5.156  0.00  0.00     0.165 HD
HETATM   32  H   UNK     0       9.774 -10.455  -4.919  0.00  0.00     0.165 HD
ENDROOT
BRANCH   6  33
HETATM   33  C   UNK     0      14.059  -9.215  -0.140  0.00  0.00     0.051 C 
BRANCH  33  34
HETATM   34  C   UNK     0      13.600  -8.618   1.169  0.00  0.00     0.114 C 
BRANCH  34  35
HETATM   35  C   UNK     0      14.028  -9.545   2.256  0.00  0.00     0.139 C 
HETATM   36  O   UNK     0      13.314 -10.545   2.558  0.00  0.00    -0.650 OA
BRANCH  35  37
HETATM   37  O   UNK     0      15.203  -9.365   2.975  0.00  0.00    -0.776 OA
HETATM   38  H   UNK     0      15.389  -8.521   3.493  0.00  0.00     0.167 HD
ENDBRANCH  35  37
ENDBRANCH  34  35
ENDBRANCH  33  34
ENDBRANCH   6  33
BRANCH  27  39
HETATM   39  C   UNK     0      12.504  -9.509  -8.693  0.00  0.00     0.051 C 
BRANCH  39  40
HETATM   40  C   UNK     0      11.663  -9.541  -9.889  0.00  0.00     0.114 C 
BRANCH  40  41
HETATM   41  C   UNK     0      11.259 -10.780 -10.515  0.00  0.00     0.139 C 
HETATM   42  O   UNK     0      12.035 -11.720 -10.733  0.00  0.00    -0.650 OA
BRANCH  41  43
HETATM   43  O   UNK     0       9.900 -10.945 -10.909  0.00  0.00    -0.776 OA
HETATM   44  H   UNK     0       9.233 -10.454 -10.326  0.00  0.00     0.167 HD
ENDBRANCH  41  43
ENDBRANCH  40  41
ENDBRANCH  39  40
ENDBRANCH  27  39
BRANCH  11  45
HETATM   45  C   UNK     0       9.729 -15.942  -1.193  0.00  0.00     0.051 C 
BRANCH  45  46
HETATM   46  C   UNK     0      10.382 -17.184  -1.679  0.00  0.00     0.114 C 
BRANCH  46  47
HETATM   47  C   UNK     0       9.299 -18.165  -1.978  0.00  0.00     0.139 C 
HETATM   48  O   UNK     0       9.267 -18.687  -3.101  0.00  0.00    -0.650 OA
BRANCH  47  49
HETATM   49  O   UNK     0       8.358 -18.482  -1.032  0.00  0.00    -0.776 OA
HETATM   50  H   UNK     0       8.255 -19.435  -0.663  0.00  0.00     0.167 HD
ENDBRANCH  47  49
ENDBRANCH  46  47
ENDBRANCH  45  46
ENDBRANCH  11  45
BRANCH  18  51
HETATM   51  C   UNK     0       8.594 -14.129  -7.840  0.00  0.00     0.051 C 
BRANCH  51  52
HETATM   52  C   UNK     0       7.248 -14.085  -7.132  0.00  0.00     0.114 C 
BRANCH  52  53
HETATM   53  C   UNK     0       6.386 -15.217  -7.522  0.00  0.00     0.139 C 
HETATM   54  O   UNK     0       5.364 -15.475  -6.865  0.00  0.00    -0.650 OA
BRANCH  53  55
HETATM   55  O   UNK     0       6.721 -15.984  -8.611  0.00  0.00    -0.776 OA
HETATM   56  H   UNK     0       7.339 -15.721  -9.342  0.00  0.00     0.167 HD
ENDBRANCH  53  55
ENDBRANCH  52  53
ENDBRANCH  51  52
ENDBRANCH  18  51
TORSDOF 16
ENDMDL
MODEL 3
REMARK VINA RESULT:      -9.7     28.151     31.113
REMARK  16 active torsions:
REMARK  status: ('A' for Active; 'I' for Inactive)
REMARK    1  A    between atoms: C_6  and  C_7 
REMARK    2  A    between atoms: C_7  and  C_8 
REMARK    3  A    between atoms: C_8  and  C_9 
REMARK    4  A    between atoms: C_9  and  O_11 
REMARK    5  A    between atoms: C_16  and  C_17 
REMARK    6  A    between atoms: C_17  and  C_18 
REMARK    7  A    between atoms: C_18  and  C_19 
REMARK    8  A    between atoms: C_19  and  O_21 
REMARK    9  A    between atoms: C_28  and  C_29 
REMARK   10  A    between atoms: C_29  and  C_30 
REMARK   11  A    between atoms: C_30  and  C_31 
REMARK   12  A    between atoms: C_31  and  O_33 
REMARK   13  A    between atoms: C_42  and  C_43 
REMARK   14  A    between atoms: C_43  and  C_44 
REMARK   15  A    between atoms: C_44  and  C_45 
REMARK   16  A    between atoms: C_45  and  O_47 
ROOT
HETATM    1  C   UNK     0     -10.713   9.622 -13.099  0.00  0.00     0.051 C 
HETATM    2  C   UNK     0     -11.247   8.308 -12.566  0.00  0.00    -0.031 A 
HETATM    3  C   UNK     0     -10.645   7.393 -11.717  0.00  0.00     0.021 A 
HETATM    4  N   UNK     0     -11.481   6.344 -11.533  0.00  0.00    -0.361 N 
HETATM    5  C   UNK     0     -12.607   6.574 -12.241  0.00  0.00     0.022 A 
HETATM    6  C   UNK     0     -12.493   7.793 -12.901  0.00  0.00    -0.027 A 
HETATM    7  C   UNK     0     -13.871   5.776 -12.304  0.00  0.00     0.115 C 
HETATM    8  C   UNK     0     -14.397   5.226 -10.990  0.00  0.00     0.021 A 
HETATM    9  N   UNK     0     -14.353   5.786  -9.771  0.00  0.00    -0.361 N 
HETATM   10  C   UNK     0     -14.855   4.901  -8.884  0.00  0.00     0.022 A 
HETATM   11  C   UNK     0     -15.241   3.742  -9.551  0.00  0.00    -0.027 A 
HETATM   12  C   UNK     0     -14.956   3.940 -10.878  0.00  0.00    -0.031 A 
HETATM   13  C   UNK     0     -15.212   2.943 -11.985  0.00  0.00     0.051 C 
HETATM   14  C   UNK     0     -14.941   5.090  -7.373  0.00  0.00     0.115 C 
HETATM   15  C   UNK     0     -13.592   5.284  -6.699  0.00  0.00     0.021 A 
HETATM   16  N   UNK     0     -12.681   6.245  -6.945  0.00  0.00    -0.361 N 
HETATM   17  C   UNK     0     -11.600   6.027  -6.193  0.00  0.00     0.022 A 
HETATM   18  C   UNK     0     -11.820   4.874  -5.413  0.00  0.00    -0.027 A 
HETATM   19  C   UNK     0     -13.072   4.420  -5.738  0.00  0.00    -0.031 A 
HETATM   20  C   UNK     0     -13.723   3.209  -5.095  0.00  0.00     0.051 C 
HETATM   21  C   UNK     0     -10.282   6.767  -6.148  0.00  0.00     0.115 C 
HETATM   22  C   UNK     0      -9.769   7.358  -7.440  0.00  0.00     0.022 A 
HETATM   23  N   UNK     0      -9.803   6.824  -8.668  0.00  0.00    -0.361 N 
HETATM   24  C   UNK     0      -9.371   7.752  -9.545  0.00  0.00     0.021 A 
HETATM   25  C   UNK     0      -9.041   8.908  -8.865  0.00  0.00    -0.031 A 
HETATM   26  C   UNK     0      -8.475  10.205  -9.406  0.00  0.00     0.051 C 
HETATM   27  C   UNK     0      -9.287   8.680  -7.515  0.00  0.00    -0.027 A 
HETATM   28  C   UNK     0      -9.317   7.646 -11.060  0.00  0.00     0.115 C 
HETATM   29  H   UNK     0     -11.255   5.430 -10.937  0.00  0.00     0.165 HD
HETATM   30  H   UNK     0     -14.014   6.826  -9.541  0.00  0.00     0.165 HD
HETATM   31  H   UNK     0     -12.822   7.122  -7.628  0.00  0.00     0.165 HD
HETATM   32  H   UNK     0     -10.092   5.771  -8.922  0.00  0.00     0.165 HD
ENDROOT
BRANCH   6  33
HETATM   33  C   UNK     0     -13.464   8.495 -13.816  0.00  0.00     0.051 C 
BRANCH  33  34
HETATM   34  C   UNK     0     -14.204   9.585 -13.077  0.00  0.00     0.114 C 
BRANCH  34  35
HETATM   35  C   UNK     0     -15.504   9.013 -12.625  0.00  0.00     0.139 C 
HETATM   36  O   UNK     0     -15.683   8.723 -11.406  0.00  0.00    -0.650 OA
BRANCH  35  37
HETATM   37  O   UNK     0     -16.562   8.777 -13.494  0.00  0.00    -0.776 OA
HETATM   38  H   UNK     0     -16.791   7.851 -13.818  0.00  0.00     0.167 HD
ENDBRANCH  35  37
ENDBRANCH  34  35
ENDBRANCH  33  34
ENDBRANCH   6  33
BRANCH  27  39
HETATM   39  C   UNK     0      -8.983   9.680  -6.456  0.00  0.00     0.051 C 
BRANCH  39  40
HETATM   40  C   UNK     0      -7.706   9.576  -5.750  0.00  0.00     0.114 C 
BRANCH  40  41
HETATM   41  C   UNK     0      -7.444   8.537  -4.780  0.00  0.00     0.139 C 
HETATM   42  O   UNK     0      -7.645   8.670  -3.565  0.00  0.00    -0.650 OA
BRANCH  41  43
HETATM   43  O   UNK     0      -6.928   7.287  -5.227  0.00  0.00    -0.776 OA
HETATM   44  H   UNK     0      -6.594   6.682  -4.486  0.00  0.00     0.167 HD
ENDBRANCH  41  43
ENDBRANCH  40  41
ENDBRANCH  39  40
ENDBRANCH  27  39
BRANCH  11  45
HETATM   45  C   UNK     0     -15.858   2.491  -8.985  0.00  0.00     0.051 C 
BRANCH  45  46
HETATM   46  C   UNK     0     -17.105   2.066  -9.671  0.00  0.00     0.114 C 
BRANCH  46  47
HETATM   47  C   UNK     0     -17.746   1.027  -8.816  0.00  0.00     0.139 C 
HETATM   48  O   UNK     0     -18.827   0.544  -9.181  0.00  0.00    -0.650 OA
BRANCH  47  49
HETATM   49  O   UNK     0     -17.154   0.613  -7.649  0.00  0.00    -0.776 OA
HETATM   50  H   UNK     0     -16.305   1.058  -7.281  0.00  0.00     0.167 HD
ENDBRANCH  47  49
ENDBRANCH  46  47
ENDBRANCH  45  46
ENDBRANCH  11  45
BRANCH  18  51
HETATM   51  C   UNK     0     -10.897   4.253  -4.397  0.00  0.00     0.051 C 
BRANCH  51  52
HETATM   52  C   UNK     0     -11.008   5.105  -3.142  0.00  0.00     0.114 C 
BRANCH  52  53
HETATM   53  C   UNK     0      -9.789   5.903  -2.909  0.00  0.00     0.139 C 
HETATM   54  O   UNK     0      -9.858   6.978  -2.292  0.00  0.00    -0.650 OA
BRANCH  53  55
HETATM   55  O   UNK     0      -8.581   5.451  -3.383  0.00  0.00    -0.776 OA
HETATM   56  H   UNK     0      -8.444   4.882  -4.184  0.00  0.00     0.167 HD
ENDBRANCH  53  55
ENDBRANCH  52  53
ENDBRANCH  51  52
ENDBRANCH  18  51
TORSDOF 16
ENDMDL
MODEL 4
REMARK VINA RESULT:      -9.6      2.512      7.730
REMARK  16 active torsions:
REMARK  status: ('A' for Active; 'I' for Inactive)
REMARK    1  A    between atoms: C_6  and  C_7 
REMARK    2  A    between atoms: C_7  and  C_8 
REMARK    3  A    between atoms: C_8  and  C_9 
REMARK    4  A    between atoms: C_9  and  O_11 
REMARK    5  A    between atoms: C_16  and  C_17 
REMARK    6  A    between atoms: C_17  and  C_18 
REMARK    7  A    between atoms: C_18  and  C_19 
REMARK    8  A    between atoms: C_19  and  O_21 
REMARK    9  A    between atoms: C_28  and  C_29 
REMARK   10  A    between atoms: C_29  and  C_30 
REMARK   11  A    between atoms: C_30  and  C_31 
REMARK   12  A    between atoms: C_31  and  O_33 
REMARK   13  A    between atoms: C_42  and  C_43 
REMARK   14  A    between atoms: C_43  and  C_44 
REMARK   15  A    between atoms: C_44  and  C_45 
REMARK   16  A    between atoms: C_45  and  O_47 
ROOT
HETATM    1  C   UNK     0      10.724 -14.382  -1.023  0.00  0.00     0.051 C 
HETATM    2  C   UNK     0      10.153 -13.926  -2.351  0.00  0.00    -0.031 A 
HETATM    3  C   UNK     0       9.687 -12.676  -2.725  0.00  0.00     0.021 A 
HETATM    4  N   UNK     0       9.239 -12.736  -4.002  0.00  0.00    -0.361 N 
HETATM    5  C   UNK     0       9.417 -13.995  -4.452  0.00  0.00     0.022 A 
HETATM    6  C   UNK     0       9.985 -14.767  -3.443  0.00  0.00    -0.027 A 
HETATM    7  C   UNK     0       9.176 -14.561  -5.816  0.00  0.00     0.115 C 
HETATM    8  C   UNK     0       9.613 -13.709  -6.995  0.00  0.00     0.021 A 
HETATM    9  N   UNK     0      10.680 -12.902  -7.093  0.00  0.00    -0.361 N 
HETATM   10  C   UNK     0      10.622 -12.272  -8.286  0.00  0.00     0.022 A 
HETATM   11  C   UNK     0       9.491 -12.693  -8.979  0.00  0.00    -0.027 A 
HETATM   12  C   UNK     0       8.851 -13.598  -8.171  0.00  0.00    -0.031 A 
HETATM   13  C   UNK     0       7.570 -14.325  -8.517  0.00  0.00     0.051 C 
HETATM   14  C   UNK     0      11.596 -11.214  -8.795  0.00  0.00     0.115 C 
HETATM   15  C   UNK     0      11.659  -9.966  -7.929  0.00  0.00     0.021 A 
HETATM   16  N   UNK     0      11.980  -9.887  -6.624  0.00  0.00    -0.361 N 
HETATM   17  C   UNK     0      11.849  -8.623  -6.216  0.00  0.00     0.022 A 
HETATM   18  C   UNK     0      11.432  -7.839  -7.310  0.00  0.00    -0.027 A 
HETATM   19  C   UNK     0      11.318  -8.692  -8.377  0.00  0.00    -0.031 A 
HETATM   20  C   UNK     0      10.924  -8.248  -9.774  0.00  0.00     0.051 C 
HETATM   21  C   UNK     0      12.017  -8.024  -4.839  0.00  0.00     0.115 C 
HETATM   22  C   UNK     0      11.628  -8.877  -3.654  0.00  0.00     0.022 A 
HETATM   23  N   UNK     0      10.573  -9.694  -3.531  0.00  0.00    -0.361 N 
HETATM   24  C   UNK     0      10.694 -10.368  -2.369  0.00  0.00     0.021 A 
HETATM   25  C   UNK     0      11.849  -9.968  -1.725  0.00  0.00    -0.031 A 
HETATM   26  C   UNK     0      12.390 -10.407  -0.380  0.00  0.00     0.051 C 
HETATM   27  C   UNK     0      12.464  -9.015  -2.528  0.00  0.00    -0.027 A 
HETATM   28  C   UNK     0       9.793 -11.469  -1.836  0.00  0.00     0.115 C 
HETATM   29  H   UNK     0       8.763 -11.898  -4.563  0.00  0.00     0.165 HD
HETATM   30  H   UNK     0      11.504 -12.811  -6.343  0.00  0.00     0.165 HD
HETATM   31  H   UNK     0      12.352 -10.732  -5.988  0.00  0.00     0.165 HD
HETATM   32  H   UNK     0       9.711  -9.770  -4.242  0.00  0.00     0.165 HD
ENDROOT
BRANCH   6  33
HETATM   33  C   UNK     0      10.371 -16.224  -3.438  0.00  0.00     0.051 C 
BRANCH  33  34
HETATM   34  C   UNK     0      11.791 -16.403  -3.923  0.00  0.00     0.114 C 
BRANCH  34  35
HETATM   35  C   UNK     0      12.438 -17.420  -3.045  0.00  0.00     0.139 C 
HETATM   36  O   UNK     0      12.534 -17.217  -1.800  0.00  0.00    -0.650 OA
BRANCH  35  37
HETATM   37  O   UNK     0      12.953 -18.614  -3.535  0.00  0.00    -0.776 OA
HETATM   38  H   UNK     0      13.787 -19.032  -3.155  0.00  0.00     0.167 HD
ENDBRANCH  35  37
ENDBRANCH  34  35
ENDBRANCH  33  34
ENDBRANCH   6  33
BRANCH  27  39
HETATM   39  C   UNK     0      13.705  -8.297  -2.128  0.00  0.00     0.051 C 
BRANCH  39  40
HETATM   40  C   UNK     0      13.606  -6.879  -1.786  0.00  0.00     0.114 C 
BRANCH  40  41
HETATM   41  C   UNK     0      14.157  -5.842  -2.630  0.00  0.00     0.139 C 
HETATM   42  O   UNK     0      14.146  -5.891  -3.867  0.00  0.00    -0.650 OA
BRANCH  41  43
HETATM   43  O   UNK     0      14.746  -4.697  -2.023  0.00  0.00    -0.776 OA
HETATM   44  H   UNK     0      14.083  -4.065  -1.589  0.00  0.00     0.167 HD
ENDBRANCH  41  43
ENDBRANCH  40  41
ENDBRANCH  39  40
ENDBRANCH  27  39
BRANCH  11  45
HETATM   45  C   UNK     0       9.014 -12.276 -10.344  0.00  0.00     0.051 C 
BRANCH  45  46
HETATM   46  C   UNK     0       9.446 -13.182 -11.439  0.00  0.00     0.114 C 
BRANCH  46  47
HETATM   47  C   UNK     0       8.214 -13.673 -12.119  0.00  0.00     0.139 C 
HETATM   48  O   UNK     0       7.113 -13.287 -11.701  0.00  0.00    -0.650 OA
BRANCH  47  49
HETATM   49  O   UNK     0       8.294 -14.535 -13.183  0.00  0.00    -0.776 OA
HETATM   50  H   UNK     0       7.485 -15.079 -13.507  0.00  0.00     0.167 HD
ENDBRANCH  47  49
ENDBRANCH  46  47
ENDBRANCH  45  46
ENDBRANCH  11  45
BRANCH  18  51
HETATM   51  C   UNK     0      11.177  -6.354  -7.342  0.00  0.00     0.051 C 
BRANCH  51  52
HETATM   52  C   UNK     0      12.500  -5.702  -7.714  0.00  0.00     0.114 C 
BRANCH  52  53
HETATM   53  C   UNK     0      12.349  -4.749  -8.830  0.00  0.00     0.139 C 
HETATM   54  O   UNK     0      11.492  -4.949  -9.706  0.00  0.00    -0.650 OA
BRANCH  53  55
HETATM   55  O   UNK     0      13.164  -3.645  -8.896  0.00  0.00    -0.776 OA
HETATM   56  H   UNK     0      13.208  -2.911  -8.230  0.00  0.00     0.167 HD
ENDBRANCH  53  55
ENDBRANCH  52  53
ENDBRANCH  51  52
ENDBRANCH  18  51
TORSDOF 16
ENDMDL
MODEL 5
REMARK VINA RESULT:      -9.4      4.836      8.159
REMARK  16 active torsions:
REMARK  status: ('A' for Active; 'I' for Inactive)
REMARK    1  A    between atoms: C_6  and  C_7 
REMARK    2  A    between atoms: C_7  and  C_8 
REMARK    3  A    between atoms: C_8  and  C_9 
REMARK    4  A    between atoms: C_9  and  O_11 
REMARK    5  A    between atoms: C_16  and  C_17 
REMARK    6  A    between atoms: C_17  and  C_18 
REMARK    7  A    between atoms: C_18  and  C_19 
REMARK    8  A    between atoms: C_19  and  O_21 
REMARK    9  A    between atoms: C_28  and  C_29 
REMARK   10  A    between atoms: C_29  and  C_30 
REMARK   11  A    between atoms: C_30  and  C_31 
REMARK   12  A    between atoms: C_31  and  O_33 
REMARK   13  A    between atoms: C_42  and  C_43 
REMARK   14  A    between atoms: C_43  and  C_44 
REMARK   15  A    between atoms: C_44  and  C_45 
REMARK   16  A    between atoms: C_45  and  O_47 
ROOT
HETATM    1  C   UNK     0       4.123 -21.234  -7.641  0.00  0.00     0.051 C 
HETATM    2  C   UNK     0       5.422 -20.539  -7.286  0.00  0.00    -0.031 A 
HETATM    3  C   UNK     0       6.355 -19.940  -8.118  0.00  0.00     0.021 A 
HETATM    4  N   UNK     0       7.380 -19.473  -7.367  0.00  0.00    -0.361 N 
HETATM    5  C   UNK     0       7.117 -19.752  -6.074  0.00  0.00     0.022 A 
HETATM    6  C   UNK     0       5.901 -20.422  -5.987  0.00  0.00    -0.027 A 
HETATM    7  C   UNK     0       7.878 -19.371  -4.843  0.00  0.00     0.115 C 
HETATM    8  C   UNK     0       8.416 -17.952  -4.786  0.00  0.00     0.021 A 
HETATM    9  N   UNK     0       7.858 -16.828  -5.261  0.00  0.00    -0.361 N 
HETATM   10  C   UNK     0       8.730 -15.815  -5.070  0.00  0.00     0.022 A 
HETATM   11  C   UNK     0       9.877 -16.299  -4.446  0.00  0.00    -0.027 A 
HETATM   12  C   UNK     0       9.685 -17.645  -4.264  0.00  0.00    -0.031 A 
HETATM   13  C   UNK     0      10.673 -18.588  -3.615  0.00  0.00     0.051 C 
HETATM   14  C   UNK     0       8.541 -14.367  -5.513  0.00  0.00     0.115 C 
HETATM   15  C   UNK     0       8.387 -14.199  -7.016  0.00  0.00     0.021 A 
HETATM   16  N   UNK     0       7.453 -14.750  -7.813  0.00  0.00    -0.361 N 
HETATM   17  C   UNK     0       7.703 -14.414  -9.081  0.00  0.00     0.022 A 
HETATM   18  C   UNK     0       8.850 -13.596  -9.110  0.00  0.00    -0.027 A 
HETATM   19  C   UNK     0       9.268 -13.468  -7.811  0.00  0.00    -0.031 A 
HETATM   20  C   UNK     0      10.461 -12.630  -7.387  0.00  0.00     0.051 C 
HETATM   21  C   UNK     0       7.001 -14.830 -10.353  0.00  0.00     0.115 C 
HETATM   22  C   UNK     0       6.422 -16.224 -10.407  0.00  0.00     0.022 A 
HETATM   23  N   UNK     0       6.953 -17.361  -9.939  0.00  0.00    -0.361 N 
HETATM   24  C   UNK     0       6.036 -18.342 -10.069  0.00  0.00     0.021 A 
HETATM   25  C   UNK     0       4.891 -17.825 -10.645  0.00  0.00    -0.031 A 
HETATM   26  C   UNK     0       3.611 -18.539 -11.026  0.00  0.00     0.051 C 
HETATM   27  C   UNK     0       5.114 -16.472 -10.871  0.00  0.00    -0.027 A 
HETATM   28  C   UNK     0       6.142 -19.781  -9.597  0.00  0.00     0.115 C 
HETATM   29  H   UNK     0       8.301 -18.983  -7.759  0.00  0.00     0.165 HD
HETATM   30  H   UNK     0       6.829 -16.736  -5.686  0.00  0.00     0.165 HD
HETATM   31  H   UNK     0       6.570 -15.351  -7.470  0.00  0.00     0.165 HD
HETATM   32  H   UNK     0       7.997 -17.492  -9.552  0.00  0.00     0.165 HD
ENDROOT
BRANCH   6  33
HETATM   33  C   UNK     0       5.169 -20.954  -4.781  0.00  0.00     0.051 C 
BRANCH  33  34
HETATM   34  C   UNK     0       4.562 -19.825  -3.983  0.00  0.00     0.114 C 
BRANCH  34  35
HETATM   35  C   UNK     0       3.315 -19.403  -4.684  0.00  0.00     0.139 C 
HETATM   36  O   UNK     0       3.299 -18.341  -5.371  0.00  0.00    -0.650 OA
BRANCH  35  37
HETATM   37  O   UNK     0       2.136 -20.137  -4.623  0.00  0.00    -0.776 OA
HETATM   38  H   UNK     0       2.095 -21.047  -4.193  0.00  0.00     0.167 HD
ENDBRANCH  35  37
ENDBRANCH  34  35
ENDBRANCH  33  34
ENDBRANCH   6  33
BRANCH  27  39
HETATM   39  C   UNK     0       4.126 -15.589 -11.548  0.00  0.00     0.051 C 
BRANCH  39  40
HETATM   40  C   UNK     0       4.240 -15.401 -12.994  0.00  0.00     0.114 C 
BRANCH  40  41
HETATM   41  C   UNK     0       5.518 -15.366 -13.668  0.00  0.00     0.139 C 
HETATM   42  O   UNK     0       6.128 -14.319 -13.921  0.00  0.00    -0.650 OA
BRANCH  41  43
HETATM   43  O   UNK     0       6.121 -16.591 -14.069  0.00  0.00    -0.776 OA
HETATM   44  H   UNK     0       5.474 -17.275 -14.443  0.00  0.00     0.167 HD
ENDBRANCH  41  43
ENDBRANCH  40  41
ENDBRANCH  39  40
ENDBRANCH  27  39
BRANCH  11  45
HETATM   45  C   UNK     0      11.110 -15.545  -4.028  0.00  0.00     0.051 C 
BRANCH  45  46
HETATM   46  C   UNK     0      11.119 -15.143  -2.598  0.00  0.00     0.114 C 
BRANCH  46  47
HETATM   47  C   UNK     0      12.531 -15.224  -2.125  0.00  0.00     0.139 C 
HETATM   48  O   UNK     0      13.394 -14.566  -2.723  0.00  0.00    -0.650 OA
BRANCH  47  49
HETATM   49  O   UNK     0      12.869 -16.011  -1.053  0.00  0.00    -0.776 OA
HETATM   50  H   UNK     0      12.688 -15.720  -0.085  0.00  0.00     0.167 HD
ENDBRANCH  47  49
ENDBRANCH  46  47
ENDBRANCH  45  46
ENDBRANCH  11  45
BRANCH  18  51
HETATM   51  C   UNK     0       9.499 -12.954 -10.308  0.00  0.00     0.051 C 
BRANCH  51  52
HETATM   52  C   UNK     0       9.552 -11.462 -10.016  0.00  0.00     0.114 C 
BRANCH  52  53
HETATM   53  C   UNK     0      10.787 -10.843 -10.536  0.00  0.00     0.139 C 
HETATM   54  O   UNK     0      11.843 -11.494 -10.565  0.00  0.00    -0.650 OA
BRANCH  53  55
HETATM   55  O   UNK     0      10.760  -9.544 -10.983  0.00  0.00    -0.776 OA
HETATM   56  H   UNK     0      10.533  -8.745 -10.440  0.00  0.00     0.167 HD
ENDBRANCH  53  55
ENDBRANCH  52  53
ENDBRANCH  51  52
ENDBRANCH  18  51
TORSDOF 16
ENDMDL
MODEL 6
REMARK VINA RESULT:      -9.2      4.512      9.454
REMARK  16 active torsions:
REMARK  status: ('A' for Active; 'I' for Inactive)
REMARK    1  A    between atoms: C_6  and  C_7 
REMARK    2  A    between atoms: C_7  and  C_8 
REMARK    3  A    between atoms: C_8  and  C_9 
REMARK    4  A    between atoms: C_9  and  O_11 
REMARK    5  A    between atoms: C_16  and  C_17 
REMARK    6  A    between atoms: C_17  and  C_18 
REMARK    7  A    between atoms: C_18  and  C_19 
REMARK    8  A    between atoms: C_19  and  O_21 
REMARK    9  A    between atoms: C_28  and  C_29 
REMARK   10  A    between atoms: C_29  and  C_30 
REMARK   11  A    between atoms: C_30  and  C_31 
REMARK   12  A    between atoms: C_31  and  O_33 
REMARK   13  A    between atoms: C_42  and  C_43 
REMARK   14  A    between atoms: C_43  and  C_44 
REMARK   15  A    between atoms: C_44  and  C_45 
REMARK   16  A    between atoms: C_45  and  O_47 
ROOT
HETATM    1  C   UNK     0       7.916 -14.053 -10.763  0.00  0.00     0.051 C 
HETATM    2  C   UNK     0       8.062 -13.982  -9.257  0.00  0.00    -0.031 A 
HETATM    3  C   UNK     0       7.222 -14.469  -8.268  0.00  0.00     0.021 A 
HETATM    4  N   UNK     0       7.735 -14.150  -7.056  0.00  0.00    -0.361 N 
HETATM    5  C   UNK     0       8.889 -13.478  -7.251  0.00  0.00     0.022 A 
HETATM    6  C   UNK     0       9.122 -13.353  -8.617  0.00  0.00    -0.027 A 
HETATM    7  C   UNK     0       9.885 -12.986  -6.249  0.00  0.00     0.115 C 
HETATM    8  C   UNK     0      10.224 -13.928  -5.106  0.00  0.00     0.021 A 
HETATM    9  N   UNK     0      10.323 -15.266  -5.127  0.00  0.00    -0.361 N 
HETATM   10  C   UNK     0      10.552 -15.689  -3.866  0.00  0.00     0.022 A 
HETATM   11  C   UNK     0      10.612 -14.592  -3.011  0.00  0.00    -0.027 A 
HETATM   12  C   UNK     0      10.406 -13.480  -3.786  0.00  0.00    -0.031 A 
HETATM   13  C   UNK     0      10.391 -12.054  -3.282  0.00  0.00     0.051 C 
HETATM   14  C   UNK     0      10.669 -17.140  -3.409  0.00  0.00     0.115 C 
HETATM   15  C   UNK     0       9.418 -17.968  -3.658  0.00  0.00     0.021 A 
HETATM   16  N   UNK     0       8.810 -18.202  -4.836  0.00  0.00    -0.361 N 
HETATM   17  C   UNK     0       7.702 -18.915  -4.623  0.00  0.00     0.022 A 
HETATM   18  C   UNK     0       7.588 -19.166  -3.241  0.00  0.00    -0.027 A 
HETATM   19  C   UNK     0       8.670 -18.568  -2.648  0.00  0.00    -0.031 A 
HETATM   20  C   UNK     0       8.955 -18.626  -1.159  0.00  0.00     0.051 C 
HETATM   21  C   UNK     0       6.639 -19.373  -5.595  0.00  0.00     0.115 C 
HETATM   22  C   UNK     0       6.323 -18.467  -6.761  0.00  0.00     0.022 A 
HETATM   23  N   UNK     0       6.222 -17.131  -6.771  0.00  0.00    -0.361 N 
HETATM   24  C   UNK     0       6.072 -16.726  -8.048  0.00  0.00     0.021 A 
HETATM   25  C   UNK     0       6.065 -17.829  -8.880  0.00  0.00    -0.031 A 
HETATM   26  C   UNK     0       5.884 -17.888 -10.383  0.00  0.00     0.051 C 
HETATM   27  C   UNK     0       6.224 -18.955  -8.080  0.00  0.00    -0.027 A 
HETATM   28  C   UNK     0       6.008 -15.302  -8.570  0.00  0.00     0.115 C 
HETATM   29  H   UNK     0       7.259 -14.367  -6.072  0.00  0.00     0.165 HD
HETATM   30  H   UNK     0      10.281 -15.912  -6.038  0.00  0.00     0.165 HD
HETATM   31  H   UNK     0       9.195 -17.899  -5.845  0.00  0.00     0.165 HD
HETATM   32  H   UNK     0       6.213 -16.463  -5.870  0.00  0.00     0.165 HD
ENDROOT
BRANCH   6  33
HETATM   33  C   UNK     0      10.259 -12.687  -9.350  0.00  0.00     0.051 C 
BRANCH  33  34
HETATM   34  C   UNK     0       9.908 -11.260  -9.699  0.00  0.00     0.114 C 
BRANCH  34  35
HETATM   35  C   UNK     0      10.893 -10.377  -9.011  0.00  0.00     0.139 C 
HETATM   36  O   UNK     0      11.755 -10.872  -8.228  0.00  0.00    -0.650 OA
BRANCH  35  37
HETATM   37  O   UNK     0      10.919  -8.999  -9.192  0.00  0.00    -0.776 OA
HETATM   38  H   UNK     0      10.085  -8.437  -9.136  0.00  0.00     0.167 HD
ENDBRANCH  35  37
ENDBRANCH  34  35
ENDBRANCH  33  34
ENDBRANCH   6  33
BRANCH  27  39
HETATM   39  C   UNK     0       6.194 -20.342  -8.617  0.00  0.00     0.051 C 
BRANCH  39  40
HETATM   40  C   UNK     0       4.915 -21.052  -8.636  0.00  0.00     0.114 C 
BRANCH  40  41
HETATM   41  C   UNK     0       3.689 -20.443  -8.171  0.00  0.00     0.139 C 
HETATM   42  O   UNK     0       2.866 -19.903  -8.923  0.00  0.00    -0.650 OA
BRANCH  41  43
HETATM   43  O   UNK     0       3.396 -20.456  -6.778  0.00  0.00    -0.776 OA
HETATM   44  H   UNK     0       2.452 -20.744  -6.551  0.00  0.00     0.167 HD
ENDBRANCH  41  43
ENDBRANCH  40  41
ENDBRANCH  39  40
ENDBRANCH  27  39
BRANCH  11  45
HETATM   45  C   UNK     0      10.854 -14.569  -1.525  0.00  0.00     0.051 C 
BRANCH  45  46
HETATM   46  C   UNK     0       9.613 -14.573  -0.709  0.00  0.00     0.114 C 
BRANCH  46  47
HETATM   47  C   UNK     0       9.693 -13.412   0.223  0.00  0.00     0.139 C 
HETATM   48  O   UNK     0       8.930 -12.453   0.041  0.00  0.00    -0.650 OA
BRANCH  47  49
HETATM   49  O   UNK     0      10.593 -13.402   1.258  0.00  0.00    -0.776 OA
HETATM   50  H   UNK     0      10.695 -12.595   1.885  0.00  0.00     0.167 HD
ENDBRANCH  47  49
ENDBRANCH  46  47
ENDBRANCH  45  46
ENDBRANCH  11  45
BRANCH  18  51
HETATM   51  C   UNK     0       6.518 -19.950  -2.527  0.00  0.00     0.051 C 
BRANCH  51  52
HETATM   52  C   UNK     0       5.429 -20.218  -3.554  0.00  0.00     0.114 C 
BRANCH  52  53
HETATM   53  C   UNK     0       4.087 -19.896  -3.030  0.00  0.00     0.139 C 
HETATM   54  O   UNK     0       3.175 -19.578  -3.810  0.00  0.00    -0.650 OA
BRANCH  53  55
HETATM   55  O   UNK     0       3.856 -19.948  -1.677  0.00  0.00    -0.776 OA
HETATM   56  H   UNK     0       3.299 -20.622  -1.205  0.00  0.00     0.167 HD
ENDBRANCH  53  55
ENDBRANCH  52  53
ENDBRANCH  51  52
ENDBRANCH  18  51
TORSDOF 16
ENDMDL
MODEL 7
REMARK VINA RESULT:      -9.2      2.549      8.175
REMARK  16 active torsions:
REMARK  status: ('A' for Active; 'I' for Inactive)
REMARK    1  A    between atoms: C_6  and  C_7 
REMARK    2  A    between atoms: C_7  and  C_8 
REMARK    3  A    between atoms: C_8  and  C_9 
REMARK    4  A    between atoms: C_9  and  O_11 
REMARK    5  A    between atoms: C_16  and  C_17 
REMARK    6  A    between atoms: C_17  and  C_18 
REMARK    7  A    between atoms: C_18  and  C_19 
REMARK    8  A    between atoms: C_19  and  O_21 
REMARK    9  A    between atoms: C_28  and  C_29 
REMARK   10  A    between atoms: C_29  and  C_30 
REMARK   11  A    between atoms: C_30  and  C_31 
REMARK   12  A    between atoms: C_31  and  O_33 
REMARK   13  A    between atoms: C_42  and  C_43 
REMARK   14  A    between atoms: C_43  and  C_44 
REMARK   15  A    between atoms: C_44  and  C_45 
REMARK   16  A    between atoms: C_45  and  O_47 
ROOT
HETATM    1  C   UNK     0       9.032 -11.914 -10.583  0.00  0.00     0.051 C 
HETATM    2  C   UNK     0       9.537 -12.491  -9.276  0.00  0.00    -0.031 A 
HETATM    3  C   UNK     0      10.701 -12.206  -8.580  0.00  0.00     0.021 A 
HETATM    4  N   UNK     0      10.756 -12.986  -7.474  0.00  0.00    -0.361 N 
HETATM    5  C   UNK     0       9.649 -13.755  -7.446  0.00  0.00     0.022 A 
HETATM    6  C   UNK     0       8.865 -13.473  -8.560  0.00  0.00    -0.027 A 
HETATM    7  C   UNK     0       9.183 -14.715  -6.396  0.00  0.00     0.115 C 
HETATM    8  C   UNK     0       9.330 -14.269  -4.951  0.00  0.00     0.021 A 
HETATM    9  N   UNK     0       9.193 -13.036  -4.439  0.00  0.00    -0.361 N 
HETATM   10  C   UNK     0       9.505 -13.091  -3.127  0.00  0.00     0.022 A 
HETATM   11  C   UNK     0       9.843 -14.396  -2.783  0.00  0.00    -0.027 A 
HETATM   12  C   UNK     0       9.735 -15.144  -3.927  0.00  0.00    -0.031 A 
HETATM   13  C   UNK     0      10.002 -16.628  -4.031  0.00  0.00     0.051 C 
HETATM   14  C   UNK     0       9.548 -11.910  -2.160  0.00  0.00     0.115 C 
HETATM   15  C   UNK     0      10.553 -10.836  -2.546  0.00  0.00     0.021 A 
HETATM   16  N   UNK     0      10.601 -10.129  -3.690  0.00  0.00    -0.361 N 
HETATM   17  C   UNK     0      11.674  -9.335  -3.671  0.00  0.00     0.022 A 
HETATM   18  C   UNK     0      12.353  -9.528  -2.451  0.00  0.00    -0.027 A 
HETATM   19  C   UNK     0      11.640 -10.469  -1.755  0.00  0.00    -0.031 A 
HETATM   20  C   UNK     0      12.007 -10.946  -0.362  0.00  0.00     0.051 C 
HETATM   21  C   UNK     0      12.214  -8.405  -4.733  0.00  0.00     0.115 C 
HETATM   22  C   UNK     0      12.035  -8.815  -6.176  0.00  0.00     0.022 A 
HETATM   23  N   UNK     0      12.161 -10.035  -6.714  0.00  0.00    -0.361 N 
HETATM   24  C   UNK     0      11.771  -9.972  -8.003  0.00  0.00     0.021 A 
HETATM   25  C   UNK     0      11.394  -8.678  -8.305  0.00  0.00    -0.031 A 
HETATM   26  C   UNK     0      10.923  -8.106  -9.626  0.00  0.00     0.051 C 
HETATM   27  C   UNK     0      11.555  -7.919  -7.152  0.00  0.00    -0.027 A 
HETATM   28  C   UNK     0      11.650 -11.117  -8.994  0.00  0.00     0.115 C 
HETATM   29  H   UNK     0      11.597 -13.015  -6.742  0.00  0.00     0.165 HD
HETATM   30  H   UNK     0       8.828 -12.135  -4.989  0.00  0.00     0.165 HD
HETATM   31  H   UNK     0       9.836 -10.155  -4.509  0.00  0.00     0.165 HD
HETATM   32  H   UNK     0      12.569 -10.944  -6.200  0.00  0.00     0.165 HD
ENDROOT
BRANCH   6  33
HETATM   33  C   UNK     0       7.545 -14.060  -8.991  0.00  0.00     0.051 C 
BRANCH  33  34
HETATM   34  C   UNK     0       7.759 -15.234  -9.918  0.00  0.00     0.114 C 
BRANCH  34  35
HETATM   35  C   UNK     0       7.763 -16.468  -9.081  0.00  0.00     0.139 C 
HETATM   36  O   UNK     0       6.803 -16.707  -8.293  0.00  0.00    -0.650 OA
BRANCH  35  37
HETATM   37  O   UNK     0       8.795 -17.399  -9.124  0.00  0.00    -0.776 OA
HETATM   38  H   UNK     0       9.389 -17.574  -8.330  0.00  0.00     0.167 HD
ENDBRANCH  35  37
ENDBRANCH  34  35
ENDBRANCH  33  34
ENDBRANCH   6  33
BRANCH  27  39
HETATM   39  C   UNK     0      11.314  -6.451  -7.108  0.00  0.00     0.051 C 
BRANCH  39  40
HETATM   40  C   UNK     0      12.390  -5.558  -7.538  0.00  0.00     0.114 C 
BRANCH  40  41
HETATM   41  C   UNK     0      12.288  -4.746  -8.729  0.00  0.00     0.139 C 
HETATM   42  O   UNK     0      11.458  -4.949  -9.625  0.00  0.00    -0.650 OA
BRANCH  41  43
HETATM   43  O   UNK     0      13.181  -3.650  -8.897  0.00  0.00    -0.776 OA
HETATM   44  H   UNK     0      13.184  -2.990  -8.129  0.00  0.00     0.167 HD
ENDBRANCH  41  43
ENDBRANCH  40  41
ENDBRANCH  39  40
ENDBRANCH  27  39
BRANCH  11  45
HETATM   45  C   UNK     0      10.251 -14.941  -1.440  0.00  0.00     0.051 C 
BRANCH  45  46
HETATM   46  C   UNK     0      11.666 -14.671  -1.081  0.00  0.00     0.114 C 
BRANCH  46  47
HETATM   47  C   UNK     0      12.491 -15.752  -1.693  0.00  0.00     0.139 C 
HETATM   48  O   UNK     0      12.349 -16.911  -1.280  0.00  0.00    -0.650 OA
BRANCH  47  49
HETATM   49  O   UNK     0      13.390 -15.470  -2.691  0.00  0.00    -0.776 OA
HETATM   50  H   UNK     0      14.367 -15.784  -2.649  0.00  0.00     0.167 HD
ENDBRANCH  47  49
ENDBRANCH  46  47
ENDBRANCH  45  46
ENDBRANCH  11  45
BRANCH  18  51
HETATM   51  C   UNK     0      13.601  -8.837  -1.966  0.00  0.00     0.051 C 
BRANCH  51  52
HETATM   52  C   UNK     0      13.200  -7.403  -1.653  0.00  0.00     0.114 C 
BRANCH  52  53
HETATM   53  C   UNK     0      14.198  -6.433  -2.144  0.00  0.00     0.139 C 
HETATM   54  O   UNK     0      15.388  -6.768  -2.253  0.00  0.00    -0.650 OA
BRANCH  53  55
HETATM   55  O   UNK     0      13.803  -5.160  -2.476  0.00  0.00    -0.776 OA
HETATM   56  H   UNK     0      13.919  -4.724  -3.361  0.00  0.00     0.167 HD
ENDBRANCH  53  55
ENDBRANCH  52  53
ENDBRANCH  51  52
ENDBRANCH  18  51
TORSDOF 16
ENDMDL
MODEL 8
REMARK VINA RESULT:      -9.1      4.729      9.482
REMARK  16 active torsions:
REMARK  status: ('A' for Active; 'I' for Inactive)
REMARK    1  A    between atoms: C_6  and  C_7 
REMARK    2  A    between atoms: C_7  and  C_8 
REMARK    3  A    between atoms: C_8  and  C_9 
REMARK    4  A    between atoms: C_9  and  O_11 
REMARK    5  A    between atoms: C_16  and  C_17 
REMARK    6  A    between atoms: C_17  and  C_18 
REMARK    7  A    between atoms: C_18  and  C_19 
REMARK    8  A    between atoms: C_19  and  O_21 
REMARK    9  A    between atoms: C_28  and  C_29 
REMARK   10  A    between atoms: C_29  and  C_30 
REMARK   11  A    between atoms: C_30  and  C_31 
REMARK   12  A    between atoms: C_31  and  O_33 
REMARK   13  A    between atoms: C_42  and  C_43 
REMARK   14  A    between atoms: C_43  and  C_44 
REMARK   15  A    between atoms: C_44  and  C_45 
REMARK   16  A    between atoms: C_45  and  O_47 
ROOT
HETATM    1  C   UNK     0      10.013 -14.648  -1.114  0.00  0.00     0.051 C 
HETATM    2  C   UNK     0      10.059 -14.704  -2.628  0.00  0.00    -0.031 A 
HETATM    3  C   UNK     0      10.229 -15.797  -3.463  0.00  0.00     0.021 A 
HETATM    4  N   UNK     0      10.237 -15.373  -4.749  0.00  0.00    -0.361 N 
HETATM    5  C   UNK     0      10.068 -14.035  -4.752  0.00  0.00     0.022 A 
HETATM    6  C   UNK     0       9.955 -13.583  -3.442  0.00  0.00    -0.027 A 
HETATM    7  C   UNK     0       9.911 -13.098  -5.909  0.00  0.00     0.115 C 
HETATM    8  C   UNK     0       9.016 -13.562  -7.045  0.00  0.00     0.021 A 
HETATM    9  N   UNK     0       7.890 -14.290  -6.980  0.00  0.00    -0.361 N 
HETATM   10  C   UNK     0       7.482 -14.544  -8.241  0.00  0.00     0.022 A 
HETATM   11  C   UNK     0       8.363 -13.956  -9.143  0.00  0.00    -0.027 A 
HETATM   12  C   UNK     0       9.332 -13.336  -8.397  0.00  0.00    -0.031 A 
HETATM   13  C   UNK     0      10.503 -12.559  -8.956  0.00  0.00     0.051 C 
HETATM   14  C   UNK     0       6.279 -15.392  -8.645  0.00  0.00     0.115 C 
HETATM   15  C   UNK     0       6.361 -16.837  -8.181  0.00  0.00     0.021 A 
HETATM   16  N   UNK     0       6.479 -17.289  -6.919  0.00  0.00    -0.361 N 
HETATM   17  C   UNK     0       6.590 -18.619  -6.938  0.00  0.00     0.022 A 
HETATM   18  C   UNK     0       6.532 -19.056  -8.276  0.00  0.00    -0.027 A 
HETATM   19  C   UNK     0       6.387 -17.930  -9.045  0.00  0.00    -0.031 A 
HETATM   20  C   UNK     0       6.246 -17.952 -10.556  0.00  0.00     0.051 C 
HETATM   21  C   UNK     0       6.815 -19.592  -5.803  0.00  0.00     0.115 C 
HETATM   22  C   UNK     0       7.667 -19.128  -4.645  0.00  0.00     0.022 A 
HETATM   23  N   UNK     0       8.791 -18.400  -4.680  0.00  0.00    -0.361 N 
HETATM   24  C   UNK     0       9.137 -18.093  -3.414  0.00  0.00     0.021 A 
HETATM   25  C   UNK     0       8.219 -18.646  -2.541  0.00  0.00    -0.031 A 
HETATM   26  C   UNK     0       8.203 -18.611  -1.027  0.00  0.00     0.051 C 
HETATM   27  C   UNK     0       7.269 -19.313  -3.305  0.00  0.00    -0.027 A 
HETATM   28  C   UNK     0      10.282 -17.209  -2.952  0.00  0.00     0.115 C 
HETATM   29  H   UNK     0      10.403 -16.018  -5.643  0.00  0.00     0.165 HD
HETATM   30  H   UNK     0       7.354 -14.583  -6.044  0.00  0.00     0.165 HD
HETATM   31  H   UNK     0       6.436 -16.662  -5.991  0.00  0.00     0.165 HD
HETATM   32  H   UNK     0       9.375 -18.132  -5.599  0.00  0.00     0.165 HD
ENDROOT
BRANCH   6  33
HETATM   33  C   UNK     0       9.762 -12.185  -2.911  0.00  0.00     0.051 C 
BRANCH  33  34
HETATM   34  C   UNK     0      11.091 -11.555  -2.568  0.00  0.00     0.114 C 
BRANCH  34  35
HETATM   35  C   UNK     0      11.498 -10.712  -3.729  0.00  0.00     0.139 C 
HETATM   36  O   UNK     0      12.695 -10.729  -4.140  0.00  0.00    -0.650 OA
BRANCH  35  37
HETATM   37  O   UNK     0      10.607  -9.887  -4.404  0.00  0.00    -0.776 OA
HETATM   38  H   UNK     0       9.768 -10.243  -4.833  0.00  0.00     0.167 HD
ENDBRANCH  35  37
ENDBRANCH  34  35
ENDBRANCH  33  34
ENDBRANCH   6  33
BRANCH  27  39
HETATM   39  C   UNK     0       6.154 -20.098  -2.708  0.00  0.00     0.051 C 
BRANCH  39  40
HETATM   40  C   UNK     0       5.062 -20.526  -3.581  0.00  0.00     0.114 C 
BRANCH  40  41
HETATM   41  C   UNK     0       3.816 -19.798  -3.671  0.00  0.00     0.139 C 
HETATM   42  O   UNK     0       3.148 -19.463  -2.684  0.00  0.00    -0.650 OA
BRANCH  41  43
HETATM   43  O   UNK     0       3.316 -19.439  -4.955  0.00  0.00    -0.776 OA
HETATM   44  H   UNK     0       2.436 -18.938  -4.937  0.00  0.00     0.167 HD
ENDBRANCH  41  43
ENDBRANCH  40  41
ENDBRANCH  39  40
ENDBRANCH  27  39
BRANCH  11  45
HETATM   45  C   UNK     0       8.314 -13.962 -10.648  0.00  0.00     0.051 C 
BRANCH  45  46
HETATM   46  C   UNK     0       7.074 -13.375 -11.216  0.00  0.00     0.114 C 
BRANCH  46  47
HETATM   47  C   UNK     0       6.595 -14.300 -12.282  0.00  0.00     0.139 C 
HETATM   48  O   UNK     0       5.481 -14.827 -12.152  0.00  0.00    -0.650 OA
BRANCH  47  49
HETATM   49  O   UNK     0       7.370 -14.566 -13.382  0.00  0.00    -0.776 OA
HETATM   50  H   UNK     0       8.392 -14.466 -13.367  0.00  0.00     0.167 HD
ENDBRANCH  47  49
ENDBRANCH  46  47
ENDBRANCH  45  46
ENDBRANCH  11  45
BRANCH  18  51
HETATM   51  C   UNK     0       6.589 -20.470  -8.793  0.00  0.00     0.051 C 
BRANCH  51  52
HETATM   52  C   UNK     0       5.155 -20.977  -8.809  0.00  0.00     0.114 C 
BRANCH  52  53
HETATM   53  C   UNK     0       4.710 -21.324 -10.172  0.00  0.00     0.139 C 
HETATM   54  O   UNK     0       3.962 -20.555 -10.797  0.00  0.00    -0.650 OA
BRANCH  53  55
HETATM   55  O   UNK     0       5.124 -22.503 -10.743  0.00  0.00    -0.776 OA
HETATM   56  H   UNK     0       6.007 -22.937 -10.611  0.00  0.00     0.167 HD
ENDBRANCH  53  55
ENDBRANCH  52  53
ENDBRANCH  51  52
ENDBRANCH  18  51
TORSDOF 16
ENDMDL
MODEL 9
REMARK VINA RESULT:      -9.1      2.796      8.227
REMARK  16 active torsions:
REMARK  status: ('A' for Active; 'I' for Inactive)
REMARK    1  A    between atoms: C_6  and  C_7 
REMARK    2  A    between atoms: C_7  and  C_8 
REMARK    3  A    between atoms: C_8  and  C_9 
REMARK    4  A    between atoms: C_9  and  O_11 
REMARK    5  A    between atoms: C_16  and  C_17 
REMARK    6  A    between atoms: C_17  and  C_18 
REMARK    7  A    between atoms: C_18  and  C_19 
REMARK    8  A    between atoms: C_19  and  O_21 
REMARK    9  A    between atoms: C_28  and  C_29 
REMARK   10  A    between atoms: C_29  and  C_30 
REMARK   11  A    between atoms: C_30  and  C_31 
REMARK   12  A    between atoms: C_31  and  O_33 
REMARK   13  A    between atoms: C_42  and  C_43 
REMARK   14  A    between atoms: C_43  and  C_44 
REMARK   15  A    between atoms: C_44  and  C_45 
REMARK   16  A    between atoms: C_45  and  O_47 
ROOT
HETATM    1  C   UNK     0       9.135 -11.796 -10.560  0.00  0.00     0.051 C 
HETATM    2  C   UNK     0       9.595 -12.415  -9.256  0.00  0.00    -0.031 A 
HETATM    3  C   UNK     0      10.742 -12.163  -8.519  0.00  0.00     0.021 A 
HETATM    4  N   UNK     0      10.757 -12.973  -7.434  0.00  0.00    -0.361 N 
HETATM    5  C   UNK     0       9.640 -13.729  -7.459  0.00  0.00     0.022 A 
HETATM    6  C   UNK     0       8.892 -13.408  -8.586  0.00  0.00    -0.027 A 
HETATM    7  C   UNK     0       9.133 -14.712  -6.449  0.00  0.00     0.115 C 
HETATM    8  C   UNK     0       9.244 -14.307  -4.989  0.00  0.00     0.021 A 
HETATM    9  N   UNK     0       9.106 -13.087  -4.447  0.00  0.00    -0.361 N 
HETATM   10  C   UNK     0       9.379 -13.181  -3.129  0.00  0.00     0.022 A 
HETATM   11  C   UNK     0       9.693 -14.500  -2.811  0.00  0.00    -0.027 A 
HETATM   12  C   UNK     0       9.609 -15.214  -3.979  0.00  0.00    -0.031 A 
HETATM   13  C   UNK     0       9.863 -16.699  -4.115  0.00  0.00     0.051 C 
HETATM   14  C   UNK     0       9.408 -12.028  -2.129  0.00  0.00     0.115 C 
HETATM   15  C   UNK     0      10.435 -10.956  -2.456  0.00  0.00     0.021 A 
HETATM   16  N   UNK     0      10.524 -10.218  -3.579  0.00  0.00    -0.361 N 
HETATM   17  C   UNK     0      11.605  -9.439  -3.507  0.00  0.00     0.022 A 
HETATM   18  C   UNK     0      12.246  -9.672  -2.274  0.00  0.00    -0.027 A 
HETATM   19  C   UNK     0      11.503 -10.624  -1.625  0.00  0.00    -0.031 A 
HETATM   20  C   UNK     0      11.825 -11.143  -0.236  0.00  0.00     0.051 C 
HETATM   21  C   UNK     0      12.185  -8.486  -4.528  0.00  0.00     0.115 C 
HETATM   22  C   UNK     0      12.044  -8.855  -5.986  0.00  0.00     0.022 A 
HETATM   23  N   UNK     0      12.172 -10.061  -6.553  0.00  0.00    -0.361 N 
HETATM   24  C   UNK     0      11.819  -9.958  -7.850  0.00  0.00     0.021 A 
HETATM   25  C   UNK     0      11.465  -8.652  -8.128  0.00  0.00    -0.031 A 
HETATM   26  C   UNK     0      11.039  -8.039  -9.445  0.00  0.00     0.051 C 
HETATM   27  C   UNK     0      11.601  -7.926  -6.950  0.00  0.00    -0.027 A 
HETATM   28  C   UNK     0      11.714 -11.074  -8.876  0.00  0.00     0.115 C 
HETATM   29  H   UNK     0      11.575 -13.032  -6.680  0.00  0.00     0.165 HD
HETATM   30  H   UNK     0       8.767 -12.167  -4.983  0.00  0.00     0.165 HD
HETATM   31  H   UNK     0       9.782 -10.213  -4.420  0.00  0.00     0.165 HD
HETATM   32  H   UNK     0      12.554 -10.989  -6.053  0.00  0.00     0.165 HD
ENDROOT
BRANCH   6  33
HETATM   33  C   UNK     0       7.579 -13.968  -9.071  0.00  0.00     0.051 C 
BRANCH  33  34
HETATM   34  C   UNK     0       7.805 -15.155  -9.977  0.00  0.00     0.114 C 
BRANCH  34  35
HETATM   35  C   UNK     0       7.745 -16.380  -9.130  0.00  0.00     0.139 C 
HETATM   36  O   UNK     0       6.747 -16.589  -8.380  0.00  0.00    -0.650 OA
BRANCH  35  37
HETATM   37  O   UNK     0       8.756 -17.334  -9.121  0.00  0.00    -0.776 OA
HETATM   38  H   UNK     0       8.647 -18.232  -9.564  0.00  0.00     0.167 HD
ENDBRANCH  35  37
ENDBRANCH  34  35
ENDBRANCH  33  34
ENDBRANCH   6  33
BRANCH  27  39
HETATM   39  C   UNK     0      11.376  -6.457  -6.872  0.00  0.00     0.051 C 
BRANCH  39  40
HETATM   40  C   UNK     0      12.420  -5.567  -7.380  0.00  0.00     0.114 C 
BRANCH  40  41
HETATM   41  C   UNK     0      12.215  -4.719  -8.533  0.00  0.00     0.139 C 
HETATM   42  O   UNK     0      12.977  -3.793  -8.844  0.00  0.00    -0.650 OA
BRANCH  41  43
HETATM   43  O   UNK     0      11.082  -4.944  -9.364  0.00  0.00    -0.776 OA
HETATM   44  H   UNK     0      10.634  -5.842  -9.228  0.00  0.00     0.167 HD
ENDBRANCH  41  43
ENDBRANCH  40  41
ENDBRANCH  39  40
ENDBRANCH  27  39
BRANCH  11  45
HETATM   45  C   UNK     0      10.056 -15.086  -1.473  0.00  0.00     0.051 C 
BRANCH  45  46
HETATM   46  C   UNK     0      11.336 -14.578  -0.916  0.00  0.00     0.114 C 
BRANCH  46  47
HETATM   47  C   UNK     0      12.416 -14.964  -1.869  0.00  0.00     0.139 C 
HETATM   48  O   UNK     0      13.042 -14.067  -2.450  0.00  0.00    -0.650 OA
BRANCH  47  49
HETATM   49  O   UNK     0      12.711 -16.284  -2.099  0.00  0.00    -0.776 OA
HETATM   50  H   UNK     0      13.607 -16.580  -2.503  0.00  0.00     0.167 HD
ENDBRANCH  47  49
ENDBRANCH  46  47
ENDBRANCH  45  46
ENDBRANCH  11  45
BRANCH  18  51
HETATM   51  C   UNK     0      13.487  -9.009  -1.736  0.00  0.00     0.051 C 
BRANCH  51  52
HETATM   52  C   UNK     0      14.664  -9.826  -2.249  0.00  0.00     0.114 C 
BRANCH  52  53
HETATM   53  C   UNK     0      15.468 -10.385  -1.145  0.00  0.00     0.139 C 
HETATM   54  O   UNK     0      15.320  -9.957   0.010  0.00  0.00    -0.650 OA
BRANCH  53  55
HETATM   55  O   UNK     0      16.381 -11.378  -1.405  0.00  0.00    -0.776 OA
HETATM   56  H   UNK     0      17.356 -11.337  -1.223  0.00  0.00     0.167 HD
ENDBRANCH  53  55
ENDBRANCH  52  53
ENDBRANCH  51  52
ENDBRANCH  18  51
TORSDOF 16
ENDMDL
MODEL 10
REMARK VINA RESULT:      -8.7      2.834      7.590
REMARK  16 active torsions:
REMARK  status: ('A' for Active; 'I' for Inactive)
REMARK    1  A    between atoms: C_6  and  C_7 
REMARK    2  A    between atoms: C_7  and  C_8 
REMARK    3  A    between atoms: C_8  and  C_9 
REMARK    4  A    between atoms: C_9  and  O_11 
REMARK    5  A    between atoms: C_16  and  C_17 
REMARK    6  A    between atoms: C_17  and  C_18 
REMARK    7  A    between atoms: C_18  and  C_19 
REMARK    8  A    between atoms: C_19  and  O_21 
REMARK    9  A    between atoms: C_28  and  C_29 
REMARK   10  A    between atoms: C_29  and  C_30 
REMARK   11  A    between atoms: C_30  and  C_31 
REMARK   12  A    between atoms: C_31  and  O_33 
REMARK   13  A    between atoms: C_42  and  C_43 
REMARK   14  A    between atoms: C_43  and  C_44 
REMARK   15  A    between atoms: C_44  and  C_45 
REMARK   16  A    between atoms: C_45  and  O_47 
ROOT
HETATM    1  C   UNK     0      10.518 -15.366  -0.959  0.00  0.00     0.051 C 
HETATM    2  C   UNK     0       9.993 -14.754  -2.242  0.00  0.00    -0.031 A 
HETATM    3  C   UNK     0       9.533 -13.468  -2.479  0.00  0.00     0.021 A 
HETATM    4  N   UNK     0       9.132 -13.374  -3.769  0.00  0.00    -0.361 N 
HETATM    5  C   UNK     0       9.335 -14.569  -4.361  0.00  0.00     0.022 A 
HETATM    6  C   UNK     0       9.871 -15.456  -3.434  0.00  0.00    -0.027 A 
HETATM    7  C   UNK     0       9.148 -14.965  -5.793  0.00  0.00     0.115 C 
HETATM    8  C   UNK     0       9.622 -13.975  -6.842  0.00  0.00     0.021 A 
HETATM    9  N   UNK     0      10.686 -13.159  -6.802  0.00  0.00    -0.361 N 
HETATM   10  C   UNK     0      10.667 -12.390  -7.910  0.00  0.00     0.022 A 
HETATM   11  C   UNK     0       9.565 -12.725  -8.691  0.00  0.00    -0.027 A 
HETATM   12  C   UNK     0       8.902 -13.724  -8.024  0.00  0.00    -0.031 A 
HETATM   13  C   UNK     0       7.640 -14.407  -8.502  0.00  0.00     0.051 C 
HETATM   14  C   UNK     0      11.652 -11.275  -8.251  0.00  0.00     0.115 C 
HETATM   15  C   UNK     0      11.675 -10.142  -7.239  0.00  0.00     0.021 A 
HETATM   16  N   UNK     0      11.947 -10.221  -5.923  0.00  0.00    -0.361 N 
HETATM   17  C   UNK     0      11.793  -9.016  -5.370  0.00  0.00     0.022 A 
HETATM   18  C   UNK     0      11.411  -8.106  -6.375  0.00  0.00    -0.027 A 
HETATM   19  C   UNK     0      11.341  -8.823  -7.541  0.00  0.00    -0.031 A 
HETATM   20  C   UNK     0      10.996  -8.213  -8.887  0.00  0.00     0.051 C 
HETATM   21  C   UNK     0      11.907  -8.589  -3.924  0.00  0.00     0.115 C 
HETATM   22  C   UNK     0      11.480  -9.581  -2.867  0.00  0.00     0.022 A 
HETATM   23  N   UNK     0      10.428 -10.409  -2.883  0.00  0.00    -0.361 N 
HETATM   24  C   UNK     0      10.510 -11.219  -1.808  0.00  0.00     0.021 A 
HETATM   25  C   UNK     0      11.638 -10.898  -1.077  0.00  0.00    -0.031 A 
HETATM   26  C   UNK     0      12.133 -11.496   0.223  0.00  0.00     0.051 C 
HETATM   27  C   UNK     0      12.275  -9.852  -1.735  0.00  0.00    -0.027 A 
HETATM   28  C   UNK     0       9.598 -12.379  -1.446  0.00  0.00     0.115 C 
HETATM   29  H   UNK     0       8.672 -12.475  -4.241  0.00  0.00     0.165 HD
HETATM   30  H   UNK     0      11.482 -13.159  -6.016  0.00  0.00     0.165 HD
HETATM   31  H   UNK     0      12.302 -11.136  -5.381  0.00  0.00     0.165 HD
HETATM   32  H   UNK     0       9.592 -10.400  -3.630  0.00  0.00     0.165 HD
ENDROOT
BRANCH   6  33
HETATM   33  C   UNK     0      10.267 -16.902  -3.592  0.00  0.00     0.051 C 
BRANCH  33  34
HETATM   34  C   UNK     0       9.050 -17.797  -3.562  0.00  0.00     0.114 C 
BRANCH  34  35
HETATM   35  C   UNK     0       9.080 -18.632  -4.797  0.00  0.00     0.139 C 
HETATM   36  O   UNK     0      10.147 -18.737  -5.469  0.00  0.00    -0.650 OA
BRANCH  35  37
HETATM   37  O   UNK     0       7.968 -19.323  -5.261  0.00  0.00    -0.776 OA
HETATM   38  H   UNK     0       7.933 -20.330  -5.280  0.00  0.00     0.167 HD
ENDBRANCH  35  37
ENDBRANCH  34  35
ENDBRANCH  33  34
ENDBRANCH   6  33
BRANCH  27  39
HETATM   39  C   UNK     0      13.496  -9.186  -1.206  0.00  0.00     0.051 C 
BRANCH  39  40
HETATM   40  C   UNK     0      14.799  -9.634  -1.696  0.00  0.00     0.114 C 
BRANCH  40  41
HETATM   41  C   UNK     0      15.023 -10.981  -2.170  0.00  0.00     0.139 C 
HETATM   42  O   UNK     0      15.582 -11.858  -1.499  0.00  0.00    -0.650 OA
BRANCH  41  43
HETATM   43  O   UNK     0      14.583 -11.336  -3.477  0.00  0.00    -0.776 OA
HETATM   44  H   UNK     0      14.518 -10.558  -4.123  0.00  0.00     0.167 HD
ENDBRANCH  41  43
ENDBRANCH  40  41
ENDBRANCH  39  40
ENDBRANCH  27  39
BRANCH  11  45
HETATM   45  C   UNK     0       9.135 -12.147 -10.013  0.00  0.00     0.051 C 
BRANCH  45  46
HETATM   46  C   UNK     0       9.751 -12.808 -11.192  0.00  0.00     0.114 C 
BRANCH  46  47
HETATM   47  C   UNK     0       8.673 -13.570 -11.884  0.00  0.00     0.139 C 
HETATM   48  O   UNK     0       8.994 -14.505 -12.631  0.00  0.00    -0.650 OA
BRANCH  47  49
HETATM   49  O   UNK     0       7.353 -13.245 -11.700  0.00  0.00    -0.776 OA
HETATM   50  H   UNK     0       6.593 -13.895 -11.934  0.00  0.00     0.167 HD
ENDBRANCH  47  49
ENDBRANCH  46  47
ENDBRANCH  45  46
ENDBRANCH  11  45
BRANCH  18  51
HETATM   51  C   UNK     0      11.147  -6.629  -6.236  0.00  0.00     0.051 C 
BRANCH  51  52
HETATM   52  C   UNK     0      12.283  -5.923  -6.960  0.00  0.00     0.114 C 
BRANCH  52  53
HETATM   53  C   UNK     0      11.787  -5.051  -8.042  0.00  0.00     0.139 C 
HETATM   54  O   UNK     0      12.582  -4.347  -8.686  0.00  0.00    -0.650 OA
BRANCH  53  55
HETATM   55  O   UNK     0      10.444  -5.021  -8.329  0.00  0.00    -0.776 OA
HETATM   56  H   UNK     0       9.706  -5.004  -7.666  0.00  0.00     0.167 HD
ENDBRANCH  53  55
ENDBRANCH  52  53
ENDBRANCH  51  52
ENDBRANCH  18  51
TORSDOF 16
ENDMDL
MODEL 11
REMARK VINA RESULT:      -8.7      3.255      9.200
REMARK  16 active torsions:
REMARK  status: ('A' for Active; 'I' for Inactive)
REMARK    1  A    between atoms: C_6  and  C_7 
REMARK    2  A    between atoms: C_7  and  C_8 
REMARK    3  A    between atoms: C_8  and  C_9 
REMARK    4  A    between atoms: C_9  and  O_11 
REMARK    5  A    between atoms: C_16  and  C_17 
REMARK    6  A    between atoms: C_17  and  C_18 
REMARK    7  A    between atoms: C_18  and  C_19 
REMARK    8  A    between atoms: C_19  and  O_21 
REMARK    9  A    between atoms: C_28  and  C_29 
REMARK   10  A    between atoms: C_29  and  C_30 
REMARK   11  A    between atoms: C_30  and  C_31 
REMARK   12  A    between atoms: C_31  and  O_33 
REMARK   13  A    between atoms: C_42  and  C_43 
REMARK   14  A    between atoms: C_43  and  C_44 
REMARK   15  A    between atoms: C_44  and  C_45 
REMARK   16  A    between atoms: C_45  and  O_47 
ROOT
HETATM    1  C   UNK     0      11.922 -10.078  -2.958  0.00  0.00     0.051 C 
HETATM    2  C   UNK     0      11.754 -10.784  -4.288  0.00  0.00    -0.031 A 
HETATM    3  C   UNK     0      12.090 -12.081  -4.644  0.00  0.00     0.021 A 
HETATM    4  N   UNK     0      11.788 -12.272  -5.951  0.00  0.00    -0.361 N 
HETATM    5  C   UNK     0      11.260 -11.128  -6.433  0.00  0.00     0.022 A 
HETATM    6  C   UNK     0      11.227 -10.175  -5.420  0.00  0.00    -0.027 A 
HETATM    7  C   UNK     0      10.681 -10.842  -7.783  0.00  0.00     0.115 C 
HETATM    8  C   UNK     0       9.788 -11.914  -8.383  0.00  0.00     0.021 A 
HETATM    9  N   UNK     0       8.927 -12.731  -7.757  0.00  0.00    -0.361 N 
HETATM   10  C   UNK     0       8.419 -13.584  -8.671  0.00  0.00     0.022 A 
HETATM   11  C   UNK     0       8.960 -13.302  -9.922  0.00  0.00    -0.027 A 
HETATM   12  C   UNK     0       9.823 -12.250  -9.748  0.00  0.00    -0.031 A 
HETATM   13  C   UNK     0      10.638 -11.598 -10.841  0.00  0.00     0.051 C 
HETATM   14  C   UNK     0       7.448 -14.728  -8.395  0.00  0.00     0.115 C 
HETATM   15  C   UNK     0       7.991 -15.780  -7.441  0.00  0.00     0.021 A 
HETATM   16  N   UNK     0       8.417 -15.601  -6.177  0.00  0.00    -0.361 N 
HETATM   17  C   UNK     0       8.884 -16.759  -5.704  0.00  0.00     0.022 A 
HETATM   18  C   UNK     0       8.747 -17.742  -6.704  0.00  0.00    -0.027 A 
HETATM   19  C   UNK     0       8.185 -17.116  -7.787  0.00  0.00    -0.031 A 
HETATM   20  C   UNK     0       7.831 -17.826  -9.081  0.00  0.00     0.051 C 
HETATM   21  C   UNK     0       9.535 -17.074  -4.376  0.00  0.00     0.115 C 
HETATM   22  C   UNK     0      10.391 -16.000  -3.746  0.00  0.00     0.022 A 
HETATM   23  N   UNK     0      11.253 -15.169  -4.345  0.00  0.00    -0.361 N 
HETATM   24  C   UNK     0      11.688 -14.279  -3.431  0.00  0.00     0.021 A 
HETATM   25  C   UNK     0      11.099 -14.550  -2.211  0.00  0.00    -0.031 A 
HETATM   26  C   UNK     0      11.302 -13.857  -0.879  0.00  0.00     0.051 C 
HETATM   27  C   UNK     0      10.265 -15.648  -2.387  0.00  0.00    -0.027 A 
HETATM   28  C   UNK     0      12.604 -13.088  -3.655  0.00  0.00     0.115 C 
HETATM   29  H   UNK     0      11.988 -13.201  -6.533  0.00  0.00     0.165 HD
HETATM   30  H   UNK     0       8.638 -12.677  -6.679  0.00  0.00     0.165 HD
HETATM   31  H   UNK     0       8.343 -14.650  -5.589  0.00  0.00     0.165 HD
HETATM   32  H   UNK     0      11.597 -15.229  -5.411  0.00  0.00     0.165 HD
ENDROOT
BRANCH   6  33
HETATM   33  C   UNK     0      10.740  -8.748  -5.446  0.00  0.00     0.051 C 
BRANCH  33  34
HETATM   34  C   UNK     0      11.804  -7.830  -5.998  0.00  0.00     0.114 C 
BRANCH  34  35
HETATM   35  C   UNK     0      11.922  -6.672  -5.066  0.00  0.00     0.139 C 
HETATM   36  O   UNK     0      13.011  -6.448  -4.462  0.00  0.00    -0.650 OA
BRANCH  35  37
HETATM   37  O   UNK     0      10.869  -5.798  -4.821  0.00  0.00    -0.776 OA
HETATM   38  H   UNK     0      10.192  -5.968  -4.094  0.00  0.00     0.167 HD
ENDBRANCH  35  37
ENDBRANCH  34  35
ENDBRANCH  33  34
ENDBRANCH   6  33
BRANCH  27  39
HETATM   39  C   UNK     0       9.510 -16.280  -1.271  0.00  0.00     0.051 C 
BRANCH  39  40
HETATM   40  C   UNK     0       9.447 -17.740  -1.216  0.00  0.00     0.114 C 
BRANCH  40  41
HETATM   41  C   UNK     0       8.192 -18.457  -1.191  0.00  0.00     0.139 C 
HETATM   42  O   UNK     0       7.819 -19.213  -2.098  0.00  0.00    -0.650 OA
BRANCH  41  43
HETATM   43  O   UNK     0       7.327 -18.297  -0.072  0.00  0.00    -0.776 OA
HETATM   44  H   UNK     0       6.681 -17.521  -0.149  0.00  0.00     0.167 HD
ENDBRANCH  41  43
ENDBRANCH  40  41
ENDBRANCH  39  40
ENDBRANCH  27  39
BRANCH  11  45
HETATM   45  C   UNK     0       8.689 -13.978 -11.240  0.00  0.00     0.051 C 
BRANCH  45  46
HETATM   46  C   UNK     0       7.326 -13.732 -11.778  0.00  0.00     0.114 C 
BRANCH  46  47
HETATM   47  C   UNK     0       7.233 -14.444 -13.084  0.00  0.00     0.139 C 
HETATM   48  O   UNK     0       6.113 -14.769 -13.503  0.00  0.00    -0.650 OA
BRANCH  47  49
HETATM   49  O   UNK     0       8.361 -14.736 -13.808  0.00  0.00    -0.776 OA
HETATM   50  H   UNK     0       8.357 -14.770 -14.834  0.00  0.00     0.167 HD
ENDBRANCH  47  49
ENDBRANCH  46  47
ENDBRANCH  45  46
ENDBRANCH  11  45
BRANCH  18  51
HETATM   51  C   UNK     0       9.111 -19.201  -6.625  0.00  0.00     0.051 C 
BRANCH  51  52
HETATM   52  C   UNK     0      10.360 -19.375  -7.476  0.00  0.00     0.114 C 
BRANCH  52  53
HETATM   53  C   UNK     0      11.550 -19.670  -6.654  0.00  0.00     0.139 C 
HETATM   54  O   UNK     0      12.601 -20.049  -7.194  0.00  0.00    -0.650 OA
BRANCH  53  55
HETATM   55  O   UNK     0      11.484 -19.526  -5.289  0.00  0.00    -0.776 OA
HETATM   56  H   UNK     0      10.887 -20.029  -4.676  0.00  0.00     0.167 HD
ENDBRANCH  53  55
ENDBRANCH  52  53
ENDBRANCH  51  52
ENDBRANCH  18  51
TORSDOF 16
ENDMDL
MODEL 12
REMARK VINA RESULT:      -8.5     21.006     22.962
REMARK  16 active torsions:
REMARK  status: ('A' for Active; 'I' for Inactive)
REMARK    1  A    between atoms: C_6  and  C_7 
REMARK    2  A    between atoms: C_7  and  C_8 
REMARK    3  A    between atoms: C_8  and  C_9 
REMARK    4  A    between atoms: C_9  and  O_11 
REMARK    5  A    between atoms: C_16  and  C_17 
REMARK    6  A    between atoms: C_17  and  C_18 
REMARK    7  A    between atoms: C_18  and  C_19 
REMARK    8  A    between atoms: C_19  and  O_21 
REMARK    9  A    between atoms: C_28  and  C_29 
REMARK   10  A    between atoms: C_29  and  C_30 
REMARK   11  A    between atoms: C_30  and  C_31 
REMARK   12  A    between atoms: C_31  and  O_33 
REMARK   13  A    between atoms: C_42  and  C_43 
REMARK   14  A    between atoms: C_43  and  C_44 
REMARK   15  A    between atoms: C_44  and  C_45 
REMARK   16  A    between atoms: C_45  and  O_47 
ROOT
HETATM    1  C   UNK     0      -6.539  -4.830   5.735  0.00  0.00     0.051 C 
HETATM    2  C   UNK     0      -7.713  -4.369   4.895  0.00  0.00    -0.031 A 
HETATM    3  C   UNK     0      -7.717  -3.668   3.699  0.00  0.00     0.021 A 
HETATM    4  N   UNK     0      -8.999  -3.445   3.323  0.00  0.00    -0.361 N 
HETATM    5  C   UNK     0      -9.811  -3.996   4.249  0.00  0.00     0.022 A 
HETATM    6  C   UNK     0      -9.039  -4.580   5.248  0.00  0.00    -0.027 A 
HETATM    7  C   UNK     0     -11.304  -4.110   4.259  0.00  0.00     0.115 C 
HETATM    8  C   UNK     0     -11.967  -4.492   2.947  0.00  0.00     0.021 A 
HETATM    9  N   UNK     0     -11.520  -5.328   1.997  0.00  0.00    -0.361 N 
HETATM   10  C   UNK     0     -12.391  -5.294   0.966  0.00  0.00     0.022 A 
HETATM   11  C   UNK     0     -13.431  -4.419   1.264  0.00  0.00    -0.027 A 
HETATM   12  C   UNK     0     -13.171  -3.911   2.511  0.00  0.00    -0.031 A 
HETATM   13  C   UNK     0     -14.040  -2.918   3.249  0.00  0.00     0.051 C 
HETATM   14  C   UNK     0     -12.250  -6.040  -0.358  0.00  0.00     0.115 C 
HETATM   15  C   UNK     0     -11.009  -5.661  -1.150  0.00  0.00     0.021 A 
HETATM   16  N   UNK     0      -9.724  -5.753  -0.758  0.00  0.00    -0.361 N 
HETATM   17  C   UNK     0      -8.937  -5.253  -1.713  0.00  0.00     0.022 A 
HETATM   18  C   UNK     0      -9.747  -4.823  -2.783  0.00  0.00    -0.027 A 
HETATM   19  C   UNK     0     -11.042  -5.085  -2.418  0.00  0.00    -0.031 A 
HETATM   20  C   UNK     0     -12.242  -4.807  -3.306  0.00  0.00     0.051 C 
HETATM   21  C   UNK     0      -7.438  -5.059  -1.734  0.00  0.00     0.115 C 
HETATM   22  C   UNK     0      -6.759  -4.722  -0.428  0.00  0.00     0.022 A 
HETATM   23  N   UNK     0      -7.183  -3.897   0.539  0.00  0.00    -0.361 N 
HETATM   24  C   UNK     0      -6.342  -4.006   1.587  0.00  0.00     0.021 A 
HETATM   25  C   UNK     0      -5.347  -4.915   1.285  0.00  0.00    -0.031 A 
HETATM   26  C   UNK     0      -4.159  -5.342   2.121  0.00  0.00     0.051 C 
HETATM   27  C   UNK     0      -5.593  -5.387   0.000  0.00  0.00    -0.027 A 
HETATM   28  C   UNK     0      -6.460  -3.338   2.946  0.00  0.00     0.115 C 
HETATM   29  H   UNK     0      -9.321  -2.866   2.427  0.00  0.00     0.165 HD
HETATM   30  H   UNK     0     -10.617  -5.982   2.072  0.00  0.00     0.165 HD
HETATM   31  H   UNK     0      -9.361  -6.224   0.193  0.00  0.00     0.165 HD
HETATM   32  H   UNK     0      -8.056  -3.196   0.473  0.00  0.00     0.165 HD
ENDROOT
BRANCH   6  33
HETATM   33  C   UNK     0      -9.461  -5.311   6.497  0.00  0.00     0.051 C 
BRANCH  33  34
HETATM   34  C   UNK     0      -9.548  -4.362   7.669  0.00  0.00     0.114 C 
BRANCH  34  35
HETATM   35  C   UNK     0     -10.924  -4.473   8.232  0.00  0.00     0.139 C 
HETATM   36  O   UNK     0     -11.841  -5.037   7.567  0.00  0.00    -0.650 OA
BRANCH  35  37
HETATM   37  O   UNK     0     -11.263  -3.978   9.485  0.00  0.00    -0.776 OA
HETATM   38  H   UNK     0     -12.217  -3.779   9.742  0.00  0.00     0.167 HD
ENDBRANCH  35  37
ENDBRANCH  34  35
ENDBRANCH  33  34
ENDBRANCH   6  33
BRANCH  27  39
HETATM   39  C   UNK     0      -4.687  -6.337  -0.701  0.00  0.00     0.051 C 
BRANCH  39  40
HETATM   40  C   UNK     0      -3.928  -5.850  -1.853  0.00  0.00     0.114 C 
BRANCH  40  41
HETATM   41  C   UNK     0      -4.073  -6.426  -3.171  0.00  0.00     0.139 C 
HETATM   42  O   UNK     0      -4.049  -7.645  -3.391  0.00  0.00    -0.650 OA
BRANCH  41  43
HETATM   43  O   UNK     0      -4.254  -5.561  -4.287  0.00  0.00    -0.776 OA
HETATM   44  H   UNK     0      -3.878  -5.917  -5.158  0.00  0.00     0.167 HD
ENDBRANCH  41  43
ENDBRANCH  40  41
ENDBRANCH  39  40
ENDBRANCH  27  39
BRANCH  11  45
HETATM   45  C   UNK     0     -14.632  -4.064   0.428  0.00  0.00     0.051 C 
BRANCH  45  46
HETATM   46  C   UNK     0     -14.330  -3.162  -0.713  0.00  0.00     0.114 C 
BRANCH  46  47
HETATM   47  C   UNK     0     -15.604  -2.485  -1.090  0.00  0.00     0.139 C 
HETATM   48  O   UNK     0     -15.680  -1.255  -0.965  0.00  0.00    -0.650 OA
BRANCH  47  49
HETATM   49  O   UNK     0     -16.670  -3.208  -1.563  0.00  0.00    -0.776 OA
HETATM   50  H   UNK     0     -16.912  -3.233  -2.560  0.00  0.00     0.167 HD
ENDBRANCH  47  49
ENDBRANCH  46  47
ENDBRANCH  45  46
ENDBRANCH  11  45
BRANCH  18  51
HETATM   51  C   UNK     0      -9.309  -4.215  -4.090  0.00  0.00     0.051 C 
BRANCH  51  52
HETATM   52  C   UNK     0      -8.567  -5.310  -4.841  0.00  0.00     0.114 C 
BRANCH  52  53
HETATM   53  C   UNK     0      -7.365  -4.791  -5.523  0.00  0.00     0.139 C 
HETATM   54  O   UNK     0      -6.977  -5.312  -6.581  0.00  0.00    -0.650 OA
BRANCH  53  55
HETATM   55  O   UNK     0      -6.679  -3.732  -4.979  0.00  0.00    -0.776 OA
HETATM   56  H   UNK     0      -7.081  -2.957  -4.506  0.00  0.00     0.167 HD
ENDBRANCH  53  55
ENDBRANCH  52  53
ENDBRANCH  51  52
ENDBRANCH  18  51
TORSDOF 16
ENDMDL
MODEL 13
REMARK VINA RESULT:      -8.1     25.174     30.846
REMARK  16 active torsions:
REMARK  status: ('A' for Active; 'I' for Inactive)
REMARK    1  A    between atoms: C_6  and  C_7 
REMARK    2  A    between atoms: C_7  and  C_8 
REMARK    3  A    between atoms: C_8  and  C_9 
REMARK    4  A    between atoms: C_9  and  O_11 
REMARK    5  A    between atoms: C_16  and  C_17 
REMARK    6  A    between atoms: C_17  and  C_18 
REMARK    7  A    between atoms: C_18  and  C_19 
REMARK    8  A    between atoms: C_19  and  O_21 
REMARK    9  A    between atoms: C_28  and  C_29 
REMARK   10  A    between atoms: C_29  and  C_30 
REMARK   11  A    between atoms: C_30  and  C_31 
REMARK   12  A    between atoms: C_31  and  O_33 
REMARK   13  A    between atoms: C_42  and  C_43 
REMARK   14  A    between atoms: C_43  and  C_44 
REMARK   15  A    between atoms: C_44  and  C_45 
REMARK   16  A    between atoms: C_45  and  O_47 
ROOT
HETATM    1  C   UNK     0      20.088  15.511  -6.177  0.00  0.00     0.051 C 
HETATM    2  C   UNK     0      18.683  16.075  -6.114  0.00  0.00    -0.031 A 
HETATM    3  C   UNK     0      18.256  17.388  -6.233  0.00  0.00     0.021 A 
HETATM    4  N   UNK     0      16.911  17.430  -6.079  0.00  0.00    -0.361 N 
HETATM    5  C   UNK     0      16.471  16.171  -5.874  0.00  0.00     0.022 A 
HETATM    6  C   UNK     0      17.554  15.299  -5.886  0.00  0.00    -0.027 A 
HETATM    7  C   UNK     0      15.070  15.663  -5.740  0.00  0.00     0.115 C 
HETATM    8  C   UNK     0      14.043  16.234  -6.702  0.00  0.00     0.021 A 
HETATM    9  N   UNK     0      14.206  16.589  -7.986  0.00  0.00    -0.361 N 
HETATM   10  C   UNK     0      13.050  17.133  -8.421  0.00  0.00     0.022 A 
HETATM   11  C   UNK     0      12.113  17.121  -7.391  0.00  0.00    -0.027 A 
HETATM   12  C   UNK     0      12.732  16.555  -6.306  0.00  0.00    -0.031 A 
HETATM   13  C   UNK     0      12.093  16.330  -4.954  0.00  0.00     0.051 C 
HETATM   14  C   UNK     0      12.800  17.734  -9.801  0.00  0.00     0.115 C 
HETATM   15  C   UNK     0      13.697  18.915 -10.131  0.00  0.00     0.021 A 
HETATM   16  N   UNK     0      15.043  18.939 -10.170  0.00  0.00    -0.361 N 
HETATM   17  C   UNK     0      15.452  20.183 -10.430  0.00  0.00     0.022 A 
HETATM   18  C   UNK     0      14.319  21.007 -10.576  0.00  0.00    -0.027 A 
HETATM   19  C   UNK     0      13.226  20.201 -10.388  0.00  0.00    -0.031 A 
HETATM   20  C   UNK     0      11.792  20.686 -10.495  0.00  0.00     0.051 C 
HETATM   21  C   UNK     0      16.852  20.749 -10.507  0.00  0.00     0.115 C 
HETATM   22  C   UNK     0      17.895  20.159  -9.586  0.00  0.00     0.022 A 
HETATM   23  N   UNK     0      17.759  19.793  -8.305  0.00  0.00    -0.361 N 
HETATM   24  C   UNK     0      18.897  19.182  -7.916  0.00  0.00     0.021 A 
HETATM   25  C   UNK     0      19.790  19.164  -8.970  0.00  0.00    -0.031 A 
HETATM   26  C   UNK     0      21.206  18.628  -9.010  0.00  0.00     0.051 C 
HETATM   27  C   UNK     0      19.172  19.784 -10.050  0.00  0.00    -0.027 A 
HETATM   28  C   UNK     0      19.185  18.516  -6.582  0.00  0.00     0.115 C 
HETATM   29  H   UNK     0      16.287  18.353  -6.078  0.00  0.00     0.165 HD
HETATM   30  H   UNK     0      15.120  16.410  -8.603  0.00  0.00     0.165 HD
HETATM   31  H   UNK     0      15.718  18.050 -10.060  0.00  0.00     0.165 HD
HETATM   32  H   UNK     0      16.874  20.001  -7.649  0.00  0.00     0.165 HD
ENDROOT
BRANCH   6  33
HETATM   33  C   UNK     0      17.597  13.803  -5.699  0.00  0.00     0.051 C 
BRANCH  33  34
HETATM   34  C   UNK     0      17.259  13.092  -6.988  0.00  0.00     0.114 C 
BRANCH  34  35
HETATM   35  C   UNK     0      16.621  11.794  -6.628  0.00  0.00     0.139 C 
HETATM   36  O   UNK     0      16.673  11.367  -5.437  0.00  0.00    -0.650 OA
BRANCH  35  37
HETATM   37  O   UNK     0      15.951  11.005  -7.555  0.00  0.00    -0.776 OA
HETATM   38  H   UNK     0      15.451  10.173  -7.287  0.00  0.00     0.167 HD
ENDBRANCH  35  37
ENDBRANCH  34  35
ENDBRANCH  33  34
ENDBRANCH   6  33
BRANCH  27  39
HETATM   39  C   UNK     0      19.855  20.017 -11.351  0.00  0.00     0.051 C 
BRANCH  39  40
HETATM   40  C   UNK     0      20.693  21.208 -11.491  0.00  0.00     0.114 C 
BRANCH  40  41
HETATM   41  C   UNK     0      22.088  21.130 -11.862  0.00  0.00     0.139 C 
HETATM   42  O   UNK     0      23.012  21.074 -11.040  0.00  0.00    -0.650 OA
BRANCH  41  43
HETATM   43  O   UNK     0      22.436  21.115 -13.243  0.00  0.00    -0.776 OA
HETATM   44  H   UNK     0      22.698  20.204 -13.599  0.00  0.00     0.167 HD
ENDBRANCH  41  43
ENDBRANCH  40  41
ENDBRANCH  39  40
ENDBRANCH  27  39
BRANCH  11  45
HETATM   45  C   UNK     0      10.691  17.611  -7.407  0.00  0.00     0.051 C 
BRANCH  45  46
HETATM   46  C   UNK     0      10.548  19.065  -7.139  0.00  0.00     0.114 C 
BRANCH  46  47
HETATM   47  C   UNK     0       9.273  19.254  -6.391  0.00  0.00     0.139 C 
HETATM   48  O   UNK     0       8.259  19.587  -7.021  0.00  0.00    -0.650 OA
BRANCH  47  49
HETATM   49  O   UNK     0       9.220  19.064  -5.033  0.00  0.00    -0.776 OA
HETATM   50  H   UNK     0       8.417  18.617  -4.575  0.00  0.00     0.167 HD
ENDBRANCH  47  49
ENDBRANCH  46  47
ENDBRANCH  45  46
ENDBRANCH  11  45
BRANCH  18  51
HETATM   51  C   UNK     0      14.279  22.478 -10.898  0.00  0.00     0.051 C 
BRANCH  51  52
HETATM   52  C   UNK     0      14.767  22.613 -12.333  0.00  0.00     0.114 C 
BRANCH  52  53
HETATM   53  C   UNK     0      13.706  22.289 -13.307  0.00  0.00     0.139 C 
HETATM   54  O   UNK     0      12.589  22.824 -13.210  0.00  0.00    -0.650 OA
BRANCH  53  55
HETATM   55  O   UNK     0      13.960  21.392 -14.316  0.00  0.00    -0.776 OA
HETATM   56  H   UNK     0      14.553  21.545 -15.097  0.00  0.00     0.167 HD
ENDBRANCH  53  55
ENDBRANCH  52  53
ENDBRANCH  51  52
ENDBRANCH  18  51
TORSDOF 16
ENDMDL
MODEL 14
REMARK VINA RESULT:      -7.9     22.392     24.461
REMARK  16 active torsions:
REMARK  status: ('A' for Active; 'I' for Inactive)
REMARK    1  A    between atoms: C_6  and  C_7 
REMARK    2  A    between atoms: C_7  and  C_8 
REMARK    3  A    between atoms: C_8  and  C_9 
REMARK    4  A    between atoms: C_9  and  O_11 
REMARK    5  A    between atoms: C_16  and  C_17 
REMARK    6  A    between atoms: C_17  and  C_18 
REMARK    7  A    between atoms: C_18  and  C_19 
REMARK    8  A    between atoms: C_19  and  O_21 
REMARK    9  A    between atoms: C_28  and  C_29 
REMARK   10  A    between atoms: C_29  and  C_30 
REMARK   11  A    between atoms: C_30  and  C_31 
REMARK   12  A    between atoms: C_31  and  O_33 
REMARK   13  A    between atoms: C_42  and  C_43 
REMARK   14  A    between atoms: C_43  and  C_44 
REMARK   15  A    between atoms: C_44  and  C_45 
REMARK   16  A    between atoms: C_45  and  O_47 
ROOT
HETATM    1  C   UNK     0     -12.864  -5.440   9.143  0.00  0.00     0.051 C 
HETATM    2  C   UNK     0     -11.710  -5.654   8.185  0.00  0.00    -0.031 A 
HETATM    3  C   UNK     0     -11.703  -6.255   6.936  0.00  0.00     0.021 A 
HETATM    4  N   UNK     0     -10.438  -6.253   6.452  0.00  0.00    -0.361 N 
HETATM    5  C   UNK     0      -9.641  -5.657   7.362  0.00  0.00     0.022 A 
HETATM    6  C   UNK     0     -10.403  -5.273   8.460  0.00  0.00    -0.027 A 
HETATM    7  C   UNK     0      -8.185  -5.320   7.276  0.00  0.00     0.115 C 
HETATM    8  C   UNK     0      -7.695  -4.745   5.959  0.00  0.00     0.021 A 
HETATM    9  N   UNK     0      -8.335  -3.918   5.118  0.00  0.00    -0.361 N 
HETATM   10  C   UNK     0      -7.557  -3.743   4.029  0.00  0.00     0.022 A 
HETATM   11  C   UNK     0      -6.380  -4.470   4.176  0.00  0.00    -0.027 A 
HETATM   12  C   UNK     0      -6.460  -5.104   5.390  0.00  0.00    -0.031 A 
HETATM   13  C   UNK     0      -5.398  -6.007   5.976  0.00  0.00     0.051 C 
HETATM   14  C   UNK     0      -7.914  -2.930   2.787  0.00  0.00     0.115 C 
HETATM   15  C   UNK     0      -9.148  -3.432   2.056  0.00  0.00     0.021 A 
HETATM   16  N   UNK     0     -10.396  -3.564   2.544  0.00  0.00    -0.361 N 
HETATM   17  C   UNK     0     -11.178  -4.105   1.608  0.00  0.00     0.022 A 
HETATM   18  C   UNK     0     -10.406  -4.327   0.450  0.00  0.00    -0.027 A 
HETATM   19  C   UNK     0      -9.137  -3.900   0.744  0.00  0.00    -0.031 A 
HETATM   20  C   UNK     0      -7.988  -3.927  -0.247  0.00  0.00     0.051 C 
HETATM   21  C   UNK     0     -12.630  -4.520   1.676  0.00  0.00     0.115 C 
HETATM   22  C   UNK     0     -13.142  -5.053   2.994  0.00  0.00     0.022 A 
HETATM   23  N   UNK     0     -12.526  -5.875   3.853  0.00  0.00    -0.361 N 
HETATM   24  C   UNK     0     -13.283  -5.972   4.964  0.00  0.00     0.021 A 
HETATM   25  C   UNK     0     -14.421  -5.203   4.812  0.00  0.00    -0.031 A 
HETATM   26  C   UNK     0     -15.585  -5.024   5.765  0.00  0.00     0.051 C 
HETATM   27  C   UNK     0     -14.354  -4.605   3.559  0.00  0.00    -0.027 A 
HETATM   28  C   UNK     0     -12.958  -6.714   6.249  0.00  0.00     0.115 C 
HETATM   29  H   UNK     0     -10.112  -6.709   5.489  0.00  0.00     0.165 HD
HETATM   30  H   UNK     0      -9.314  -3.415   5.313  0.00  0.00     0.165 HD
HETATM   31  H   UNK     0     -10.743  -3.225   3.555  0.00  0.00     0.165 HD
HETATM   32  H   UNK     0     -11.569  -6.428   3.665  0.00  0.00     0.165 HD
ENDROOT
BRANCH   6  33
HETATM   33  C   UNK     0      -9.990  -4.581   9.734  0.00  0.00     0.051 C 
BRANCH  33  34
HETATM   34  C   UNK     0     -10.121  -3.083   9.597  0.00  0.00     0.114 C 
BRANCH  34  35
HETATM   35  C   UNK     0      -9.747  -2.480  10.909  0.00  0.00     0.139 C 
HETATM   36  O   UNK     0      -9.544  -1.235  11.003  0.00  0.00    -0.650 OA
BRANCH  35  37
HETATM   37  O   UNK     0      -9.608  -3.234  12.068  0.00  0.00    -0.776 OA
HETATM   38  H   UNK     0      -8.825  -3.118  12.690  0.00  0.00     0.167 HD
ENDBRANCH  35  37
ENDBRANCH  34  35
ENDBRANCH  33  34
ENDBRANCH   6  33
BRANCH  27  39
HETATM   39  C   UNK     0     -15.442  -3.753   3.008  0.00  0.00     0.051 C 
BRANCH  39  40
HETATM   40  C   UNK     0     -16.284  -4.303   1.946  0.00  0.00     0.114 C 
BRANCH  40  41
HETATM   41  C   UNK     0     -15.985  -4.105   0.545  0.00  0.00     0.139 C 
HETATM   42  O   UNK     0     -16.016  -5.014  -0.295  0.00  0.00    -0.650 OA
BRANCH  41  43
HETATM   43  O   UNK     0     -15.636  -2.802   0.091  0.00  0.00    -0.776 OA
HETATM   44  H   UNK     0     -15.201  -2.215   0.793  0.00  0.00     0.167 HD
ENDBRANCH  41  43
ENDBRANCH  40  41
ENDBRANCH  39  40
ENDBRANCH  27  39
BRANCH  11  45
HETATM   45  C   UNK     0      -5.214  -4.577   3.229  0.00  0.00     0.051 C 
BRANCH  45  46
HETATM   46  C   UNK     0      -4.178  -3.531   3.423  0.00  0.00     0.114 C 
BRANCH  46  47
HETATM   47  C   UNK     0      -2.918  -4.225   3.818  0.00  0.00     0.139 C 
HETATM   48  O   UNK     0      -2.207  -3.709   4.691  0.00  0.00    -0.650 OA
BRANCH  47  49
HETATM   49  O   UNK     0      -2.553  -5.407   3.226  0.00  0.00    -0.776 OA
HETATM   50  H   UNK     0      -2.459  -6.278   3.761  0.00  0.00     0.167 HD
ENDBRANCH  47  49
ENDBRANCH  46  47
ENDBRANCH  45  46
ENDBRANCH  11  45
BRANCH  18  51
HETATM   51  C   UNK     0     -10.858  -4.894  -0.870  0.00  0.00     0.051 C 
BRANCH  51  52
HETATM   52  C   UNK     0     -11.451  -3.732  -1.653  0.00  0.00     0.114 C 
BRANCH  52  53
HETATM   53  C   UNK     0     -12.893  -3.916  -1.902  0.00  0.00     0.139 C 
HETATM   54  O   UNK     0     -13.605  -2.939  -2.183  0.00  0.00    -0.650 OA
BRANCH  53  55
HETATM   55  O   UNK     0     -13.443  -5.173  -1.819  0.00  0.00    -0.776 OA
HETATM   56  H   UNK     0     -13.871  -5.571  -1.017  0.00  0.00     0.167 HD
ENDBRANCH  53  55
ENDBRANCH  52  53
ENDBRANCH  51  52
ENDBRANCH  18  51
TORSDOF 16
ENDMDL
MODEL 15
REMARK VINA RESULT:      -7.9      3.644      9.895
REMARK  16 active torsions:
REMARK  status: ('A' for Active; 'I' for Inactive)
REMARK    1  A    between atoms: C_6  and  C_7 
REMARK    2  A    between atoms: C_7  and  C_8 
REMARK    3  A    between atoms: C_8  and  C_9 
REMARK    4  A    between atoms: C_9  and  O_11 
REMARK    5  A    between atoms: C_16  and  C_17 
REMARK    6  A    between atoms: C_17  and  C_18 
REMARK    7  A    between atoms: C_18  and  C_19 
REMARK    8  A    between atoms: C_19  and  O_21 
REMARK    9  A    between atoms: C_28  and  C_29 
REMARK   10  A    between atoms: C_29  and  C_30 
REMARK   11  A    between atoms: C_30  and  C_31 
REMARK   12  A    between atoms: C_31  and  O_33 
REMARK   13  A    between atoms: C_42  and  C_43 
REMARK   14  A    between atoms: C_43  and  C_44 
REMARK   15  A    between atoms: C_44  and  C_45 
REMARK   16  A    between atoms: C_45  and  O_47 
ROOT
HETATM    1  C   UNK     0      12.231 -10.769  -3.769  0.00  0.00     0.051 C 
HETATM    2  C   UNK     0      11.830 -11.534  -5.014  0.00  0.00    -0.031 A 
HETATM    3  C   UNK     0      11.963 -12.884  -5.298  0.00  0.00     0.021 A 
HETATM    4  N   UNK     0      11.496 -13.120  -6.547  0.00  0.00    -0.361 N 
HETATM    5  C   UNK     0      11.059 -11.951  -7.061  0.00  0.00     0.022 A 
HETATM    6  C   UNK     0      11.256 -10.938  -6.129  0.00  0.00    -0.027 A 
HETATM    7  C   UNK     0      10.370 -11.682  -8.362  0.00  0.00     0.115 C 
HETATM    8  C   UNK     0       9.292 -12.667  -8.779  0.00  0.00     0.021 A 
HETATM    9  N   UNK     0       8.414 -13.323  -8.004  0.00  0.00    -0.361 N 
HETATM   10  C   UNK     0       7.706 -14.161  -8.790  0.00  0.00     0.022 A 
HETATM   11  C   UNK     0       8.133 -14.035 -10.109  0.00  0.00    -0.027 A 
HETATM   12  C   UNK     0       9.131 -13.094 -10.109  0.00  0.00    -0.031 A 
HETATM   13  C   UNK     0       9.891 -12.626 -11.330  0.00  0.00     0.051 C 
HETATM   14  C   UNK     0       6.641 -15.150  -8.325  0.00  0.00     0.115 C 
HETATM   15  C   UNK     0       7.156 -16.198  -7.352  0.00  0.00     0.021 A 
HETATM   16  N   UNK     0       7.741 -15.993  -6.157  0.00  0.00    -0.361 N 
HETATM   17  C   UNK     0       8.114 -17.167  -5.644  0.00  0.00     0.022 A 
HETATM   18  C   UNK     0       7.746 -18.187  -6.543  0.00  0.00    -0.027 A 
HETATM   19  C   UNK     0       7.146 -17.567  -7.608  0.00  0.00    -0.031 A 
HETATM   20  C   UNK     0       6.565 -18.309  -8.798  0.00  0.00     0.051 C 
HETATM   21  C   UNK     0       8.867 -17.475  -4.370  0.00  0.00     0.115 C 
HETATM   22  C   UNK     0       9.913 -16.482  -3.920  0.00  0.00     0.022 A 
HETATM   23  N   UNK     0      10.797 -15.811  -4.669  0.00  0.00    -0.361 N 
HETATM   24  C   UNK     0      11.437 -14.926  -3.878  0.00  0.00     0.021 A 
HETATM   25  C   UNK     0      10.961 -15.038  -2.586  0.00  0.00    -0.031 A 
HETATM   26  C   UNK     0      11.395 -14.290  -1.342  0.00  0.00     0.051 C 
HETATM   27  C   UNK     0       9.985 -16.028  -2.587  0.00  0.00    -0.027 A 
HETATM   28  C   UNK     0      12.460 -13.881  -4.290  0.00  0.00     0.115 C 
HETATM   29  H   UNK     0      11.513 -14.103  -7.071  0.00  0.00     0.165 HD
HETATM   30  H   UNK     0       8.258 -13.161  -6.910  0.00  0.00     0.165 HD
HETATM   31  H   UNK     0       7.850 -15.003  -5.642  0.00  0.00     0.165 HD
HETATM   32  H   UNK     0      11.008 -15.986  -5.756  0.00  0.00     0.165 HD
ENDROOT
BRANCH   6  33
HETATM   33  C   UNK     0      10.947  -9.465  -6.218  0.00  0.00     0.051 C 
BRANCH  33  34
HETATM   34  C   UNK     0      11.958  -8.757  -7.089  0.00  0.00     0.114 C 
BRANCH  34  35
HETATM   35  C   UNK     0      12.386  -7.526  -6.365  0.00  0.00     0.139 C 
HETATM   36  O   UNK     0      12.908  -7.612  -5.215  0.00  0.00    -0.650 OA
BRANCH  35  37
HETATM   37  O   UNK     0      12.242  -6.253  -6.902  0.00  0.00    -0.776 OA
HETATM   38  H   UNK     0      12.188  -6.094  -7.896  0.00  0.00     0.167 HD
ENDBRANCH  35  37
ENDBRANCH  34  35
ENDBRANCH  33  34
ENDBRANCH   6  33
BRANCH  27  39
HETATM   39  C   UNK     0       9.289 -16.482  -1.352  0.00  0.00     0.051 C 
BRANCH  39  40
HETATM   40  C   UNK     0       9.146 -17.920  -1.126  0.00  0.00     0.114 C 
BRANCH  40  41
HETATM   41  C   UNK     0       7.853 -18.558  -1.022  0.00  0.00     0.139 C 
HETATM   42  O   UNK     0       7.391 -19.312  -1.889  0.00  0.00    -0.650 OA
BRANCH  41  43
HETATM   43  O   UNK     0       7.054 -18.318   0.132  0.00  0.00    -0.776 OA
HETATM   44  H   UNK     0       6.397 -19.058   0.349  0.00  0.00     0.167 HD
ENDBRANCH  41  43
ENDBRANCH  40  41
ENDBRANCH  39  40
ENDBRANCH  27  39
BRANCH  11  45
HETATM   45  C   UNK     0       7.635 -14.755 -11.333  0.00  0.00     0.051 C 
BRANCH  45  46
HETATM   46  C   UNK     0       6.531 -14.056 -12.040  0.00  0.00     0.114 C 
BRANCH  46  47
HETATM   47  C   UNK     0       5.630 -15.106 -12.597  0.00  0.00     0.139 C 
HETATM   48  O   UNK     0       4.776 -14.772 -13.430  0.00  0.00    -0.650 OA
BRANCH  47  49
HETATM   49  O   UNK     0       5.742 -16.413 -12.196  0.00  0.00    -0.776 OA
HETATM   50  H   UNK     0       6.466 -17.038 -12.570  0.00  0.00     0.167 HD
ENDBRANCH  47  49
ENDBRANCH  46  47
ENDBRANCH  45  46
ENDBRANCH  11  45
BRANCH  18  51
HETATM   51  C   UNK     0       7.937 -19.674  -6.386  0.00  0.00     0.051 C 
BRANCH  51  52
HETATM   52  C   UNK     0       6.598 -20.313  -6.721  0.00  0.00     0.114 C 
BRANCH  52  53
HETATM   53  C   UNK     0       5.622 -20.148  -5.627  0.00  0.00     0.139 C 
HETATM   54  O   UNK     0       6.010 -20.109  -4.448  0.00  0.00    -0.650 OA
BRANCH  53  55
HETATM   55  O   UNK     0       4.284 -20.043  -5.920  0.00  0.00    -0.776 OA
HETATM   56  H   UNK     0       3.871 -20.162  -6.815  0.00  0.00     0.167 HD
ENDBRANCH  53  55
ENDBRANCH  52  53
ENDBRANCH  51  52
ENDBRANCH  18  51
TORSDOF 16
ENDMDL
MODEL 16
REMARK VINA RESULT:      -7.9     20.924     23.007
REMARK  16 active torsions:
REMARK  status: ('A' for Active; 'I' for Inactive)
REMARK    1  A    between atoms: C_6  and  C_7 
REMARK    2  A    between atoms: C_7  and  C_8 
REMARK    3  A    between atoms: C_8  and  C_9 
REMARK    4  A    between atoms: C_9  and  O_11 
REMARK    5  A    between atoms: C_16  and  C_17 
REMARK    6  A    between atoms: C_17  and  C_18 
REMARK    7  A    between atoms: C_18  and  C_19 
REMARK    8  A    between atoms: C_19  and  O_21 
REMARK    9  A    between atoms: C_28  and  C_29 
REMARK   10  A    between atoms: C_29  and  C_30 
REMARK   11  A    between atoms: C_30  and  C_31 
REMARK   12  A    between atoms: C_31  and  O_33 
REMARK   13  A    between atoms: C_42  and  C_43 
REMARK   14  A    between atoms: C_43  and  C_44 
REMARK   15  A    between atoms: C_44  and  C_45 
REMARK   16  A    between atoms: C_45  and  O_47 
ROOT
HETATM    1  C   UNK     0      -8.243  -3.727   4.316  0.00  0.00     0.051 C 
HETATM    2  C   UNK     0      -9.222  -3.627   3.164  0.00  0.00    -0.031 A 
HETATM    3  C   UNK     0      -8.991  -3.291   1.840  0.00  0.00     0.021 A 
HETATM    4  N   UNK     0     -10.168  -3.298   1.171  0.00  0.00    -0.361 N 
HETATM    5  C   UNK     0     -11.143  -3.641   2.038  0.00  0.00     0.022 A 
HETATM    6  C   UNK     0     -10.586  -3.851   3.295  0.00  0.00    -0.027 A 
HETATM    7  C   UNK     0     -12.599  -3.883   1.787  0.00  0.00     0.115 C 
HETATM    8  C   UNK     0     -12.953  -4.674   0.540  0.00  0.00     0.021 A 
HETATM    9  N   UNK     0     -12.288  -5.697  -0.018  0.00  0.00    -0.361 N 
HETATM   10  C   UNK     0     -12.917  -6.031  -1.165  0.00  0.00     0.022 A 
HETATM   11  C   UNK     0     -14.024  -5.206  -1.345  0.00  0.00    -0.027 A 
HETATM   12  C   UNK     0     -14.052  -4.349  -0.275  0.00  0.00    -0.031 A 
HETATM   13  C   UNK     0     -15.089  -3.273  -0.044  0.00  0.00     0.051 C 
HETATM   14  C   UNK     0     -12.473  -7.100  -2.158  0.00  0.00     0.115 C 
HETATM   15  C   UNK     0     -11.103  -6.845  -2.766  0.00  0.00     0.021 A 
HETATM   16  N   UNK     0      -9.930  -6.708  -2.119  0.00  0.00    -0.361 N 
HETATM   17  C   UNK     0      -8.972  -6.424  -3.004  0.00  0.00     0.022 A 
HETATM   18  C   UNK     0      -9.546  -6.384  -4.291  0.00  0.00    -0.027 A 
HETATM   19  C   UNK     0     -10.881  -6.651  -4.128  0.00  0.00    -0.031 A 
HETATM   20  C   UNK     0     -11.870  -6.741  -5.276  0.00  0.00     0.051 C 
HETATM   21  C   UNK     0      -7.510  -6.109  -2.786  0.00  0.00     0.115 C 
HETATM   22  C   UNK     0      -7.138  -5.361  -1.528  0.00  0.00     0.022 A 
HETATM   23  N   UNK     0      -7.784  -4.341  -0.947  0.00  0.00    -0.361 N 
HETATM   24  C   UNK     0      -7.185  -4.076   0.232  0.00  0.00     0.021 A 
HETATM   25  C   UNK     0      -6.121  -4.940   0.410  0.00  0.00    -0.031 A 
HETATM   26  C   UNK     0      -5.128  -5.007   1.551  0.00  0.00     0.051 C 
HETATM   27  C   UNK     0      -6.071  -5.772  -0.703  0.00  0.00    -0.027 A 
HETATM   28  C   UNK     0      -7.611  -3.070   1.286  0.00  0.00     0.115 C 
HETATM   29  H   UNK     0     -10.307  -3.023   0.099  0.00  0.00     0.165 HD
HETATM   30  H   UNK     0     -11.402  -6.219   0.420  0.00  0.00     0.165 HD
HETATM   31  H   UNK     0      -9.766  -6.861  -1.021  0.00  0.00     0.165 HD
HETATM   32  H   UNK     0      -8.643  -3.769  -1.384  0.00  0.00     0.165 HD
ENDROOT
BRANCH   6  33
HETATM   33  C   UNK     0     -11.244  -4.240   4.595  0.00  0.00     0.051 C 
BRANCH  33  34
HETATM   34  C   UNK     0     -11.518  -5.725   4.632  0.00  0.00     0.114 C 
BRANCH  34  35
HETATM   35  C   UNK     0     -10.474  -6.349   5.495  0.00  0.00     0.139 C 
HETATM   36  O   UNK     0      -9.520  -6.997   4.974  0.00  0.00    -0.650 OA
BRANCH  35  37
HETATM   37  O   UNK     0     -10.492  -6.253   6.881  0.00  0.00    -0.776 OA
HETATM   38  H   UNK     0     -11.152  -5.668   7.368  0.00  0.00     0.167 HD
ENDBRANCH  35  37
ENDBRANCH  34  35
ENDBRANCH  33  34
ENDBRANCH   6  33
BRANCH  27  39
HETATM   39  C   UNK     0      -5.007  -6.793  -0.905  0.00  0.00     0.051 C 
BRANCH  39  40
HETATM   40  C   UNK     0      -4.494  -7.003  -2.259  0.00  0.00     0.114 C 
BRANCH  40  41
HETATM   41  C   UNK     0      -3.806  -5.964  -2.991  0.00  0.00     0.139 C 
HETATM   42  O   UNK     0      -2.784  -5.399  -2.578  0.00  0.00    -0.650 OA
BRANCH  41  43
HETATM   43  O   UNK     0      -4.316  -5.557  -4.256  0.00  0.00    -0.776 OA
HETATM   44  H   UNK     0      -3.723  -5.794  -5.043  0.00  0.00     0.167 HD
ENDBRANCH  41  43
ENDBRANCH  40  41
ENDBRANCH  39  40
ENDBRANCH  27  39
BRANCH  11  45
HETATM   45  C   UNK     0     -15.027  -5.208  -2.468  0.00  0.00     0.051 C 
BRANCH  45  46
HETATM   46  C   UNK     0     -14.497  -4.688  -3.754  0.00  0.00     0.114 C 
BRANCH  46  47
HETATM   47  C   UNK     0     -15.526  -4.964  -4.798  0.00  0.00     0.139 C 
HETATM   48  O   UNK     0     -15.162  -5.470  -5.869  0.00  0.00    -0.650 OA
BRANCH  47  49
HETATM   49  O   UNK     0     -16.847  -4.662  -4.580  0.00  0.00    -0.776 OA
HETATM   50  H   UNK     0     -17.575  -5.385  -4.563  0.00  0.00     0.167 HD
ENDBRANCH  47  49
ENDBRANCH  46  47
ENDBRANCH  45  46
ENDBRANCH  11  45
BRANCH  18  51
HETATM   51  C   UNK     0      -8.857  -6.127  -5.605  0.00  0.00     0.051 C 
BRANCH  51  52
HETATM   52  C   UNK     0      -8.524  -4.643  -5.629  0.00  0.00     0.114 C 
BRANCH  52  53
HETATM   53  C   UNK     0      -7.077  -4.406  -5.789  0.00  0.00     0.139 C 
HETATM   54  O   UNK     0      -6.406  -5.136  -6.536  0.00  0.00    -0.650 OA
BRANCH  53  55
HETATM   55  O   UNK     0      -6.477  -3.378  -5.103  0.00  0.00    -0.776 OA
HETATM   56  H   UNK     0      -5.674  -3.452  -4.523  0.00  0.00     0.167 HD
ENDBRANCH  53  55
ENDBRANCH  52  53
ENDBRANCH  51  52
ENDBRANCH  18  51
TORSDOF 16
ENDMDL
MODEL 17
REMARK VINA RESULT:      -7.8      5.577      9.010
REMARK  16 active torsions:
REMARK  status: ('A' for Active; 'I' for Inactive)
REMARK    1  A    between atoms: C_6  and  C_7 
REMARK    2  A    between atoms: C_7  and  C_8 
REMARK    3  A    between atoms: C_8  and  C_9 
REMARK    4  A    between atoms: C_9  and  O_11 
REMARK    5  A    between atoms: C_16  and  C_17 
REMARK    6  A    between atoms: C_17  and  C_18 
REMARK    7  A    between atoms: C_18  and  C_19 
REMARK    8  A    between atoms: C_19  and  O_21 
REMARK    9  A    between atoms: C_28  and  C_29 
REMARK   10  A    between atoms: C_29  and  C_30 
REMARK   11  A    between atoms: C_30  and  C_31 
REMARK   12  A    between atoms: C_31  and  O_33 
REMARK   13  A    between atoms: C_42  and  C_43 
REMARK   14  A    between atoms: C_43  and  C_44 
REMARK   15  A    between atoms: C_44  and  C_45 
REMARK   16  A    between atoms: C_45  and  O_47 
ROOT
HETATM    1  C   UNK     0       4.061 -21.845  -7.713  0.00  0.00     0.051 C 
HETATM    2  C   UNK     0       5.278 -20.954  -7.565  0.00  0.00    -0.031 A 
HETATM    3  C   UNK     0       6.061 -20.365  -8.544  0.00  0.00     0.021 A 
HETATM    4  N   UNK     0       7.065 -19.676  -7.951  0.00  0.00    -0.361 N 
HETATM    5  C   UNK     0       6.934 -19.807  -6.615  0.00  0.00     0.022 A 
HETATM    6  C   UNK     0       5.827 -20.603  -6.338  0.00  0.00    -0.027 A 
HETATM    7  C   UNK     0       7.723 -19.171  -5.514  0.00  0.00     0.115 C 
HETATM    8  C   UNK     0       8.069 -17.702  -5.684  0.00  0.00     0.021 A 
HETATM    9  N   UNK     0       7.334 -16.730  -6.246  0.00  0.00    -0.361 N 
HETATM   10  C   UNK     0       8.074 -15.601  -6.262  0.00  0.00     0.022 A 
HETATM   11  C   UNK     0       9.316 -15.851  -5.685  0.00  0.00    -0.027 A 
HETATM   12  C   UNK     0       9.319 -17.172  -5.319  0.00  0.00    -0.031 A 
HETATM   13  C   UNK     0      10.468 -17.890  -4.645  0.00  0.00     0.051 C 
HETATM   14  C   UNK     0       7.663 -14.262  -6.866  0.00  0.00     0.115 C 
HETATM   15  C   UNK     0       7.381 -14.320  -8.359  0.00  0.00     0.021 A 
HETATM   16  N   UNK     0       6.475 -15.086  -8.995  0.00  0.00    -0.361 N 
HETATM   17  C   UNK     0       6.588 -14.898 -10.311  0.00  0.00     0.022 A 
HETATM   18  C   UNK     0       7.610 -13.957 -10.545  0.00  0.00    -0.027 A 
HETATM   19  C   UNK     0       8.098 -13.602  -9.314  0.00  0.00    -0.031 A 
HETATM   20  C   UNK     0       9.196 -12.574  -9.106  0.00  0.00     0.051 C 
HETATM   21  C   UNK     0       5.859 -15.567 -11.455  0.00  0.00     0.115 C 
HETATM   22  C   UNK     0       5.469 -17.016 -11.281  0.00  0.00     0.022 A 
HETATM   23  N   UNK     0       6.179 -18.005 -10.722  0.00  0.00    -0.361 N 
HETATM   24  C   UNK     0       5.394 -19.098 -10.646  0.00  0.00     0.021 A 
HETATM   25  C   UNK     0       4.153 -18.810 -11.179  0.00  0.00    -0.031 A 
HETATM   26  C   UNK     0       2.955 -19.721 -11.353  0.00  0.00     0.051 C 
HETATM   27  C   UNK     0       4.177 -17.483 -11.593  0.00  0.00    -0.027 A 
HETATM   28  C   UNK     0       5.724 -20.436 -10.007  0.00  0.00     0.115 C 
HETATM   29  H   UNK     0       7.883 -19.135  -8.482  0.00  0.00     0.165 HD
HETATM   30  H   UNK     0       6.274 -16.824  -6.588  0.00  0.00     0.165 HD
HETATM   31  H   UNK     0       5.707 -15.738  -8.502  0.00  0.00     0.165 HD
HETATM   32  H   UNK     0       7.256 -17.952 -10.414  0.00  0.00     0.165 HD
ENDROOT
BRANCH   6  33
HETATM   33  C   UNK     0       5.261 -21.051  -5.015  0.00  0.00     0.051 C 
BRANCH  33  34
HETATM   34  C   UNK     0       4.631 -19.891  -4.282  0.00  0.00     0.114 C 
BRANCH  34  35
HETATM   35  C   UNK     0       3.365 -19.549  -4.992  0.00  0.00     0.139 C 
HETATM   36  O   UNK     0       3.359 -18.659  -5.891  0.00  0.00    -0.650 OA
BRANCH  35  37
HETATM   37  O   UNK     0       2.156 -20.175  -4.713  0.00  0.00    -0.776 OA
HETATM   38  H   UNK     0       1.421 -19.715  -4.202  0.00  0.00     0.167 HD
ENDBRANCH  35  37
ENDBRANCH  34  35
ENDBRANCH  33  34
ENDBRANCH   6  33
BRANCH  27  39
HETATM   39  C   UNK     0       3.034 -16.830 -12.287  0.00  0.00     0.051 C 
BRANCH  39  40
HETATM   40  C   UNK     0       2.083 -16.059 -11.484  0.00  0.00     0.114 C 
BRANCH  40  41
HETATM   41  C   UNK     0       0.930 -16.668 -10.861  0.00  0.00     0.139 C 
HETATM   42  O   UNK     0      -0.056 -17.071 -11.494  0.00  0.00    -0.650 OA
BRANCH  41  43
HETATM   43  O   UNK     0       0.909 -16.821  -9.446  0.00  0.00    -0.776 OA
HETATM   44  H   UNK     0       0.190 -17.446  -9.103  0.00  0.00     0.167 HD
ENDBRANCH  41  43
ENDBRANCH  40  41
ENDBRANCH  39  40
ENDBRANCH  27  39
BRANCH  11  45
HETATM   45  C   UNK     0      10.465 -14.901  -5.475  0.00  0.00     0.051 C 
BRANCH  45  46
HETATM   46  C   UNK     0      10.464 -14.233  -4.149  0.00  0.00     0.114 C 
BRANCH  46  47
HETATM   47  C   UNK     0      10.007 -12.830  -4.361  0.00  0.00     0.139 C 
HETATM   48  O   UNK     0      10.784 -12.029  -4.898  0.00  0.00    -0.650 OA
BRANCH  47  49
HETATM   49  O   UNK     0       8.753 -12.433  -3.969  0.00  0.00    -0.776 OA
HETATM   50  H   UNK     0       8.608 -11.662  -3.307  0.00  0.00     0.167 HD
ENDBRANCH  47  49
ENDBRANCH  46  47
ENDBRANCH  45  46
ENDBRANCH  11  45
BRANCH  18  51
HETATM   51  C   UNK     0       8.081 -13.409 -11.867  0.00  0.00     0.051 C 
BRANCH  51  52
HETATM   52  C   UNK     0       8.442 -14.615 -12.723  0.00  0.00     0.114 C 
BRANCH  52  53
HETATM   53  C   UNK     0       7.700 -14.624 -13.998  0.00  0.00     0.139 C 
HETATM   54  O   UNK     0       6.604 -14.048 -14.084  0.00  0.00    -0.650 OA
BRANCH  53  55
HETATM   55  O   UNK     0       8.228 -15.276 -15.086  0.00  0.00    -0.776 OA
HETATM   56  H   UNK     0       8.122 -16.240 -15.297  0.00  0.00     0.167 HD
ENDBRANCH  53  55
ENDBRANCH  52  53
ENDBRANCH  51  52
ENDBRANCH  18  51
TORSDOF 16
ENDMDL
MODEL 18
REMARK VINA RESULT:      -7.8     34.615     36.487
REMARK  16 active torsions:
REMARK  status: ('A' for Active; 'I' for Inactive)
REMARK    1  A    between atoms: C_6  and  C_7 
REMARK    2  A    between atoms: C_7  and  C_8 
REMARK    3  A    between atoms: C_8  and  C_9 
REMARK    4  A    between atoms: C_9  and  O_11 
REMARK    5  A    between atoms: C_16  and  C_17 
REMARK    6  A    between atoms: C_17  and  C_18 
REMARK    7  A    between atoms: C_18  and  C_19 
REMARK    8  A    between atoms: C_19  and  O_21 
REMARK    9  A    between atoms: C_28  and  C_29 
REMARK   10  A    between atoms: C_29  and  C_30 
REMARK   11  A    between atoms: C_30  and  C_31 
REMARK   12  A    between atoms: C_31  and  O_33 
REMARK   13  A    between atoms: C_42  and  C_43 
REMARK   14  A    between atoms: C_43  and  C_44 
REMARK   15  A    between atoms: C_44  and  C_45 
REMARK   16  A    between atoms: C_45  and  O_47 
ROOT
HETATM    1  C   UNK     0     -22.914  -8.177  -0.795  0.00  0.00     0.051 C 
HETATM    2  C   UNK     0     -22.251  -6.986  -0.133  0.00  0.00    -0.031 A 
HETATM    3  C   UNK     0     -22.343  -5.640  -0.449  0.00  0.00     0.021 A 
HETATM    4  N   UNK     0     -21.552  -4.934   0.394  0.00  0.00    -0.361 N 
HETATM    5  C   UNK     0     -20.966  -5.800   1.247  0.00  0.00     0.022 A 
HETATM    6  C   UNK     0     -21.379  -7.093   0.943  0.00  0.00    -0.027 A 
HETATM    7  C   UNK     0     -20.081  -5.527   2.422  0.00  0.00     0.115 C 
HETATM    8  C   UNK     0     -20.483  -4.374   3.325  0.00  0.00     0.021 A 
HETATM    9  N   UNK     0     -21.716  -3.970   3.666  0.00  0.00    -0.361 N 
HETATM   10  C   UNK     0     -21.600  -2.851   4.411  0.00  0.00     0.022 A 
HETATM   11  C   UNK     0     -20.254  -2.530   4.562  0.00  0.00    -0.027 A 
HETATM   12  C   UNK     0     -19.545  -3.486   3.880  0.00  0.00    -0.031 A 
HETATM   13  C   UNK     0     -18.038  -3.545   3.773  0.00  0.00     0.051 C 
HETATM   14  C   UNK     0     -22.749  -2.012   4.964  0.00  0.00     0.115 C 
HETATM   15  C   UNK     0     -23.656  -1.428   3.893  0.00  0.00     0.021 A 
HETATM   16  N   UNK     0     -24.359  -2.096   2.959  0.00  0.00    -0.361 N 
HETATM   17  C   UNK     0     -24.974  -1.219   2.162  0.00  0.00     0.022 A 
HETATM   18  C   UNK     0     -24.664   0.083   2.605  0.00  0.00    -0.027 A 
HETATM   19  C   UNK     0     -23.840  -0.062   3.690  0.00  0.00    -0.031 A 
HETATM   20  C   UNK     0     -23.296   1.102   4.498  0.00  0.00     0.051 C 
HETATM   21  C   UNK     0     -25.819  -1.451   0.930  0.00  0.00     0.115 C 
HETATM   22  C   UNK     0     -25.457  -2.621   0.046  0.00  0.00     0.022 A 
HETATM   23  N   UNK     0     -24.238  -3.049  -0.307  0.00  0.00    -0.361 N 
HETATM   24  C   UNK     0     -24.374  -4.207  -0.983  0.00  0.00     0.021 A 
HETATM   25  C   UNK     0     -25.715  -4.528  -1.076  0.00  0.00    -0.031 A 
HETATM   26  C   UNK     0     -26.367  -5.705  -1.771  0.00  0.00     0.051 C 
HETATM   27  C   UNK     0     -26.428  -3.528  -0.425  0.00  0.00    -0.027 A 
HETATM   28  C   UNK     0     -23.274  -5.114  -1.505  0.00  0.00     0.115 C 
HETATM   29  H   UNK     0     -21.384  -3.833   0.356  0.00  0.00     0.165 HD
HETATM   30  H   UNK     0     -22.670  -4.501   3.425  0.00  0.00     0.165 HD
HETATM   31  H   UNK     0     -24.462  -3.210   2.888  0.00  0.00     0.165 HD
HETATM   32  H   UNK     0     -23.270  -2.513  -0.120  0.00  0.00     0.165 HD
ENDROOT
BRANCH   6  33
HETATM   33  C   UNK     0     -21.011  -8.405   1.588  0.00  0.00     0.051 C 
BRANCH  33  34
HETATM   34  C   UNK     0     -22.071  -8.833   2.575  0.00  0.00     0.114 C 
BRANCH  34  35
HETATM   35  C   UNK     0     -21.774  -8.156   3.870  0.00  0.00     0.139 C 
HETATM   36  O   UNK     0     -22.498  -7.197   4.268  0.00  0.00    -0.650 OA
BRANCH  35  37
HETATM   37  O   UNK     0     -20.717  -8.535   4.688  0.00  0.00    -0.776 OA
HETATM   38  H   UNK     0     -20.356  -7.932   5.409  0.00  0.00     0.167 HD
ENDBRANCH  35  37
ENDBRANCH  34  35
ENDBRANCH  33  34
ENDBRANCH   6  33
BRANCH  27  39
HETATM   39  C   UNK     0     -27.915  -3.492  -0.377  0.00  0.00     0.051 C 
BRANCH  39  40
HETATM   40  C   UNK     0     -28.605  -2.406  -1.071  0.00  0.00     0.114 C 
BRANCH  40  41
HETATM   41  C   UNK     0     -29.061  -1.218  -0.384  0.00  0.00     0.139 C 
HETATM   42  O   UNK     0     -29.015  -0.083  -0.877  0.00  0.00    -0.650 OA
BRANCH  41  43
HETATM   43  O   UNK     0     -29.594  -1.342   0.930  0.00  0.00    -0.776 OA
HETATM   44  H   UNK     0     -30.597  -1.212   0.990  0.00  0.00     0.167 HD
ENDBRANCH  41  43
ENDBRANCH  40  41
ENDBRANCH  39  40
ENDBRANCH  27  39
BRANCH  11  45
HETATM   45  C   UNK     0     -19.638  -1.380   5.314  0.00  0.00     0.051 C 
BRANCH  45  46
HETATM   46  C   UNK     0     -19.699  -1.519   6.791  0.00  0.00     0.114 C 
BRANCH  46  47
HETATM   47  C   UNK     0     -18.428  -2.164   7.227  0.00  0.00     0.139 C 
HETATM   48  O   UNK     0     -18.490  -3.176   7.939  0.00  0.00    -0.650 OA
BRANCH  47  49
HETATM   49  O   UNK     0     -17.213  -1.648   6.850  0.00  0.00    -0.776 OA
HETATM   50  H   UNK     0     -17.098  -0.663   6.585  0.00  0.00     0.167 HD
ENDBRANCH  47  49
ENDBRANCH  46  47
ENDBRANCH  45  46
ENDBRANCH  11  45
BRANCH  18  51
HETATM   51  C   UNK     0     -25.146   1.393   2.037  0.00  0.00     0.051 C 
BRANCH  51  52
HETATM   52  C   UNK     0     -26.107   1.974   3.063  0.00  0.00     0.114 C 
BRANCH  52  53
HETATM   53  C   UNK     0     -27.384   1.235   3.100  0.00  0.00     0.139 C 
HETATM   54  O   UNK     0     -27.797   0.762   4.171  0.00  0.00    -0.650 OA
BRANCH  53  55
HETATM   55  O   UNK     0     -28.108   1.072   1.945  0.00  0.00    -0.776 OA
HETATM   56  H   UNK     0     -27.992   0.343   1.281  0.00  0.00     0.167 HD
ENDBRANCH  53  55
ENDBRANCH  52  53
ENDBRANCH  51  52
ENDBRANCH  18  51
TORSDOF 16
ENDMDL
MODEL 19
REMARK VINA RESULT:      -7.7     34.502     36.433
REMARK  16 active torsions:
REMARK  status: ('A' for Active; 'I' for Inactive)
REMARK    1  A    between atoms: C_6  and  C_7 
REMARK    2  A    between atoms: C_7  and  C_8 
REMARK    3  A    between atoms: C_8  and  C_9 
REMARK    4  A    between atoms: C_9  and  O_11 
REMARK    5  A    between atoms: C_16  and  C_17 
REMARK    6  A    between atoms: C_17  and  C_18 
REMARK    7  A    between atoms: C_18  and  C_19 
REMARK    8  A    between atoms: C_19  and  O_21 
REMARK    9  A    between atoms: C_28  and  C_29 
REMARK   10  A    between atoms: C_29  and  C_30 
REMARK   11  A    between atoms: C_30  and  C_31 
REMARK   12  A    between atoms: C_31  and  O_33 
REMARK   13  A    between atoms: C_42  and  C_43 
REMARK   14  A    between atoms: C_43  and  C_44 
REMARK   15  A    between atoms: C_44  and  C_45 
REMARK   16  A    between atoms: C_45  and  O_47 
ROOT
HETATM    1  C   UNK     0     -23.214  -8.225  -1.336  0.00  0.00     0.051 C 
HETATM    2  C   UNK     0     -22.521  -7.066  -0.649  0.00  0.00    -0.031 A 
HETATM    3  C   UNK     0     -22.644  -5.706  -0.881  0.00  0.00     0.021 A 
HETATM    4  N   UNK     0     -21.809  -5.039  -0.049  0.00  0.00    -0.361 N 
HETATM    5  C   UNK     0     -21.163  -5.945   0.714  0.00  0.00     0.022 A 
HETATM    6  C   UNK     0     -21.583  -7.223   0.364  0.00  0.00    -0.027 A 
HETATM    7  C   UNK     0     -20.209  -5.728   1.847  0.00  0.00     0.115 C 
HETATM    8  C   UNK     0     -20.564  -4.633   2.837  0.00  0.00     0.021 A 
HETATM    9  N   UNK     0     -21.777  -4.264   3.276  0.00  0.00    -0.361 N 
HETATM   10  C   UNK     0     -21.624  -3.187   4.076  0.00  0.00     0.022 A 
HETATM   11  C   UNK     0     -20.274  -2.859   4.162  0.00  0.00    -0.027 A 
HETATM   12  C   UNK     0     -19.600  -3.766   3.384  0.00  0.00    -0.031 A 
HETATM   13  C   UNK     0     -18.102  -3.801   3.180  0.00  0.00     0.051 C 
HETATM   14  C   UNK     0     -22.743  -2.394   4.745  0.00  0.00     0.115 C 
HETATM   15  C   UNK     0     -23.720  -1.762   3.767  0.00  0.00     0.021 A 
HETATM   16  N   UNK     0     -24.474  -2.384   2.841  0.00  0.00    -0.361 N 
HETATM   17  C   UNK     0     -25.144  -1.471   2.136  0.00  0.00     0.022 A 
HETATM   18  C   UNK     0     -24.819  -0.193   2.632  0.00  0.00    -0.027 A 
HETATM   19  C   UNK     0     -23.927  -0.389   3.654  0.00  0.00    -0.031 A 
HETATM   20  C   UNK     0     -23.344   0.734   4.492  0.00  0.00     0.051 C 
HETATM   21  C   UNK     0     -26.062  -1.643   0.947  0.00  0.00     0.115 C 
HETATM   22  C   UNK     0     -25.746  -2.757  -0.023  0.00  0.00     0.022 A 
HETATM   23  N   UNK     0     -24.548  -3.149  -0.475  0.00  0.00    -0.361 N 
HETATM   24  C   UNK     0     -24.717  -4.270  -1.206  0.00  0.00     0.021 A 
HETATM   25  C   UNK     0     -26.058  -4.601  -1.234  0.00  0.00    -0.031 A 
HETATM   26  C   UNK     0     -26.742  -5.744  -1.954  0.00  0.00     0.051 C 
HETATM   27  C   UNK     0     -26.737  -3.647  -0.485  0.00  0.00    -0.027 A 
HETATM   28  C   UNK     0     -23.643  -5.133  -1.846  0.00  0.00     0.115 C 
HETATM   29  H   UNK     0     -21.652  -3.935  -0.034  0.00  0.00     0.165 HD
HETATM   30  H   UNK     0     -22.739  -4.792   3.064  0.00  0.00     0.165 HD
HETATM   31  H   UNK     0     -24.572  -3.494   2.713  0.00  0.00     0.165 HD
HETATM   32  H   UNK     0     -23.576  -2.614  -0.317  0.00  0.00     0.165 HD
ENDROOT
BRANCH   6  33
HETATM   33  C   UNK     0     -21.165  -8.566   0.908  0.00  0.00     0.051 C 
BRANCH  33  34
HETATM   34  C   UNK     0     -19.726  -8.861   0.555  0.00  0.00     0.114 C 
BRANCH  34  35
HETATM   35  C   UNK     0     -19.692  -9.258  -0.881  0.00  0.00     0.139 C 
HETATM   36  O   UNK     0     -19.024  -8.578  -1.714  0.00  0.00    -0.650 OA
BRANCH  35  37
HETATM   37  O   UNK     0     -20.370 -10.369  -1.369  0.00  0.00    -0.776 OA
HETATM   38  H   UNK     0     -20.062 -10.866  -2.188  0.00  0.00     0.167 HD
ENDBRANCH  35  37
ENDBRANCH  34  35
ENDBRANCH  33  34
ENDBRANCH   6  33
BRANCH  27  39
HETATM   39  C   UNK     0     -28.218  -3.632  -0.343  0.00  0.00     0.051 C 
BRANCH  39  40
HETATM   40  C   UNK     0     -28.970  -2.580  -1.027  0.00  0.00     0.114 C 
BRANCH  40  41
HETATM   41  C   UNK     0     -29.344  -1.348  -0.369  0.00  0.00     0.139 C 
HETATM   42  O   UNK     0     -29.822  -1.300   0.772  0.00  0.00    -0.650 OA
BRANCH  41  43
HETATM   43  O   UNK     0     -29.160  -0.114  -1.056  0.00  0.00    -0.776 OA
HETATM   44  H   UNK     0     -29.992   0.460  -1.116  0.00  0.00     0.167 HD
ENDBRANCH  41  43
ENDBRANCH  40  41
ENDBRANCH  39  40
ENDBRANCH  27  39
BRANCH  11  45
HETATM   45  C   UNK     0     -19.622  -1.746   4.938  0.00  0.00     0.051 C 
BRANCH  45  46
HETATM   46  C   UNK     0     -19.598  -1.965   6.407  0.00  0.00     0.114 C 
BRANCH  46  47
HETATM   47  C   UNK     0     -18.246  -2.489   6.753  0.00  0.00     0.139 C 
HETATM   48  O   UNK     0     -18.095  -3.714   6.863  0.00  0.00    -0.650 OA
BRANCH  47  49
HETATM   49  O   UNK     0     -17.190  -1.634   6.948  0.00  0.00    -0.776 OA
HETATM   50  H   UNK     0     -16.624  -1.281   6.167  0.00  0.00     0.167 HD
ENDBRANCH  47  49
ENDBRANCH  46  47
ENDBRANCH  45  46
ENDBRANCH  11  45
BRANCH  18  51
HETATM   51  C   UNK     0     -25.346   1.141   2.171  0.00  0.00     0.051 C 
BRANCH  51  52
HETATM   52  C   UNK     0     -26.259   1.645   3.279  0.00  0.00     0.114 C 
BRANCH  52  53
HETATM   53  C   UNK     0     -27.656   1.215   3.078  0.00  0.00     0.139 C 
HETATM   54  O   UNK     0     -28.404   1.054   4.056  0.00  0.00    -0.650 OA
BRANCH  53  55
HETATM   55  O   UNK     0     -28.122   0.993   1.805  0.00  0.00    -0.776 OA
HETATM   56  H   UNK     0     -28.890   0.414   1.557  0.00  0.00     0.167 HD
ENDBRANCH  53  55
ENDBRANCH  52  53
ENDBRANCH  51  52
ENDBRANCH  18  51
TORSDOF 16
ENDMDL
