MODEL 1
REMARK VINA RESULT:      -9.0      0.000      0.000
REMARK  28 active torsions:
REMARK  status: ('A' for Active; 'I' for Inactive)
REMARK    1  A    between atoms: C_2  and  O_3 
REMARK    2  A    between atoms: C_2  and  C_4 
REMARK    3  A    between atoms: C_4  and  C_5 
REMARK    4  A    between atoms: C_5  and  C_6 
REMARK    5  A    between atoms: C_7  and  C_8 
REMARK    6  A    between atoms: C_8  and  C_9 
REMARK    7  A    between atoms: C_9  and  O_11 
REMARK    8  A    between atoms: C_28  and  C_29 
REMARK    9  A    between atoms: C_29  and  C_30 
REMARK   10  A    between atoms: C_30  and  O_32 
REMARK   11  A    between atoms: C_33  and  C_34 
REMARK   12  A    between atoms: C_34  and  C_35 
REMARK   13  A    between atoms: C_35  and  C_36 
REMARK   14  A    between atoms: C_36  and  O_38 
REMARK   15  A    between atoms: C_39  and  C_40 
REMARK   16  A    between atoms: C_40  and  C_41 
REMARK   17  A    between atoms: C_41  and  C_42 
REMARK   18  A    between atoms: C_42  and  O_44 
REMARK   19  A    between atoms: C_45  and  C_46 
REMARK   20  A    between atoms: C_46  and  C_47 
REMARK   21  A    between atoms: C_47  and  O_49 
REMARK   22  A    between atoms: C_50  and  C_51 
REMARK   23  A    between atoms: C_51  and  C_52 
REMARK   24  A    between atoms: C_52  and  O_54 
REMARK   25  A    between atoms: C_55  and  C_56 
REMARK   26  A    between atoms: C_56  and  C_57 
REMARK   27  A    between atoms: C_57  and  C_58 
REMARK   28  A    between atoms: C_58  and  O_60 
ROOT
ATOM      1  O   UNK d   0     -33.909   0.270   1.963  0.00  0.00    -0.650 OA
ATOM      2  C   UNK d   0     -34.278   0.092   3.145  0.00  0.00     0.139 C 
ENDROOT
BRANCH   2   3
ATOM      3  O   UNK d   0     -34.649   1.174   3.905  0.00  0.00    -0.776 OA
ATOM      4  H   UNK d   0     -35.458   1.129   4.528  0.00  0.00     0.167 HD
ENDBRANCH   2   3
BRANCH   2   5
ATOM      5  C   UNK d   0     -34.312  -1.283   3.719  0.00  0.00     0.115 C 
BRANCH   5   6
ATOM      6  C   UNK d   0     -32.914  -1.755   4.017  0.00  0.00     0.052 C 
BRANCH   6   7
ATOM      7  C   UNK d   0     -32.774  -2.312   5.414  0.00  0.00    -0.020 A 
ATOM      8  C   UNK d   0     -32.911  -1.671   6.546  0.00  0.00    -0.011 A 
ATOM      9  C   UNK d   0     -32.675  -2.617   7.624  0.00  0.00     0.067 A 
ATOM     10  C   UNK d   0     -32.688  -2.577   9.027  0.00  0.00     0.062 C 
ATOM     11  N   UNK d   0     -32.396  -3.809   7.057  0.00  0.00    -0.248 NA
ATOM     12  C   UNK d   0     -32.709  -3.666   9.906  0.00  0.00     0.041 A 
ATOM     13  N   UNK d   0     -32.032  -4.830   9.890  0.00  0.00    -0.355 N 
ATOM     14  C   UNK d   0     -33.602  -3.647  10.992  0.00  0.00    -0.022 A 
ATOM     15  C   UNK d   0     -32.478  -5.553  10.934  0.00  0.00     0.042 A 
ATOM     16  H   UNK d   0     -31.241  -5.126   9.167  0.00  0.00     0.166 HD
ATOM     17  C   UNK d   0     -32.109  -6.838  11.379  0.00  0.00     0.062 C 
ATOM     18  C   UNK d   0     -33.463  -4.845  11.649  0.00  0.00    -0.013 A 
ATOM     19  C   UNK d   0     -31.915  -7.982  10.647  0.00  0.00     0.067 A 
ATOM     20  N   UNK d   0     -31.869  -7.849   9.319  0.00  0.00    -0.248 NA
ATOM     21  C   UNK d   0     -31.747  -9.395  10.941  0.00  0.00    -0.011 A 
ATOM     22  C   UNK d   0     -31.685  -9.073   8.723  0.00  0.00     0.066 A 
ATOM     23  C   UNK d   0     -31.581  -9.076   7.340  0.00  0.00     0.062 C 
ATOM     24  C   UNK d   0     -31.617 -10.029   9.811  0.00  0.00    -0.020 A 
ATOM     25  C   UNK d   0     -31.551  -7.970   6.477  0.00  0.00     0.041 A 
ATOM     26  N   UNK d   0     -32.234  -6.819   6.484  0.00  0.00    -0.355 N 
ATOM     27  C   UNK d   0     -30.651  -7.987   5.389  0.00  0.00    -0.022 A 
ATOM     28  C   UNK d   0     -31.797  -6.099   5.439  0.00  0.00     0.042 A 
ATOM     29  H   UNK d   0     -33.036  -6.527   7.205  0.00  0.00     0.166 HD
ATOM     30  C   UNK d   0     -32.161  -4.824   4.979  0.00  0.00     0.062 C 
ATOM     31  C   UNK d   0     -30.799  -6.808   4.727  0.00  0.00    -0.013 A 
ATOM     32  C   UNK d   0     -32.440  -3.693   5.729  0.00  0.00     0.066 A 
BRANCH   8  33
ATOM     33  C   UNK d   0     -33.238  -0.243   6.721  0.00  0.00     0.151 C 
BRANCH  33  34
ATOM     34  C   UNK d   0     -32.076   0.639   6.512  0.00  0.00     0.143 C 
ATOM     35  O   UNK d   0     -32.052   1.447   5.573  0.00  0.00    -0.650 OA
BRANCH  34  36
ATOM     36  O   UNK d   0     -31.005   0.561   7.372  0.00  0.00    -0.776 OA
ATOM     37  H   UNK d   0     -30.228   1.233   7.320  0.00  0.00     0.167 HD
ENDBRANCH  34  36
ENDBRANCH  33  34
ENDBRANCH   8  33
BRANCH  31  38
ATOM     38  C   UNK d   0     -30.033  -6.371   3.501  0.00  0.00     0.151 C 
BRANCH  38  39
ATOM     39  C   UNK d   0     -30.035  -7.368   2.452  0.00  0.00     0.143 C 
ATOM     40  O   UNK d   0     -31.087  -7.828   1.974  0.00  0.00    -0.650 OA
BRANCH  39  41
ATOM     41  O   UNK d   0     -28.823  -7.839   1.949  0.00  0.00    -0.776 OA
ATOM     42  H   UNK d   0     -28.427  -8.669   2.402  0.00  0.00     0.167 HD
ENDBRANCH  39  41
ENDBRANCH  38  39
ENDBRANCH  31  38
BRANCH  27  43
ATOM     43  C   UNK d   0     -29.680  -9.061   4.966  0.00  0.00     0.052 C 
BRANCH  43  44
ATOM     44  C   UNK d   0     -28.480  -9.155   5.851  0.00  0.00     0.115 C 
BRANCH  44  45
ATOM     45  C   UNK d   0     -27.448  -9.906   5.089  0.00  0.00     0.139 C 
ATOM     46  O   UNK d   0     -26.686 -10.675   5.725  0.00  0.00    -0.650 OA
BRANCH  45  47
ATOM     47  O   UNK d   0     -27.300  -9.795   3.724  0.00  0.00    -0.776 OA
ATOM     48  H   UNK d   0     -26.832  -8.991   3.274  0.00  0.00     0.167 HD
ENDBRANCH  45  47
ENDBRANCH  44  45
ENDBRANCH  43  44
ENDBRANCH  27  43
BRANCH  24  49
ATOM     49  C   UNK d   0     -31.387 -11.474   9.648  0.00  0.00     0.052 C 
BRANCH  49  50
ATOM     50  C   UNK d   0     -30.285 -11.937  10.566  0.00  0.00     0.115 C 
BRANCH  50  51
ATOM     51  C   UNK d   0     -30.364 -13.304  11.063  0.00  0.00     0.139 C 
ATOM     52  O   UNK d   0     -29.351 -13.957  11.408  0.00  0.00    -0.650 OA
BRANCH  51  53
ATOM     53  O   UNK d   0     -31.598 -13.926  11.165  0.00  0.00    -0.776 OA
ATOM     54  H   UNK d   0     -32.136 -14.056  10.326  0.00  0.00     0.167 HD
ENDBRANCH  51  53
ENDBRANCH  50  51
ENDBRANCH  49  50
ENDBRANCH  24  49
BRANCH  21  55
ATOM     55  C   UNK d   0     -31.729  -9.964  12.321  0.00  0.00     0.151 C 
BRANCH  55  56
ATOM     56  C   UNK d   0     -32.818 -10.930  12.533  0.00  0.00     0.143 C 
ATOM     57  O   UNK d   0     -33.962 -10.772  12.063  0.00  0.00    -0.650 OA
BRANCH  56  58
ATOM     58  O   UNK d   0     -32.540 -12.065  13.294  0.00  0.00    -0.776 OA
ATOM     59  H   UNK d   0     -33.263 -12.308  13.995  0.00  0.00     0.167 HD
ENDBRANCH  56  58
ENDBRANCH  55  56
ENDBRANCH  21  55
BRANCH  18  60
ATOM     60  C   UNK d   0     -34.242  -5.253  12.875  0.00  0.00     0.151 C 
BRANCH  60  61
ATOM     61  C   UNK d   0     -35.493  -5.847  12.380  0.00  0.00     0.143 C 
ATOM     62  O   UNK d   0     -35.853  -5.949  11.206  0.00  0.00    -0.650 OA
BRANCH  61  63
ATOM     63  O   UNK d   0     -36.359  -6.349  13.381  0.00  0.00    -0.776 OA
ATOM     64  H   UNK d   0     -36.216  -7.260  13.781  0.00  0.00     0.167 HD
ENDBRANCH  61  63
ENDBRANCH  60  61
ENDBRANCH  18  60
BRANCH  14  65
ATOM     65  C   UNK d   0     -34.495  -2.555  11.509  0.00  0.00     0.052 C 
BRANCH  65  66
ATOM     66  C   UNK d   0     -35.738  -2.392  10.709  0.00  0.00     0.115 C 
BRANCH  66  67
ATOM     67  C   UNK d   0     -36.971  -2.952  11.186  0.00  0.00     0.139 C 
ATOM     68  O   UNK d   0     -37.341  -2.685  12.388  0.00  0.00    -0.650 OA
BRANCH  67  69
ATOM     69  O   UNK d   0     -37.856  -3.780  10.496  0.00  0.00    -0.776 OA
ATOM     70  H   UNK d   0     -37.595  -4.004   9.525  0.00  0.00     0.167 HD
ENDBRANCH  67  69
ENDBRANCH  66  67
ENDBRANCH  65  66
ENDBRANCH  14  65
ENDBRANCH   6   7
ENDBRANCH   5   6
ENDBRANCH   2   5
TORSDOF 28
ENDMDL
MODEL 2
REMARK VINA RESULT:      -8.5      2.533      8.540
REMARK  28 active torsions:
REMARK  status: ('A' for Active; 'I' for Inactive)
REMARK    1  A    between atoms: C_2  and  O_3 
REMARK    2  A    between atoms: C_2  and  C_4 
REMARK    3  A    between atoms: C_4  and  C_5 
REMARK    4  A    between atoms: C_5  and  C_6 
REMARK    5  A    between atoms: C_7  and  C_8 
REMARK    6  A    between atoms: C_8  and  C_9 
REMARK    7  A    between atoms: C_9  and  O_11 
REMARK    8  A    between atoms: C_28  and  C_29 
REMARK    9  A    between atoms: C_29  and  C_30 
REMARK   10  A    between atoms: C_30  and  O_32 
REMARK   11  A    between atoms: C_33  and  C_34 
REMARK   12  A    between atoms: C_34  and  C_35 
REMARK   13  A    between atoms: C_35  and  C_36 
REMARK   14  A    between atoms: C_36  and  O_38 
REMARK   15  A    between atoms: C_39  and  C_40 
REMARK   16  A    between atoms: C_40  and  C_41 
REMARK   17  A    between atoms: C_41  and  C_42 
REMARK   18  A    between atoms: C_42  and  O_44 
REMARK   19  A    between atoms: C_45  and  C_46 
REMARK   20  A    between atoms: C_46  and  C_47 
REMARK   21  A    between atoms: C_47  and  O_49 
REMARK   22  A    between atoms: C_50  and  C_51 
REMARK   23  A    between atoms: C_51  and  C_52 
REMARK   24  A    between atoms: C_52  and  O_54 
REMARK   25  A    between atoms: C_55  and  C_56 
REMARK   26  A    between atoms: C_56  and  C_57 
REMARK   27  A    between atoms: C_57  and  C_58 
REMARK   28  A    between atoms: C_58  and  O_60 
ROOT
ATOM      1  O   UNK d   0     -31.688 -10.848  11.154  0.00  0.00    -0.650 OA
ATOM      2  C   UNK d   0     -31.133  -9.755  10.903  0.00  0.00     0.139 C 
ENDROOT
BRANCH   2   3
ATOM      3  O   UNK d   0     -30.006  -9.737  10.116  0.00  0.00    -0.776 OA
ATOM      4  H   UNK d   0     -29.599  -8.855   9.798  0.00  0.00     0.167 HD
ENDBRANCH   2   3
BRANCH   2   5
ATOM      5  C   UNK d   0     -31.691  -8.488  11.456  0.00  0.00     0.115 C 
BRANCH   5   6
ATOM      6  C   UNK d   0     -33.104  -8.293  10.978  0.00  0.00     0.052 C 
BRANCH   6   7
ATOM      7  C   UNK d   0     -33.397  -6.861  10.599  0.00  0.00    -0.020 A 
ATOM      8  C   UNK d   0     -34.200  -6.024  11.203  0.00  0.00    -0.011 A 
ATOM      9  C   UNK d   0     -34.165  -4.768  10.473  0.00  0.00     0.067 A 
ATOM     10  C   UNK d   0     -34.759  -3.503  10.605  0.00  0.00     0.062 C 
ATOM     11  N   UNK d   0     -33.318  -4.931   9.436  0.00  0.00    -0.248 NA
ATOM     12  C   UNK d   0     -34.386  -2.320   9.958  0.00  0.00     0.041 A 
ATOM     13  N   UNK d   0     -34.034  -2.082   8.680  0.00  0.00    -0.355 N 
ATOM     14  C   UNK d   0     -34.285  -1.135  10.709  0.00  0.00    -0.022 A 
ATOM     15  C   UNK d   0     -33.704  -0.779   8.603  0.00  0.00     0.042 A 
ATOM     16  H   UNK d   0     -34.037  -2.816   7.844  0.00  0.00     0.166 HD
ATOM     17  C   UNK d   0     -33.268  -0.010   7.506  0.00  0.00     0.062 C 
ATOM     18  C   UNK d   0     -33.848  -0.152   9.856  0.00  0.00    -0.013 A 
ATOM     19  C   UNK d   0     -32.333  -0.322   6.552  0.00  0.00     0.067 A 
ATOM     20  N   UNK d   0     -31.904  -1.586   6.516  0.00  0.00    -0.248 NA
ATOM     21  C   UNK d   0     -31.624   0.401   5.509  0.00  0.00    -0.011 A 
ATOM     22  C   UNK d   0     -30.965  -1.742   5.526  0.00  0.00     0.066 A 
ATOM     23  C   UNK d   0     -30.460  -3.022   5.352  0.00  0.00     0.062 C 
ATOM     24  C   UNK d   0     -30.822  -0.435   4.915  0.00  0.00    -0.020 A 
ATOM     25  C   UNK d   0     -30.857  -4.200   6.004  0.00  0.00     0.041 A 
ATOM     26  N   UNK d   0     -31.192  -4.439   7.278  0.00  0.00    -0.355 N 
ATOM     27  C   UNK d   0     -30.963  -5.388   5.248  0.00  0.00    -0.022 A 
ATOM     28  C   UNK d   0     -31.513  -5.740   7.358  0.00  0.00     0.042 A 
ATOM     29  H   UNK d   0     -31.178  -3.703   8.118  0.00  0.00     0.166 HD
ATOM     30  C   UNK d   0     -31.940  -6.520   8.445  0.00  0.00     0.062 C 
ATOM     31  C   UNK d   0     -31.378  -6.367   6.097  0.00  0.00    -0.013 A 
ATOM     32  C   UNK d   0     -32.822  -6.169   9.455  0.00  0.00     0.066 A 
BRANCH   8  33
ATOM     33  C   UNK d   0     -35.011  -6.288  12.407  0.00  0.00     0.151 C 
BRANCH  33  34
ATOM     34  C   UNK d   0     -35.813  -5.123  12.821  0.00  0.00     0.143 C 
ATOM     35  O   UNK d   0     -35.342  -4.261  13.577  0.00  0.00    -0.650 OA
BRANCH  34  36
ATOM     36  O   UNK d   0     -37.103  -4.993  12.360  0.00  0.00    -0.776 OA
ATOM     37  H   UNK d   0     -37.304  -4.571  11.443  0.00  0.00     0.167 HD
ENDBRANCH  34  36
ENDBRANCH  33  34
ENDBRANCH   8  33
BRANCH  31  38
ATOM     38  C   UNK d   0     -31.645  -7.809   5.732  0.00  0.00     0.151 C 
BRANCH  38  39
ATOM     39  C   UNK d   0     -30.618  -8.709   6.212  0.00  0.00     0.143 C 
ATOM     40  O   UNK d   0     -29.486  -8.761   5.700  0.00  0.00    -0.650 OA
BRANCH  39  41
ATOM     41  O   UNK d   0     -30.893  -9.552   7.289  0.00  0.00    -0.776 OA
ATOM     42  H   UNK d   0     -30.274  -9.479   8.102  0.00  0.00     0.167 HD
ENDBRANCH  39  41
ENDBRANCH  38  39
ENDBRANCH  31  38
BRANCH  27  43
ATOM     43  C   UNK d   0     -30.687  -5.619   3.783  0.00  0.00     0.052 C 
BRANCH  43  44
ATOM     44  C   UNK d   0     -29.402  -6.339   3.530  0.00  0.00     0.115 C 
BRANCH  44  45
ATOM     45  C   UNK d   0     -29.703  -7.411   2.546  0.00  0.00     0.139 C 
ATOM     46  O   UNK d   0     -28.738  -7.985   1.984  0.00  0.00    -0.650 OA
BRANCH  45  47
ATOM     47  O   UNK d   0     -30.988  -7.800   2.234  0.00  0.00    -0.776 OA
ATOM     48  H   UNK d   0     -31.228  -8.287   1.355  0.00  0.00     0.167 HD
ENDBRANCH  45  47
ENDBRANCH  44  45
ENDBRANCH  43  44
ENDBRANCH  27  43
BRANCH  24  49
ATOM     49  C   UNK d   0     -29.942  -0.132   3.773  0.00  0.00     0.052 C 
BRANCH  49  50
ATOM     50  C   UNK d   0     -28.578   0.287   4.258  0.00  0.00     0.115 C 
BRANCH  50  51
ATOM     51  C   UNK d   0     -27.546  -0.740   4.310  0.00  0.00     0.139 C 
ATOM     52  O   UNK d   0     -27.190  -1.288   5.380  0.00  0.00    -0.650 OA
BRANCH  51  53
ATOM     53  O   UNK d   0     -26.918  -1.142   3.140  0.00  0.00    -0.776 OA
ATOM     54  H   UNK d   0     -26.360  -0.469   2.645  0.00  0.00     0.167 HD
ENDBRANCH  51  53
ENDBRANCH  50  51
ENDBRANCH  49  50
ENDBRANCH  24  49
BRANCH  21  55
ATOM     55  C   UNK d   0     -31.825   1.850   5.212  0.00  0.00     0.151 C 
BRANCH  55  56
ATOM     56  C   UNK d   0     -33.215   2.147   4.834  0.00  0.00     0.143 C 
ATOM     57  O   UNK d   0     -33.959   2.877   5.519  0.00  0.00    -0.650 OA
BRANCH  56  58
ATOM     58  O   UNK d   0     -33.703   1.581   3.658  0.00  0.00    -0.776 OA
ATOM     59  H   UNK d   0     -33.217   0.717   3.355  0.00  0.00     0.167 HD
ENDBRANCH  56  58
ENDBRANCH  55  56
ENDBRANCH  21  55
BRANCH  18  60
ATOM     60  C   UNK d   0     -33.593   1.282  10.248  0.00  0.00     0.151 C 
BRANCH  60  61
ATOM     61  C   UNK d   0     -34.747   2.047   9.752  0.00  0.00     0.143 C 
ATOM     62  O   UNK d   0     -35.845   2.172  10.296  0.00  0.00    -0.650 OA
BRANCH  61  63
ATOM     63  O   UNK d   0     -34.548   2.703   8.513  0.00  0.00    -0.776 OA
ATOM     64  H   UNK d   0     -33.846   2.388   7.867  0.00  0.00     0.167 HD
ENDBRANCH  61  63
ENDBRANCH  60  61
ENDBRANCH  18  60
BRANCH  14  65
ATOM     65  C   UNK d   0     -34.659  -0.843  12.135  0.00  0.00     0.052 C 
BRANCH  65  66
ATOM     66  C   UNK d   0     -36.091  -0.470  12.295  0.00  0.00     0.115 C 
BRANCH  66  67
ATOM     67  C   UNK d   0     -37.067  -0.982  11.375  0.00  0.00     0.139 C 
ATOM     68  O   UNK d   0     -37.553  -2.154  11.585  0.00  0.00    -0.650 OA
BRANCH  67  69
ATOM     69  O   UNK d   0     -37.578  -0.357  10.238  0.00  0.00    -0.776 OA
ATOM     70  H   UNK d   0     -38.520  -0.657   9.948  0.00  0.00     0.167 HD
ENDBRANCH  67  69
ENDBRANCH  66  67
ENDBRANCH  65  66
ENDBRANCH  14  65
ENDBRANCH   6   7
ENDBRANCH   5   6
ENDBRANCH   2   5
TORSDOF 28
ENDMDL
MODEL 3
REMARK VINA RESULT:      -7.8      2.498      9.118
REMARK  28 active torsions:
REMARK  status: ('A' for Active; 'I' for Inactive)
REMARK    1  A    between atoms: C_2  and  O_3 
REMARK    2  A    between atoms: C_2  and  C_4 
REMARK    3  A    between atoms: C_4  and  C_5 
REMARK    4  A    between atoms: C_5  and  C_6 
REMARK    5  A    between atoms: C_7  and  C_8 
REMARK    6  A    between atoms: C_8  and  C_9 
REMARK    7  A    between atoms: C_9  and  O_11 
REMARK    8  A    between atoms: C_28  and  C_29 
REMARK    9  A    between atoms: C_29  and  C_30 
REMARK   10  A    between atoms: C_30  and  O_32 
REMARK   11  A    between atoms: C_33  and  C_34 
REMARK   12  A    between atoms: C_34  and  C_35 
REMARK   13  A    between atoms: C_35  and  C_36 
REMARK   14  A    between atoms: C_36  and  O_38 
REMARK   15  A    between atoms: C_39  and  C_40 
REMARK   16  A    between atoms: C_40  and  C_41 
REMARK   17  A    between atoms: C_41  and  C_42 
REMARK   18  A    between atoms: C_42  and  O_44 
REMARK   19  A    between atoms: C_45  and  C_46 
REMARK   20  A    between atoms: C_46  and  C_47 
REMARK   21  A    between atoms: C_47  and  O_49 
REMARK   22  A    between atoms: C_50  and  C_51 
REMARK   23  A    between atoms: C_51  and  C_52 
REMARK   24  A    between atoms: C_52  and  O_54 
REMARK   25  A    between atoms: C_55  and  C_56 
REMARK   26  A    between atoms: C_56  and  C_57 
REMARK   27  A    between atoms: C_57  and  C_58 
REMARK   28  A    between atoms: C_58  and  O_60 
ROOT
ATOM      1  O   UNK d   0     -28.868  -9.711   6.815  0.00  0.00    -0.650 OA
ATOM      2  C   UNK d   0     -30.035  -9.851   6.385  0.00  0.00     0.139 C 
ENDROOT
BRANCH   2   3
ATOM      3  O   UNK d   0     -30.239 -10.493   5.188  0.00  0.00    -0.776 OA
ATOM      4  H   UNK d   0     -29.617 -11.242   4.878  0.00  0.00     0.167 HD
ENDBRANCH   2   3
BRANCH   2   5
ATOM      5  C   UNK d   0     -31.189  -9.324   7.168  0.00  0.00     0.115 C 
BRANCH   5   6
ATOM      6  C   UNK d   0     -30.695  -8.532   8.348  0.00  0.00     0.052 C 
BRANCH   6   7
ATOM      7  C   UNK d   0     -31.753  -7.617   8.918  0.00  0.00    -0.020 A 
ATOM      8  C   UNK d   0     -32.627  -7.892   9.852  0.00  0.00    -0.011 A 
ATOM      9  C   UNK d   0     -33.442  -6.707  10.061  0.00  0.00     0.067 A 
ATOM     10  C   UNK d   0     -34.503  -6.344  10.905  0.00  0.00     0.062 C 
ATOM     11  N   UNK d   0     -32.998  -5.760   9.208  0.00  0.00    -0.248 NA
ATOM     12  C   UNK d   0     -34.982  -5.053  11.157  0.00  0.00     0.041 A 
ATOM     13  N   UNK d   0     -35.212  -4.016  10.329  0.00  0.00    -0.355 N 
ATOM     14  C   UNK d   0     -35.244  -4.672  12.485  0.00  0.00    -0.022 A 
ATOM     15  C   UNK d   0     -35.605  -2.984  11.100  0.00  0.00     0.042 A 
ATOM     16  H   UNK d   0     -35.117  -4.019   9.221  0.00  0.00     0.166 HD
ATOM     17  C   UNK d   0     -35.971  -1.669  10.748  0.00  0.00     0.062 C 
ATOM     18  C   UNK d   0     -35.637  -3.357  12.457  0.00  0.00    -0.013 A 
ATOM     19  C   UNK d   0     -35.356  -0.808   9.876  0.00  0.00     0.067 A 
ATOM     20  N   UNK d   0     -34.400  -1.317   9.095  0.00  0.00    -0.248 NA
ATOM     21  C   UNK d   0     -35.460   0.607   9.557  0.00  0.00    -0.011 A 
ATOM     22  C   UNK d   0     -33.869  -0.339   8.291  0.00  0.00     0.066 A 
ATOM     23  C   UNK d   0     -32.886  -0.740   7.398  0.00  0.00     0.062 C 
ATOM     24  C   UNK d   0     -34.584   0.876   8.632  0.00  0.00    -0.020 A 
ATOM     25  C   UNK d   0     -32.429  -2.044   7.152  0.00  0.00     0.041 A 
ATOM     26  N   UNK d   0     -32.186  -3.070   7.975  0.00  0.00    -0.355 N 
ATOM     27  C   UNK d   0     -32.171  -2.427   5.817  0.00  0.00    -0.022 A 
ATOM     28  C   UNK d   0     -31.785  -4.098   7.211  0.00  0.00     0.042 A 
ATOM     29  H   UNK d   0     -32.271  -3.062   9.090  0.00  0.00     0.166 HD
ATOM     30  C   UNK d   0     -31.410  -5.408   7.548  0.00  0.00     0.062 C 
ATOM     31  C   UNK d   0     -31.764  -3.725   5.846  0.00  0.00    -0.013 A 
ATOM     32  C   UNK d   0     -31.983  -6.245   8.492  0.00  0.00     0.066 A 
BRANCH   8  33
ATOM     33  C   UNK d   0     -32.781  -9.170  10.572  0.00  0.00     0.151 C 
BRANCH  33  34
ATOM     34  C   UNK d   0     -31.649  -9.457  11.472  0.00  0.00     0.143 C 
ATOM     35  O   UNK d   0     -31.021  -8.539  12.018  0.00  0.00    -0.650 OA
BRANCH  34  36
ATOM     36  O   UNK d   0     -31.286 -10.763  11.705  0.00  0.00    -0.776 OA
ATOM     37  H   UNK d   0     -31.843 -11.546  11.337  0.00  0.00     0.167 HD
ENDBRANCH  34  36
ENDBRANCH  33  34
ENDBRANCH   8  33
BRANCH  31  38
ATOM     38  C   UNK d   0     -31.389  -4.568   4.649  0.00  0.00     0.151 C 
BRANCH  38  39
ATOM     39  C   UNK d   0     -32.249  -5.720   4.482  0.00  0.00     0.143 C 
ATOM     40  O   UNK d   0     -33.486  -5.648   4.584  0.00  0.00    -0.650 OA
BRANCH  39  41
ATOM     41  O   UNK d   0     -31.684  -6.963   4.196  0.00  0.00    -0.776 OA
ATOM     42  H   UNK d   0     -32.266  -7.787   4.377  0.00  0.00     0.167 HD
ENDBRANCH  39  41
ENDBRANCH  38  39
ENDBRANCH  31  38
BRANCH  27  43
ATOM     43  C   UNK d   0     -32.292  -1.621   4.548  0.00  0.00     0.052 C 
BRANCH  43  44
ATOM     44  C   UNK d   0     -33.695  -1.527   4.041  0.00  0.00     0.115 C 
BRANCH  44  45
ATOM     45  C   UNK d   0     -33.811  -0.212   3.358  0.00  0.00     0.139 C 
ATOM     46  O   UNK d   0     -33.509   0.820   4.007  0.00  0.00    -0.650 OA
BRANCH  45  47
ATOM     47  O   UNK d   0     -34.228  -0.082   2.051  0.00  0.00    -0.776 OA
ATOM     48  H   UNK d   0     -34.298   0.831   1.573  0.00  0.00     0.167 HD
ENDBRANCH  45  47
ENDBRANCH  44  45
ENDBRANCH  43  44
ENDBRANCH  27  43
BRANCH  24  49
ATOM     49  C   UNK d   0     -34.375   2.184   7.989  0.00  0.00     0.052 C 
BRANCH  49  50
ATOM     50  C   UNK d   0     -35.099   2.241   6.668  0.00  0.00     0.115 C 
BRANCH  50  51
ATOM     51  C   UNK d   0     -36.439   2.811   6.668  0.00  0.00     0.139 C 
ATOM     52  O   UNK d   0     -36.803   3.682   7.493  0.00  0.00    -0.650 OA
BRANCH  51  53
ATOM     53  O   UNK d   0     -37.366   2.385   5.729  0.00  0.00    -0.776 OA
ATOM     54  H   UNK d   0     -37.846   3.081   5.186  0.00  0.00     0.167 HD
ENDBRANCH  51  53
ENDBRANCH  50  51
ENDBRANCH  49  50
ENDBRANCH  24  49
BRANCH  21  55
ATOM     55  C   UNK d   0     -36.426   1.541  10.208  0.00  0.00     0.151 C 
BRANCH  55  56
ATOM     56  C   UNK d   0     -36.244   1.594  11.667  0.00  0.00     0.143 C 
ATOM     57  O   UNK d   0     -37.088   1.149  12.469  0.00  0.00    -0.650 OA
BRANCH  56  58
ATOM     58  O   UNK d   0     -35.072   2.171  12.154  0.00  0.00    -0.776 OA
ATOM     59  H   UNK d   0     -34.731   1.776  13.049  0.00  0.00     0.167 HD
ENDBRANCH  56  58
ENDBRANCH  55  56
ENDBRANCH  21  55
BRANCH  18  60
ATOM     60  C   UNK d   0     -36.009  -2.540  13.670  0.00  0.00     0.151 C 
BRANCH  60  61
ATOM     61  C   UNK d   0     -34.816  -1.746  14.003  0.00  0.00     0.143 C 
ATOM     62  O   UNK d   0     -34.541  -0.615  13.601  0.00  0.00    -0.650 OA
BRANCH  61  63
ATOM     63  O   UNK d   0     -33.902  -2.373  14.884  0.00  0.00    -0.776 OA
ATOM     64  H   UNK d   0     -32.942  -2.514  14.621  0.00  0.00     0.167 HD
ENDBRANCH  61  63
ENDBRANCH  60  61
ENDBRANCH  18  60
BRANCH  14  65
ATOM     65  C   UNK d   0     -35.245  -5.476  13.755  0.00  0.00     0.052 C 
BRANCH  65  66
ATOM     66  C   UNK d   0     -36.570  -6.080  14.059  0.00  0.00     0.115 C 
BRANCH  66  67
ATOM     67  C   UNK d   0     -37.142  -7.034  13.151  0.00  0.00     0.139 C 
ATOM     68  O   UNK d   0     -37.902  -6.603  12.207  0.00  0.00    -0.650 OA
BRANCH  67  69
ATOM     69  O   UNK d   0     -36.981  -8.419  13.155  0.00  0.00    -0.776 OA
ATOM     70  H   UNK d   0     -37.523  -8.935  12.447  0.00  0.00     0.167 HD
ENDBRANCH  67  69
ENDBRANCH  66  67
ENDBRANCH  65  66
ENDBRANCH  14  65
ENDBRANCH   6   7
ENDBRANCH   5   6
ENDBRANCH   2   5
TORSDOF 28
ENDMDL
MODEL 4
REMARK VINA RESULT:      -7.7      2.425      6.269
REMARK  28 active torsions:
REMARK  status: ('A' for Active; 'I' for Inactive)
REMARK    1  A    between atoms: C_2  and  O_3 
REMARK    2  A    between atoms: C_2  and  C_4 
REMARK    3  A    between atoms: C_4  and  C_5 
REMARK    4  A    between atoms: C_5  and  C_6 
REMARK    5  A    between atoms: C_7  and  C_8 
REMARK    6  A    between atoms: C_8  and  C_9 
REMARK    7  A    between atoms: C_9  and  O_11 
REMARK    8  A    between atoms: C_28  and  C_29 
REMARK    9  A    between atoms: C_29  and  C_30 
REMARK   10  A    between atoms: C_30  and  O_32 
REMARK   11  A    between atoms: C_33  and  C_34 
REMARK   12  A    between atoms: C_34  and  C_35 
REMARK   13  A    between atoms: C_35  and  C_36 
REMARK   14  A    between atoms: C_36  and  O_38 
REMARK   15  A    between atoms: C_39  and  C_40 
REMARK   16  A    between atoms: C_40  and  C_41 
REMARK   17  A    between atoms: C_41  and  C_42 
REMARK   18  A    between atoms: C_42  and  O_44 
REMARK   19  A    between atoms: C_45  and  C_46 
REMARK   20  A    between atoms: C_46  and  C_47 
REMARK   21  A    between atoms: C_47  and  O_49 
REMARK   22  A    between atoms: C_50  and  C_51 
REMARK   23  A    between atoms: C_51  and  C_52 
REMARK   24  A    between atoms: C_52  and  O_54 
REMARK   25  A    between atoms: C_55  and  C_56 
REMARK   26  A    between atoms: C_56  and  C_57 
REMARK   27  A    between atoms: C_57  and  C_58 
REMARK   28  A    between atoms: C_58  and  O_60 
ROOT
ATOM      1  O   UNK d   0     -36.895   2.728   8.739  0.00  0.00    -0.650 OA
ATOM      2  C   UNK d   0     -36.292   1.718   9.164  0.00  0.00     0.139 C 
ENDROOT
BRANCH   2   3
ATOM      3  O   UNK d   0     -37.010   0.592   9.490  0.00  0.00    -0.776 OA
ATOM      4  H   UNK d   0     -36.866   0.114  10.382  0.00  0.00     0.167 HD
ENDBRANCH   2   3
BRANCH   2   5
ATOM      5  C   UNK d   0     -34.809   1.740   9.315  0.00  0.00     0.115 C 
BRANCH   5   6
ATOM      6  C   UNK d   0     -34.424   1.303  10.702  0.00  0.00     0.052 C 
BRANCH   6   7
ATOM      7  C   UNK d   0     -34.050  -0.159  10.768  0.00  0.00    -0.020 A 
ATOM      8  C   UNK d   0     -34.185  -0.972  11.784  0.00  0.00    -0.011 A 
ATOM      9  C   UNK d   0     -33.681  -2.275  11.381  0.00  0.00     0.067 A 
ATOM     10  C   UNK d   0     -33.562  -3.542  11.974  0.00  0.00     0.062 C 
ATOM     11  N   UNK d   0     -33.254  -2.162  10.106  0.00  0.00    -0.248 NA
ATOM     12  C   UNK d   0     -33.303  -4.757  11.330  0.00  0.00     0.041 A 
ATOM     13  N   UNK d   0     -32.437  -5.073  10.349  0.00  0.00    -0.355 N 
ATOM     14  C   UNK d   0     -34.073  -5.884  11.669  0.00  0.00    -0.022 A 
ATOM     15  C   UNK d   0     -32.643  -6.370  10.051  0.00  0.00     0.042 A 
ATOM     16  H   UNK d   0     -31.681  -4.399   9.889  0.00  0.00     0.166 HD
ATOM     17  C   UNK d   0     -32.012  -7.202   9.105  0.00  0.00     0.062 C 
ATOM     18  C   UNK d   0     -33.662  -6.912  10.858  0.00  0.00    -0.013 A 
ATOM     19  C   UNK d   0     -31.692  -6.934   7.798  0.00  0.00     0.067 A 
ATOM     20  N   UNK d   0     -31.803  -5.665   7.397  0.00  0.00    -0.248 NA
ATOM     21  C   UNK d   0     -31.250  -7.709   6.651  0.00  0.00    -0.011 A 
ATOM     22  C   UNK d   0     -31.466  -5.554   6.070  0.00  0.00     0.066 A 
ATOM     23  C   UNK d   0     -31.500  -4.277   5.530  0.00  0.00     0.062 C 
ATOM     24  C   UNK d   0     -31.124  -6.896   5.642  0.00  0.00    -0.020 A 
ATOM     25  C   UNK d   0     -31.750  -3.067   6.196  0.00  0.00     0.041 A 
ATOM     26  N   UNK d   0     -32.622  -2.749   7.161  0.00  0.00    -0.355 N 
ATOM     27  C   UNK d   0     -30.974  -1.937   5.859  0.00  0.00    -0.022 A 
ATOM     28  C   UNK d   0     -32.424  -1.454   7.454  0.00  0.00     0.042 A 
ATOM     29  H   UNK d   0     -33.387  -3.425   7.615  0.00  0.00     0.166 HD
ATOM     30  C   UNK d   0     -33.051  -0.612   8.386  0.00  0.00     0.062 C 
ATOM     31  C   UNK d   0     -31.392  -0.912   6.650  0.00  0.00    -0.013 A 
ATOM     32  C   UNK d   0     -33.449  -0.914   9.679  0.00  0.00     0.066 A 
BRANCH   8  33
ATOM     33  C   UNK d   0     -34.740  -0.646  13.111  0.00  0.00     0.151 C 
BRANCH  33  34
ATOM     34  C   UNK d   0     -36.210  -0.744  13.154  0.00  0.00     0.143 C 
ATOM     35  O   UNK d   0     -36.920   0.049  12.519  0.00  0.00    -0.650 OA
BRANCH  34  36
ATOM     36  O   UNK d   0     -36.799  -1.730  13.912  0.00  0.00    -0.776 OA
ATOM     37  H   UNK d   0     -36.235  -2.371  14.487  0.00  0.00     0.167 HD
ENDBRANCH  34  36
ENDBRANCH  33  34
ENDBRANCH   8  33
BRANCH  31  38
ATOM     38  C   UNK d   0     -30.840   0.494   6.654  0.00  0.00     0.151 C 
BRANCH  38  39
ATOM     39  C   UNK d   0     -31.384   1.314   5.593  0.00  0.00     0.143 C 
ATOM     40  O   UNK d   0     -30.680   1.759   4.669  0.00  0.00    -0.650 OA
BRANCH  39  41
ATOM     41  O   UNK d   0     -32.743   1.624   5.593  0.00  0.00    -0.776 OA
ATOM     42  H   UNK d   0     -33.069   2.271   4.868  0.00  0.00     0.167 HD
ENDBRANCH  39  41
ENDBRANCH  38  39
ENDBRANCH  31  38
BRANCH  27  43
ATOM     43  C   UNK d   0     -29.876  -1.801   4.834  0.00  0.00     0.052 C 
BRANCH  43  44
ATOM     44  C   UNK d   0     -28.506  -1.809   5.430  0.00  0.00     0.115 C 
BRANCH  44  45
ATOM     45  C   UNK d   0     -27.674  -0.903   4.597  0.00  0.00     0.139 C 
ATOM     46  O   UNK d   0     -28.234  -0.279   3.661  0.00  0.00    -0.650 OA
BRANCH  45  47
ATOM     47  O   UNK d   0     -26.326  -0.717   4.811  0.00  0.00    -0.776 OA
ATOM     48  H   UNK d   0     -25.946  -0.339   5.694  0.00  0.00     0.167 HD
ENDBRANCH  45  47
ENDBRANCH  44  45
ENDBRANCH  43  44
ENDBRANCH  27  43
BRANCH  24  49
ATOM     49  C   UNK d   0     -30.660  -7.255   4.291  0.00  0.00     0.052 C 
BRANCH  49  50
ATOM     50  C   UNK d   0     -29.218  -7.694   4.330  0.00  0.00     0.115 C 
BRANCH  50  51
ATOM     51  C   UNK d   0     -28.808  -8.716   3.376  0.00  0.00     0.139 C 
ATOM     52  O   UNK d   0     -28.490  -8.448   2.194  0.00  0.00    -0.650 OA
BRANCH  51  53
ATOM     53  O   UNK d   0     -28.763 -10.044   3.771  0.00  0.00    -0.776 OA
ATOM     54  H   UNK d   0     -29.063 -10.274   4.702  0.00  0.00     0.167 HD
ENDBRANCH  51  53
ENDBRANCH  50  51
ENDBRANCH  49  50
ENDBRANCH  24  49
BRANCH  21  55
ATOM     55  C   UNK d   0     -30.996  -9.179   6.684  0.00  0.00     0.151 C 
BRANCH  55  56
ATOM     56  C   UNK d   0     -29.789  -9.513   7.456  0.00  0.00     0.143 C 
ATOM     57  O   UNK d   0     -29.797  -9.650   8.695  0.00  0.00    -0.650 OA
BRANCH  56  58
ATOM     58  O   UNK d   0     -28.596  -9.680   6.755  0.00  0.00    -0.776 OA
ATOM     59  H   UNK d   0     -28.004 -10.464   7.082  0.00  0.00     0.167 HD
ENDBRANCH  56  58
ENDBRANCH  55  56
ENDBRANCH  21  55
BRANCH  18  60
ATOM     60  C   UNK d   0     -34.231  -8.309  10.878  0.00  0.00     0.151 C 
BRANCH  60  61
ATOM     61  C   UNK d   0     -33.084  -9.210  11.071  0.00  0.00     0.143 C 
ATOM     62  O   UNK d   0     -32.084  -9.001  11.759  0.00  0.00    -0.650 OA
BRANCH  61  63
ATOM     63  O   UNK d   0     -33.163 -10.443  10.381  0.00  0.00    -0.776 OA
ATOM     64  H   UNK d   0     -32.336 -10.905  10.048  0.00  0.00     0.167 HD
ENDBRANCH  61  63
ENDBRANCH  60  61
ENDBRANCH  18  60
BRANCH  14  65
ATOM     65  C   UNK d   0     -35.089  -6.087  12.757  0.00  0.00     0.052 C 
BRANCH  65  66
ATOM     66  C   UNK d   0     -36.490  -5.931  12.282  0.00  0.00     0.115 C 
BRANCH  66  67
ATOM     67  C   UNK d   0     -36.842  -4.807  11.461  0.00  0.00     0.139 C 
ATOM     68  O   UNK d   0     -37.267  -3.737  12.034  0.00  0.00    -0.650 OA
BRANCH  67  69
ATOM     69  O   UNK d   0     -36.783  -4.714  10.071  0.00  0.00    -0.776 OA
ATOM     70  H   UNK d   0     -37.211  -3.872   9.660  0.00  0.00     0.167 HD
ENDBRANCH  67  69
ENDBRANCH  66  67
ENDBRANCH  65  66
ENDBRANCH  14  65
ENDBRANCH   6   7
ENDBRANCH   5   6
ENDBRANCH   2   5
TORSDOF 28
ENDMDL
MODEL 5
REMARK VINA RESULT:      -7.6      7.114     12.601
REMARK  28 active torsions:
REMARK  status: ('A' for Active; 'I' for Inactive)
REMARK    1  A    between atoms: C_2  and  O_3 
REMARK    2  A    between atoms: C_2  and  C_4 
REMARK    3  A    between atoms: C_4  and  C_5 
REMARK    4  A    between atoms: C_5  and  C_6 
REMARK    5  A    between atoms: C_7  and  C_8 
REMARK    6  A    between atoms: C_8  and  C_9 
REMARK    7  A    between atoms: C_9  and  O_11 
REMARK    8  A    between atoms: C_28  and  C_29 
REMARK    9  A    between atoms: C_29  and  C_30 
REMARK   10  A    between atoms: C_30  and  O_32 
REMARK   11  A    between atoms: C_33  and  C_34 
REMARK   12  A    between atoms: C_34  and  C_35 
REMARK   13  A    between atoms: C_35  and  C_36 
REMARK   14  A    between atoms: C_36  and  O_38 
REMARK   15  A    between atoms: C_39  and  C_40 
REMARK   16  A    between atoms: C_40  and  C_41 
REMARK   17  A    between atoms: C_41  and  C_42 
REMARK   18  A    between atoms: C_42  and  O_44 
REMARK   19  A    between atoms: C_45  and  C_46 
REMARK   20  A    between atoms: C_46  and  C_47 
REMARK   21  A    between atoms: C_47  and  O_49 
REMARK   22  A    between atoms: C_50  and  C_51 
REMARK   23  A    between atoms: C_51  and  C_52 
REMARK   24  A    between atoms: C_52  and  O_54 
REMARK   25  A    between atoms: C_55  and  C_56 
REMARK   26  A    between atoms: C_56  and  C_57 
REMARK   27  A    between atoms: C_57  and  C_58 
REMARK   28  A    between atoms: C_58  and  O_60 
ROOT
ATOM      1  O   UNK d   0     -26.583  -0.359   9.258  0.00  0.00    -0.650 OA
ATOM      2  C   UNK d   0     -27.560   0.202   8.714  0.00  0.00     0.139 C 
ENDROOT
BRANCH   2   3
ATOM      3  O   UNK d   0     -28.677   0.484   9.462  0.00  0.00    -0.776 OA
ATOM      4  H   UNK d   0     -28.710   0.271  10.461  0.00  0.00     0.167 HD
ENDBRANCH   2   3
BRANCH   2   5
ATOM      5  C   UNK d   0     -27.508   0.558   7.267  0.00  0.00     0.115 C 
BRANCH   5   6
ATOM      6  C   UNK d   0     -28.016  -0.588   6.434  0.00  0.00     0.052 C 
BRANCH   6   7
ATOM      7  C   UNK d   0     -29.359  -0.300   5.807  0.00  0.00    -0.020 A 
ATOM      8  C   UNK d   0     -30.534  -0.709   6.215  0.00  0.00    -0.011 A 
ATOM      9  C   UNK d   0     -31.530  -0.190   5.292  0.00  0.00     0.067 A 
ATOM     10  C   UNK d   0     -32.928  -0.242   5.177  0.00  0.00     0.062 C 
ATOM     11  N   UNK d   0     -30.873   0.519   4.350  0.00  0.00    -0.248 NA
ATOM     12  C   UNK d   0     -33.741   0.559   4.368  0.00  0.00     0.041 A 
ATOM     13  N   UNK d   0     -33.596   0.968   3.093  0.00  0.00    -0.355 N 
ATOM     14  C   UNK d   0     -34.907   1.120   4.919  0.00  0.00    -0.022 A 
ATOM     15  C   UNK d   0     -34.636   1.780   2.824  0.00  0.00     0.042 A 
ATOM     16  H   UNK d   0     -32.786   0.672   2.391  0.00  0.00     0.166 HD
ATOM     17  C   UNK d   0     -34.971   2.475   1.645  0.00  0.00     0.062 C 
ATOM     18  C   UNK d   0     -35.479   1.900   3.945  0.00  0.00    -0.013 A 
ATOM     19  C   UNK d   0     -34.160   3.207   0.815  0.00  0.00     0.067 A 
ATOM     20  N   UNK d   0     -32.844   3.108   1.014  0.00  0.00    -0.248 NA
ATOM     21  C   UNK d   0     -34.358   4.135  -0.286  0.00  0.00    -0.011 A 
ATOM     22  C   UNK d   0     -32.166   3.905   0.124  0.00  0.00     0.066 A 
ATOM     23  C   UNK d   0     -30.781   3.868   0.195  0.00  0.00     0.062 C 
ATOM     24  C   UNK d   0     -33.187   4.543  -0.683  0.00  0.00    -0.020 A 
ATOM     25  C   UNK d   0     -29.982   3.047   1.006  0.00  0.00     0.041 A 
ATOM     26  N   UNK d   0     -30.119   2.653   2.278  0.00  0.00    -0.355 N 
ATOM     27  C   UNK d   0     -28.815   2.480   0.450  0.00  0.00    -0.022 A 
ATOM     28  C   UNK d   0     -29.079   1.849   2.551  0.00  0.00     0.042 A 
ATOM     29  H   UNK d   0     -30.928   2.959   2.985  0.00  0.00     0.166 HD
ATOM     30  C   UNK d   0     -28.728   1.160   3.722  0.00  0.00     0.062 C 
ATOM     31  C   UNK d   0     -28.237   1.721   1.421  0.00  0.00    -0.013 A 
ATOM     32  C   UNK d   0     -29.564   0.492   4.604  0.00  0.00     0.066 A 
BRANCH   8  33
ATOM     33  C   UNK d   0     -30.819  -1.550   7.392  0.00  0.00     0.151 C 
BRANCH  33  34
ATOM     34  C   UNK d   0     -31.761  -0.915   8.331  0.00  0.00     0.143 C 
ATOM     35  O   UNK d   0     -32.885  -1.398   8.529  0.00  0.00    -0.650 OA
BRANCH  34  36
ATOM     36  O   UNK d   0     -31.384   0.229   8.996  0.00  0.00    -0.776 OA
ATOM     37  H   UNK d   0     -30.598   0.804   8.665  0.00  0.00     0.167 HD
ENDBRANCH  34  36
ENDBRANCH  33  34
ENDBRANCH   8  33
BRANCH  31  38
ATOM     38  C   UNK d   0     -26.970   0.910   1.282  0.00  0.00     0.151 C 
BRANCH  38  39
ATOM     39  C   UNK d   0     -27.225  -0.490   1.016  0.00  0.00     0.143 C 
ATOM     40  O   UNK d   0     -27.016  -1.377   1.863  0.00  0.00    -0.650 OA
BRANCH  39  41
ATOM     41  O   UNK d   0     -27.724  -0.872  -0.228  0.00  0.00    -0.776 OA
ATOM     42  H   UNK d   0     -28.736  -0.785  -0.367  0.00  0.00     0.167 HD
ENDBRANCH  39  41
ENDBRANCH  38  39
ENDBRANCH  31  38
BRANCH  27  43
ATOM     43  C   UNK d   0     -28.241   2.634  -0.936  0.00  0.00     0.052 C 
BRANCH  43  44
ATOM     44  C   UNK d   0     -29.014   1.895  -1.980  0.00  0.00     0.115 C 
BRANCH  44  45
ATOM     45  C   UNK d   0     -28.168   1.878  -3.202  0.00  0.00     0.139 C 
ATOM     46  O   UNK d   0     -28.006   2.957  -3.824  0.00  0.00    -0.650 OA
BRANCH  45  47
ATOM     47  O   UNK d   0     -27.556   0.736  -3.671  0.00  0.00    -0.776 OA
ATOM     48  H   UNK d   0     -26.531   0.608  -3.668  0.00  0.00     0.167 HD
ENDBRANCH  45  47
ENDBRANCH  44  45
ENDBRANCH  43  44
ENDBRANCH  27  43
BRANCH  24  49
ATOM     49  C   UNK d   0     -32.921   5.463  -1.802  0.00  0.00     0.052 C 
BRANCH  49  50
ATOM     50  C   UNK d   0     -32.705   4.689  -3.077  0.00  0.00     0.115 C 
BRANCH  50  51
ATOM     51  C   UNK d   0     -31.327   4.482  -3.503  0.00  0.00     0.139 C 
ATOM     52  O   UNK d   0     -30.378   5.188  -3.088  0.00  0.00    -0.650 OA
BRANCH  51  53
ATOM     53  O   UNK d   0     -31.032   3.471  -4.405  0.00  0.00    -0.776 OA
ATOM     54  H   UNK d   0     -30.575   3.720  -5.265  0.00  0.00     0.167 HD
ENDBRANCH  51  53
ENDBRANCH  50  51
ENDBRANCH  49  50
ENDBRANCH  24  49
BRANCH  21  55
ATOM     55  C   UNK d   0     -35.696   4.514  -0.829  0.00  0.00     0.151 C 
BRANCH  55  56
ATOM     56  C   UNK d   0     -36.311   3.418  -1.593  0.00  0.00     0.143 C 
ATOM     57  O   UNK d   0     -37.240   2.720  -1.142  0.00  0.00    -0.650 OA
BRANCH  56  58
ATOM     58  O   UNK d   0     -35.823   3.165  -2.873  0.00  0.00    -0.776 OA
ATOM     59  H   UNK d   0     -35.899   3.960  -3.534  0.00  0.00     0.167 HD
ENDBRANCH  56  58
ENDBRANCH  55  56
ENDBRANCH  21  55
BRANCH  18  60
ATOM     60  C   UNK d   0     -36.749   2.698   4.111  0.00  0.00     0.151 C 
BRANCH  60  61
ATOM     61  C   UNK d   0     -36.336   4.010   4.634  0.00  0.00     0.143 C 
ATOM     62  O   UNK d   0     -35.575   4.816   4.098  0.00  0.00    -0.650 OA
BRANCH  61  63
ATOM     63  O   UNK d   0     -36.889   4.359   5.889  0.00  0.00    -0.776 OA
ATOM     64  H   UNK d   0     -36.544   5.148   6.407  0.00  0.00     0.167 HD
ENDBRANCH  61  63
ENDBRANCH  60  61
ENDBRANCH  18  60
BRANCH  14  65
ATOM     65  C   UNK d   0     -35.567   0.899   6.251  0.00  0.00     0.052 C 
BRANCH  65  66
ATOM     66  C   UNK d   0     -35.031   1.784   7.320  0.00  0.00     0.115 C 
BRANCH  66  67
ATOM     67  C   UNK d   0     -34.741   1.238   8.616  0.00  0.00     0.139 C 
ATOM     68  O   UNK d   0     -33.852   1.819   9.342  0.00  0.00    -0.650 OA
BRANCH  67  69
ATOM     69  O   UNK d   0     -35.316   0.120   9.219  0.00  0.00    -0.776 OA
ATOM     70  H   UNK d   0     -35.186   0.044  10.238  0.00  0.00     0.167 HD
ENDBRANCH  67  69
ENDBRANCH  66  67
ENDBRANCH  65  66
ENDBRANCH  14  65
ENDBRANCH   6   7
ENDBRANCH   5   6
ENDBRANCH   2   5
TORSDOF 28
ENDMDL
MODEL 6
REMARK VINA RESULT:      -7.4      6.483     11.336
REMARK  28 active torsions:
REMARK  status: ('A' for Active; 'I' for Inactive)
REMARK    1  A    between atoms: C_2  and  O_3 
REMARK    2  A    between atoms: C_2  and  C_4 
REMARK    3  A    between atoms: C_4  and  C_5 
REMARK    4  A    between atoms: C_5  and  C_6 
REMARK    5  A    between atoms: C_7  and  C_8 
REMARK    6  A    between atoms: C_8  and  C_9 
REMARK    7  A    between atoms: C_9  and  O_11 
REMARK    8  A    between atoms: C_28  and  C_29 
REMARK    9  A    between atoms: C_29  and  C_30 
REMARK   10  A    between atoms: C_30  and  O_32 
REMARK   11  A    between atoms: C_33  and  C_34 
REMARK   12  A    between atoms: C_34  and  C_35 
REMARK   13  A    between atoms: C_35  and  C_36 
REMARK   14  A    between atoms: C_36  and  O_38 
REMARK   15  A    between atoms: C_39  and  C_40 
REMARK   16  A    between atoms: C_40  and  C_41 
REMARK   17  A    between atoms: C_41  and  C_42 
REMARK   18  A    between atoms: C_42  and  O_44 
REMARK   19  A    between atoms: C_45  and  C_46 
REMARK   20  A    between atoms: C_46  and  C_47 
REMARK   21  A    between atoms: C_47  and  O_49 
REMARK   22  A    between atoms: C_50  and  C_51 
REMARK   23  A    between atoms: C_51  and  C_52 
REMARK   24  A    between atoms: C_52  and  O_54 
REMARK   25  A    between atoms: C_55  and  C_56 
REMARK   26  A    between atoms: C_56  and  C_57 
REMARK   27  A    between atoms: C_57  and  C_58 
REMARK   28  A    between atoms: C_58  and  O_60 
ROOT
ATOM      1  O   UNK d   0     -22.294   2.600   4.797  0.00  0.00    -0.650 OA
ATOM      2  C   UNK d   0     -21.978   3.323   3.825  0.00  0.00     0.139 C 
ENDROOT
BRANCH   2   3
ATOM      3  O   UNK d   0     -20.659   3.407   3.450  0.00  0.00    -0.776 OA
ATOM      4  H   UNK d   0     -19.943   3.726   4.106  0.00  0.00     0.167 HD
ENDBRANCH   2   3
BRANCH   2   5
ATOM      5  C   UNK d   0     -23.026   4.082   3.086  0.00  0.00     0.115 C 
BRANCH   5   6
ATOM      6  C   UNK d   0     -23.667   3.203   2.047  0.00  0.00     0.052 C 
BRANCH   6   7
ATOM      7  C   UNK d   0     -25.169   3.137   2.188  0.00  0.00    -0.020 A 
ATOM      8  C   UNK d   0     -26.065   3.806   1.509  0.00  0.00    -0.011 A 
ATOM      9  C   UNK d   0     -27.376   3.419   2.000  0.00  0.00     0.067 A 
ATOM     10  C   UNK d   0     -28.708   3.739   1.693  0.00  0.00     0.062 C 
ATOM     11  N   UNK d   0     -27.185   2.513   2.982  0.00  0.00    -0.248 NA
ATOM     12  C   UNK d   0     -29.859   3.050   2.091  0.00  0.00     0.041 A 
ATOM     13  N   UNK d   0     -30.204   2.511   3.276  0.00  0.00    -0.355 N 
ATOM     14  C   UNK d   0     -30.857   2.784   1.136  0.00  0.00    -0.022 A 
ATOM     15  C   UNK d   0     -31.391   1.903   3.095  0.00  0.00     0.042 A 
ATOM     16  H   UNK d   0     -29.629   2.576   4.225  0.00  0.00     0.166 HD
ATOM     17  C   UNK d   0     -32.199   1.189   4.003  0.00  0.00     0.062 C 
ATOM     18  C   UNK d   0     -31.833   2.052   1.766  0.00  0.00    -0.013 A 
ATOM     19  C   UNK d   0     -31.832   0.239   4.922  0.00  0.00     0.067 A 
ATOM     20  N   UNK d   0     -30.525   0.090   5.148  0.00  0.00    -0.248 NA
ATOM     21  C   UNK d   0     -32.524  -0.723   5.763  0.00  0.00    -0.011 A 
ATOM     22  C   UNK d   0     -30.311  -0.901   6.075  0.00  0.00     0.066 A 
ATOM     23  C   UNK d   0     -28.992  -1.136   6.433  0.00  0.00     0.062 C 
ATOM     24  C   UNK d   0     -31.628  -1.390   6.432  0.00  0.00    -0.020 A 
ATOM     25  C   UNK d   0     -27.851  -0.424   6.031  0.00  0.00     0.041 A 
ATOM     26  N   UNK d   0     -27.501   0.099   4.850  0.00  0.00    -0.355 N 
ATOM     27  C   UNK d   0     -26.852  -0.153   6.991  0.00  0.00    -0.022 A 
ATOM     28  C   UNK d   0     -26.313   0.699   5.025  0.00  0.00     0.042 A 
ATOM     29  H   UNK d   0     -28.075   0.024   3.894  0.00  0.00     0.166 HD
ATOM     30  C   UNK d   0     -25.494   1.404   4.129  0.00  0.00     0.062 C 
ATOM     31  C   UNK d   0     -25.875   0.557   6.363  0.00  0.00    -0.013 A 
ATOM     32  C   UNK d   0     -25.878   2.300   3.144  0.00  0.00     0.066 A 
BRANCH   8  33
ATOM     33  C   UNK d   0     -25.812   4.787   0.437  0.00  0.00     0.151 C 
BRANCH  33  34
ATOM     34  C   UNK d   0     -25.584   4.153  -0.875  0.00  0.00     0.143 C 
ATOM     35  O   UNK d   0     -24.712   4.578  -1.645  0.00  0.00    -0.650 OA
BRANCH  34  36
ATOM     36  O   UNK d   0     -26.354   3.075  -1.246  0.00  0.00    -0.776 OA
ATOM     37  H   UNK d   0     -26.846   2.503  -0.546  0.00  0.00     0.167 HD
ENDBRANCH  34  36
ENDBRANCH  33  34
ENDBRANCH   8  33
BRANCH  31  38
ATOM     38  C   UNK d   0     -24.608   1.083   6.996  0.00  0.00     0.151 C 
BRANCH  38  39
ATOM     39  C   UNK d   0     -24.749   2.433   7.498  0.00  0.00     0.143 C 
ATOM     40  O   UNK d   0     -23.769   3.150   7.766  0.00  0.00    -0.650 OA
BRANCH  39  41
ATOM     41  O   UNK d   0     -26.025   2.963   7.691  0.00  0.00    -0.776 OA
ATOM     42  H   UNK d   0     -26.081   3.870   8.166  0.00  0.00     0.167 HD
ENDBRANCH  39  41
ENDBRANCH  38  39
ENDBRANCH  31  38
BRANCH  27  43
ATOM     43  C   UNK d   0     -26.793  -0.539   8.448  0.00  0.00     0.052 C 
BRANCH  43  44
ATOM     44  C   UNK d   0     -26.309  -1.935   8.671  0.00  0.00     0.115 C 
BRANCH  44  45
ATOM     45  C   UNK d   0     -24.870  -1.833   9.028  0.00  0.00     0.139 C 
ATOM     46  O   UNK d   0     -24.026  -2.308   8.228  0.00  0.00    -0.650 OA
BRANCH  45  47
ATOM     47  O   UNK d   0     -24.429  -1.238  10.190  0.00  0.00    -0.776 OA
ATOM     48  H   UNK d   0     -24.999  -1.198  11.051  0.00  0.00     0.167 HD
ENDBRANCH  45  47
ENDBRANCH  44  45
ENDBRANCH  43  44
ENDBRANCH  27  43
BRANCH  24  49
ATOM     49  C   UNK d   0     -31.893  -2.438   7.432  0.00  0.00     0.052 C 
BRANCH  49  50
ATOM     50  C   UNK d   0     -31.672  -3.803   6.832  0.00  0.00     0.115 C 
BRANCH  50  51
ATOM     51  C   UNK d   0     -30.681  -4.657   7.471  0.00  0.00     0.139 C 
ATOM     52  O   UNK d   0     -30.994  -5.640   8.185  0.00  0.00    -0.650 OA
BRANCH  51  53
ATOM     53  O   UNK d   0     -29.331  -4.390   7.300  0.00  0.00    -0.776 OA
ATOM     54  H   UNK d   0     -29.028  -3.433   7.335  0.00  0.00     0.167 HD
ENDBRANCH  51  53
ENDBRANCH  50  51
ENDBRANCH  49  50
ENDBRANCH  24  49
BRANCH  21  55
ATOM     55  C   UNK d   0     -34.009  -0.872   5.814  0.00  0.00     0.151 C 
BRANCH  55  56
ATOM     56  C   UNK d   0     -34.519  -1.691   4.703  0.00  0.00     0.143 C 
ATOM     57  O   UNK d   0     -34.904  -1.199   3.624  0.00  0.00    -0.650 OA
BRANCH  56  58
ATOM     58  O   UNK d   0     -34.566  -3.072   4.884  0.00  0.00    -0.776 OA
ATOM     59  H   UNK d   0     -35.394  -3.538   4.470  0.00  0.00     0.167 HD
ENDBRANCH  56  58
ENDBRANCH  55  56
ENDBRANCH  21  55
BRANCH  18  60
ATOM     60  C   UNK d   0     -33.091   1.542   1.109  0.00  0.00     0.151 C 
BRANCH  60  61
ATOM     61  C   UNK d   0     -34.074   2.631   1.219  0.00  0.00     0.143 C 
ATOM     62  O   UNK d   0     -34.092   3.532   2.058  0.00  0.00    -0.650 OA
BRANCH  61  63
ATOM     63  O   UNK d   0     -35.099   2.618   0.242  0.00  0.00    -0.776 OA
ATOM     64  H   UNK d   0     -34.958   2.182  -0.652  0.00  0.00     0.167 HD
ENDBRANCH  61  63
ENDBRANCH  60  61
ENDBRANCH  18  60
BRANCH  14  65
ATOM     65  C   UNK d   0     -31.004   3.247  -0.285  0.00  0.00     0.052 C 
BRANCH  65  66
ATOM     66  C   UNK d   0     -30.641   2.201  -1.279  0.00  0.00     0.115 C 
BRANCH  66  67
ATOM     67  C   UNK d   0     -29.532   2.415  -2.165  0.00  0.00     0.139 C 
ATOM     68  O   UNK d   0     -29.006   3.588  -2.218  0.00  0.00    -0.650 OA
BRANCH  67  69
ATOM     69  O   UNK d   0     -28.923   1.488  -3.009  0.00  0.00    -0.776 OA
ATOM     70  H   UNK d   0     -28.150   1.848  -3.588  0.00  0.00     0.167 HD
ENDBRANCH  67  69
ENDBRANCH  66  67
ENDBRANCH  65  66
ENDBRANCH  14  65
ENDBRANCH   6   7
ENDBRANCH   5   6
ENDBRANCH   2   5
TORSDOF 28
ENDMDL
MODEL 7
REMARK VINA RESULT:      -7.4     19.731     21.762
REMARK  28 active torsions:
REMARK  status: ('A' for Active; 'I' for Inactive)
REMARK    1  A    between atoms: C_2  and  O_3 
REMARK    2  A    between atoms: C_2  and  C_4 
REMARK    3  A    between atoms: C_4  and  C_5 
REMARK    4  A    between atoms: C_5  and  C_6 
REMARK    5  A    between atoms: C_7  and  C_8 
REMARK    6  A    between atoms: C_8  and  C_9 
REMARK    7  A    between atoms: C_9  and  O_11 
REMARK    8  A    between atoms: C_28  and  C_29 
REMARK    9  A    between atoms: C_29  and  C_30 
REMARK   10  A    between atoms: C_30  and  O_32 
REMARK   11  A    between atoms: C_33  and  C_34 
REMARK   12  A    between atoms: C_34  and  C_35 
REMARK   13  A    between atoms: C_35  and  C_36 
REMARK   14  A    between atoms: C_36  and  O_38 
REMARK   15  A    between atoms: C_39  and  C_40 
REMARK   16  A    between atoms: C_40  and  C_41 
REMARK   17  A    between atoms: C_41  and  C_42 
REMARK   18  A    between atoms: C_42  and  O_44 
REMARK   19  A    between atoms: C_45  and  C_46 
REMARK   20  A    between atoms: C_46  and  C_47 
REMARK   21  A    between atoms: C_47  and  O_49 
REMARK   22  A    between atoms: C_50  and  C_51 
REMARK   23  A    between atoms: C_51  and  C_52 
REMARK   24  A    between atoms: C_52  and  O_54 
REMARK   25  A    between atoms: C_55  and  C_56 
REMARK   26  A    between atoms: C_56  and  C_57 
REMARK   27  A    between atoms: C_57  and  C_58 
REMARK   28  A    between atoms: C_58  and  O_60 
ROOT
ATOM      1  O   UNK d   0      -7.583   3.157  18.751  0.00  0.00    -0.650 OA
ATOM      2  C   UNK d   0      -7.315   1.985  18.406  0.00  0.00     0.139 C 
ENDROOT
BRANCH   2   3
ATOM      3  O   UNK d   0      -6.015   1.546  18.467  0.00  0.00    -0.776 OA
ATOM      4  H   UNK d   0      -5.760   0.726  19.022  0.00  0.00     0.167 HD
ENDBRANCH   2   3
BRANCH   2   5
ATOM      5  C   UNK d   0      -8.399   1.077  17.934  0.00  0.00     0.115 C 
BRANCH   5   6
ATOM      6  C   UNK d   0      -9.623   1.241  18.793  0.00  0.00     0.052 C 
BRANCH   6   7
ATOM      7  C   UNK d   0     -10.621   0.124  18.603  0.00  0.00    -0.020 A 
ATOM      8  C   UNK d   0     -10.781  -0.939  19.349  0.00  0.00    -0.011 A 
ATOM      9  C   UNK d   0     -11.853  -1.731  18.770  0.00  0.00     0.067 A 
ATOM     10  C   UNK d   0     -12.509  -2.932  19.085  0.00  0.00     0.062 C 
ATOM     11  N   UNK d   0     -12.284  -1.079  17.670  0.00  0.00    -0.248 NA
ATOM     12  C   UNK d   0     -13.717  -3.401  18.557  0.00  0.00     0.041 A 
ATOM     13  N   UNK d   0     -14.190  -3.409  17.297  0.00  0.00    -0.355 N 
ATOM     14  C   UNK d   0     -14.685  -3.923  19.434  0.00  0.00    -0.022 A 
ATOM     15  C   UNK d   0     -15.437  -3.915  17.352  0.00  0.00     0.042 A 
ATOM     16  H   UNK d   0     -13.647  -3.081  16.383  0.00  0.00     0.166 HD
ATOM     17  C   UNK d   0     -16.376  -4.144  16.327  0.00  0.00     0.062 C 
ATOM     18  C   UNK d   0     -15.782  -4.248  18.676  0.00  0.00    -0.013 A 
ATOM     19  C   UNK d   0     -16.735  -3.325  15.288  0.00  0.00     0.067 A 
ATOM     20  N   UNK d   0     -15.977  -2.246  15.078  0.00  0.00    -0.248 NA
ATOM     21  C   UNK d   0     -17.796  -3.301  14.294  0.00  0.00    -0.011 A 
ATOM     22  C   UNK d   0     -16.465  -1.518  14.021  0.00  0.00     0.066 A 
ATOM     23  C   UNK d   0     -15.747  -0.385  13.668  0.00  0.00     0.062 C 
ATOM     24  C   UNK d   0     -17.635  -2.239  13.559  0.00  0.00    -0.020 A 
ATOM     25  C   UNK d   0     -14.529   0.062  14.202  0.00  0.00     0.041 A 
ATOM     26  N   UNK d   0     -14.064   0.084  15.457  0.00  0.00    -0.355 N 
ATOM     27  C   UNK d   0     -13.556   0.582  13.320  0.00  0.00    -0.022 A 
ATOM     28  C   UNK d   0     -12.824   0.596  15.405  0.00  0.00     0.042 A 
ATOM     29  H   UNK d   0     -14.615  -0.236  16.375  0.00  0.00     0.166 HD
ATOM     30  C   UNK d   0     -11.883   0.838  16.418  0.00  0.00     0.062 C 
ATOM     31  C   UNK d   0     -12.474   0.921  14.073  0.00  0.00    -0.013 A 
ATOM     32  C   UNK d   0     -11.583   0.045  17.514  0.00  0.00     0.066 A 
BRANCH   8  33
ATOM     33  C   UNK d   0     -10.020  -1.292  20.561  0.00  0.00     0.151 C 
BRANCH  33  34
ATOM     34  C   UNK d   0     -10.714  -0.909  21.803  0.00  0.00     0.143 C 
ATOM     35  O   UNK d   0     -10.693   0.262  22.209  0.00  0.00    -0.650 OA
BRANCH  34  36
ATOM     36  O   UNK d   0     -11.392  -1.866  22.521  0.00  0.00    -0.776 OA
ATOM     37  H   UNK d   0     -11.949  -1.618  23.351  0.00  0.00     0.167 HD
ENDBRANCH  34  36
ENDBRANCH  33  34
ENDBRANCH   8  33
BRANCH  31  38
ATOM     38  C   UNK d   0     -11.179   1.507  13.560  0.00  0.00     0.151 C 
BRANCH  38  39
ATOM     39  C   UNK d   0     -10.345   0.529  12.896  0.00  0.00     0.143 C 
ATOM     40  O   UNK d   0     -10.303   0.421  11.657  0.00  0.00    -0.650 OA
BRANCH  39  41
ATOM     41  O   UNK d   0      -9.553  -0.329  13.658  0.00  0.00    -0.776 OA
ATOM     42  H   UNK d   0      -9.328  -0.025  14.611  0.00  0.00     0.167 HD
ENDBRANCH  39  41
ENDBRANCH  38  39
ENDBRANCH  31  38
BRANCH  27  43
ATOM     43  C   UNK d   0     -13.618   0.764  11.825  0.00  0.00     0.052 C 
BRANCH  43  44
ATOM     44  C   UNK d   0     -13.955   2.161  11.413  0.00  0.00     0.115 C 
BRANCH  44  45
ATOM     45  C   UNK d   0     -12.938   2.564  10.407  0.00  0.00     0.139 C 
ATOM     46  O   UNK d   0     -12.850   3.781  10.110  0.00  0.00    -0.650 OA
BRANCH  45  47
ATOM     47  O   UNK d   0     -12.093   1.663   9.796  0.00  0.00    -0.776 OA
ATOM     48  H   UNK d   0     -11.653   0.877  10.301  0.00  0.00     0.167 HD
ENDBRANCH  45  47
ENDBRANCH  44  45
ENDBRANCH  43  44
ENDBRANCH  27  43
BRANCH  24  49
ATOM     49  C   UNK d   0     -18.465  -1.846  12.407  0.00  0.00     0.052 C 
BRANCH  49  50
ATOM     50  C   UNK d   0     -19.497  -0.831  12.827  0.00  0.00     0.115 C 
BRANCH  50  51
ATOM     51  C   UNK d   0     -20.770  -0.845  12.120  0.00  0.00     0.139 C 
ATOM     52  O   UNK d   0     -20.923  -0.322  10.991  0.00  0.00    -0.650 OA
BRANCH  51  53
ATOM     53  O   UNK d   0     -21.872  -1.454  12.702  0.00  0.00    -0.776 OA
ATOM     54  H   UNK d   0     -21.947  -2.455  12.646  0.00  0.00     0.167 HD
ENDBRANCH  51  53
ENDBRANCH  50  51
ENDBRANCH  49  50
ENDBRANCH  24  49
BRANCH  21  55
ATOM     55  C   UNK d   0     -18.857  -4.345  14.181  0.00  0.00     0.151 C 
BRANCH  55  56
ATOM     56  C   UNK d   0     -19.994  -4.075  15.074  0.00  0.00     0.143 C 
ATOM     57  O   UNK d   0     -20.803  -3.147  14.875  0.00  0.00    -0.650 OA
BRANCH  56  58
ATOM     58  O   UNK d   0     -20.159  -4.901  16.185  0.00  0.00    -0.776 OA
ATOM     59  H   UNK d   0     -21.042  -5.442  16.199  0.00  0.00     0.167 HD
ENDBRANCH  56  58
ENDBRANCH  55  56
ENDBRANCH  21  55
BRANCH  18  60
ATOM     60  C   UNK d   0     -17.063  -4.836  19.216  0.00  0.00     0.151 C 
BRANCH  60  61
ATOM     61  C   UNK d   0     -17.988  -3.704  19.380  0.00  0.00     0.143 C 
ATOM     62  O   UNK d   0     -18.168  -3.034  20.396  0.00  0.00    -0.650 OA
BRANCH  61  63
ATOM     63  O   UNK d   0     -18.741  -3.371  18.228  0.00  0.00    -0.776 OA
ATOM     64  H   UNK d   0     -18.288  -3.130  17.364  0.00  0.00     0.167 HD
ENDBRANCH  61  63
ENDBRANCH  60  61
ENDBRANCH  18  60
BRANCH  14  65
ATOM     65  C   UNK d   0     -14.616  -4.225  20.904  0.00  0.00     0.052 C 
BRANCH  65  66
ATOM     66  C   UNK d   0     -15.183  -3.140  21.749  0.00  0.00     0.115 C 
BRANCH  66  67
ATOM     67  C   UNK d   0     -15.076  -1.774  21.319  0.00  0.00     0.139 C 
ATOM     68  O   UNK d   0     -14.046  -1.096  21.682  0.00  0.00    -0.650 OA
BRANCH  67  69
ATOM     69  O   UNK d   0     -15.973  -1.055  20.530  0.00  0.00    -0.776 OA
ATOM     70  H   UNK d   0     -16.272  -0.145  20.909  0.00  0.00     0.167 HD
ENDBRANCH  67  69
ENDBRANCH  66  67
ENDBRANCH  65  66
ENDBRANCH  14  65
ENDBRANCH   6   7
ENDBRANCH   5   6
ENDBRANCH   2   5
TORSDOF 28
ENDMDL
MODEL 8
REMARK VINA RESULT:      -7.4     20.480     22.875
REMARK  28 active torsions:
REMARK  status: ('A' for Active; 'I' for Inactive)
REMARK    1  A    between atoms: C_2  and  O_3 
REMARK    2  A    between atoms: C_2  and  C_4 
REMARK    3  A    between atoms: C_4  and  C_5 
REMARK    4  A    between atoms: C_5  and  C_6 
REMARK    5  A    between atoms: C_7  and  C_8 
REMARK    6  A    between atoms: C_8  and  C_9 
REMARK    7  A    between atoms: C_9  and  O_11 
REMARK    8  A    between atoms: C_28  and  C_29 
REMARK    9  A    between atoms: C_29  and  C_30 
REMARK   10  A    between atoms: C_30  and  O_32 
REMARK   11  A    between atoms: C_33  and  C_34 
REMARK   12  A    between atoms: C_34  and  C_35 
REMARK   13  A    between atoms: C_35  and  C_36 
REMARK   14  A    between atoms: C_36  and  O_38 
REMARK   15  A    between atoms: C_39  and  C_40 
REMARK   16  A    between atoms: C_40  and  C_41 
REMARK   17  A    between atoms: C_41  and  C_42 
REMARK   18  A    between atoms: C_42  and  O_44 
REMARK   19  A    between atoms: C_45  and  C_46 
REMARK   20  A    between atoms: C_46  and  C_47 
REMARK   21  A    between atoms: C_47  and  O_49 
REMARK   22  A    between atoms: C_50  and  C_51 
REMARK   23  A    between atoms: C_51  and  C_52 
REMARK   24  A    between atoms: C_52  and  O_54 
REMARK   25  A    between atoms: C_55  and  C_56 
REMARK   26  A    between atoms: C_56  and  C_57 
REMARK   27  A    between atoms: C_57  and  C_58 
REMARK   28  A    between atoms: C_58  and  O_60 
ROOT
ATOM      1  O   UNK d   0      -6.279   2.335  20.258  0.00  0.00    -0.650 OA
ATOM      2  C   UNK d   0      -7.498   2.611  20.328  0.00  0.00     0.139 C 
ENDROOT
BRANCH   2   3
ATOM      3  O   UNK d   0      -7.888   3.928  20.379  0.00  0.00    -0.776 OA
ATOM      4  H   UNK d   0      -7.813   4.467  21.244  0.00  0.00     0.167 HD
ENDBRANCH   2   3
BRANCH   2   5
ATOM      5  C   UNK d   0      -8.512   1.519  20.356  0.00  0.00     0.115 C 
BRANCH   5   6
ATOM      6  C   UNK d   0      -8.377   0.657  19.131  0.00  0.00     0.052 C 
BRANCH   6   7
ATOM      7  C   UNK d   0      -9.650   0.595  18.321  0.00  0.00    -0.020 A 
ATOM      8  C   UNK d   0     -10.025   1.400  17.360  0.00  0.00    -0.011 A 
ATOM      9  C   UNK d   0     -11.323   0.952  16.885  0.00  0.00     0.067 A 
ATOM     10  C   UNK d   0     -12.232   1.352  15.893  0.00  0.00     0.062 C 
ATOM     11  N   UNK d   0     -11.667  -0.128  17.618  0.00  0.00    -0.248 NA
ATOM     12  C   UNK d   0     -13.316   0.624  15.393  0.00  0.00     0.041 A 
ATOM     13  N   UNK d   0     -14.245  -0.125  16.019  0.00  0.00    -0.355 N 
ATOM     14  C   UNK d   0     -13.514   0.565  14.002  0.00  0.00    -0.022 A 
ATOM     15  C   UNK d   0     -15.021  -0.663  15.060  0.00  0.00     0.042 A 
ATOM     16  H   UNK d   0     -14.361  -0.254  17.118  0.00  0.00     0.166 HD
ATOM     17  C   UNK d   0     -16.135  -1.521  15.161  0.00  0.00     0.062 C 
ATOM     18  C   UNK d   0     -14.594  -0.254  13.782  0.00  0.00    -0.013 A 
ATOM     19  C   UNK d   0     -16.297  -2.636  15.943  0.00  0.00     0.067 A 
ATOM     20  N   UNK d   0     -15.376  -2.852  16.886  0.00  0.00    -0.248 NA
ATOM     21  C   UNK d   0     -17.254  -3.726  16.022  0.00  0.00    -0.011 A 
ATOM     22  C   UNK d   0     -15.661  -4.005  17.574  0.00  0.00     0.066 A 
ATOM     23  C   UNK d   0     -14.802  -4.332  18.613  0.00  0.00     0.062 C 
ATOM     24  C   UNK d   0     -16.874  -4.527  16.976  0.00  0.00    -0.020 A 
ATOM     25  C   UNK d   0     -13.725  -3.579  19.107  0.00  0.00     0.041 A 
ATOM     26  N   UNK d   0     -12.793  -2.847  18.484  0.00  0.00    -0.355 N 
ATOM     27  C   UNK d   0     -13.530  -3.517  20.504  0.00  0.00    -0.022 A 
ATOM     28  C   UNK d   0     -12.012  -2.316  19.438  0.00  0.00     0.042 A 
ATOM     29  H   UNK d   0     -12.672  -2.727  17.380  0.00  0.00     0.166 HD
ATOM     30  C   UNK d   0     -10.896  -1.470  19.352  0.00  0.00     0.062 C 
ATOM     31  C   UNK d   0     -12.449  -2.720  20.723  0.00  0.00    -0.013 A 
ATOM     32  C   UNK d   0     -10.702  -0.395  18.499  0.00  0.00     0.066 A 
BRANCH   8  33
ATOM     33  C   UNK d   0      -9.281   2.562  16.839  0.00  0.00     0.151 C 
BRANCH  33  34
ATOM     34  C   UNK d   0      -9.902   3.847  17.204  0.00  0.00     0.143 C 
ATOM     35  O   UNK d   0     -10.004   4.190  18.391  0.00  0.00    -0.650 OA
BRANCH  34  36
ATOM     36  O   UNK d   0     -10.376   4.675  16.213  0.00  0.00    -0.776 OA
ATOM     37  H   UNK d   0     -11.173   5.305  16.378  0.00  0.00     0.167 HD
ENDBRANCH  34  36
ENDBRANCH  33  34
ENDBRANCH   8  33
BRANCH  31  38
ATOM     38  C   UNK d   0     -11.871  -2.351  22.069  0.00  0.00     0.151 C 
BRANCH  38  39
ATOM     39  C   UNK d   0     -10.823  -3.253  22.497  0.00  0.00     0.143 C 
ATOM     40  O   UNK d   0      -9.637  -3.108  22.150  0.00  0.00    -0.650 OA
BRANCH  39  41
ATOM     41  O   UNK d   0     -11.139  -4.327  23.328  0.00  0.00    -0.776 OA
ATOM     42  H   UNK d   0     -11.172  -4.137  24.335  0.00  0.00     0.167 HD
ENDBRANCH  39  41
ENDBRANCH  38  39
ENDBRANCH  31  38
BRANCH  27  43
ATOM     43  C   UNK d   0     -14.315  -4.175  21.612  0.00  0.00     0.052 C 
BRANCH  43  44
ATOM     44  C   UNK d   0     -13.913  -5.593  21.859  0.00  0.00     0.115 C 
BRANCH  44  45
ATOM     45  C   UNK d   0     -15.169  -6.381  21.947  0.00  0.00     0.139 C 
ATOM     46  O   UNK d   0     -15.267  -7.238  22.860  0.00  0.00    -0.650 OA
BRANCH  45  47
ATOM     47  O   UNK d   0     -16.224  -6.205  21.078  0.00  0.00    -0.776 OA
ATOM     48  H   UNK d   0     -16.274  -6.668  20.156  0.00  0.00     0.167 HD
ENDBRANCH  45  47
ENDBRANCH  44  45
ENDBRANCH  43  44
ENDBRANCH  27  43
BRANCH  24  49
ATOM     49  C   UNK d   0     -17.578  -5.742  17.422  0.00  0.00     0.052 C 
BRANCH  49  50
ATOM     50  C   UNK d   0     -16.715  -6.958  17.201  0.00  0.00     0.115 C 
BRANCH  50  51
ATOM     51  C   UNK d   0     -16.491  -7.372  15.823  0.00  0.00     0.139 C 
ATOM     52  O   UNK d   0     -15.343  -7.505  15.335  0.00  0.00    -0.650 OA
BRANCH  51  53
ATOM     53  O   UNK d   0     -17.575  -7.633  14.999  0.00  0.00    -0.776 OA
ATOM     54  H   UNK d   0     -18.485  -7.701  15.419  0.00  0.00     0.167 HD
ENDBRANCH  51  53
ENDBRANCH  50  51
ENDBRANCH  49  50
ENDBRANCH  24  49
BRANCH  21  55
ATOM     55  C   UNK d   0     -18.451  -3.853  15.139  0.00  0.00     0.151 C 
BRANCH  55  56
ATOM     56  C   UNK d   0     -18.079  -4.115  13.740  0.00  0.00     0.143 C 
ATOM     57  O   UNK d   0     -17.696  -5.233  13.342  0.00  0.00    -0.650 OA
BRANCH  56  58
ATOM     58  O   UNK d   0     -18.165  -3.058  12.836  0.00  0.00    -0.776 OA
ATOM     59  H   UNK d   0     -18.506  -2.166  13.238  0.00  0.00     0.167 HD
ENDBRANCH  56  58
ENDBRANCH  55  56
ENDBRANCH  21  55
BRANCH  18  60
ATOM     60  C   UNK d   0     -15.152  -0.603  12.424  0.00  0.00     0.151 C 
BRANCH  60  61
ATOM     61  C   UNK d   0     -16.262   0.333  12.191  0.00  0.00     0.143 C 
ATOM     62  O   UNK d   0     -16.180   1.506  11.825  0.00  0.00    -0.650 OA
BRANCH  61  63
ATOM     63  O   UNK d   0     -17.555  -0.197  12.419  0.00  0.00    -0.776 OA
ATOM     64  H   UNK d   0     -18.379   0.314  12.156  0.00  0.00     0.167 HD
ENDBRANCH  61  63
ENDBRANCH  60  61
ENDBRANCH  18  60
BRANCH  14  65
ATOM     65  C   UNK d   0     -12.828   1.295  12.882  0.00  0.00     0.052 C 
BRANCH  65  66
ATOM     66  C   UNK d   0     -11.704   0.523  12.287  0.00  0.00     0.115 C 
BRANCH  66  67
ATOM     67  C   UNK d   0     -11.232   0.853  10.972  0.00  0.00     0.139 C 
ATOM     68  O   UNK d   0     -11.901   1.699  10.274  0.00  0.00    -0.650 OA
BRANCH  67  69
ATOM     69  O   UNK d   0     -10.100   0.359  10.323  0.00  0.00    -0.776 OA
ATOM     70  H   UNK d   0      -9.976  -0.663  10.356  0.00  0.00     0.167 HD
ENDBRANCH  67  69
ENDBRANCH  66  67
ENDBRANCH  65  66
ENDBRANCH  14  65
ENDBRANCH   6   7
ENDBRANCH   5   6
ENDBRANCH   2   5
TORSDOF 28
ENDMDL
MODEL 9
REMARK VINA RESULT:      -7.3     22.581     25.955
REMARK  28 active torsions:
REMARK  status: ('A' for Active; 'I' for Inactive)
REMARK    1  A    between atoms: C_2  and  O_3 
REMARK    2  A    between atoms: C_2  and  C_4 
REMARK    3  A    between atoms: C_4  and  C_5 
REMARK    4  A    between atoms: C_5  and  C_6 
REMARK    5  A    between atoms: C_7  and  C_8 
REMARK    6  A    between atoms: C_8  and  C_9 
REMARK    7  A    between atoms: C_9  and  O_11 
REMARK    8  A    between atoms: C_28  and  C_29 
REMARK    9  A    between atoms: C_29  and  C_30 
REMARK   10  A    between atoms: C_30  and  O_32 
REMARK   11  A    between atoms: C_33  and  C_34 
REMARK   12  A    between atoms: C_34  and  C_35 
REMARK   13  A    between atoms: C_35  and  C_36 
REMARK   14  A    between atoms: C_36  and  O_38 
REMARK   15  A    between atoms: C_39  and  C_40 
REMARK   16  A    between atoms: C_40  and  C_41 
REMARK   17  A    between atoms: C_41  and  C_42 
REMARK   18  A    between atoms: C_42  and  O_44 
REMARK   19  A    between atoms: C_45  and  C_46 
REMARK   20  A    between atoms: C_46  and  C_47 
REMARK   21  A    between atoms: C_47  and  O_49 
REMARK   22  A    between atoms: C_50  and  C_51 
REMARK   23  A    between atoms: C_51  and  C_52 
REMARK   24  A    between atoms: C_52  and  O_54 
REMARK   25  A    between atoms: C_55  and  C_56 
REMARK   26  A    between atoms: C_56  and  C_57 
REMARK   27  A    between atoms: C_57  and  C_58 
REMARK   28  A    between atoms: C_58  and  O_60 
ROOT
ATOM      1  O   UNK d   0      -8.641  -2.699  21.060  0.00  0.00    -0.650 OA
ATOM      2  C   UNK d   0      -9.657  -2.074  20.684  0.00  0.00     0.139 C 
ENDROOT
BRANCH   2   3
ATOM      3  O   UNK d   0     -10.903  -2.573  20.982  0.00  0.00    -0.776 OA
ATOM      4  H   UNK d   0     -11.550  -2.053  21.579  0.00  0.00     0.167 HD
ENDBRANCH   2   3
BRANCH   2   5
ATOM      5  C   UNK d   0      -9.514  -0.803  19.919  0.00  0.00     0.115 C 
BRANCH   5   6
ATOM      6  C   UNK d   0     -10.858  -0.150  19.744  0.00  0.00     0.052 C 
BRANCH   6   7
ATOM      7  C   UNK d   0     -11.194   0.112  18.296  0.00  0.00    -0.020 A 
ATOM      8  C   UNK d   0     -11.831  -0.676  17.469  0.00  0.00    -0.011 A 
ATOM      9  C   UNK d   0     -11.909  -0.003  16.183  0.00  0.00     0.067 A 
ATOM     10  C   UNK d   0     -12.462  -0.285  14.924  0.00  0.00     0.062 C 
ATOM     11  N   UNK d   0     -11.288   1.188  16.316  0.00  0.00    -0.248 NA
ATOM     12  C   UNK d   0     -12.679   0.613  13.873  0.00  0.00     0.041 A 
ATOM     13  N   UNK d   0     -11.908   1.598  13.375  0.00  0.00    -0.355 N 
ATOM     14  C   UNK d   0     -13.915   0.587  13.201  0.00  0.00    -0.022 A 
ATOM     15  C   UNK d   0     -12.625   2.202  12.409  0.00  0.00     0.042 A 
ATOM     16  H   UNK d   0     -10.870   1.848  13.687  0.00  0.00     0.166 HD
ATOM     17  C   UNK d   0     -12.296   3.286  11.570  0.00  0.00     0.062 C 
ATOM     18  C   UNK d   0     -13.889   1.596  12.271  0.00  0.00    -0.013 A 
ATOM     19  C   UNK d   0     -11.695   4.475  11.894  0.00  0.00     0.067 A 
ATOM     20  N   UNK d   0     -11.163   4.572  13.115  0.00  0.00    -0.248 NA
ATOM     21  C   UNK d   0     -11.477   5.750  11.230  0.00  0.00    -0.011 A 
ATOM     22  C   UNK d   0     -10.614   5.817  13.299  0.00  0.00     0.066 A 
ATOM     23  C   UNK d   0      -9.990   6.042  14.517  0.00  0.00     0.062 C 
ATOM     24  C   UNK d   0     -10.848   6.532  12.059  0.00  0.00    -0.020 A 
ATOM     25  C   UNK d   0      -9.771   5.122  15.554  0.00  0.00     0.041 A 
ATOM     26  N   UNK d   0     -10.543   4.153  16.059  0.00  0.00    -0.355 N 
ATOM     27  C   UNK d   0      -8.529   5.146  16.226  0.00  0.00    -0.022 A 
ATOM     28  C   UNK d   0      -9.834   3.554  17.029  0.00  0.00     0.042 A 
ATOM     29  H   UNK d   0     -11.590   3.910  15.752  0.00  0.00     0.166 HD
ATOM     30  C   UNK d   0     -10.152   2.482  17.877  0.00  0.00     0.062 C 
ATOM     31  C   UNK d   0      -8.560   4.157  17.160  0.00  0.00    -0.013 A 
ATOM     32  C   UNK d   0     -10.835   1.318  17.564  0.00  0.00     0.066 A 
BRANCH   8  33
ATOM     33  C   UNK d   0     -12.377  -2.014  17.764  0.00  0.00     0.151 C 
BRANCH  33  34
ATOM     34  C   UNK d   0     -11.357  -3.075  17.690  0.00  0.00     0.143 C 
ATOM     35  O   UNK d   0     -11.516  -4.154  18.279  0.00  0.00    -0.650 OA
BRANCH  34  36
ATOM     36  O   UNK d   0     -10.213  -2.863  16.955  0.00  0.00    -0.776 OA
ATOM     37  H   UNK d   0      -9.314  -3.277  17.235  0.00  0.00     0.167 HD
ENDBRANCH  34  36
ENDBRANCH  33  34
ENDBRANCH   8  33
BRANCH  31  38
ATOM     38  C   UNK d   0      -7.444   3.795  18.112  0.00  0.00     0.151 C 
BRANCH  38  39
ATOM     39  C   UNK d   0      -7.448   4.602  19.314  0.00  0.00     0.143 C 
ATOM     40  O   UNK d   0      -8.500   4.961  19.871  0.00  0.00    -0.650 OA
BRANCH  39  41
ATOM     41  O   UNK d   0      -6.235   4.997  19.878  0.00  0.00    -0.776 OA
ATOM     42  H   UNK d   0      -6.272   5.755  20.568  0.00  0.00     0.167 HD
ENDBRANCH  39  41
ENDBRANCH  38  39
ENDBRANCH  31  38
BRANCH  27  43
ATOM     43  C   UNK d   0      -7.344   6.056  16.017  0.00  0.00     0.052 C 
BRANCH  43  44
ATOM     44  C   UNK d   0      -7.315   7.214  16.961  0.00  0.00     0.115 C 
BRANCH  44  45
ATOM     45  C   UNK d   0      -7.079   8.428  16.136  0.00  0.00     0.139 C 
ATOM     46  O   UNK d   0      -7.749   8.567  15.083  0.00  0.00    -0.650 OA
BRANCH  45  47
ATOM     47  O   UNK d   0      -6.165   9.400  16.482  0.00  0.00    -0.776 OA
ATOM     48  H   UNK d   0      -5.353   9.641  15.891  0.00  0.00     0.167 HD
ENDBRANCH  45  47
ENDBRANCH  44  45
ENDBRANCH  43  44
ENDBRANCH  27  43
BRANCH  24  49
ATOM     49  C   UNK d   0     -10.393   7.906  11.782  0.00  0.00     0.052 C 
BRANCH  49  50
ATOM     50  C   UNK d   0     -11.294   8.904  12.464  0.00  0.00     0.115 C 
BRANCH  50  51
ATOM     51  C   UNK d   0     -10.791   9.533  13.677  0.00  0.00     0.139 C 
ATOM     52  O   UNK d   0     -11.346   9.392  14.792  0.00  0.00    -0.650 OA
BRANCH  51  53
ATOM     53  O   UNK d   0      -9.656  10.327  13.618  0.00  0.00    -0.776 OA
ATOM     54  H   UNK d   0      -9.753  11.272  13.291  0.00  0.00     0.167 HD
ENDBRANCH  51  53
ENDBRANCH  50  51
ENDBRANCH  49  50
ENDBRANCH  24  49
BRANCH  21  55
ATOM     55  C   UNK d   0     -11.917   6.052   9.836  0.00  0.00     0.151 C 
BRANCH  55  56
ATOM     56  C   UNK d   0     -13.286   6.587   9.793  0.00  0.00     0.143 C 
ATOM     57  O   UNK d   0     -13.532   7.800   9.644  0.00  0.00    -0.650 OA
BRANCH  56  58
ATOM     58  O   UNK d   0     -14.340   5.685   9.927  0.00  0.00    -0.776 OA
ATOM     59  H   UNK d   0     -14.568   5.422  10.902  0.00  0.00     0.167 HD
ENDBRANCH  56  58
ENDBRANCH  55  56
ENDBRANCH  21  55
BRANCH  18  60
ATOM     60  C   UNK d   0     -15.018   1.934  11.330  0.00  0.00     0.151 C 
BRANCH  60  61
ATOM     61  C   UNK d   0     -15.873   2.889  12.051  0.00  0.00     0.143 C 
ATOM     62  O   UNK d   0     -15.578   4.032  12.400  0.00  0.00    -0.650 OA
BRANCH  61  63
ATOM     63  O   UNK d   0     -17.171   2.419  12.364  0.00  0.00    -0.776 OA
ATOM     64  H   UNK d   0     -17.942   3.055  12.468  0.00  0.00     0.167 HD
ENDBRANCH  61  63
ENDBRANCH  60  61
ENDBRANCH  18  60
BRANCH  14  65
ATOM     65  C   UNK d   0     -15.066  -0.372  13.302  0.00  0.00     0.052 C 
BRANCH  65  66
ATOM     66  C   UNK d   0     -15.924  -0.129  14.493  0.00  0.00     0.115 C 
BRANCH  66  67
ATOM     67  C   UNK d   0     -16.428  -1.242  15.246  0.00  0.00     0.139 C 
ATOM     68  O   UNK d   0     -17.451  -1.057  16.004  0.00  0.00    -0.650 OA
BRANCH  67  69
ATOM     69  O   UNK d   0     -15.941  -2.548  15.269  0.00  0.00    -0.776 OA
ATOM     70  H   UNK d   0     -16.596  -3.265  15.612  0.00  0.00     0.167 HD
ENDBRANCH  67  69
ENDBRANCH  66  67
ENDBRANCH  65  66
ENDBRANCH  14  65
ENDBRANCH   6   7
ENDBRANCH   5   6
ENDBRANCH   2   5
TORSDOF 28
ENDMDL
MODEL 10
REMARK VINA RESULT:      -7.3     15.955     17.740
REMARK  28 active torsions:
REMARK  status: ('A' for Active; 'I' for Inactive)
REMARK    1  A    between atoms: C_2  and  O_3 
REMARK    2  A    between atoms: C_2  and  C_4 
REMARK    3  A    between atoms: C_4  and  C_5 
REMARK    4  A    between atoms: C_5  and  C_6 
REMARK    5  A    between atoms: C_7  and  C_8 
REMARK    6  A    between atoms: C_8  and  C_9 
REMARK    7  A    between atoms: C_9  and  O_11 
REMARK    8  A    between atoms: C_28  and  C_29 
REMARK    9  A    between atoms: C_29  and  C_30 
REMARK   10  A    between atoms: C_30  and  O_32 
REMARK   11  A    between atoms: C_33  and  C_34 
REMARK   12  A    between atoms: C_34  and  C_35 
REMARK   13  A    between atoms: C_35  and  C_36 
REMARK   14  A    between atoms: C_36  and  O_38 
REMARK   15  A    between atoms: C_39  and  C_40 
REMARK   16  A    between atoms: C_40  and  C_41 
REMARK   17  A    between atoms: C_41  and  C_42 
REMARK   18  A    between atoms: C_42  and  O_44 
REMARK   19  A    between atoms: C_45  and  C_46 
REMARK   20  A    between atoms: C_46  and  C_47 
REMARK   21  A    between atoms: C_47  and  O_49 
REMARK   22  A    between atoms: C_50  and  C_51 
REMARK   23  A    between atoms: C_51  and  C_52 
REMARK   24  A    between atoms: C_52  and  O_54 
REMARK   25  A    between atoms: C_55  and  C_56 
REMARK   26  A    between atoms: C_56  and  C_57 
REMARK   27  A    between atoms: C_57  and  C_58 
REMARK   28  A    between atoms: C_58  and  O_60 
ROOT
ATOM      1  O   UNK d   0     -12.406   6.587  10.441  0.00  0.00    -0.650 OA
ATOM      2  C   UNK d   0     -13.228   6.219   9.573  0.00  0.00     0.139 C 
ENDROOT
BRANCH   2   3
ATOM      3  O   UNK d   0     -12.869   5.243   8.675  0.00  0.00    -0.776 OA
ATOM      4  H   UNK d   0     -13.443   4.408   8.545  0.00  0.00     0.167 HD
ENDBRANCH   2   3
BRANCH   2   5
ATOM      5  C   UNK d   0     -14.584   6.837   9.516  0.00  0.00     0.115 C 
BRANCH   5   6
ATOM      6  C   UNK d   0     -15.540   5.921   8.802  0.00  0.00     0.052 C 
BRANCH   6   7
ATOM      7  C   UNK d   0     -16.451   5.179   9.750  0.00  0.00    -0.020 A 
ATOM      8  C   UNK d   0     -17.667   5.503  10.108  0.00  0.00    -0.011 A 
ATOM      9  C   UNK d   0     -18.140   4.495  11.041  0.00  0.00     0.067 A 
ATOM     10  C   UNK d   0     -19.325   4.252  11.755  0.00  0.00     0.062 C 
ATOM     11  N   UNK d   0     -17.145   3.597  11.200  0.00  0.00    -0.248 NA
ATOM     12  C   UNK d   0     -19.698   3.067  12.398  0.00  0.00     0.041 A 
ATOM     13  N   UNK d   0     -18.993   2.217  13.170  0.00  0.00    -0.355 N 
ATOM     14  C   UNK d   0     -21.004   2.577  12.217  0.00  0.00    -0.022 A 
ATOM     15  C   UNK d   0     -19.817   1.197  13.477  0.00  0.00     0.042 A 
ATOM     16  H   UNK d   0     -17.941   2.346  13.507  0.00  0.00     0.166 HD
ATOM     17  C   UNK d   0     -19.591   0.044  14.255  0.00  0.00     0.062 C 
ATOM     18  C   UNK d   0     -21.086   1.387  12.897  0.00  0.00    -0.013 A 
ATOM     19  C   UNK d   0     -18.513  -0.804  14.248  0.00  0.00     0.067 A 
ATOM     20  N   UNK d   0     -17.435  -0.405  13.568  0.00  0.00    -0.248 NA
ATOM     21  C   UNK d   0     -18.209  -2.112  14.803  0.00  0.00    -0.011 A 
ATOM     22  C   UNK d   0     -16.448  -1.358  13.638  0.00  0.00     0.066 A 
ATOM     23  C   UNK d   0     -15.252  -1.055  13.004  0.00  0.00     0.062 C 
ATOM     24  C   UNK d   0     -17.001  -2.433  14.440  0.00  0.00    -0.020 A 
ATOM     25  C   UNK d   0     -14.893   0.146  12.374  0.00  0.00     0.041 A 
ATOM     26  N   UNK d   0     -15.588   0.983  11.595  0.00  0.00    -0.355 N 
ATOM     27  C   UNK d   0     -13.583   0.640  12.560  0.00  0.00    -0.022 A 
ATOM     28  C   UNK d   0     -14.767   1.997  11.280  0.00  0.00     0.042 A 
ATOM     29  H   UNK d   0     -16.642   0.847  11.249  0.00  0.00     0.166 HD
ATOM     30  C   UNK d   0     -14.975   3.145  10.500  0.00  0.00     0.062 C 
ATOM     31  C   UNK d   0     -13.495   1.811  11.872  0.00  0.00    -0.013 A 
ATOM     32  C   UNK d   0     -16.101   3.951  10.449  0.00  0.00     0.066 A 
BRANCH   8  33
ATOM     33  C   UNK d   0     -18.437   6.679   9.661  0.00  0.00     0.151 C 
BRANCH  33  34
ATOM     34  C   UNK d   0     -19.430   6.350   8.622  0.00  0.00     0.143 C 
ATOM     35  O   UNK d   0     -20.638   6.296   8.891  0.00  0.00    -0.650 OA
BRANCH  34  36
ATOM     36  O   UNK d   0     -19.005   6.098   7.338  0.00  0.00    -0.776 OA
ATOM     37  H   UNK d   0     -18.293   6.687   6.886  0.00  0.00     0.167 HD
ENDBRANCH  34  36
ENDBRANCH  33  34
ENDBRANCH   8  33
BRANCH  31  38
ATOM     38  C   UNK d   0     -12.282   2.707  11.790  0.00  0.00     0.151 C 
BRANCH  38  39
ATOM     39  C   UNK d   0     -11.592   2.604  10.521  0.00  0.00     0.143 C 
ATOM     40  O   UNK d   0     -10.848   3.504  10.093  0.00  0.00    -0.650 OA
BRANCH  39  41
ATOM     41  O   UNK d   0     -11.757   1.460   9.741  0.00  0.00    -0.776 OA
ATOM     42  H   UNK d   0     -11.971   0.590  10.238  0.00  0.00     0.167 HD
ENDBRANCH  39  41
ENDBRANCH  38  39
ENDBRANCH  31  38
BRANCH  27  43
ATOM     43  C   UNK d   0     -12.439   0.050  13.347  0.00  0.00     0.052 C 
BRANCH  43  44
ATOM     44  C   UNK d   0     -12.361   0.563  14.749  0.00  0.00     0.115 C 
BRANCH  44  45
ATOM     45  C   UNK d   0     -11.173  -0.080  15.370  0.00  0.00     0.139 C 
ATOM     46  O   UNK d   0     -11.366  -0.946  16.258  0.00  0.00    -0.650 OA
BRANCH  45  47
ATOM     47  O   UNK d   0      -9.880   0.232  15.007  0.00  0.00    -0.776 OA
ATOM     48  H   UNK d   0      -9.272  -0.421  14.487  0.00  0.00     0.167 HD
ENDBRANCH  45  47
ENDBRANCH  44  45
ENDBRANCH  43  44
ENDBRANCH  27  43
BRANCH  24  49
ATOM     49  C   UNK d   0     -16.278  -3.660  14.815  0.00  0.00     0.052 C 
BRANCH  49  50
ATOM     50  C   UNK d   0     -16.659  -4.794  13.898  0.00  0.00     0.115 C 
BRANCH  50  51
ATOM     51  C   UNK d   0     -16.770  -6.120  14.492  0.00  0.00     0.139 C 
ATOM     52  O   UNK d   0     -15.937  -7.031  14.271  0.00  0.00    -0.650 OA
BRANCH  51  53
ATOM     53  O   UNK d   0     -17.831  -6.408  15.335  0.00  0.00    -0.776 OA
ATOM     54  H   UNK d   0     -18.599  -5.760  15.372  0.00  0.00     0.167 HD
ENDBRANCH  51  53
ENDBRANCH  50  51
ENDBRANCH  49  50
ENDBRANCH  24  49
BRANCH  21  55
ATOM     55  C   UNK d   0     -19.156  -2.903  15.643  0.00  0.00     0.151 C 
BRANCH  55  56
ATOM     56  C   UNK d   0     -20.036  -3.756  14.829  0.00  0.00     0.143 C 
ATOM     57  O   UNK d   0     -20.447  -3.419  13.701  0.00  0.00    -0.650 OA
BRANCH  56  58
ATOM     58  O   UNK d   0     -20.415  -4.989  15.357  0.00  0.00    -0.776 OA
ATOM     59  H   UNK d   0     -19.889  -5.283  16.200  0.00  0.00     0.167 HD
ENDBRANCH  56  58
ENDBRANCH  55  56
ENDBRANCH  21  55
BRANCH  18  60
ATOM     60  C   UNK d   0     -22.314   0.513  12.964  0.00  0.00     0.151 C 
BRANCH  60  61
ATOM     61  C   UNK d   0     -22.233  -0.386  11.803  0.00  0.00     0.143 C 
ATOM     62  O   UNK d   0     -21.221  -0.701  11.177  0.00  0.00    -0.650 OA
BRANCH  61  63
ATOM     63  O   UNK d   0     -23.468  -0.935  11.379  0.00  0.00    -0.776 OA
ATOM     64  H   UNK d   0     -24.069  -1.417  12.024  0.00  0.00     0.167 HD
ENDBRANCH  61  63
ENDBRANCH  60  61
ENDBRANCH  18  60
BRANCH  14  65
ATOM     65  C   UNK d   0     -22.197   3.190  11.540  0.00  0.00     0.052 C 
BRANCH  65  66
ATOM     66  C   UNK d   0     -22.207   2.970  10.069  0.00  0.00     0.115 C 
BRANCH  66  67
ATOM     67  C   UNK d   0     -23.160   2.064   9.492  0.00  0.00     0.139 C 
ATOM     68  O   UNK d   0     -24.246   1.822  10.136  0.00  0.00    -0.650 OA
BRANCH  67  69
ATOM     69  O   UNK d   0     -23.063   1.382   8.279  0.00  0.00    -0.776 OA
ATOM     70  H   UNK d   0     -22.834   1.960   7.458  0.00  0.00     0.167 HD
ENDBRANCH  67  69
ENDBRANCH  66  67
ENDBRANCH  65  66
ENDBRANCH  14  65
ENDBRANCH   6   7
ENDBRANCH   5   6
ENDBRANCH   2   5
TORSDOF 28
ENDMDL
MODEL 11
REMARK VINA RESULT:      -7.3     21.090     22.967
REMARK  28 active torsions:
REMARK  status: ('A' for Active; 'I' for Inactive)
REMARK    1  A    between atoms: C_2  and  O_3 
REMARK    2  A    between atoms: C_2  and  C_4 
REMARK    3  A    between atoms: C_4  and  C_5 
REMARK    4  A    between atoms: C_5  and  C_6 
REMARK    5  A    between atoms: C_7  and  C_8 
REMARK    6  A    between atoms: C_8  and  C_9 
REMARK    7  A    between atoms: C_9  and  O_11 
REMARK    8  A    between atoms: C_28  and  C_29 
REMARK    9  A    between atoms: C_29  and  C_30 
REMARK   10  A    between atoms: C_30  and  O_32 
REMARK   11  A    between atoms: C_33  and  C_34 
REMARK   12  A    between atoms: C_34  and  C_35 
REMARK   13  A    between atoms: C_35  and  C_36 
REMARK   14  A    between atoms: C_36  and  O_38 
REMARK   15  A    between atoms: C_39  and  C_40 
REMARK   16  A    between atoms: C_40  and  C_41 
REMARK   17  A    between atoms: C_41  and  C_42 
REMARK   18  A    between atoms: C_42  and  O_44 
REMARK   19  A    between atoms: C_45  and  C_46 
REMARK   20  A    between atoms: C_46  and  C_47 
REMARK   21  A    between atoms: C_47  and  O_49 
REMARK   22  A    between atoms: C_50  and  C_51 
REMARK   23  A    between atoms: C_51  and  C_52 
REMARK   24  A    between atoms: C_52  and  O_54 
REMARK   25  A    between atoms: C_55  and  C_56 
REMARK   26  A    between atoms: C_56  and  C_57 
REMARK   27  A    between atoms: C_57  and  C_58 
REMARK   28  A    between atoms: C_58  and  O_60 
ROOT
ATOM      1  O   UNK d   0      -8.897   5.253  19.958  0.00  0.00    -0.650 OA
ATOM      2  C   UNK d   0      -8.574   4.922  18.795  0.00  0.00     0.139 C 
ENDROOT
BRANCH   2   3
ATOM      3  O   UNK d   0      -7.274   5.090  18.383  0.00  0.00    -0.776 OA
ATOM      4  H   UNK d   0      -7.009   4.956  17.405  0.00  0.00     0.167 HD
ENDBRANCH   2   3
BRANCH   2   5
ATOM      5  C   UNK d   0      -9.593   4.352  17.869  0.00  0.00     0.115 C 
BRANCH   5   6
ATOM      6  C   UNK d   0      -9.017   3.179  17.124  0.00  0.00     0.052 C 
BRANCH   6   7
ATOM      7  C   UNK d   0      -9.634   1.865  17.541  0.00  0.00    -0.020 A 
ATOM      8  C   UNK d   0      -9.237   1.064  18.496  0.00  0.00    -0.011 A 
ATOM      9  C   UNK d   0     -10.133  -0.080  18.519  0.00  0.00     0.067 A 
ATOM     10  C   UNK d   0     -10.267  -1.245  19.289  0.00  0.00     0.062 C 
ATOM     11  N   UNK d   0     -11.043   0.105  17.540  0.00  0.00    -0.248 NA
ATOM     12  C   UNK d   0     -11.371  -2.104  19.342  0.00  0.00     0.041 A 
ATOM     13  N   UNK d   0     -12.163  -2.590  18.368  0.00  0.00    -0.355 N 
ATOM     14  C   UNK d   0     -11.834  -2.540  20.597  0.00  0.00    -0.022 A 
ATOM     15  C   UNK d   0     -13.122  -3.317  18.972  0.00  0.00     0.042 A 
ATOM     16  H   UNK d   0     -12.036  -2.438  17.273  0.00  0.00     0.166 HD
ATOM     17  C   UNK d   0     -14.200  -4.041  18.426  0.00  0.00     0.062 C 
ATOM     18  C   UNK d   0     -12.949  -3.309  20.370  0.00  0.00    -0.013 A 
ATOM     19  C   UNK d   0     -15.079  -3.668  17.441  0.00  0.00     0.067 A 
ATOM     20  N   UNK d   0     -14.783  -2.561  16.755  0.00  0.00    -0.248 NA
ATOM     21  C   UNK d   0     -16.336  -4.175  16.915  0.00  0.00    -0.011 A 
ATOM     22  C   UNK d   0     -15.756  -2.307  15.819  0.00  0.00     0.066 A 
ATOM     23  C   UNK d   0     -15.555  -1.201  15.006  0.00  0.00     0.062 C 
ATOM     24  C   UNK d   0     -16.729  -3.371  15.969  0.00  0.00    -0.020 A 
ATOM     25  C   UNK d   0     -14.433  -0.359  14.960  0.00  0.00     0.041 A 
ATOM     26  N   UNK d   0     -13.655   0.136  15.929  0.00  0.00    -0.355 N 
ATOM     27  C   UNK d   0     -13.966   0.075  13.700  0.00  0.00    -0.022 A 
ATOM     28  C   UNK d   0     -12.703   0.869  15.330  0.00  0.00     0.042 A 
ATOM     29  H   UNK d   0     -13.790  -0.009  17.030  0.00  0.00     0.166 HD
ATOM     30  C   UNK d   0     -11.631   1.602  15.861  0.00  0.00     0.062 C 
ATOM     31  C   UNK d   0     -12.872   0.852  13.925  0.00  0.00    -0.013 A 
ATOM     32  C   UNK d   0     -10.798   1.257  16.914  0.00  0.00     0.066 A 
BRANCH   8  33
ATOM     33  C   UNK d   0      -8.086   1.263  19.397  0.00  0.00     0.151 C 
BRANCH  33  34
ATOM     34  C   UNK d   0      -8.491   1.540  20.787  0.00  0.00     0.143 C 
ATOM     35  O   UNK d   0      -8.030   0.878  21.728  0.00  0.00    -0.650 OA
BRANCH  34  36
ATOM     36  O   UNK d   0      -9.394   2.547  21.040  0.00  0.00    -0.776 OA
ATOM     37  H   UNK d   0      -9.881   2.613  21.944  0.00  0.00     0.167 HD
ENDBRANCH  34  36
ENDBRANCH  33  34
ENDBRANCH   8  33
BRANCH  31  38
ATOM     38  C   UNK d   0     -12.027   1.528  12.870  0.00  0.00     0.151 C 
BRANCH  38  39
ATOM     39  C   UNK d   0     -10.993   0.664  12.340  0.00  0.00     0.143 C 
ATOM     40  O   UNK d   0     -10.666   0.676  11.141  0.00  0.00    -0.650 OA
BRANCH  39  41
ATOM     41  O   UNK d   0     -10.331  -0.218  13.194  0.00  0.00    -0.776 OA
ATOM     42  H   UNK d   0     -10.189  -1.173  12.851  0.00  0.00     0.167 HD
ENDBRANCH  39  41
ENDBRANCH  38  39
ENDBRANCH  31  38
BRANCH  27  43
ATOM     43  C   UNK d   0     -14.512  -0.214  12.324  0.00  0.00     0.052 C 
BRANCH  43  44
ATOM     44  C   UNK d   0     -15.823   0.452  12.057  0.00  0.00     0.115 C 
BRANCH  44  45
ATOM     45  C   UNK d   0     -15.515   1.738  11.379  0.00  0.00     0.139 C 
ATOM     46  O   UNK d   0     -15.488   2.783  12.075  0.00  0.00    -0.650 OA
BRANCH  45  47
ATOM     47  O   UNK d   0     -15.254   1.828  10.029  0.00  0.00    -0.776 OA
ATOM     48  H   UNK d   0     -15.943   1.562   9.306  0.00  0.00     0.167 HD
ENDBRANCH  45  47
ENDBRANCH  44  45
ENDBRANCH  43  44
ENDBRANCH  27  43
BRANCH  24  49
ATOM     49  C   UNK d   0     -17.936  -3.531  15.141  0.00  0.00     0.052 C 
BRANCH  49  50
ATOM     50  C   UNK d   0     -19.153  -3.047  15.888  0.00  0.00     0.115 C 
BRANCH  50  51
ATOM     51  C   UNK d   0     -20.342  -3.887  15.835  0.00  0.00     0.139 C 
ATOM     52  O   UNK d   0     -21.483  -3.462  16.136  0.00  0.00    -0.650 OA
BRANCH  51  53
ATOM     53  O   UNK d   0     -20.230  -5.211  15.442  0.00  0.00    -0.776 OA
ATOM     54  H   UNK d   0     -20.228  -5.417  14.458  0.00  0.00     0.167 HD
ENDBRANCH  51  53
ENDBRANCH  50  51
ENDBRANCH  49  50
ENDBRANCH  24  49
BRANCH  21  55
ATOM     55  C   UNK d   0     -17.010  -5.411  17.410  0.00  0.00     0.151 C 
BRANCH  55  56
ATOM     56  C   UNK d   0     -16.903  -6.520  16.450  0.00  0.00     0.143 C 
ATOM     57  O   UNK d   0     -15.810  -7.010  16.104  0.00  0.00    -0.650 OA
BRANCH  56  58
ATOM     58  O   UNK d   0     -18.084  -7.031  15.914  0.00  0.00    -0.776 OA
ATOM     59  H   UNK d   0     -18.890  -6.382  15.938  0.00  0.00     0.167 HD
ENDBRANCH  56  58
ENDBRANCH  55  56
ENDBRANCH  21  55
BRANCH  18  60
ATOM     60  C   UNK d   0     -13.772  -3.975  21.444  0.00  0.00     0.151 C 
BRANCH  60  61
ATOM     61  C   UNK d   0     -14.955  -3.122  21.633  0.00  0.00     0.143 C 
ATOM     62  O   UNK d   0     -14.970  -1.906  21.829  0.00  0.00    -0.650 OA
BRANCH  61  63
ATOM     63  O   UNK d   0     -16.199  -3.796  21.579  0.00  0.00    -0.776 OA
ATOM     64  H   UNK d   0     -17.036  -3.369  21.936  0.00  0.00     0.167 HD
ENDBRANCH  61  63
ENDBRANCH  60  61
ENDBRANCH  18  60
BRANCH  14  65
ATOM     65  C   UNK d   0     -11.252  -2.369  21.971  0.00  0.00     0.052 C 
BRANCH  65  66
ATOM     66  C   UNK d   0     -10.162  -3.337  22.266  0.00  0.00     0.115 C 
BRANCH  66  67
ATOM     67  C   UNK d   0      -8.795  -2.898  22.247  0.00  0.00     0.139 C 
ATOM     68  O   UNK d   0      -7.969  -3.497  21.466  0.00  0.00    -0.650 OA
BRANCH  67  69
ATOM     69  O   UNK d   0      -8.220  -1.868  22.992  0.00  0.00    -0.776 OA
ATOM     70  H   UNK d   0      -8.168  -2.026  24.008  0.00  0.00     0.167 HD
ENDBRANCH  67  69
ENDBRANCH  66  67
ENDBRANCH  65  66
ENDBRANCH  14  65
ENDBRANCH   6   7
ENDBRANCH   5   6
ENDBRANCH   2   5
TORSDOF 28
ENDMDL
MODEL 12
REMARK VINA RESULT:      -7.3     21.042     24.045
REMARK  28 active torsions:
REMARK  status: ('A' for Active; 'I' for Inactive)
REMARK    1  A    between atoms: C_2  and  O_3 
REMARK    2  A    between atoms: C_2  and  C_4 
REMARK    3  A    between atoms: C_4  and  C_5 
REMARK    4  A    between atoms: C_5  and  C_6 
REMARK    5  A    between atoms: C_7  and  C_8 
REMARK    6  A    between atoms: C_8  and  C_9 
REMARK    7  A    between atoms: C_9  and  O_11 
REMARK    8  A    between atoms: C_28  and  C_29 
REMARK    9  A    between atoms: C_29  and  C_30 
REMARK   10  A    between atoms: C_30  and  O_32 
REMARK   11  A    between atoms: C_33  and  C_34 
REMARK   12  A    between atoms: C_34  and  C_35 
REMARK   13  A    between atoms: C_35  and  C_36 
REMARK   14  A    between atoms: C_36  and  O_38 
REMARK   15  A    between atoms: C_39  and  C_40 
REMARK   16  A    between atoms: C_40  and  C_41 
REMARK   17  A    between atoms: C_41  and  C_42 
REMARK   18  A    between atoms: C_42  and  O_44 
REMARK   19  A    between atoms: C_45  and  C_46 
REMARK   20  A    between atoms: C_46  and  C_47 
REMARK   21  A    between atoms: C_47  and  O_49 
REMARK   22  A    between atoms: C_50  and  C_51 
REMARK   23  A    between atoms: C_51  and  C_52 
REMARK   24  A    between atoms: C_52  and  O_54 
REMARK   25  A    between atoms: C_55  and  C_56 
REMARK   26  A    between atoms: C_56  and  C_57 
REMARK   27  A    between atoms: C_57  and  C_58 
REMARK   28  A    between atoms: C_58  and  O_60 
ROOT
ATOM      1  O   UNK d   0     -20.588   8.913   8.190  0.00  0.00    -0.650 OA
ATOM      2  C   UNK d   0     -20.125   8.488   9.272  0.00  0.00     0.139 C 
ENDROOT
BRANCH   2   3
ATOM      3  O   UNK d   0     -20.412   9.156  10.437  0.00  0.00    -0.776 OA
ATOM      4  H   UNK d   0     -21.345   9.538  10.610  0.00  0.00     0.167 HD
ENDBRANCH   2   3
BRANCH   2   5
ATOM      5  C   UNK d   0     -19.268   7.268   9.291  0.00  0.00     0.115 C 
BRANCH   5   6
ATOM      6  C   UNK d   0     -18.134   7.416   8.313  0.00  0.00     0.052 C 
BRANCH   6   7
ATOM      7  C   UNK d   0     -16.851   7.857   8.974  0.00  0.00    -0.020 A 
ATOM      8  C   UNK d   0     -16.300   9.043   8.937  0.00  0.00    -0.011 A 
ATOM      9  C   UNK d   0     -15.072   8.988   9.712  0.00  0.00     0.067 A 
ATOM     10  C   UNK d   0     -14.061   9.892  10.074  0.00  0.00     0.062 C 
ATOM     11  N   UNK d   0     -14.949   7.728  10.180  0.00  0.00    -0.248 NA
ATOM     12  C   UNK d   0     -13.089   9.724  11.066  0.00  0.00     0.041 A 
ATOM     13  N   UNK d   0     -12.330   8.660  11.393  0.00  0.00    -0.355 N 
ATOM     14  C   UNK d   0     -12.834  10.784  11.955  0.00  0.00    -0.022 A 
ATOM     15  C   UNK d   0     -11.607   9.015  12.472  0.00  0.00     0.042 A 
ATOM     16  H   UNK d   0     -12.293   7.685  10.860  0.00  0.00     0.166 HD
ATOM     17  C   UNK d   0     -10.658   8.286  13.215  0.00  0.00     0.062 C 
ATOM     18  C   UNK d   0     -11.896  10.340  12.854  0.00  0.00    -0.013 A 
ATOM     19  C   UNK d   0     -10.723   6.991  13.662  0.00  0.00     0.067 A 
ATOM     20  N   UNK d   0     -11.713   6.234  13.182  0.00  0.00    -0.248 NA
ATOM     21  C   UNK d   0      -9.966   6.166  14.589  0.00  0.00    -0.011 A 
ATOM     22  C   UNK d   0     -11.659   4.975  13.728  0.00  0.00     0.066 A 
ATOM     23  C   UNK d   0     -12.612   4.070  13.285  0.00  0.00     0.062 C 
ATOM     24  C   UNK d   0     -10.522   4.989  14.626  0.00  0.00    -0.020 A 
ATOM     25  C   UNK d   0     -13.572   4.254  12.278  0.00  0.00     0.041 A 
ATOM     26  N   UNK d   0     -14.336   5.307  11.962  0.00  0.00    -0.355 N 
ATOM     27  C   UNK d   0     -13.824   3.192  11.383  0.00  0.00    -0.022 A 
ATOM     28  C   UNK d   0     -15.065   4.952  10.892  0.00  0.00     0.042 A 
ATOM     29  H   UNK d   0     -14.381   6.283  12.505  0.00  0.00     0.166 HD
ATOM     30  C   UNK d   0     -16.019   5.664  10.148  0.00  0.00     0.062 C 
ATOM     31  C   UNK d   0     -14.767   3.625  10.502  0.00  0.00    -0.013 A 
ATOM     32  C   UNK d   0     -15.988   6.998   9.772  0.00  0.00     0.066 A 
BRANCH   8  33
ATOM     33  C   UNK d   0     -16.812  10.235   8.237  0.00  0.00     0.151 C 
BRANCH  33  34
ATOM     34  C   UNK d   0     -17.673  11.073   9.092  0.00  0.00     0.143 C 
ATOM     35  O   UNK d   0     -18.336  12.003   8.610  0.00  0.00    -0.650 OA
BRANCH  34  36
ATOM     36  O   UNK d   0     -17.738  10.817  10.442  0.00  0.00    -0.776 OA
ATOM     37  H   UNK d   0     -18.281  10.024  10.810  0.00  0.00     0.167 HD
ENDBRANCH  34  36
ENDBRANCH  33  34
ENDBRANCH   8  33
BRANCH  31  38
ATOM     38  C   UNK d   0     -15.342   2.833   9.351  0.00  0.00     0.151 C 
BRANCH  38  39
ATOM     39  C   UNK d   0     -14.656   3.082   8.101  0.00  0.00     0.143 C 
ATOM     40  O   UNK d   0     -14.069   2.183   7.474  0.00  0.00    -0.650 OA
BRANCH  39  41
ATOM     41  O   UNK d   0     -14.647   4.371   7.568  0.00  0.00    -0.776 OA
ATOM     42  H   UNK d   0     -15.029   4.482   6.623  0.00  0.00     0.167 HD
ENDBRANCH  39  41
ENDBRANCH  38  39
ENDBRANCH  31  38
BRANCH  27  43
ATOM     43  C   UNK d   0     -13.216   1.812  11.338  0.00  0.00     0.052 C 
BRANCH  43  44
ATOM     44  C   UNK d   0     -11.948   1.751  10.550  0.00  0.00     0.115 C 
BRANCH  44  45
ATOM     45  C   UNK d   0     -11.102   0.708  11.187  0.00  0.00     0.139 C 
ATOM     46  O   UNK d   0     -11.322   0.422  12.390  0.00  0.00    -0.650 OA
BRANCH  45  47
ATOM     47  O   UNK d   0     -10.099   0.045  10.514  0.00  0.00    -0.776 OA
ATOM     48  H   UNK d   0      -9.411   0.529   9.915  0.00  0.00     0.167 HD
ENDBRANCH  45  47
ENDBRANCH  44  45
ENDBRANCH  43  44
ENDBRANCH  27  43
BRANCH  24  49
ATOM     49  C   UNK d   0     -10.053   3.832  15.409  0.00  0.00     0.052 C 
BRANCH  49  50
ATOM     50  C   UNK d   0     -10.469   3.972  16.851  0.00  0.00     0.115 C 
BRANCH  50  51
ATOM     51  C   UNK d   0     -11.880   4.219  17.115  0.00  0.00     0.139 C 
ATOM     52  O   UNK d   0     -12.769   3.361  16.902  0.00  0.00    -0.650 OA
BRANCH  51  53
ATOM     53  O   UNK d   0     -12.278   5.447  17.621  0.00  0.00    -0.776 OA
ATOM     54  H   UNK d   0     -13.235   5.554  17.910  0.00  0.00     0.167 HD
ENDBRANCH  51  53
ENDBRANCH  50  51
ENDBRANCH  49  50
ENDBRANCH  24  49
BRANCH  21  55
ATOM     55  C   UNK d   0      -8.764   6.639  15.338  0.00  0.00     0.151 C 
BRANCH  55  56
ATOM     56  C   UNK d   0      -9.124   7.270  16.617  0.00  0.00     0.143 C 
ATOM     57  O   UNK d   0     -10.295   7.585  16.908  0.00  0.00    -0.650 OA
BRANCH  56  58
ATOM     58  O   UNK d   0      -8.100   7.518  17.529  0.00  0.00    -0.776 OA
ATOM     59  H   UNK d   0      -7.852   8.517  17.645  0.00  0.00     0.167 HD
ENDBRANCH  56  58
ENDBRANCH  55  56
ENDBRANCH  21  55
BRANCH  18  60
ATOM     60  C   UNK d   0     -11.337  11.154  13.994  0.00  0.00     0.151 C 
BRANCH  60  61
ATOM     61  C   UNK d   0     -10.036  11.659  13.529  0.00  0.00     0.143 C 
ATOM     62  O   UNK d   0      -8.956  11.067  13.558  0.00  0.00    -0.650 OA
BRANCH  61  63
ATOM     63  O   UNK d   0     -10.054  12.970  12.993  0.00  0.00    -0.776 OA
ATOM     64  H   UNK d   0     -10.907  13.499  12.947  0.00  0.00     0.167 HD
ENDBRANCH  61  63
ENDBRANCH  60  61
ENDBRANCH  18  60
BRANCH  14  65
ATOM     65  C   UNK d   0     -13.332  12.201  11.961  0.00  0.00     0.052 C 
BRANCH  65  66
ATOM     66  C   UNK d   0     -12.715  13.038  10.897  0.00  0.00     0.115 C 
BRANCH  66  67
ATOM     67  C   UNK d   0     -12.607  14.458  11.081  0.00  0.00     0.139 C 
ATOM     68  O   UNK d   0     -12.167  14.899  12.207  0.00  0.00    -0.650 OA
BRANCH  67  69
ATOM     69  O   UNK d   0     -12.927  15.464  10.170  0.00  0.00    -0.776 OA
ATOM     70  H   UNK d   0     -12.751  16.428  10.488  0.00  0.00     0.167 HD
ENDBRANCH  67  69
ENDBRANCH  66  67
ENDBRANCH  65  66
ENDBRANCH  14  65
ENDBRANCH   6   7
ENDBRANCH   5   6
ENDBRANCH   2   5
TORSDOF 28
ENDMDL
MODEL 13
REMARK VINA RESULT:      -7.2      6.214     12.276
REMARK  28 active torsions:
REMARK  status: ('A' for Active; 'I' for Inactive)
REMARK    1  A    between atoms: C_2  and  O_3 
REMARK    2  A    between atoms: C_2  and  C_4 
REMARK    3  A    between atoms: C_4  and  C_5 
REMARK    4  A    between atoms: C_5  and  C_6 
REMARK    5  A    between atoms: C_7  and  C_8 
REMARK    6  A    between atoms: C_8  and  C_9 
REMARK    7  A    between atoms: C_9  and  O_11 
REMARK    8  A    between atoms: C_28  and  C_29 
REMARK    9  A    between atoms: C_29  and  C_30 
REMARK   10  A    between atoms: C_30  and  O_32 
REMARK   11  A    between atoms: C_33  and  C_34 
REMARK   12  A    between atoms: C_34  and  C_35 
REMARK   13  A    between atoms: C_35  and  C_36 
REMARK   14  A    between atoms: C_36  and  O_38 
REMARK   15  A    between atoms: C_39  and  C_40 
REMARK   16  A    between atoms: C_40  and  C_41 
REMARK   17  A    between atoms: C_41  and  C_42 
REMARK   18  A    between atoms: C_42  and  O_44 
REMARK   19  A    between atoms: C_45  and  C_46 
REMARK   20  A    between atoms: C_46  and  C_47 
REMARK   21  A    between atoms: C_47  and  O_49 
REMARK   22  A    between atoms: C_50  and  C_51 
REMARK   23  A    between atoms: C_51  and  C_52 
REMARK   24  A    between atoms: C_52  and  O_54 
REMARK   25  A    between atoms: C_55  and  C_56 
REMARK   26  A    between atoms: C_56  and  C_57 
REMARK   27  A    between atoms: C_57  and  C_58 
REMARK   28  A    between atoms: C_58  and  O_60 
ROOT
ATOM      1  O   UNK d   0     -25.656   2.173   6.953  0.00  0.00    -0.650 OA
ATOM      2  C   UNK d   0     -25.561   1.134   6.262  0.00  0.00     0.139 C 
ENDROOT
BRANCH   2   3
ATOM      3  O   UNK d   0     -24.934   1.193   5.041  0.00  0.00    -0.776 OA
ATOM      4  H   UNK d   0     -23.939   1.413   4.969  0.00  0.00     0.167 HD
ENDBRANCH   2   3
BRANCH   2   5
ATOM      5  C   UNK d   0     -26.125  -0.151   6.763  0.00  0.00     0.115 C 
BRANCH   5   6
ATOM      6  C   UNK d   0     -26.652  -0.968   5.615  0.00  0.00     0.052 C 
BRANCH   6   7
ATOM      7  C   UNK d   0     -28.112  -0.700   5.334  0.00  0.00    -0.020 A 
ATOM      8  C   UNK d   0     -29.149  -1.239   5.920  0.00  0.00    -0.011 A 
ATOM      9  C   UNK d   0     -30.345  -0.681   5.311  0.00  0.00     0.067 A 
ATOM     10  C   UNK d   0     -31.731  -0.817   5.489  0.00  0.00     0.062 C 
ATOM     11  N   UNK d   0     -29.942   0.186   4.359  0.00  0.00    -0.248 NA
ATOM     12  C   UNK d   0     -32.735   0.019   4.991  0.00  0.00     0.041 A 
ATOM     13  N   UNK d   0     -32.892   0.594   3.783  0.00  0.00    -0.355 N 
ATOM     14  C   UNK d   0     -33.774   0.422   5.850  0.00  0.00    -0.022 A 
ATOM     15  C   UNK d   0     -33.998   1.358   3.856  0.00  0.00     0.042 A 
ATOM     16  H   UNK d   0     -32.244   0.448   2.891  0.00  0.00     0.166 HD
ATOM     17  C   UNK d   0     -34.614   2.170   2.883  0.00  0.00     0.062 C 
ATOM     18  C   UNK d   0     -34.579   1.276   5.137  0.00  0.00    -0.013 A 
ATOM     19  C   UNK d   0     -34.037   3.057   2.010  0.00  0.00     0.067 A 
ATOM     20  N   UNK d   0     -32.706   3.027   1.909  0.00  0.00    -0.248 NA
ATOM     21  C   UNK d   0     -34.511   4.099   1.115  0.00  0.00    -0.011 A 
ATOM     22  C   UNK d   0     -32.275   3.976   1.014  0.00  0.00     0.066 A 
ATOM     23  C   UNK d   0     -30.908   4.029   0.783  0.00  0.00     0.062 C 
ATOM     24  C   UNK d   0     -33.475   4.636   0.539  0.00  0.00    -0.020 A 
ATOM     25  C   UNK d   0     -29.917   3.172   1.285  0.00  0.00     0.041 A 
ATOM     26  N   UNK d   0     -29.753   2.612   2.489  0.00  0.00    -0.355 N 
ATOM     27  C   UNK d   0     -28.877   2.764   0.420  0.00  0.00    -0.022 A 
ATOM     28  C   UNK d   0     -28.645   1.857   2.422  0.00  0.00     0.042 A 
ATOM     29  H   UNK d   0     -30.399   2.768   3.388  0.00  0.00     0.166 HD
ATOM     30  C   UNK d   0     -28.017   1.052   3.385  0.00  0.00     0.062 C 
ATOM     31  C   UNK d   0     -28.068   1.932   1.131  0.00  0.00    -0.013 A 
ATOM     32  C   UNK d   0     -28.609   0.221   4.322  0.00  0.00     0.066 A 
BRANCH   8  33
ATOM     33  C   UNK d   0     -29.133  -2.240   7.003  0.00  0.00     0.151 C 
BRANCH  33  34
ATOM     34  C   UNK d   0     -30.026  -3.382   6.738  0.00  0.00     0.143 C 
ATOM     35  O   UNK d   0     -30.902  -3.708   7.552  0.00  0.00    -0.650 OA
BRANCH  34  36
ATOM     36  O   UNK d   0     -29.881  -4.096   5.571  0.00  0.00    -0.776 OA
ATOM     37  H   UNK d   0     -30.283  -3.760   4.686  0.00  0.00     0.167 HD
ENDBRANCH  34  36
ENDBRANCH  33  34
ENDBRANCH   8  33
BRANCH  31  38
ATOM     38  C   UNK d   0     -26.830   1.237   0.616  0.00  0.00     0.151 C 
BRANCH  38  39
ATOM     39  C   UNK d   0     -27.122  -0.021  -0.037  0.00  0.00     0.143 C 
ATOM     40  O   UNK d   0     -27.547  -1.011   0.585  0.00  0.00    -0.650 OA
BRANCH  39  41
ATOM     41  O   UNK d   0     -26.926  -0.142  -1.413  0.00  0.00    -0.776 OA
ATOM     42  H   UNK d   0     -27.149   0.678  -1.985  0.00  0.00     0.167 HD
ENDBRANCH  39  41
ENDBRANCH  38  39
ENDBRANCH  31  38
BRANCH  27  43
ATOM     43  C   UNK d   0     -28.630   3.131  -1.021  0.00  0.00     0.052 C 
BRANCH  43  44
ATOM     44  C   UNK d   0     -29.370   2.264  -1.987  0.00  0.00     0.115 C 
BRANCH  44  45
ATOM     45  C   UNK d   0     -28.598   2.288  -3.257  0.00  0.00     0.139 C 
ATOM     46  O   UNK d   0     -28.569   3.359  -3.912  0.00  0.00    -0.650 OA
BRANCH  45  47
ATOM     47  O   UNK d   0     -27.914   1.192  -3.737  0.00  0.00    -0.776 OA
ATOM     48  H   UNK d   0     -27.102   0.780  -3.248  0.00  0.00     0.167 HD
ENDBRANCH  45  47
ENDBRANCH  44  45
ENDBRANCH  43  44
ENDBRANCH  27  43
BRANCH  24  49
ATOM     49  C   UNK d   0     -33.501   5.706  -0.473  0.00  0.00     0.052 C 
BRANCH  49  50
ATOM     50  C   UNK d   0     -33.931   5.155  -1.808  0.00  0.00     0.115 C 
BRANCH  50  51
ATOM     51  C   UNK d   0     -33.126   4.082  -2.375  0.00  0.00     0.139 C 
ATOM     52  O   UNK d   0     -32.005   4.281  -2.900  0.00  0.00    -0.650 OA
BRANCH  51  53
ATOM     53  O   UNK d   0     -33.601   2.779  -2.346  0.00  0.00    -0.776 OA
ATOM     54  H   UNK d   0     -32.934   2.029  -2.389  0.00  0.00     0.167 HD
ENDBRANCH  51  53
ENDBRANCH  50  51
ENDBRANCH  49  50
ENDBRANCH  24  49
BRANCH  21  55
ATOM     55  C   UNK d   0     -35.950   4.447   0.926  0.00  0.00     0.151 C 
BRANCH  55  56
ATOM     56  C   UNK d   0     -36.672   3.415   0.166  0.00  0.00     0.143 C 
ATOM     57  O   UNK d   0     -36.169   2.816  -0.804  0.00  0.00    -0.650 OA
BRANCH  56  58
ATOM     58  O   UNK d   0     -37.973   3.108   0.562  0.00  0.00    -0.776 OA
ATOM     59  H   UNK d   0     -38.277   3.557   1.445  0.00  0.00     0.167 HD
ENDBRANCH  56  58
ENDBRANCH  55  56
ENDBRANCH  21  55
BRANCH  18  60
ATOM     60  C   UNK d   0     -35.813   1.954   5.677  0.00  0.00     0.151 C 
BRANCH  60  61
ATOM     61  C   UNK d   0     -35.337   3.144   6.399  0.00  0.00     0.143 C 
ATOM     62  O   UNK d   0     -34.472   3.938   6.029  0.00  0.00    -0.650 OA
BRANCH  61  63
ATOM     63  O   UNK d   0     -35.957   3.379   7.649  0.00  0.00    -0.776 OA
ATOM     64  H   UNK d   0     -36.847   3.842   7.708  0.00  0.00     0.167 HD
ENDBRANCH  61  63
ENDBRANCH  60  61
ENDBRANCH  18  60
BRANCH  14  65
ATOM     65  C   UNK d   0     -34.115  -0.011   7.247  0.00  0.00     0.052 C 
BRANCH  65  66
ATOM     66  C   UNK d   0     -33.307   0.683   8.285  0.00  0.00     0.115 C 
BRANCH  66  67
ATOM     67  C   UNK d   0     -32.301  -0.043   9.008  0.00  0.00     0.139 C 
ATOM     68  O   UNK d   0     -32.670  -1.019   9.759  0.00  0.00    -0.650 OA
BRANCH  67  69
ATOM     69  O   UNK d   0     -30.924   0.176   9.006  0.00  0.00    -0.776 OA
ATOM     70  H   UNK d   0     -30.451   0.047   8.100  0.00  0.00     0.167 HD
ENDBRANCH  67  69
ENDBRANCH  66  67
ENDBRANCH  65  66
ENDBRANCH  14  65
ENDBRANCH   6   7
ENDBRANCH   5   6
ENDBRANCH   2   5
TORSDOF 28
ENDMDL
MODEL 14
REMARK VINA RESULT:      -7.2     21.973     26.057
REMARK  28 active torsions:
REMARK  status: ('A' for Active; 'I' for Inactive)
REMARK    1  A    between atoms: C_2  and  O_3 
REMARK    2  A    between atoms: C_2  and  C_4 
REMARK    3  A    between atoms: C_4  and  C_5 
REMARK    4  A    between atoms: C_5  and  C_6 
REMARK    5  A    between atoms: C_7  and  C_8 
REMARK    6  A    between atoms: C_8  and  C_9 
REMARK    7  A    between atoms: C_9  and  O_11 
REMARK    8  A    between atoms: C_28  and  C_29 
REMARK    9  A    between atoms: C_29  and  C_30 
REMARK   10  A    between atoms: C_30  and  O_32 
REMARK   11  A    between atoms: C_33  and  C_34 
REMARK   12  A    between atoms: C_34  and  C_35 
REMARK   13  A    between atoms: C_35  and  C_36 
REMARK   14  A    between atoms: C_36  and  O_38 
REMARK   15  A    between atoms: C_39  and  C_40 
REMARK   16  A    between atoms: C_40  and  C_41 
REMARK   17  A    between atoms: C_41  and  C_42 
REMARK   18  A    between atoms: C_42  and  O_44 
REMARK   19  A    between atoms: C_45  and  C_46 
REMARK   20  A    between atoms: C_46  and  C_47 
REMARK   21  A    between atoms: C_47  and  O_49 
REMARK   22  A    between atoms: C_50  and  C_51 
REMARK   23  A    between atoms: C_51  and  C_52 
REMARK   24  A    between atoms: C_52  and  O_54 
REMARK   25  A    between atoms: C_55  and  C_56 
REMARK   26  A    between atoms: C_56  and  C_57 
REMARK   27  A    between atoms: C_57  and  C_58 
REMARK   28  A    between atoms: C_58  and  O_60 
ROOT
ATOM      1  O   UNK d   0      -9.764   0.948  19.370  0.00  0.00    -0.650 OA
ATOM      2  C   UNK d   0      -9.915   0.829  18.134  0.00  0.00     0.139 C 
ENDROOT
BRANCH   2   3
ATOM      3  O   UNK d   0      -9.574  -0.354  17.524  0.00  0.00    -0.776 OA
ATOM      4  H   UNK d   0     -10.201  -0.800  16.851  0.00  0.00     0.167 HD
ENDBRANCH   2   3
BRANCH   2   5
ATOM      5  C   UNK d   0     -10.460   1.963  17.335  0.00  0.00     0.115 C 
BRANCH   5   6
ATOM      6  C   UNK d   0      -9.592   2.214  16.133  0.00  0.00     0.052 C 
BRANCH   6   7
ATOM      7  C   UNK d   0     -10.377   2.704  14.940  0.00  0.00    -0.020 A 
ATOM      8  C   UNK d   0     -11.011   1.983  14.050  0.00  0.00    -0.011 A 
ATOM      9  C   UNK d   0     -11.612   2.891  13.088  0.00  0.00     0.067 A 
ATOM     10  C   UNK d   0     -12.412   2.766  11.941  0.00  0.00     0.062 C 
ATOM     11  N   UNK d   0     -11.288   4.146  13.464  0.00  0.00    -0.248 NA
ATOM     12  C   UNK d   0     -13.131   3.778  11.296  0.00  0.00     0.041 A 
ATOM     13  N   UNK d   0     -12.798   5.047  10.993  0.00  0.00    -0.355 N 
ATOM     14  C   UNK d   0     -14.461   3.529  10.911  0.00  0.00    -0.022 A 
ATOM     15  C   UNK d   0     -13.884   5.612  10.432  0.00  0.00     0.042 A 
ATOM     16  H   UNK d   0     -11.808   5.528  11.154  0.00  0.00     0.166 HD
ATOM     17  C   UNK d   0     -14.081   6.914   9.933  0.00  0.00     0.062 C 
ATOM     18  C   UNK d   0     -14.947   4.691  10.364  0.00  0.00    -0.013 A 
ATOM     19  C   UNK d   0     -13.723   8.115  10.490  0.00  0.00     0.067 A 
ATOM     20  N   UNK d   0     -12.906   8.072  11.546  0.00  0.00    -0.248 NA
ATOM     21  C   UNK d   0     -14.020   9.515  10.236  0.00  0.00    -0.011 A 
ATOM     22  C   UNK d   0     -12.649   9.342  12.002  0.00  0.00     0.066 A 
ATOM     23  C   UNK d   0     -11.780   9.446  13.078  0.00  0.00     0.062 C 
ATOM     24  C   UNK d   0     -13.392  10.227  11.127  0.00  0.00    -0.020 A 
ATOM     25  C   UNK d   0     -11.058   8.418  13.704  0.00  0.00     0.041 A 
ATOM     26  N   UNK d   0     -11.395   7.162  14.019  0.00  0.00    -0.355 N 
ATOM     27  C   UNK d   0      -9.722   8.668  14.086  0.00  0.00    -0.022 A 
ATOM     28  C   UNK d   0     -10.316   6.599  14.586  0.00  0.00     0.042 A 
ATOM     29  H   UNK d   0     -12.393   6.683  13.866  0.00  0.00     0.166 HD
ATOM     30  C   UNK d   0     -10.108   5.308  15.096  0.00  0.00     0.062 C 
ATOM     31  C   UNK d   0      -9.245   7.522  14.645  0.00  0.00    -0.013 A 
ATOM     32  C   UNK d   0     -10.547   4.102  14.572  0.00  0.00     0.066 A 
BRANCH   8  33
ATOM     33  C   UNK d   0     -11.106   0.512  14.009  0.00  0.00     0.151 C 
BRANCH  33  34
ATOM     34  C   UNK d   0     -12.277  -0.005  14.741  0.00  0.00     0.143 C 
ATOM     35  O   UNK d   0     -13.426   0.187  14.320  0.00  0.00    -0.650 OA
BRANCH  34  36
ATOM     36  O   UNK d   0     -12.087  -0.707  15.909  0.00  0.00    -0.776 OA
ATOM     37  H   UNK d   0     -12.874  -0.923  16.536  0.00  0.00     0.167 HD
ENDBRANCH  34  36
ENDBRANCH  33  34
ENDBRANCH   8  33
BRANCH  31  38
ATOM     38  C   UNK d   0      -7.852   7.309  15.189  0.00  0.00     0.151 C 
BRANCH  38  39
ATOM     39  C   UNK d   0      -7.677   7.860  16.517  0.00  0.00     0.143 C 
ATOM     40  O   UNK d   0      -6.645   8.464  16.856  0.00  0.00    -0.650 OA
BRANCH  39  41
ATOM     41  O   UNK d   0      -8.696   7.716  17.458  0.00  0.00    -0.776 OA
ATOM     42  H   UNK d   0      -8.652   6.891  18.064  0.00  0.00     0.167 HD
ENDBRANCH  39  41
ENDBRANCH  38  39
ENDBRANCH  31  38
BRANCH  27  43
ATOM     43  C   UNK d   0      -8.904   9.927  13.945  0.00  0.00     0.052 C 
BRANCH  43  44
ATOM     44  C   UNK d   0      -9.730  11.172  13.957  0.00  0.00     0.115 C 
BRANCH  44  45
ATOM     45  C   UNK d   0      -8.778  12.312  14.003  0.00  0.00     0.139 C 
ATOM     46  O   UNK d   0      -8.601  12.979  12.953  0.00  0.00    -0.650 OA
BRANCH  45  47
ATOM     47  O   UNK d   0      -8.092  12.668  15.144  0.00  0.00    -0.776 OA
ATOM     48  H   UNK d   0      -7.224  13.226  15.125  0.00  0.00     0.167 HD
ENDBRANCH  45  47
ENDBRANCH  44  45
ENDBRANCH  43  44
ENDBRANCH  27  43
BRANCH  24  49
ATOM     49  C   UNK d   0     -13.384  11.698  11.215  0.00  0.00     0.052 C 
BRANCH  49  50
ATOM     50  C   UNK d   0     -12.316  12.271  10.320  0.00  0.00     0.115 C 
BRANCH  50  51
ATOM     51  C   UNK d   0     -11.871  13.629  10.603  0.00  0.00     0.139 C 
ATOM     52  O   UNK d   0     -12.650  14.611  10.599  0.00  0.00    -0.650 OA
BRANCH  51  53
ATOM     53  O   UNK d   0     -10.535  13.868  10.886  0.00  0.00    -0.776 OA
ATOM     54  H   UNK d   0     -10.212  14.819  10.891  0.00  0.00     0.167 HD
ENDBRANCH  51  53
ENDBRANCH  50  51
ENDBRANCH  49  50
ENDBRANCH  24  49
BRANCH  21  55
ATOM     55  C   UNK d   0     -14.896   9.995   9.127  0.00  0.00     0.151 C 
BRANCH  55  56
ATOM     56  C   UNK d   0     -16.298   9.591   9.318  0.00  0.00     0.143 C 
ATOM     57  O   UNK d   0     -17.026  10.079  10.205  0.00  0.00    -0.650 OA
BRANCH  56  58
ATOM     58  O   UNK d   0     -16.816   8.621   8.462  0.00  0.00    -0.776 OA
ATOM     59  H   UNK d   0     -17.756   8.834   8.080  0.00  0.00     0.167 HD
ENDBRANCH  56  58
ENDBRANCH  55  56
ENDBRANCH  21  55
BRANCH  18  60
ATOM     60  C   UNK d   0     -16.344   4.874   9.825  0.00  0.00     0.151 C 
BRANCH  60  61
ATOM     61  C   UNK d   0     -16.383   4.144   8.548  0.00  0.00     0.143 C 
ATOM     62  O   UNK d   0     -17.184   3.269   8.217  0.00  0.00    -0.650 OA
BRANCH  61  63
ATOM     63  O   UNK d   0     -15.379   4.505   7.617  0.00  0.00    -0.776 OA
ATOM     64  H   UNK d   0     -14.408   4.333   7.808  0.00  0.00     0.167 HD
ENDBRANCH  61  63
ENDBRANCH  60  61
ENDBRANCH  18  60
BRANCH  14  65
ATOM     65  C   UNK d   0     -15.267   2.261  10.930  0.00  0.00     0.052 C 
BRANCH  65  66
ATOM     66  C   UNK d   0     -15.841   1.957  12.269  0.00  0.00     0.115 C 
BRANCH  66  67
ATOM     67  C   UNK d   0     -16.354   0.644  12.542  0.00  0.00     0.139 C 
ATOM     68  O   UNK d   0     -17.013   0.457  13.630  0.00  0.00    -0.650 OA
BRANCH  67  69
ATOM     69  O   UNK d   0     -16.230  -0.501  11.756  0.00  0.00    -0.776 OA
ATOM     70  H   UNK d   0     -15.266  -0.799  11.548  0.00  0.00     0.167 HD
ENDBRANCH  67  69
ENDBRANCH  66  67
ENDBRANCH  65  66
ENDBRANCH  14  65
ENDBRANCH   6   7
ENDBRANCH   5   6
ENDBRANCH   2   5
TORSDOF 28
ENDMDL
MODEL 15
REMARK VINA RESULT:      -7.2      7.961     13.510
REMARK  28 active torsions:
REMARK  status: ('A' for Active; 'I' for Inactive)
REMARK    1  A    between atoms: C_2  and  O_3 
REMARK    2  A    between atoms: C_2  and  C_4 
REMARK    3  A    between atoms: C_4  and  C_5 
REMARK    4  A    between atoms: C_5  and  C_6 
REMARK    5  A    between atoms: C_7  and  C_8 
REMARK    6  A    between atoms: C_8  and  C_9 
REMARK    7  A    between atoms: C_9  and  O_11 
REMARK    8  A    between atoms: C_28  and  C_29 
REMARK    9  A    between atoms: C_29  and  C_30 
REMARK   10  A    between atoms: C_30  and  O_32 
REMARK   11  A    between atoms: C_33  and  C_34 
REMARK   12  A    between atoms: C_34  and  C_35 
REMARK   13  A    between atoms: C_35  and  C_36 
REMARK   14  A    between atoms: C_36  and  O_38 
REMARK   15  A    between atoms: C_39  and  C_40 
REMARK   16  A    between atoms: C_40  and  C_41 
REMARK   17  A    between atoms: C_41  and  C_42 
REMARK   18  A    between atoms: C_42  and  O_44 
REMARK   19  A    between atoms: C_45  and  C_46 
REMARK   20  A    between atoms: C_46  and  C_47 
REMARK   21  A    between atoms: C_47  and  O_49 
REMARK   22  A    between atoms: C_50  and  C_51 
REMARK   23  A    between atoms: C_51  and  C_52 
REMARK   24  A    between atoms: C_52  and  O_54 
REMARK   25  A    between atoms: C_55  and  C_56 
REMARK   26  A    between atoms: C_56  and  C_57 
REMARK   27  A    between atoms: C_57  and  C_58 
REMARK   28  A    between atoms: C_58  and  O_60 
ROOT
ATOM      1  O   UNK d   0     -37.689   5.390   5.958  0.00  0.00    -0.650 OA
ATOM      2  C   UNK d   0     -37.642   4.492   5.088  0.00  0.00     0.139 C 
ENDROOT
BRANCH   2   3
ATOM      3  O   UNK d   0     -37.662   3.175   5.479  0.00  0.00    -0.776 OA
ATOM      4  H   UNK d   0     -36.806   2.615   5.490  0.00  0.00     0.167 HD
ENDBRANCH   2   3
BRANCH   2   5
ATOM      5  C   UNK d   0     -37.567   4.852   3.644  0.00  0.00     0.115 C 
BRANCH   5   6
ATOM      6  C   UNK d   0     -37.899   3.656   2.794  0.00  0.00     0.052 C 
BRANCH   6   7
ATOM      7  C   UNK d   0     -36.839   3.366   1.758  0.00  0.00    -0.020 A 
ATOM      8  C   UNK d   0     -36.953   3.444   0.456  0.00  0.00    -0.011 A 
ATOM      9  C   UNK d   0     -35.677   3.065  -0.125  0.00  0.00     0.067 A 
ATOM     10  C   UNK d   0     -35.145   2.962  -1.420  0.00  0.00     0.062 C 
ATOM     11  N   UNK d   0     -34.845   2.765   0.894  0.00  0.00    -0.248 NA
ATOM     12  C   UNK d   0     -33.796   2.845  -1.775  0.00  0.00     0.041 A 
ATOM     13  N   UNK d   0     -32.802   2.106  -1.248  0.00  0.00    -0.355 N 
ATOM     14  C   UNK d   0     -33.296   3.643  -2.820  0.00  0.00    -0.022 A 
ATOM     15  C   UNK d   0     -31.682   2.420  -1.927  0.00  0.00     0.042 A 
ATOM     16  H   UNK d   0     -32.894   1.362  -0.426  0.00  0.00     0.166 HD
ATOM     17  C   UNK d   0     -30.364   1.941  -1.786  0.00  0.00     0.062 C 
ATOM     18  C   UNK d   0     -31.952   3.381  -2.920  0.00  0.00    -0.013 A 
ATOM     19  C   UNK d   0     -29.636   1.742  -0.641  0.00  0.00     0.067 A 
ATOM     20  N   UNK d   0     -30.298   1.816   0.517  0.00  0.00    -0.248 NA
ATOM     21  C   UNK d   0     -28.245   1.468  -0.321  0.00  0.00    -0.011 A 
ATOM     22  C   UNK d   0     -29.441   1.612   1.570  0.00  0.00     0.066 A 
ATOM     23  C   UNK d   0     -30.006   1.625   2.837  0.00  0.00     0.062 C 
ATOM     24  C   UNK d   0     -28.137   1.398   0.974  0.00  0.00    -0.020 A 
ATOM     25  C   UNK d   0     -31.365   1.731   3.171  0.00  0.00     0.041 A 
ATOM     26  N   UNK d   0     -32.350   2.477   2.658  0.00  0.00    -0.355 N 
ATOM     27  C   UNK d   0     -31.867   0.926   4.217  0.00  0.00    -0.022 A 
ATOM     28  C   UNK d   0     -33.466   2.172   3.338  0.00  0.00     0.042 A 
ATOM     29  H   UNK d   0     -32.254   3.232   1.839  0.00  0.00     0.166 HD
ATOM     30  C   UNK d   0     -34.781   2.647   3.215  0.00  0.00     0.062 C 
ATOM     31  C   UNK d   0     -33.196   1.198   4.329  0.00  0.00    -0.013 A 
ATOM     32  C   UNK d   0     -35.484   2.928   2.054  0.00  0.00     0.066 A 
BRANCH   8  33
ATOM     33  C   UNK d   0     -38.153   3.839  -0.305  0.00  0.00     0.151 C 
BRANCH  33  34
ATOM     34  C   UNK d   0     -38.986   2.687  -0.694  0.00  0.00     0.143 C 
ATOM     35  O   UNK d   0     -39.887   2.272   0.050  0.00  0.00    -0.650 OA
BRANCH  34  36
ATOM     36  O   UNK d   0     -38.757   2.064  -1.899  0.00  0.00    -0.776 OA
ATOM     37  H   UNK d   0     -38.817   2.581  -2.787  0.00  0.00     0.167 HD
ENDBRANCH  34  36
ENDBRANCH  33  34
ENDBRANCH   8  33
BRANCH  31  38
ATOM     38  C   UNK d   0     -34.157   0.564   5.308  0.00  0.00     0.151 C 
BRANCH  38  39
ATOM     39  C   UNK d   0     -34.573  -0.763   4.906  0.00  0.00     0.143 C 
ATOM     40  O   UNK d   0     -35.031  -1.003   3.776  0.00  0.00    -0.650 OA
BRANCH  39  41
ATOM     41  O   UNK d   0     -34.460  -1.820   5.810  0.00  0.00    -0.776 OA
ATOM     42  H   UNK d   0     -34.074  -1.599   6.733  0.00  0.00     0.167 HD
ENDBRANCH  39  41
ENDBRANCH  38  39
ENDBRANCH  31  38
BRANCH  27  43
ATOM     43  C   UNK d   0     -31.146  -0.066   5.094  0.00  0.00     0.052 C 
BRANCH  43  44
ATOM     44  C   UNK d   0     -30.575   0.545   6.333  0.00  0.00     0.115 C 
BRANCH  44  45
ATOM     45  C   UNK d   0     -31.057  -0.278   7.473  0.00  0.00     0.139 C 
ATOM     46  O   UNK d   0     -30.635  -0.001   8.623  0.00  0.00    -0.650 OA
BRANCH  45  47
ATOM     47  O   UNK d   0     -31.945  -1.321   7.319  0.00  0.00    -0.776 OA
ATOM     48  H   UNK d   0     -31.880  -2.003   6.547  0.00  0.00     0.167 HD
ENDBRANCH  45  47
ENDBRANCH  44  45
ENDBRANCH  43  44
ENDBRANCH  27  43
BRANCH  24  49
ATOM     49  C   UNK d   0     -26.907   1.098   1.728  0.00  0.00     0.052 C 
BRANCH  49  50
ATOM     50  C   UNK d   0     -26.929  -0.325   2.223  0.00  0.00     0.115 C 
BRANCH  50  51
ATOM     51  C   UNK d   0     -26.971  -0.527   3.665  0.00  0.00     0.139 C 
ATOM     52  O   UNK d   0     -27.869  -1.196   4.228  0.00  0.00    -0.650 OA
BRANCH  51  53
ATOM     53  O   UNK d   0     -25.990   0.037   4.466  0.00  0.00    -0.776 OA
ATOM     54  H   UNK d   0     -26.075   1.008   4.709  0.00  0.00     0.167 HD
ENDBRANCH  51  53
ENDBRANCH  50  51
ENDBRANCH  49  50
ENDBRANCH  24  49
BRANCH  21  55
ATOM     55  C   UNK d   0     -27.171   1.302  -1.344  0.00  0.00     0.151 C 
BRANCH  55  56
ATOM     56  C   UNK d   0     -26.877   2.561  -2.045  0.00  0.00     0.143 C 
ATOM     57  O   UNK d   0     -26.672   2.617  -3.274  0.00  0.00    -0.650 OA
BRANCH  56  58
ATOM     58  O   UNK d   0     -26.831   3.730  -1.288  0.00  0.00    -0.776 OA
ATOM     59  H   UNK d   0     -26.236   4.482  -1.682  0.00  0.00     0.167 HD
ENDBRANCH  56  58
ENDBRANCH  55  56
ENDBRANCH  21  55
BRANCH  18  60
ATOM     60  C   UNK d   0     -31.016   4.028  -3.910  0.00  0.00     0.151 C 
BRANCH  60  61
ATOM     61  C   UNK d   0     -30.491   5.230  -3.244  0.00  0.00     0.143 C 
ATOM     62  O   UNK d   0     -30.952   6.371  -3.301  0.00  0.00    -0.650 OA
BRANCH  61  63
ATOM     63  O   UNK d   0     -29.331   5.025  -2.459  0.00  0.00    -0.776 OA
ATOM     64  H   UNK d   0     -28.499   4.627  -2.858  0.00  0.00     0.167 HD
ENDBRANCH  61  63
ENDBRANCH  60  61
ENDBRANCH  18  60
BRANCH  14  65
ATOM     65  C   UNK d   0     -34.003   4.552  -3.785  0.00  0.00     0.052 C 
BRANCH  65  66
ATOM     66  C   UNK d   0     -34.818   5.597  -3.110  0.00  0.00     0.115 C 
BRANCH  66  67
ATOM     67  C   UNK d   0     -34.188   6.516  -2.204  0.00  0.00     0.139 C 
ATOM     68  O   UNK d   0     -34.401   6.379  -0.944  0.00  0.00    -0.650 OA
BRANCH  67  69
ATOM     69  O   UNK d   0     -33.342   7.579  -2.519  0.00  0.00    -0.776 OA
ATOM     70  H   UNK d   0     -33.565   8.087  -3.387  0.00  0.00     0.167 HD
ENDBRANCH  67  69
ENDBRANCH  66  67
ENDBRANCH  65  66
ENDBRANCH  14  65
ENDBRANCH   6   7
ENDBRANCH   5   6
ENDBRANCH   2   5
TORSDOF 28
ENDMDL
MODEL 16
REMARK VINA RESULT:      -7.2     22.228     24.956
REMARK  28 active torsions:
REMARK  status: ('A' for Active; 'I' for Inactive)
REMARK    1  A    between atoms: C_2  and  O_3 
REMARK    2  A    between atoms: C_2  and  C_4 
REMARK    3  A    between atoms: C_4  and  C_5 
REMARK    4  A    between atoms: C_5  and  C_6 
REMARK    5  A    between atoms: C_7  and  C_8 
REMARK    6  A    between atoms: C_8  and  C_9 
REMARK    7  A    between atoms: C_9  and  O_11 
REMARK    8  A    between atoms: C_28  and  C_29 
REMARK    9  A    between atoms: C_29  and  C_30 
REMARK   10  A    between atoms: C_30  and  O_32 
REMARK   11  A    between atoms: C_33  and  C_34 
REMARK   12  A    between atoms: C_34  and  C_35 
REMARK   13  A    between atoms: C_35  and  C_36 
REMARK   14  A    between atoms: C_36  and  O_38 
REMARK   15  A    between atoms: C_39  and  C_40 
REMARK   16  A    between atoms: C_40  and  C_41 
REMARK   17  A    between atoms: C_41  and  C_42 
REMARK   18  A    between atoms: C_42  and  O_44 
REMARK   19  A    between atoms: C_45  and  C_46 
REMARK   20  A    between atoms: C_46  and  C_47 
REMARK   21  A    between atoms: C_47  and  O_49 
REMARK   22  A    between atoms: C_50  and  C_51 
REMARK   23  A    between atoms: C_51  and  C_52 
REMARK   24  A    between atoms: C_52  and  O_54 
REMARK   25  A    between atoms: C_55  and  C_56 
REMARK   26  A    between atoms: C_56  and  C_57 
REMARK   27  A    between atoms: C_57  and  C_58 
REMARK   28  A    between atoms: C_58  and  O_60 
ROOT
ATOM      1  O   UNK d   0      -5.646   3.061  21.487  0.00  0.00    -0.650 OA
ATOM      2  C   UNK d   0      -6.181   3.759  20.597  0.00  0.00     0.139 C 
ENDROOT
BRANCH   2   3
ATOM      3  O   UNK d   0      -5.644   4.985  20.288  0.00  0.00    -0.776 OA
ATOM      4  H   UNK d   0      -4.642   5.094  20.116  0.00  0.00     0.167 HD
ENDBRANCH   2   3
BRANCH   2   5
ATOM      5  C   UNK d   0      -7.390   3.261  19.882  0.00  0.00     0.115 C 
BRANCH   5   6
ATOM      6  C   UNK d   0      -7.096   3.107  18.414  0.00  0.00     0.052 C 
BRANCH   6   7
ATOM      7  C   UNK d   0      -8.172   3.706  17.540  0.00  0.00    -0.020 A 
ATOM      8  C   UNK d   0      -8.298   4.956  17.174  0.00  0.00    -0.011 A 
ATOM      9  C   UNK d   0      -9.487   5.059  16.344  0.00  0.00     0.067 A 
ATOM     10  C   UNK d   0     -10.147   6.080  15.642  0.00  0.00     0.062 C 
ATOM     11  N   UNK d   0     -10.026   3.824  16.262  0.00  0.00    -0.248 NA
ATOM     12  C   UNK d   0     -11.134   5.932  14.662  0.00  0.00     0.041 A 
ATOM     13  N   UNK d   0     -12.206   5.120  14.599  0.00  0.00    -0.355 N 
ATOM     14  C   UNK d   0     -11.037   6.688  13.479  0.00  0.00    -0.022 A 
ATOM     15  C   UNK d   0     -12.787   5.335  13.403  0.00  0.00     0.042 A 
ATOM     16  H   UNK d   0     -12.557   4.423  15.391  0.00  0.00     0.166 HD
ATOM     17  C   UNK d   0     -13.935   4.754  12.828  0.00  0.00     0.062 C 
ATOM     18  C   UNK d   0     -12.082   6.311  12.673  0.00  0.00    -0.013 A 
ATOM     19  C   UNK d   0     -14.308   3.435  12.792  0.00  0.00     0.067 A 
ATOM     20  N   UNK d   0     -13.618   2.590  13.562  0.00  0.00    -0.248 NA
ATOM     21  C   UNK d   0     -15.309   2.651  12.088  0.00  0.00    -0.011 A 
ATOM     22  C   UNK d   0     -14.093   1.310  13.410  0.00  0.00     0.066 A 
ATOM     23  C   UNK d   0     -13.487   0.332  14.185  0.00  0.00     0.062 C 
ATOM     24  C   UNK d   0     -15.175   1.408  12.450  0.00  0.00    -0.020 A 
ATOM     25  C   UNK d   0     -12.505   0.503  15.173  0.00  0.00     0.041 A 
ATOM     26  N   UNK d   0     -11.431   1.299  15.230  0.00  0.00    -0.355 N 
ATOM     27  C   UNK d   0     -12.606  -0.253  16.362  0.00  0.00    -0.022 A 
ATOM     28  C   UNK d   0     -10.845   1.080  16.418  0.00  0.00     0.042 A 
ATOM     29  H   UNK d   0     -11.075   1.992  14.428  0.00  0.00     0.166 HD
ATOM     30  C   UNK d   0      -9.699   1.644  16.999  0.00  0.00     0.062 C 
ATOM     31  C   UNK d   0     -11.560   0.107  17.155  0.00  0.00    -0.013 A 
ATOM     32  C   UNK d   0      -9.281   2.965  16.959  0.00  0.00     0.066 A 
BRANCH   8  33
ATOM     33  C   UNK d   0      -7.410   6.077  17.533  0.00  0.00     0.151 C 
BRANCH  33  34
ATOM     34  C   UNK d   0      -6.875   6.781  16.353  0.00  0.00     0.143 C 
ATOM     35  O   UNK d   0      -7.026   8.003  16.218  0.00  0.00    -0.650 OA
BRANCH  34  36
ATOM     36  O   UNK d   0      -6.200   6.067  15.390  0.00  0.00    -0.776 OA
ATOM     37  H   UNK d   0      -5.460   5.397  15.641  0.00  0.00     0.167 HD
ENDBRANCH  34  36
ENDBRANCH  33  34
ENDBRANCH   8  33
BRANCH  31  38
ATOM     38  C   UNK d   0     -11.263  -0.430  18.536  0.00  0.00     0.151 C 
BRANCH  38  39
ATOM     39  C   UNK d   0     -10.509  -1.665  18.508  0.00  0.00     0.143 C 
ATOM     40  O   UNK d   0     -10.361  -2.378  19.516  0.00  0.00    -0.650 OA
BRANCH  39  41
ATOM     41  O   UNK d   0      -9.923  -2.085  17.313  0.00  0.00    -0.776 OA
ATOM     42  H   UNK d   0     -10.468  -1.941  16.457  0.00  0.00     0.167 HD
ENDBRANCH  39  41
ENDBRANCH  38  39
ENDBRANCH  31  38
BRANCH  27  43
ATOM     43  C   UNK d   0     -13.635  -1.281  16.760  0.00  0.00     0.052 C 
BRANCH  43  44
ATOM     44  C   UNK d   0     -14.926  -0.680  17.215  0.00  0.00     0.115 C 
BRANCH  44  45
ATOM     45  C   UNK d   0     -15.994  -1.281  16.375  0.00  0.00     0.139 C 
ATOM     46  O   UNK d   0     -17.184  -0.960  16.612  0.00  0.00    -0.650 OA
BRANCH  45  47
ATOM     47  O   UNK d   0     -15.731  -2.165  15.351  0.00  0.00    -0.776 OA
ATOM     48  H   UNK d   0     -16.356  -2.283  14.538  0.00  0.00     0.167 HD
ENDBRANCH  45  47
ENDBRANCH  44  45
ENDBRANCH  43  44
ENDBRANCH  27  43
BRANCH  24  49
ATOM     49  C   UNK d   0     -16.011   0.279  12.008  0.00  0.00     0.052 C 
BRANCH  49  50
ATOM     50  C   UNK d   0     -17.140   0.049  12.979  0.00  0.00     0.115 C 
BRANCH  50  51
ATOM     51  C   UNK d   0     -18.010  -1.091  12.729  0.00  0.00     0.139 C 
ATOM     52  O   UNK d   0     -19.085  -0.995  12.090  0.00  0.00    -0.650 OA
BRANCH  51  53
ATOM     53  O   UNK d   0     -17.657  -2.343  13.211  0.00  0.00    -0.776 OA
ATOM     54  H   UNK d   0     -16.723  -2.473  13.556  0.00  0.00     0.167 HD
ENDBRANCH  51  53
ENDBRANCH  50  51
ENDBRANCH  49  50
ENDBRANCH  24  49
BRANCH  21  55
ATOM     55  C   UNK d   0     -16.298   3.227  11.128  0.00  0.00     0.151 C 
BRANCH  55  56
ATOM     56  C   UNK d   0     -15.740   3.357   9.774  0.00  0.00     0.143 C 
ATOM     57  O   UNK d   0     -15.743   2.422   8.949  0.00  0.00    -0.650 OA
BRANCH  56  58
ATOM     58  O   UNK d   0     -15.189   4.586   9.414  0.00  0.00    -0.776 OA
ATOM     59  H   UNK d   0     -14.859   5.165  10.207  0.00  0.00     0.167 HD
ENDBRANCH  56  58
ENDBRANCH  55  56
ENDBRANCH  21  55
BRANCH  18  60
ATOM     60  C   UNK d   0     -12.357   6.867  11.298  0.00  0.00     0.151 C 
BRANCH  60  61
ATOM     61  C   UNK d   0     -11.934   5.826  10.349  0.00  0.00     0.143 C 
ATOM     62  O   UNK d   0     -12.547   5.433   9.357  0.00  0.00    -0.650 OA
BRANCH  61  63
ATOM     63  O   UNK d   0     -10.682   5.228  10.630  0.00  0.00    -0.776 OA
ATOM     64  H   UNK d   0     -10.594   4.233  10.734  0.00  0.00     0.167 HD
ENDBRANCH  61  63
ENDBRANCH  60  61
ENDBRANCH  18  60
BRANCH  14  65
ATOM     65  C   UNK d   0     -10.099   7.797  13.099  0.00  0.00     0.052 C 
BRANCH  65  66
ATOM     66  C   UNK d   0     -10.491   9.113  13.671  0.00  0.00     0.115 C 
BRANCH  66  67
ATOM     67  C   UNK d   0      -9.483  10.098  13.948  0.00  0.00     0.139 C 
ATOM     68  O   UNK d   0      -9.743  11.331  13.692  0.00  0.00    -0.650 OA
BRANCH  67  69
ATOM     69  O   UNK d   0      -8.211   9.890  14.480  0.00  0.00    -0.776 OA
ATOM     70  H   UNK d   0      -7.424  10.211  13.897  0.00  0.00     0.167 HD
ENDBRANCH  67  69
ENDBRANCH  66  67
ENDBRANCH  65  66
ENDBRANCH  14  65
ENDBRANCH   6   7
ENDBRANCH   5   6
ENDBRANCH   2   5
TORSDOF 28
ENDMDL
MODEL 17
REMARK VINA RESULT:      -7.1      5.318     13.466
REMARK  28 active torsions:
REMARK  status: ('A' for Active; 'I' for Inactive)
REMARK    1  A    between atoms: C_2  and  O_3 
REMARK    2  A    between atoms: C_2  and  C_4 
REMARK    3  A    between atoms: C_4  and  C_5 
REMARK    4  A    between atoms: C_5  and  C_6 
REMARK    5  A    between atoms: C_7  and  C_8 
REMARK    6  A    between atoms: C_8  and  C_9 
REMARK    7  A    between atoms: C_9  and  O_11 
REMARK    8  A    between atoms: C_28  and  C_29 
REMARK    9  A    between atoms: C_29  and  C_30 
REMARK   10  A    between atoms: C_30  and  O_32 
REMARK   11  A    between atoms: C_33  and  C_34 
REMARK   12  A    between atoms: C_34  and  C_35 
REMARK   13  A    between atoms: C_35  and  C_36 
REMARK   14  A    between atoms: C_36  and  O_38 
REMARK   15  A    between atoms: C_39  and  C_40 
REMARK   16  A    between atoms: C_40  and  C_41 
REMARK   17  A    between atoms: C_41  and  C_42 
REMARK   18  A    between atoms: C_42  and  O_44 
REMARK   19  A    between atoms: C_45  and  C_46 
REMARK   20  A    between atoms: C_46  and  C_47 
REMARK   21  A    between atoms: C_47  and  O_49 
REMARK   22  A    between atoms: C_50  and  C_51 
REMARK   23  A    between atoms: C_51  and  C_52 
REMARK   24  A    between atoms: C_52  and  O_54 
REMARK   25  A    between atoms: C_55  and  C_56 
REMARK   26  A    between atoms: C_56  and  C_57 
REMARK   27  A    between atoms: C_57  and  C_58 
REMARK   28  A    between atoms: C_58  and  O_60 
ROOT
ATOM      1  O   UNK d   0     -34.718  -4.473   9.454  0.00  0.00    -0.650 OA
ATOM      2  C   UNK d   0     -34.670  -3.231   9.597  0.00  0.00     0.139 C 
ENDROOT
BRANCH   2   3
ATOM      3  O   UNK d   0     -35.611  -2.606  10.378  0.00  0.00    -0.776 OA
ATOM      4  H   UNK d   0     -36.527  -3.029  10.541  0.00  0.00     0.167 HD
ENDBRANCH   2   3
BRANCH   2   5
ATOM      5  C   UNK d   0     -33.601  -2.441   8.922  0.00  0.00     0.115 C 
BRANCH   5   6
ATOM      6  C   UNK d   0     -33.574  -2.758   7.451  0.00  0.00     0.052 C 
BRANCH   6   7
ATOM      7  C   UNK d   0     -32.690  -1.815   6.670  0.00  0.00    -0.020 A 
ATOM      8  C   UNK d   0     -31.387  -1.711   6.727  0.00  0.00    -0.011 A 
ATOM      9  C   UNK d   0     -30.983  -0.664   5.803  0.00  0.00     0.067 A 
ATOM     10  C   UNK d   0     -29.770  -0.092   5.388  0.00  0.00     0.062 C 
ATOM     11  N   UNK d   0     -32.106  -0.181   5.230  0.00  0.00    -0.248 NA
ATOM     12  C   UNK d   0     -29.557   0.725   4.273  0.00  0.00     0.041 A 
ATOM     13  N   UNK d   0     -30.275   1.750   3.774  0.00  0.00    -0.355 N 
ATOM     14  C   UNK d   0     -28.452   0.466   3.441  0.00  0.00    -0.022 A 
ATOM     15  C   UNK d   0     -29.658   2.142   2.643  0.00  0.00     0.042 A 
ATOM     16  H   UNK d   0     -31.188   2.199   4.223  0.00  0.00     0.166 HD
ATOM     17  C   UNK d   0     -29.984   3.168   1.734  0.00  0.00     0.062 C 
ATOM     18  C   UNK d   0     -28.512   1.361   2.402  0.00  0.00    -0.013 A 
ATOM     19  C   UNK d   0     -31.206   3.493   1.202  0.00  0.00     0.067 A 
ATOM     20  N   UNK d   0     -32.277   2.906   1.744  0.00  0.00    -0.248 NA
ATOM     21  C   UNK d   0     -31.684   4.347   0.128  0.00  0.00    -0.011 A 
ATOM     22  C   UNK d   0     -33.420   3.314   1.101  0.00  0.00     0.066 A 
ATOM     23  C   UNK d   0     -34.615   2.808   1.590  0.00  0.00     0.062 C 
ATOM     24  C   UNK d   0     -32.980   4.235   0.072  0.00  0.00    -0.020 A 
ATOM     25  C   UNK d   0     -34.809   1.999   2.720  0.00  0.00     0.041 A 
ATOM     26  N   UNK d   0     -34.105   0.971   3.207  0.00  0.00    -0.355 N 
ATOM     27  C   UNK d   0     -35.916   2.262   3.556  0.00  0.00    -0.022 A 
ATOM     28  C   UNK d   0     -34.722   0.572   4.330  0.00  0.00     0.042 A 
ATOM     29  H   UNK d   0     -33.193   0.514   2.749  0.00  0.00     0.166 HD
ATOM     30  C   UNK d   0     -34.414  -0.453   5.239  0.00  0.00     0.062 C 
ATOM     31  C   UNK d   0     -35.868   1.364   4.578  0.00  0.00    -0.013 A 
ATOM     32  C   UNK d   0     -33.167  -0.832   5.708  0.00  0.00     0.066 A 
BRANCH   8  33
ATOM     33  C   UNK d   0     -30.472  -2.499   7.574  0.00  0.00     0.151 C 
BRANCH  33  34
ATOM     34  C   UNK d   0     -30.161  -3.820   7.001  0.00  0.00     0.143 C 
ATOM     35  O   UNK d   0     -30.250  -4.849   7.687  0.00  0.00    -0.650 OA
BRANCH  34  36
ATOM     36  O   UNK d   0     -29.764  -3.910   5.687  0.00  0.00    -0.776 OA
ATOM     37  H   UNK d   0     -29.021  -4.560   5.397  0.00  0.00     0.167 HD
ENDBRANCH  34  36
ENDBRANCH  33  34
ENDBRANCH   8  33
BRANCH  31  38
ATOM     38  C   UNK d   0     -36.843   1.270   5.729  0.00  0.00     0.151 C 
BRANCH  38  39
ATOM     39  C   UNK d   0     -36.456   2.086   6.860  0.00  0.00     0.143 C 
ATOM     40  O   UNK d   0     -35.354   1.964   7.423  0.00  0.00    -0.650 OA
BRANCH  39  41
ATOM     41  O   UNK d   0     -37.340   3.048   7.347  0.00  0.00    -0.776 OA
ATOM     42  H   UNK d   0     -37.403   3.145   8.365  0.00  0.00     0.167 HD
ENDBRANCH  39  41
ENDBRANCH  38  39
ENDBRANCH  31  38
BRANCH  27  43
ATOM     43  C   UNK d   0     -36.992   3.310   3.421  0.00  0.00     0.052 C 
BRANCH  43  44
ATOM     44  C   UNK d   0     -36.560   4.664   3.883  0.00  0.00     0.115 C 
BRANCH  44  45
ATOM     45  C   UNK d   0     -37.581   5.124   4.861  0.00  0.00     0.139 C 
ATOM     46  O   UNK d   0     -38.615   4.427   5.009  0.00  0.00    -0.650 OA
BRANCH  45  47
ATOM     47  O   UNK d   0     -37.435   6.273   5.608  0.00  0.00    -0.776 OA
ATOM     48  H   UNK d   0     -37.158   7.178   5.195  0.00  0.00     0.167 HD
ENDBRANCH  45  47
ENDBRANCH  44  45
ENDBRANCH  43  44
ENDBRANCH  27  43
BRANCH  24  49
ATOM     49  C   UNK d   0     -33.875   4.958  -0.848  0.00  0.00     0.052 C 
BRANCH  49  50
ATOM     50  C   UNK d   0     -33.969   4.233  -2.166  0.00  0.00     0.115 C 
BRANCH  50  51
ATOM     51  C   UNK d   0     -34.315   2.818  -2.123  0.00  0.00     0.139 C 
ATOM     52  O   UNK d   0     -35.497   2.413  -2.019  0.00  0.00    -0.650 OA
BRANCH  51  53
ATOM     53  O   UNK d   0     -33.311   1.864  -2.197  0.00  0.00    -0.776 OA
ATOM     54  H   UNK d   0     -32.370   2.146  -1.985  0.00  0.00     0.167 HD
ENDBRANCH  51  53
ENDBRANCH  50  51
ENDBRANCH  49  50
ENDBRANCH  24  49
BRANCH  21  55
ATOM     55  C   UNK d   0     -30.797   5.190  -0.726  0.00  0.00     0.151 C 
BRANCH  55  56
ATOM     56  C   UNK d   0     -30.327   4.465  -1.917  0.00  0.00     0.143 C 
ATOM     57  O   UNK d   0     -29.751   5.030  -2.868  0.00  0.00    -0.650 OA
BRANCH  56  58
ATOM     58  O   UNK d   0     -30.543   3.089  -1.966  0.00  0.00    -0.776 OA
ATOM     59  H   UNK d   0     -31.258   2.736  -1.305  0.00  0.00     0.167 HD
ENDBRANCH  56  58
ENDBRANCH  55  56
ENDBRANCH  21  55
BRANCH  18  60
ATOM     60  C   UNK d   0     -27.521   1.434   1.266  0.00  0.00     0.151 C 
BRANCH  60  61
ATOM     61  C   UNK d   0     -27.942   0.410   0.297  0.00  0.00     0.143 C 
ATOM     62  O   UNK d   0     -27.533  -0.749   0.218  0.00  0.00    -0.650 OA
BRANCH  61  63
ATOM     63  O   UNK d   0     -28.924   0.827  -0.633  0.00  0.00    -0.776 OA
ATOM     64  H   UNK d   0     -28.665   1.177  -1.538  0.00  0.00     0.167 HD
ENDBRANCH  61  63
ENDBRANCH  60  61
ENDBRANCH  18  60
BRANCH  14  65
ATOM     65  C   UNK d   0     -27.303  -0.487   3.605  0.00  0.00     0.052 C 
BRANCH  65  66
ATOM     66  C   UNK d   0     -26.430  -0.152   4.762  0.00  0.00     0.115 C 
BRANCH  66  67
ATOM     67  C   UNK d   0     -26.414  -1.010   5.914  0.00  0.00     0.139 C 
ATOM     68  O   UNK d   0     -25.469  -0.865   6.773  0.00  0.00    -0.650 OA
BRANCH  67  69
ATOM     69  O   UNK d   0     -27.321  -2.018   6.239  0.00  0.00    -0.776 OA
ATOM     70  H   UNK d   0     -28.139  -2.102   5.619  0.00  0.00     0.167 HD
ENDBRANCH  67  69
ENDBRANCH  66  67
ENDBRANCH  65  66
ENDBRANCH  14  65
ENDBRANCH   6   7
ENDBRANCH   5   6
ENDBRANCH   2   5
TORSDOF 28
ENDMDL
MODEL 18
REMARK VINA RESULT:      -7.1      6.271     11.280
REMARK  28 active torsions:
REMARK  status: ('A' for Active; 'I' for Inactive)
REMARK    1  A    between atoms: C_2  and  O_3 
REMARK    2  A    between atoms: C_2  and  C_4 
REMARK    3  A    between atoms: C_4  and  C_5 
REMARK    4  A    between atoms: C_5  and  C_6 
REMARK    5  A    between atoms: C_7  and  C_8 
REMARK    6  A    between atoms: C_8  and  C_9 
REMARK    7  A    between atoms: C_9  and  O_11 
REMARK    8  A    between atoms: C_28  and  C_29 
REMARK    9  A    between atoms: C_29  and  C_30 
REMARK   10  A    between atoms: C_30  and  O_32 
REMARK   11  A    between atoms: C_33  and  C_34 
REMARK   12  A    between atoms: C_34  and  C_35 
REMARK   13  A    between atoms: C_35  and  C_36 
REMARK   14  A    between atoms: C_36  and  O_38 
REMARK   15  A    between atoms: C_39  and  C_40 
REMARK   16  A    between atoms: C_40  and  C_41 
REMARK   17  A    between atoms: C_41  and  C_42 
REMARK   18  A    between atoms: C_42  and  O_44 
REMARK   19  A    between atoms: C_45  and  C_46 
REMARK   20  A    between atoms: C_46  and  C_47 
REMARK   21  A    between atoms: C_47  and  O_49 
REMARK   22  A    between atoms: C_50  and  C_51 
REMARK   23  A    between atoms: C_51  and  C_52 
REMARK   24  A    between atoms: C_52  and  O_54 
REMARK   25  A    between atoms: C_55  and  C_56 
REMARK   26  A    between atoms: C_56  and  C_57 
REMARK   27  A    between atoms: C_57  and  C_58 
REMARK   28  A    between atoms: C_58  and  O_60 
ROOT
ATOM      1  O   UNK d   0     -22.330   2.317   4.939  0.00  0.00    -0.650 OA
ATOM      2  C   UNK d   0     -21.967   3.096   4.030  0.00  0.00     0.139 C 
ENDROOT
BRANCH   2   3
ATOM      3  O   UNK d   0     -20.625   3.280   3.797  0.00  0.00    -0.776 OA
ATOM      4  H   UNK d   0     -20.272   4.161   3.417  0.00  0.00     0.167 HD
ENDBRANCH   2   3
BRANCH   2   5
ATOM      5  C   UNK d   0     -22.983   3.815   3.210  0.00  0.00     0.115 C 
BRANCH   5   6
ATOM      6  C   UNK d   0     -23.659   2.857   2.267  0.00  0.00     0.052 C 
BRANCH   6   7
ATOM      7  C   UNK d   0     -25.161   2.855   2.420  0.00  0.00    -0.020 A 
ATOM      8  C   UNK d   0     -26.036   3.527   1.716  0.00  0.00    -0.011 A 
ATOM      9  C   UNK d   0     -27.358   3.212   2.232  0.00  0.00     0.067 A 
ATOM     10  C   UNK d   0     -28.679   3.569   1.919  0.00  0.00     0.062 C 
ATOM     11  N   UNK d   0     -27.194   2.345   3.253  0.00  0.00    -0.248 NA
ATOM     12  C   UNK d   0     -29.852   2.944   2.354  0.00  0.00     0.041 A 
ATOM     13  N   UNK d   0     -30.208   2.471   3.564  0.00  0.00    -0.355 N 
ATOM     14  C   UNK d   0     -30.867   2.673   1.418  0.00  0.00    -0.022 A 
ATOM     15  C   UNK d   0     -31.419   1.902   3.418  0.00  0.00     0.042 A 
ATOM     16  H   UNK d   0     -29.624   2.557   4.507  0.00  0.00     0.166 HD
ATOM     17  C   UNK d   0     -32.247   1.261   4.361  0.00  0.00     0.062 C 
ATOM     18  C   UNK d   0     -31.865   2.008   2.086  0.00  0.00    -0.013 A 
ATOM     19  C   UNK d   0     -31.910   0.340   5.320  0.00  0.00     0.067 A 
ATOM     20  N   UNK d   0     -30.607   0.151   5.545  0.00  0.00    -0.248 NA
ATOM     21  C   UNK d   0     -32.631  -0.556   6.208  0.00  0.00    -0.011 A 
ATOM     22  C   UNK d   0     -30.424  -0.805   6.514  0.00  0.00     0.066 A 
ATOM     23  C   UNK d   0     -29.112  -1.075   6.875  0.00  0.00     0.062 C 
ATOM     24  C   UNK d   0     -31.756  -1.227   6.901  0.00  0.00    -0.020 A 
ATOM     25  C   UNK d   0     -27.948  -0.425   6.435  0.00  0.00     0.041 A 
ATOM     26  N   UNK d   0     -27.588   0.030   5.229  0.00  0.00    -0.355 N 
ATOM     27  C   UNK d   0     -26.932  -0.151   7.376  0.00  0.00    -0.022 A 
ATOM     28  C   UNK d   0     -26.376   0.591   5.370  0.00  0.00     0.042 A 
ATOM     29  H   UNK d   0     -28.171  -0.065   4.281  0.00  0.00     0.166 HD
ATOM     30  C   UNK d   0     -25.538   1.224   4.439  0.00  0.00     0.062 C 
ATOM     31  C   UNK d   0     -25.934   0.493   6.711  0.00  0.00    -0.013 A 
ATOM     32  C   UNK d   0     -25.895   2.089   3.417  0.00  0.00     0.066 A 
BRANCH   8  33
ATOM     33  C   UNK d   0     -25.754   4.448   0.600  0.00  0.00     0.151 C 
BRANCH  33  34
ATOM     34  C   UNK d   0     -26.402   4.035  -0.658  0.00  0.00     0.143 C 
ATOM     35  O   UNK d   0     -26.896   4.875  -1.425  0.00  0.00    -0.650 OA
BRANCH  34  36
ATOM     36  O   UNK d   0     -26.460   2.700  -0.981  0.00  0.00    -0.776 OA
ATOM     37  H   UNK d   0     -26.309   1.971  -0.271  0.00  0.00     0.167 HD
ENDBRANCH  34  36
ENDBRANCH  33  34
ENDBRANCH   8  33
BRANCH  31  38
ATOM     38  C   UNK d   0     -24.643   0.998   7.312  0.00  0.00     0.151 C 
BRANCH  38  39
ATOM     39  C   UNK d   0     -23.688  -0.061   7.560  0.00  0.00     0.143 C 
ATOM     40  O   UNK d   0     -22.612   0.138   8.152  0.00  0.00    -0.650 OA
BRANCH  39  41
ATOM     41  O   UNK d   0     -23.971  -1.356   7.127  0.00  0.00    -0.776 OA
ATOM     42  H   UNK d   0     -24.797  -1.474   6.533  0.00  0.00     0.167 HD
ENDBRANCH  39  41
ENDBRANCH  38  39
ENDBRANCH  31  38
BRANCH  27  43
ATOM     43  C   UNK d   0     -26.877  -0.472   8.848  0.00  0.00     0.052 C 
BRANCH  43  44
ATOM     44  C   UNK d   0     -27.435   0.612   9.711  0.00  0.00     0.115 C 
BRANCH  44  45
ATOM     45  C   UNK d   0     -26.387   0.939  10.713  0.00  0.00     0.139 C 
ATOM     46  O   UNK d   0     -26.542   1.968  11.417  0.00  0.00    -0.650 OA
BRANCH  45  47
ATOM     47  O   UNK d   0     -25.266   0.161  10.903  0.00  0.00    -0.776 OA
ATOM     48  H   UNK d   0     -24.422   0.240  10.312  0.00  0.00     0.167 HD
ENDBRANCH  45  47
ENDBRANCH  44  45
ENDBRANCH  43  44
ENDBRANCH  27  43
BRANCH  24  49
ATOM     49  C   UNK d   0     -32.054  -2.219   7.948  0.00  0.00     0.052 C 
BRANCH  49  50
ATOM     50  C   UNK d   0     -32.227  -3.587   7.340  0.00  0.00     0.115 C 
BRANCH  50  51
ATOM     51  C   UNK d   0     -31.026  -4.390   7.156  0.00  0.00     0.139 C 
ATOM     52  O   UNK d   0     -30.575  -5.147   8.047  0.00  0.00    -0.650 OA
BRANCH  51  53
ATOM     53  O   UNK d   0     -30.336  -4.327   5.955  0.00  0.00    -0.776 OA
ATOM     54  H   UNK d   0     -30.317  -3.450   5.463  0.00  0.00     0.167 HD
ENDBRANCH  51  53
ENDBRANCH  50  51
ENDBRANCH  49  50
ENDBRANCH  24  49
BRANCH  21  55
ATOM     55  C   UNK d   0     -34.120  -0.646   6.274  0.00  0.00     0.151 C 
BRANCH  55  56
ATOM     56  C   UNK d   0     -34.701   0.428   7.094  0.00  0.00     0.143 C 
ATOM     57  O   UNK d   0     -34.961   1.559   6.639  0.00  0.00    -0.650 OA
BRANCH  56  58
ATOM     58  O   UNK d   0     -34.967   0.150   8.434  0.00  0.00    -0.776 OA
ATOM     59  H   UNK d   0     -34.308   0.580   9.107  0.00  0.00     0.167 HD
ENDBRANCH  56  58
ENDBRANCH  55  56
ENDBRANCH  21  55
BRANCH  18  60
ATOM     60  C   UNK d   0     -33.147   1.518   1.460  0.00  0.00     0.151 C 
BRANCH  60  61
ATOM     61  C   UNK d   0     -34.062   2.670   1.459  0.00  0.00     0.143 C 
ATOM     62  O   UNK d   0     -34.151   3.547   2.318  0.00  0.00    -0.650 OA
BRANCH  61  63
ATOM     63  O   UNK d   0     -34.923   2.755   0.338  0.00  0.00    -0.776 OA
ATOM     64  H   UNK d   0     -34.561   2.714  -0.598  0.00  0.00     0.167 HD
ENDBRANCH  61  63
ENDBRANCH  60  61
ENDBRANCH  18  60
BRANCH  14  65
ATOM     65  C   UNK d   0     -31.006   3.078  -0.022  0.00  0.00     0.052 C 
BRANCH  65  66
ATOM     66  C   UNK d   0     -30.868   1.935  -0.964  0.00  0.00     0.115 C 
BRANCH  66  67
ATOM     67  C   UNK d   0     -29.561   1.508  -1.377  0.00  0.00     0.139 C 
ATOM     68  O   UNK d   0     -28.790   0.960  -0.505  0.00  0.00    -0.650 OA
BRANCH  67  69
ATOM     69  O   UNK d   0     -28.991   1.611  -2.645  0.00  0.00    -0.776 OA
ATOM     70  H   UNK d   0     -28.499   2.494  -2.845  0.00  0.00     0.167 HD
ENDBRANCH  67  69
ENDBRANCH  66  67
ENDBRANCH  65  66
ENDBRANCH  14  65
ENDBRANCH   6   7
ENDBRANCH   5   6
ENDBRANCH   2   5
TORSDOF 28
ENDMDL
MODEL 19
REMARK VINA RESULT:      -7.1     23.144     26.067
REMARK  28 active torsions:
REMARK  status: ('A' for Active; 'I' for Inactive)
REMARK    1  A    between atoms: C_2  and  O_3 
REMARK    2  A    between atoms: C_2  and  C_4 
REMARK    3  A    between atoms: C_4  and  C_5 
REMARK    4  A    between atoms: C_5  and  C_6 
REMARK    5  A    between atoms: C_7  and  C_8 
REMARK    6  A    between atoms: C_8  and  C_9 
REMARK    7  A    between atoms: C_9  and  O_11 
REMARK    8  A    between atoms: C_28  and  C_29 
REMARK    9  A    between atoms: C_29  and  C_30 
REMARK   10  A    between atoms: C_30  and  O_32 
REMARK   11  A    between atoms: C_33  and  C_34 
REMARK   12  A    between atoms: C_34  and  C_35 
REMARK   13  A    between atoms: C_35  and  C_36 
REMARK   14  A    between atoms: C_36  and  O_38 
REMARK   15  A    between atoms: C_39  and  C_40 
REMARK   16  A    between atoms: C_40  and  C_41 
REMARK   17  A    between atoms: C_41  and  C_42 
REMARK   18  A    between atoms: C_42  and  O_44 
REMARK   19  A    between atoms: C_45  and  C_46 
REMARK   20  A    between atoms: C_46  and  C_47 
REMARK   21  A    between atoms: C_47  and  O_49 
REMARK   22  A    between atoms: C_50  and  C_51 
REMARK   23  A    between atoms: C_51  and  C_52 
REMARK   24  A    between atoms: C_52  and  O_54 
REMARK   25  A    between atoms: C_55  and  C_56 
REMARK   26  A    between atoms: C_56  and  C_57 
REMARK   27  A    between atoms: C_57  and  C_58 
REMARK   28  A    between atoms: C_58  and  O_60 
ROOT
ATOM      1  O   UNK d   0     -17.768  -1.531  16.963  0.00  0.00    -0.650 OA
ATOM      2  C   UNK d   0     -16.796  -0.744  16.924  0.00  0.00     0.139 C 
ENDROOT
BRANCH   2   3
ATOM      3  O   UNK d   0     -16.082  -0.498  18.073  0.00  0.00    -0.776 OA
ATOM      4  H   UNK d   0     -15.141  -0.103  18.034  0.00  0.00     0.167 HD
ENDBRANCH   2   3
BRANCH   2   5
ATOM      5  C   UNK d   0     -16.420  -0.082  15.643  0.00  0.00     0.115 C 
BRANCH   5   6
ATOM      6  C   UNK d   0     -15.184  -0.722  15.072  0.00  0.00     0.052 C 
BRANCH   6   7
ATOM      7  C   UNK d   0     -14.202   0.290  14.533  0.00  0.00    -0.020 A 
ATOM      8  C   UNK d   0     -14.068   0.691  13.295  0.00  0.00    -0.011 A 
ATOM      9  C   UNK d   0     -12.989   1.664  13.257  0.00  0.00     0.067 A 
ATOM     10  C   UNK d   0     -12.378   2.462  12.276  0.00  0.00     0.062 C 
ATOM     11  N   UNK d   0     -12.518   1.790  14.516  0.00  0.00    -0.248 NA
ATOM     12  C   UNK d   0     -11.529   3.554  12.481  0.00  0.00     0.041 A 
ATOM     13  N   UNK d   0     -10.509   3.735  13.341  0.00  0.00    -0.355 N 
ATOM     14  C   UNK d   0     -11.740   4.729  11.737  0.00  0.00    -0.022 A 
ATOM     15  C   UNK d   0     -10.073   4.997  13.168  0.00  0.00     0.042 A 
ATOM     16  H   UNK d   0     -10.093   2.979  14.043  0.00  0.00     0.166 HD
ATOM     17  C   UNK d   0      -9.032   5.699  13.808  0.00  0.00     0.062 C 
ATOM     18  C   UNK d   0     -10.821   5.652  12.171  0.00  0.00    -0.013 A 
ATOM     19  C   UNK d   0      -8.723   5.757  15.143  0.00  0.00     0.067 A 
ATOM     20  N   UNK d   0      -9.348   4.892  15.946  0.00  0.00    -0.248 NA
ATOM     21  C   UNK d   0      -7.853   6.565  15.980  0.00  0.00    -0.011 A 
ATOM     22  C   UNK d   0      -8.951   5.077  17.248  0.00  0.00     0.066 A 
ATOM     23  C   UNK d   0      -9.498   4.215  18.187  0.00  0.00     0.062 C 
ATOM     24  C   UNK d   0      -7.995   6.165  17.211  0.00  0.00    -0.020 A 
ATOM     25  C   UNK d   0     -10.340   3.116  17.960  0.00  0.00     0.041 A 
ATOM     26  N   UNK d   0     -11.363   2.941  17.115  0.00  0.00    -0.355 N 
ATOM     27  C   UNK d   0     -10.124   1.935  18.703  0.00  0.00    -0.022 A 
ATOM     28  C   UNK d   0     -11.805   1.686  17.291  0.00  0.00     0.042 A 
ATOM     29  H   UNK d   0     -11.787   3.705  16.418  0.00  0.00     0.166 HD
ATOM     30  C   UNK d   0     -12.845   0.978  16.669  0.00  0.00     0.062 C 
ATOM     31  C   UNK d   0     -11.046   1.025  18.286  0.00  0.00    -0.013 A 
ATOM     32  C   UNK d   0     -13.206   0.990  15.331  0.00  0.00     0.066 A 
BRANCH   8  33
ATOM     33  C   UNK d   0     -14.855   0.246  12.130  0.00  0.00     0.151 C 
BRANCH  33  34
ATOM     34  C   UNK d   0     -15.809   1.268  11.662  0.00  0.00     0.143 C 
ATOM     35  O   UNK d   0     -15.597   1.907  10.622  0.00  0.00    -0.650 OA
BRANCH  34  36
ATOM     36  O   UNK d   0     -16.948   1.515  12.394  0.00  0.00    -0.776 OA
ATOM     37  H   UNK d   0     -17.883   1.389  11.984  0.00  0.00     0.167 HD
ENDBRANCH  34  36
ENDBRANCH  33  34
ENDBRANCH   8  33
BRANCH  31  38
ATOM     38  C   UNK d   0     -11.192  -0.392  18.791  0.00  0.00     0.151 C 
BRANCH  38  39
ATOM     39  C   UNK d   0     -10.726  -1.377  17.839  0.00  0.00     0.143 C 
ATOM     40  O   UNK d   0     -11.292  -2.474  17.686  0.00  0.00    -0.650 OA
BRANCH  39  41
ATOM     41  O   UNK d   0      -9.603  -1.101  17.059  0.00  0.00    -0.776 OA
ATOM     42  H   UNK d   0      -9.146  -0.197  17.213  0.00  0.00     0.167 HD
ENDBRANCH  39  41
ENDBRANCH  38  39
ENDBRANCH  31  38
BRANCH  27  43
ATOM     43  C   UNK d   0      -9.098   1.649  19.772  0.00  0.00     0.052 C 
BRANCH  43  44
ATOM     44  C   UNK d   0      -7.717   1.470  19.231  0.00  0.00     0.115 C 
BRANCH  44  45
ATOM     45  C   UNK d   0      -6.839   2.395  19.995  0.00  0.00     0.139 C 
ATOM     46  O   UNK d   0      -6.398   3.413  19.406  0.00  0.00    -0.650 OA
BRANCH  45  47
ATOM     47  O   UNK d   0      -6.498   2.184  21.313  0.00  0.00    -0.776 OA
ATOM     48  H   UNK d   0      -7.177   1.864  22.023  0.00  0.00     0.167 HD
ENDBRANCH  45  47
ENDBRANCH  44  45
ENDBRANCH  43  44
ENDBRANCH  27  43
BRANCH  24  49
ATOM     49  C   UNK d   0      -7.270   6.687  18.383  0.00  0.00     0.052 C 
BRANCH  49  50
ATOM     50  C   UNK d   0      -8.025   7.839  18.996  0.00  0.00     0.115 C 
BRANCH  50  51
ATOM     51  C   UNK d   0      -7.241   8.976  19.459  0.00  0.00     0.139 C 
ATOM     52  O   UNK d   0      -7.539  10.162  19.180  0.00  0.00    -0.650 OA
BRANCH  51  53
ATOM     53  O   UNK d   0      -6.115   8.761  20.239  0.00  0.00    -0.776 OA
ATOM     54  H   UNK d   0      -5.237   9.129  19.918  0.00  0.00     0.167 HD
ENDBRANCH  51  53
ENDBRANCH  50  51
ENDBRANCH  49  50
ENDBRANCH  24  49
BRANCH  21  55
ATOM     55  C   UNK d   0      -6.968   7.650  15.463  0.00  0.00     0.151 C 
BRANCH  55  56
ATOM     56  C   UNK d   0      -7.653   8.952  15.431  0.00  0.00     0.143 C 
ATOM     57  O   UNK d   0      -8.693   9.152  14.773  0.00  0.00    -0.650 OA
BRANCH  56  58
ATOM     58  O   UNK d   0      -7.100   9.994  16.173  0.00  0.00    -0.776 OA
ATOM     59  H   UNK d   0      -6.123   9.840  16.481  0.00  0.00     0.167 HD
ENDBRANCH  56  58
ENDBRANCH  55  56
ENDBRANCH  21  55
BRANCH  18  60
ATOM     60  C   UNK d   0     -10.696   7.061  11.646  0.00  0.00     0.151 C 
BRANCH  60  61
ATOM     61  C   UNK d   0     -11.367   7.920  12.633  0.00  0.00     0.143 C 
ATOM     62  O   UNK d   0     -12.356   7.639  13.311  0.00  0.00    -0.650 OA
BRANCH  61  63
ATOM     63  O   UNK d   0     -10.795   9.204  12.801  0.00  0.00    -0.776 OA
ATOM     64  H   UNK d   0     -10.753   9.638  13.706  0.00  0.00     0.167 HD
ENDBRANCH  61  63
ENDBRANCH  60  61
ENDBRANCH  18  60
BRANCH  14  65
ATOM     65  C   UNK d   0     -12.670   5.011  10.591  0.00  0.00     0.052 C 
BRANCH  65  66
ATOM     66  C   UNK d   0     -12.095   4.640   9.271  0.00  0.00     0.115 C 
BRANCH  66  67
ATOM     67  C   UNK d   0     -12.592   3.485   8.578  0.00  0.00     0.139 C 
ATOM     68  O   UNK d   0     -12.154   2.326   8.923  0.00  0.00    -0.650 OA
BRANCH  67  69
ATOM     69  O   UNK d   0     -13.522   3.447   7.539  0.00  0.00    -0.776 OA
ATOM     70  H   UNK d   0     -14.414   3.931   7.719  0.00  0.00     0.167 HD
ENDBRANCH  67  69
ENDBRANCH  66  67
ENDBRANCH  65  66
ENDBRANCH  14  65
ENDBRANCH   6   7
ENDBRANCH   5   6
ENDBRANCH   2   5
TORSDOF 28
ENDMDL
MODEL 20
REMARK VINA RESULT:      -7.1      6.508     11.996
REMARK  28 active torsions:
REMARK  status: ('A' for Active; 'I' for Inactive)
REMARK    1  A    between atoms: C_2  and  O_3 
REMARK    2  A    between atoms: C_2  and  C_4 
REMARK    3  A    between atoms: C_4  and  C_5 
REMARK    4  A    between atoms: C_5  and  C_6 
REMARK    5  A    between atoms: C_7  and  C_8 
REMARK    6  A    between atoms: C_8  and  C_9 
REMARK    7  A    between atoms: C_9  and  O_11 
REMARK    8  A    between atoms: C_28  and  C_29 
REMARK    9  A    between atoms: C_29  and  C_30 
REMARK   10  A    between atoms: C_30  and  O_32 
REMARK   11  A    between atoms: C_33  and  C_34 
REMARK   12  A    between atoms: C_34  and  C_35 
REMARK   13  A    between atoms: C_35  and  C_36 
REMARK   14  A    between atoms: C_36  and  O_38 
REMARK   15  A    between atoms: C_39  and  C_40 
REMARK   16  A    between atoms: C_40  and  C_41 
REMARK   17  A    between atoms: C_41  and  C_42 
REMARK   18  A    between atoms: C_42  and  O_44 
REMARK   19  A    between atoms: C_45  and  C_46 
REMARK   20  A    between atoms: C_46  and  C_47 
REMARK   21  A    between atoms: C_47  and  O_49 
REMARK   22  A    between atoms: C_50  and  C_51 
REMARK   23  A    between atoms: C_51  and  C_52 
REMARK   24  A    between atoms: C_52  and  O_54 
REMARK   25  A    between atoms: C_55  and  C_56 
REMARK   26  A    between atoms: C_56  and  C_57 
REMARK   27  A    between atoms: C_57  and  C_58 
REMARK   28  A    between atoms: C_58  and  O_60 
ROOT
ATOM      1  O   UNK d   0     -37.078   2.940   8.776  0.00  0.00    -0.650 OA
ATOM      2  C   UNK d   0     -36.525   1.844   9.013  0.00  0.00     0.139 C 
ENDROOT
BRANCH   2   3
ATOM      3  O   UNK d   0     -37.247   0.840   9.613  0.00  0.00    -0.776 OA
ATOM      4  H   UNK d   0     -38.133   0.519   9.217  0.00  0.00     0.167 HD
ENDBRANCH   2   3
BRANCH   2   5
ATOM      5  C   UNK d   0     -35.095   1.632   8.648  0.00  0.00     0.115 C 
BRANCH   5   6
ATOM      6  C   UNK d   0     -34.955   0.397   7.799  0.00  0.00     0.052 C 
BRANCH   6   7
ATOM      7  C   UNK d   0     -34.528   0.710   6.385  0.00  0.00    -0.020 A 
ATOM      8  C   UNK d   0     -35.293   1.022   5.370  0.00  0.00    -0.011 A 
ATOM      9  C   UNK d   0     -34.436   1.226   4.214  0.00  0.00     0.067 A 
ATOM     10  C   UNK d   0     -34.619   1.588   2.870  0.00  0.00     0.062 C 
ATOM     11  N   UNK d   0     -33.165   1.013   4.614  0.00  0.00    -0.248 NA
ATOM     12  C   UNK d   0     -33.638   2.010   1.965  0.00  0.00     0.041 A 
ATOM     13  N   UNK d   0     -32.394   1.552   1.730  0.00  0.00    -0.355 N 
ATOM     14  C   UNK d   0     -33.894   3.133   1.159  0.00  0.00    -0.022 A 
ATOM     15  C   UNK d   0     -31.851   2.361   0.802  0.00  0.00     0.042 A 
ATOM     16  H   UNK d   0     -31.916   0.663   2.198  0.00  0.00     0.166 HD
ATOM     17  C   UNK d   0     -30.577   2.334   0.198  0.00  0.00     0.062 C 
ATOM     18  C   UNK d   0     -32.761   3.365   0.419  0.00  0.00    -0.013 A 
ATOM     19  C   UNK d   0     -29.350   2.150   0.782  0.00  0.00     0.067 A 
ATOM     20  N   UNK d   0     -29.340   1.748   2.056  0.00  0.00    -0.248 NA
ATOM     21  C   UNK d   0     -27.964   2.298   0.370  0.00  0.00    -0.011 A 
ATOM     22  C   UNK d   0     -28.049   1.623   2.506  0.00  0.00     0.066 A 
ATOM     23  C   UNK d   0     -27.892   1.174   3.809  0.00  0.00     0.062 C 
ATOM     24  C   UNK d   0     -27.208   1.992   1.384  0.00  0.00    -0.020 A 
ATOM     25  C   UNK d   0     -28.889   0.744   4.697  0.00  0.00     0.041 A 
ATOM     26  N   UNK d   0     -30.121   1.207   4.941  0.00  0.00    -0.355 N 
ATOM     27  C   UNK d   0     -28.633  -0.387   5.503  0.00  0.00    -0.022 A 
ATOM     28  C   UNK d   0     -30.661   0.407   5.874  0.00  0.00     0.042 A 
ATOM     29  H   UNK d   0     -30.596   2.107   4.479  0.00  0.00     0.166 HD
ATOM     30  C   UNK d   0     -31.923   0.428   6.489  0.00  0.00     0.062 C 
ATOM     31  C   UNK d   0     -29.750  -0.608   6.250  0.00  0.00    -0.013 A 
ATOM     32  C   UNK d   0     -33.152   0.699   5.910  0.00  0.00     0.066 A 
BRANCH   8  33
ATOM     33  C   UNK d   0     -36.762   1.144   5.374  0.00  0.00     0.151 C 
BRANCH  33  34
ATOM     34  C   UNK d   0     -37.221   2.525   5.136  0.00  0.00     0.143 C 
ATOM     35  O   UNK d   0     -38.022   2.781   4.226  0.00  0.00    -0.650 OA
BRANCH  34  36
ATOM     36  O   UNK d   0     -36.750   3.540   5.935  0.00  0.00    -0.776 OA
ATOM     37  H   UNK d   0     -36.076   4.232   5.579  0.00  0.00     0.167 HD
ENDBRANCH  34  36
ENDBRANCH  33  34
ENDBRANCH   8  33
BRANCH  31  38
ATOM     38  C   UNK d   0     -29.946  -1.721   7.252  0.00  0.00     0.151 C 
BRANCH  38  39
ATOM     39  C   UNK d   0     -30.014  -3.028   6.633  0.00  0.00     0.143 C 
ATOM     40  O   UNK d   0     -30.616  -3.228   5.564  0.00  0.00    -0.650 OA
BRANCH  39  41
ATOM     41  O   UNK d   0     -29.384  -4.111   7.246  0.00  0.00    -0.776 OA
ATOM     42  H   UNK d   0     -29.950  -4.668   7.893  0.00  0.00     0.167 HD
ENDBRANCH  39  41
ENDBRANCH  38  39
ENDBRANCH  31  38
BRANCH  27  43
ATOM     43  C   UNK d   0     -27.395  -1.244   5.588  0.00  0.00     0.052 C 
BRANCH  43  44
ATOM     44  C   UNK d   0     -26.298  -0.619   6.388  0.00  0.00     0.115 C 
BRANCH  44  45
ATOM     45  C   UNK d   0     -26.481  -1.078   7.789  0.00  0.00     0.139 C 
ATOM     46  O   UNK d   0     -26.669  -0.209   8.677  0.00  0.00    -0.650 OA
BRANCH  45  47
ATOM     47  O   UNK d   0     -26.457  -2.408   8.149  0.00  0.00    -0.776 OA
ATOM     48  H   UNK d   0     -26.383  -2.722   9.130  0.00  0.00     0.167 HD
ENDBRANCH  45  47
ENDBRANCH  44  45
ENDBRANCH  43  44
ENDBRANCH  27  43
BRANCH  24  49
ATOM     49  C   UNK d   0     -25.735   1.968   1.394  0.00  0.00     0.052 C 
BRANCH  49  50
ATOM     50  C   UNK d   0     -25.202   2.918   2.436  0.00  0.00     0.115 C 
BRANCH  50  51
ATOM     51  C   UNK d   0     -24.100   2.447   3.263  0.00  0.00     0.139 C 
ATOM     52  O   UNK d   0     -22.902   2.720   3.013  0.00  0.00    -0.650 OA
BRANCH  51  53
ATOM     53  O   UNK d   0     -24.363   1.662   4.375  0.00  0.00    -0.776 OA
ATOM     54  H   UNK d   0     -25.105   0.987   4.316  0.00  0.00     0.167 HD
ENDBRANCH  51  53
ENDBRANCH  50  51
ENDBRANCH  49  50
ENDBRANCH  24  49
BRANCH  21  55
ATOM     55  C   UNK d   0     -27.541   2.724  -0.997  0.00  0.00     0.151 C 
BRANCH  55  56
ATOM     56  C   UNK d   0     -27.632   1.626  -1.970  0.00  0.00     0.143 C 
ATOM     57  O   UNK d   0     -28.199   1.748  -3.074  0.00  0.00    -0.650 OA
BRANCH  56  58
ATOM     58  O   UNK d   0     -27.054   0.405  -1.628  0.00  0.00    -0.776 OA
ATOM     59  H   UNK d   0     -26.386   0.445  -0.837  0.00  0.00     0.167 HD
ENDBRANCH  56  58
ENDBRANCH  55  56
ENDBRANCH  21  55
BRANCH  18  60
ATOM     60  C   UNK d   0     -32.594   4.485  -0.578  0.00  0.00     0.151 C 
BRANCH  60  61
ATOM     61  C   UNK d   0     -31.700   5.463   0.060  0.00  0.00     0.143 C 
ATOM     62  O   UNK d   0     -31.852   6.003   1.157  0.00  0.00    -0.650 OA
BRANCH  61  63
ATOM     63  O   UNK d   0     -30.547   5.803  -0.688  0.00  0.00    -0.776 OA
ATOM     64  H   UNK d   0     -30.566   6.552  -1.358  0.00  0.00     0.167 HD
ENDBRANCH  61  63
ENDBRANCH  60  61
ENDBRANCH  18  60
BRANCH  14  65
ATOM     65  C   UNK d   0     -35.149   3.936   0.965  0.00  0.00     0.052 C 
BRANCH  65  66
ATOM     66  C   UNK d   0     -35.156   5.203   1.745  0.00  0.00     0.115 C 
BRANCH  66  67
ATOM     67  C   UNK d   0     -35.621   5.199   3.103  0.00  0.00     0.139 C 
ATOM     68  O   UNK d   0     -34.801   4.855   4.032  0.00  0.00    -0.650 OA
BRANCH  67  69
ATOM     69  O   UNK d   0     -36.892   5.531   3.571  0.00  0.00    -0.776 OA
ATOM     70  H   UNK d   0     -37.631   4.836   3.392  0.00  0.00     0.167 HD
ENDBRANCH  67  69
ENDBRANCH  66  67
ENDBRANCH  65  66
ENDBRANCH  14  65
ENDBRANCH   6   7
ENDBRANCH   5   6
ENDBRANCH   2   5
TORSDOF 28
ENDMDL
