MODEL 1
REMARK VINA RESULT:      -9.9      0.000      0.000
REMARK  16 active torsions:
REMARK  status: ('A' for Active; 'I' for Inactive)
REMARK    1  A    between atoms: C_6  and  C_7 
REMARK    2  A    between atoms: C_7  and  C_8 
REMARK    3  A    between atoms: C_8  and  C_9 
REMARK    4  A    between atoms: C_9  and  O_11 
REMARK    5  A    between atoms: C_16  and  C_17 
REMARK    6  A    between atoms: C_17  and  C_18 
REMARK    7  A    between atoms: C_18  and  C_19 
REMARK    8  A    between atoms: C_19  and  O_21 
REMARK    9  A    between atoms: C_28  and  C_29 
REMARK   10  A    between atoms: C_29  and  C_30 
REMARK   11  A    between atoms: C_30  and  C_31 
REMARK   12  A    between atoms: C_31  and  O_33 
REMARK   13  A    between atoms: C_42  and  C_43 
REMARK   14  A    between atoms: C_43  and  C_44 
REMARK   15  A    between atoms: C_44  and  C_45 
REMARK   16  A    between atoms: C_45  and  O_47 
ROOT
HETATM    1  C   UNK     0     -23.847 -25.908  19.303  0.00  0.00     0.051 C 
HETATM    2  C   UNK     0     -23.942 -24.778  20.308  0.00  0.00    -0.031 A 
HETATM    3  C   UNK     0     -23.788 -24.810  21.685  0.00  0.00     0.021 A 
HETATM    4  N   UNK     0     -23.991 -23.567  22.181  0.00  0.00    -0.361 N 
HETATM    5  C   UNK     0     -24.263 -22.741  21.149  0.00  0.00     0.022 A 
HETATM    6  C   UNK     0     -24.243 -23.467  19.963  0.00  0.00    -0.027 A 
HETATM    7  C   UNK     0     -24.470 -21.258  21.145  0.00  0.00     0.115 C 
HETATM    8  C   UNK     0     -23.526 -20.436  22.006  0.00  0.00     0.021 A 
HETATM    9  N   UNK     0     -22.224 -20.645  22.253  0.00  0.00    -0.361 N 
HETATM   10  C   UNK     0     -21.813 -19.719  23.145  0.00  0.00     0.022 A 
HETATM   11  C   UNK     0     -22.877 -18.884  23.473  0.00  0.00    -0.027 A 
HETATM   12  C   UNK     0     -23.959 -19.330  22.759  0.00  0.00    -0.031 A 
HETATM   13  C   UNK     0     -25.342 -18.720  22.794  0.00  0.00     0.051 C 
HETATM   14  C   UNK     0     -20.420 -19.616  23.761  0.00  0.00     0.115 C 
HETATM   15  C   UNK     0     -20.010 -20.841  24.563  0.00  0.00     0.021 A 
HETATM   16  N   UNK     0     -19.918 -22.112  24.131  0.00  0.00    -0.361 N 
HETATM   17  C   UNK     0     -19.595 -22.902  25.158  0.00  0.00     0.022 A 
HETATM   18  C   UNK     0     -19.459 -22.104  26.312  0.00  0.00    -0.027 A 
HETATM   19  C   UNK     0     -19.721 -20.815  25.926  0.00  0.00    -0.031 A 
HETATM   20  C   UNK     0     -19.649 -19.623  26.862  0.00  0.00     0.051 C 
HETATM   21  C   UNK     0     -19.442 -24.404  25.218  0.00  0.00     0.115 C 
HETATM   22  C   UNK     0     -20.344 -25.233  24.335  0.00  0.00     0.022 A 
HETATM   23  N   UNK     0     -21.643 -25.046  24.066  0.00  0.00    -0.361 N 
HETATM   24  C   UNK     0     -22.011 -25.931  23.118  0.00  0.00     0.021 A 
HETATM   25  C   UNK     0     -20.926 -26.714  22.775  0.00  0.00    -0.031 A 
HETATM   26  C   UNK     0     -20.853 -27.864  21.793  0.00  0.00     0.051 C 
HETATM   27  C   UNK     0     -19.847 -26.287  23.540  0.00  0.00    -0.027 A 
HETATM   28  C   UNK     0     -23.359 -26.045  22.426  0.00  0.00     0.115 C 
HETATM   29  H   UNK     0     -23.980 -23.289  23.261  0.00  0.00     0.165 HD
HETATM   30  H   UNK     0     -21.579 -21.415  21.763  0.00  0.00     0.165 HD
HETATM   31  H   UNK     0     -20.038 -22.455  23.070  0.00  0.00     0.165 HD
HETATM   32  H   UNK     0     -22.323 -24.315  24.576  0.00  0.00     0.165 HD
ENDROOT
BRANCH   6  33
HETATM   33  C   UNK     0     -24.487 -23.016  18.546  0.00  0.00     0.051 C 
BRANCH  33  34
HETATM   34  C   UNK     0     -23.375 -22.110  18.073  0.00  0.00     0.114 C 
BRANCH  34  35
HETATM   35  C   UNK     0     -22.351 -22.968  17.411  0.00  0.00     0.139 C 
HETATM   36  O   UNK     0     -22.662 -23.668  16.404  0.00  0.00    -0.650 OA
BRANCH  35  37
HETATM   37  O   UNK     0     -21.035 -23.040  17.852  0.00  0.00    -0.776 OA
HETATM   38  H   UNK     0     -20.492 -23.884  17.777  0.00  0.00     0.167 HD
ENDBRANCH  35  37
ENDBRANCH  34  35
ENDBRANCH  33  34
ENDBRANCH   6  33
BRANCH  27  39
HETATM   39  C   UNK     0     -18.513 -26.944  23.499  0.00  0.00     0.051 C 
BRANCH  39  40
HETATM   40  C   UNK     0     -18.097 -27.745  24.650  0.00  0.00     0.114 C 
BRANCH  40  41
HETATM   41  C   UNK     0     -17.247 -27.214  25.692  0.00  0.00     0.139 C 
HETATM   42  O   UNK     0     -17.343 -27.539  26.883  0.00  0.00    -0.650 OA
BRANCH  41  43
HETATM   43  O   UNK     0     -16.242 -26.267  25.348  0.00  0.00    -0.776 OA
HETATM   44  H   UNK     0     -16.469 -25.685  24.551  0.00  0.00     0.167 HD
ENDBRANCH  41  43
ENDBRANCH  40  41
ENDBRANCH  39  40
ENDBRANCH  27  39
BRANCH  11  45
HETATM   45  C   UNK     0     -22.897 -17.709  24.413  0.00  0.00     0.051 C 
BRANCH  45  46
HETATM   46  C   UNK     0     -22.653 -16.401  23.754  0.00  0.00     0.114 C 
BRANCH  46  47
HETATM   47  C   UNK     0     -22.861 -15.342  24.782  0.00  0.00     0.139 C 
HETATM   48  O   UNK     0     -22.914 -15.676  25.974  0.00  0.00    -0.650 OA
BRANCH  47  49
HETATM   49  O   UNK     0     -22.994 -14.025  24.419  0.00  0.00    -0.776 OA
HETATM   50  H   UNK     0     -22.545 -13.644  23.578  0.00  0.00     0.167 HD
ENDBRANCH  47  49
ENDBRANCH  46  47
ENDBRANCH  45  46
ENDBRANCH  11  45
BRANCH  18  51
HETATM   51  C   UNK     0     -19.081 -22.544  27.703  0.00  0.00     0.051 C 
BRANCH  51  52
HETATM   52  C   UNK     0     -17.575 -22.356  27.814  0.00  0.00     0.114 C 
BRANCH  52  53
HETATM   53  C   UNK     0     -16.842 -23.601  27.511  0.00  0.00     0.139 C 
HETATM   54  O   UNK     0     -15.820 -23.564  26.808  0.00  0.00    -0.650 OA
BRANCH  53  55
HETATM   55  O   UNK     0     -17.300 -24.797  28.007  0.00  0.00    -0.776 OA
HETATM   56  H   UNK     0     -17.180 -25.688  27.586  0.00  0.00     0.167 HD
ENDBRANCH  53  55
ENDBRANCH  52  53
ENDBRANCH  51  52
ENDBRANCH  18  51
TORSDOF 16
ENDMDL
MODEL 2
REMARK VINA RESULT:      -9.4      2.449      7.475
REMARK  16 active torsions:
REMARK  status: ('A' for Active; 'I' for Inactive)
REMARK    1  A    between atoms: C_6  and  C_7 
REMARK    2  A    between atoms: C_7  and  C_8 
REMARK    3  A    between atoms: C_8  and  C_9 
REMARK    4  A    between atoms: C_9  and  O_11 
REMARK    5  A    between atoms: C_16  and  C_17 
REMARK    6  A    between atoms: C_17  and  C_18 
REMARK    7  A    between atoms: C_18  and  C_19 
REMARK    8  A    between atoms: C_19  and  O_21 
REMARK    9  A    between atoms: C_28  and  C_29 
REMARK   10  A    between atoms: C_29  and  C_30 
REMARK   11  A    between atoms: C_30  and  C_31 
REMARK   12  A    between atoms: C_31  and  O_33 
REMARK   13  A    between atoms: C_42  and  C_43 
REMARK   14  A    between atoms: C_43  and  C_44 
REMARK   15  A    between atoms: C_44  and  C_45 
REMARK   16  A    between atoms: C_45  and  O_47 
ROOT
HETATM    1  C   UNK     0     -20.202 -16.219  27.038  0.00  0.00     0.051 C 
HETATM    2  C   UNK     0     -20.900 -16.697  25.782  0.00  0.00    -0.031 A 
HETATM    3  C   UNK     0     -20.486 -17.632  24.846  0.00  0.00     0.021 A 
HETATM    4  N   UNK     0     -21.417 -17.719  23.867  0.00  0.00    -0.361 N 
HETATM    5  C   UNK     0     -22.420 -16.867  24.162  0.00  0.00     0.022 A 
HETATM    6  C   UNK     0     -22.128 -16.208  25.352  0.00  0.00    -0.027 A 
HETATM    7  C   UNK     0     -23.723 -16.649  23.459  0.00  0.00     0.115 C 
HETATM    8  C   UNK     0     -24.456 -17.891  22.982  0.00  0.00     0.021 A 
HETATM    9  N   UNK     0     -24.528 -19.096  23.568  0.00  0.00    -0.361 N 
HETATM   10  C   UNK     0     -25.208 -19.922  22.746  0.00  0.00     0.022 A 
HETATM   11  C   UNK     0     -25.592 -19.228  21.602  0.00  0.00    -0.027 A 
HETATM   12  C   UNK     0     -25.122 -17.948  21.745  0.00  0.00    -0.031 A 
HETATM   13  C   UNK     0     -25.308 -16.831  20.742  0.00  0.00     0.051 C 
HETATM   14  C   UNK     0     -25.475 -21.407  22.979  0.00  0.00     0.115 C 
HETATM   15  C   UNK     0     -24.215 -22.249  23.089  0.00  0.00     0.021 A 
HETATM   16  N   UNK     0     -23.208 -22.111  23.972  0.00  0.00    -0.361 N 
HETATM   17  C   UNK     0     -22.254 -23.001  23.693  0.00  0.00     0.022 A 
HETATM   18  C   UNK     0     -22.662 -23.763  22.581  0.00  0.00    -0.027 A 
HETATM   19  C   UNK     0     -23.892 -23.283  22.212  0.00  0.00    -0.031 A 
HETATM   20  C   UNK     0     -24.713 -23.853  21.069  0.00  0.00     0.051 C 
HETATM   21  C   UNK     0     -20.901 -23.209  24.335  0.00  0.00     0.115 C 
HETATM   22  C   UNK     0     -20.180 -21.987  24.853  0.00  0.00     0.022 A 
HETATM   23  N   UNK     0     -20.095 -20.773  24.293  0.00  0.00    -0.361 N 
HETATM   24  C   UNK     0     -19.482 -19.947  25.164  0.00  0.00     0.021 A 
HETATM   25  C   UNK     0     -19.155 -20.647  26.309  0.00  0.00    -0.031 A 
HETATM   26  C   UNK     0     -18.426 -20.166  27.546  0.00  0.00     0.051 C 
HETATM   27  C   UNK     0     -19.592 -21.955  26.134  0.00  0.00    -0.027 A 
HETATM   28  C   UNK     0     -19.240 -18.454  25.016  0.00  0.00     0.115 C 
HETATM   29  H   UNK     0     -21.341 -18.354  22.954  0.00  0.00     0.165 HD
HETATM   30  H   UNK     0     -24.143 -19.353  24.586  0.00  0.00     0.165 HD
HETATM   31  H   UNK     0     -23.191 -21.402  24.841  0.00  0.00     0.165 HD
HETATM   32  H   UNK     0     -20.428 -20.499  23.258  0.00  0.00     0.165 HD
ENDROOT
BRANCH   6  33
HETATM   33  C   UNK     0     -22.914 -15.163  26.101  0.00  0.00     0.051 C 
BRANCH  33  34
HETATM   34  C   UNK     0     -23.629 -14.242  25.142  0.00  0.00     0.114 C 
BRANCH  34  35
HETATM   35  C   UNK     0     -24.840 -13.722  25.840  0.00  0.00     0.139 C 
HETATM   36  O   UNK     0     -24.792 -12.623  26.465  0.00  0.00    -0.650 OA
BRANCH  35  37
HETATM   37  O   UNK     0     -26.054 -14.398  25.839  0.00  0.00    -0.776 OA
HETATM   38  H   UNK     0     -26.381 -14.910  26.642  0.00  0.00     0.167 HD
ENDBRANCH  35  37
ENDBRANCH  34  35
ENDBRANCH  33  34
ENDBRANCH   6  33
BRANCH  27  39
HETATM   39  C   UNK     0     -19.352 -23.031  27.134  0.00  0.00     0.051 C 
BRANCH  39  40
HETATM   40  C   UNK     0     -20.373 -23.271  28.153  0.00  0.00     0.114 C 
BRANCH  40  41
HETATM   41  C   UNK     0     -20.036 -23.629  29.513  0.00  0.00     0.139 C 
HETATM   42  O   UNK     0     -20.098 -22.837  30.463  0.00  0.00    -0.650 OA
BRANCH  41  43
HETATM   43  O   UNK     0     -19.609 -24.958  29.792  0.00  0.00    -0.776 OA
HETATM   44  H   UNK     0     -20.174 -25.444  30.479  0.00  0.00     0.167 HD
ENDBRANCH  41  43
ENDBRANCH  40  41
ENDBRANCH  39  40
ENDBRANCH  27  39
BRANCH  11  45
HETATM   45  C   UNK     0     -26.371 -19.727  20.415  0.00  0.00     0.051 C 
BRANCH  45  46
HETATM   46  C   UNK     0     -25.644 -19.621  19.125  0.00  0.00     0.114 C 
BRANCH  46  47
HETATM   47  C   UNK     0     -24.990 -20.938  18.877  0.00  0.00     0.139 C 
HETATM   48  O   UNK     0     -25.675 -21.861  18.414  0.00  0.00    -0.650 OA
BRANCH  47  49
HETATM   49  O   UNK     0     -23.660 -21.126  19.155  0.00  0.00    -0.776 OA
HETATM   50  H   UNK     0     -22.922 -20.601  18.671  0.00  0.00     0.167 HD
ENDBRANCH  47  49
ENDBRANCH  46  47
ENDBRANCH  45  46
ENDBRANCH  11  45
BRANCH  18  51
HETATM   51  C   UNK     0     -21.929 -24.901  21.918  0.00  0.00     0.051 C 
BRANCH  51  52
HETATM   52  C   UNK     0     -22.341 -26.163  22.661  0.00  0.00     0.114 C 
BRANCH  52  53
HETATM   53  C   UNK     0     -21.188 -26.825  23.301  0.00  0.00     0.139 C 
HETATM   54  O   UNK     0     -20.036 -26.422  23.075  0.00  0.00    -0.650 OA
BRANCH  53  55
HETATM   55  O   UNK     0     -21.397 -27.890  24.143  0.00  0.00    -0.776 OA
HETATM   56  H   UNK     0     -21.329 -28.850  23.899  0.00  0.00     0.167 HD
ENDBRANCH  53  55
ENDBRANCH  52  53
ENDBRANCH  51  52
ENDBRANCH  18  51
TORSDOF 16
ENDMDL
MODEL 3
REMARK VINA RESULT:      -9.3      3.804      8.828
REMARK  16 active torsions:
REMARK  status: ('A' for Active; 'I' for Inactive)
REMARK    1  A    between atoms: C_6  and  C_7 
REMARK    2  A    between atoms: C_7  and  C_8 
REMARK    3  A    between atoms: C_8  and  C_9 
REMARK    4  A    between atoms: C_9  and  O_11 
REMARK    5  A    between atoms: C_16  and  C_17 
REMARK    6  A    between atoms: C_17  and  C_18 
REMARK    7  A    between atoms: C_18  and  C_19 
REMARK    8  A    between atoms: C_19  and  O_21 
REMARK    9  A    between atoms: C_28  and  C_29 
REMARK   10  A    between atoms: C_29  and  C_30 
REMARK   11  A    between atoms: C_30  and  C_31 
REMARK   12  A    between atoms: C_31  and  O_33 
REMARK   13  A    between atoms: C_42  and  C_43 
REMARK   14  A    between atoms: C_43  and  C_44 
REMARK   15  A    between atoms: C_44  and  C_45 
REMARK   16  A    between atoms: C_45  and  O_47 
ROOT
HETATM    1  C   UNK     0     -25.130 -20.751  17.327  0.00  0.00     0.051 C 
HETATM    2  C   UNK     0     -24.200 -21.947  17.320  0.00  0.00    -0.031 A 
HETATM    3  C   UNK     0     -23.113 -22.220  18.135  0.00  0.00     0.021 A 
HETATM    4  N   UNK     0     -22.555 -23.392  17.748  0.00  0.00    -0.361 N 
HETATM    5  C   UNK     0     -23.269 -23.876  16.711  0.00  0.00     0.022 A 
HETATM    6  C   UNK     0     -24.304 -22.995  16.415  0.00  0.00    -0.027 A 
HETATM    7  C   UNK     0     -23.129 -25.176  15.982  0.00  0.00     0.115 C 
HETATM    8  C   UNK     0     -22.876 -26.409  16.831  0.00  0.00     0.021 A 
HETATM    9  N   UNK     0     -23.357 -26.697  18.051  0.00  0.00    -0.361 N 
HETATM   10  C   UNK     0     -22.795 -27.854  18.460  0.00  0.00     0.022 A 
HETATM   11  C   UNK     0     -21.936 -28.329  17.474  0.00  0.00    -0.027 A 
HETATM   12  C   UNK     0     -21.982 -27.423  16.445  0.00  0.00    -0.031 A 
HETATM   13  C   UNK     0     -21.208 -27.531  15.150  0.00  0.00     0.051 C 
HETATM   14  C   UNK     0     -23.003 -28.528  19.813  0.00  0.00     0.115 C 
HETATM   15  C   UNK     0     -22.567 -27.681  20.997  0.00  0.00     0.021 A 
HETATM   16  N   UNK     0     -23.011 -26.457  21.340  0.00  0.00    -0.361 N 
HETATM   17  C   UNK     0     -22.328 -26.023  22.401  0.00  0.00     0.022 A 
HETATM   18  C   UNK     0     -21.401 -27.016  22.775  0.00  0.00    -0.027 A 
HETATM   19  C   UNK     0     -21.561 -28.049  21.888  0.00  0.00    -0.031 A 
HETATM   20  C   UNK     0     -20.776 -29.346  21.953  0.00  0.00     0.051 C 
HETATM   21  C   UNK     0     -22.393 -24.697  23.123  0.00  0.00     0.115 C 
HETATM   22  C   UNK     0     -22.688 -23.467  22.297  0.00  0.00     0.022 A 
HETATM   23  N   UNK     0     -22.226 -23.155  21.078  0.00  0.00    -0.361 N 
HETATM   24  C   UNK     0     -22.858 -22.041  20.658  0.00  0.00     0.021 A 
HETATM   25  C   UNK     0     -23.740 -21.618  21.634  0.00  0.00    -0.031 A 
HETATM   26  C   UNK     0     -24.640 -20.400  21.643  0.00  0.00     0.051 C 
HETATM   27  C   UNK     0     -23.649 -22.515  22.693  0.00  0.00    -0.027 A 
HETATM   28  C   UNK     0     -22.738 -21.358  19.307  0.00  0.00     0.115 C 
HETATM   29  H   UNK     0     -21.638 -23.849  18.185  0.00  0.00     0.165 HD
HETATM   30  H   UNK     0     -24.131 -26.112  18.604  0.00  0.00     0.165 HD
HETATM   31  H   UNK     0     -23.858 -25.907  20.852  0.00  0.00     0.165 HD
HETATM   32  H   UNK     0     -21.418 -23.696  20.521  0.00  0.00     0.165 HD
ENDROOT
BRANCH   6  33
HETATM   33  C   UNK     0     -25.369 -23.071  15.350  0.00  0.00     0.051 C 
BRANCH  33  34
HETATM   34  C   UNK     0     -25.081 -22.094  14.235  0.00  0.00     0.114 C 
BRANCH  34  35
HETATM   35  C   UNK     0     -23.882 -22.593  13.502  0.00  0.00     0.139 C 
HETATM   36  O   UNK     0     -23.932 -23.689  12.872  0.00  0.00    -0.650 OA
BRANCH  35  37
HETATM   37  O   UNK     0     -22.680 -21.898  13.472  0.00  0.00    -0.776 OA
HETATM   38  H   UNK     0     -22.025 -21.996  12.713  0.00  0.00     0.167 HD
ENDBRANCH  35  37
ENDBRANCH  34  35
ENDBRANCH  33  34
ENDBRANCH   6  33
BRANCH  27  39
HETATM   39  C   UNK     0     -24.403 -22.347  23.965  0.00  0.00     0.051 C 
BRANCH  39  40
HETATM   40  C   UNK     0     -25.466 -23.304  24.273  0.00  0.00     0.114 C 
BRANCH  40  41
HETATM   41  C   UNK     0     -26.612 -23.487  23.411  0.00  0.00     0.139 C 
HETATM   42  O   UNK     0     -26.768 -24.476  22.682  0.00  0.00    -0.650 OA
BRANCH  41  43
HETATM   43  O   UNK     0     -27.625 -22.487  23.387  0.00  0.00    -0.776 OA
HETATM   44  H   UNK     0     -27.295 -21.551  23.590  0.00  0.00     0.167 HD
ENDBRANCH  41  43
ENDBRANCH  40  41
ENDBRANCH  39  40
ENDBRANCH  27  39
BRANCH  11  45
HETATM   45  C   UNK     0     -21.099 -29.580  17.476  0.00  0.00     0.051 C 
BRANCH  45  46
HETATM   46  C   UNK     0     -21.807 -30.784  16.970  0.00  0.00     0.114 C 
BRANCH  46  47
HETATM   47  C   UNK     0     -20.933 -31.960  17.248  0.00  0.00     0.139 C 
HETATM   48  O   UNK     0     -20.008 -31.830  18.062  0.00  0.00    -0.650 OA
BRANCH  47  49
HETATM   49  O   UNK     0     -21.147 -33.159  16.617  0.00  0.00    -0.776 OA
HETATM   50  H   UNK     0     -21.133 -34.052  17.124  0.00  0.00     0.167 HD
ENDBRANCH  47  49
ENDBRANCH  46  47
ENDBRANCH  45  46
ENDBRANCH  11  45
BRANCH  18  51
HETATM   51  C   UNK     0     -20.429 -26.990  23.926  0.00  0.00     0.051 C 
BRANCH  51  52
HETATM   52  C   UNK     0     -19.197 -26.250  23.428  0.00  0.00     0.114 C 
BRANCH  52  53
HETATM   53  C   UNK     0     -17.960 -27.018  23.667  0.00  0.00     0.139 C 
HETATM   54  O   UNK     0     -18.021 -28.233  23.911  0.00  0.00    -0.650 OA
BRANCH  53  55
HETATM   55  O   UNK     0     -16.745 -26.380  23.622  0.00  0.00    -0.776 OA
HETATM   56  H   UNK     0     -16.279 -26.068  22.802  0.00  0.00     0.167 HD
ENDBRANCH  53  55
ENDBRANCH  52  53
ENDBRANCH  51  52
ENDBRANCH  18  51
TORSDOF 16
ENDMDL
MODEL 4
REMARK VINA RESULT:      -8.8      3.671      5.949
REMARK  16 active torsions:
REMARK  status: ('A' for Active; 'I' for Inactive)
REMARK    1  A    between atoms: C_6  and  C_7 
REMARK    2  A    between atoms: C_7  and  C_8 
REMARK    3  A    between atoms: C_8  and  C_9 
REMARK    4  A    between atoms: C_9  and  O_11 
REMARK    5  A    between atoms: C_16  and  C_17 
REMARK    6  A    between atoms: C_17  and  C_18 
REMARK    7  A    between atoms: C_18  and  C_19 
REMARK    8  A    between atoms: C_19  and  O_21 
REMARK    9  A    between atoms: C_28  and  C_29 
REMARK   10  A    between atoms: C_29  and  C_30 
REMARK   11  A    between atoms: C_30  and  C_31 
REMARK   12  A    between atoms: C_31  and  O_33 
REMARK   13  A    between atoms: C_42  and  C_43 
REMARK   14  A    between atoms: C_43  and  C_44 
REMARK   15  A    between atoms: C_44  and  C_45 
REMARK   16  A    between atoms: C_45  and  O_47 
ROOT
HETATM    1  C   UNK     0     -21.264 -29.337  17.021  0.00  0.00     0.051 C 
HETATM    2  C   UNK     0     -22.121 -28.096  17.166  0.00  0.00    -0.031 A 
HETATM    3  C   UNK     0     -22.972 -27.730  18.197  0.00  0.00     0.021 A 
HETATM    4  N   UNK     0     -23.559 -26.550  17.888  0.00  0.00    -0.361 N 
HETATM    5  C   UNK     0     -23.093 -26.150  16.686  0.00  0.00     0.022 A 
HETATM    6  C   UNK     0     -22.194 -27.096  16.205  0.00  0.00    -0.027 A 
HETATM    7  C   UNK     0     -23.351 -24.878  15.940  0.00  0.00     0.115 C 
HETATM    8  C   UNK     0     -23.345 -23.597  16.755  0.00  0.00     0.021 A 
HETATM    9  N   UNK     0     -22.578 -23.280  17.809  0.00  0.00    -0.361 N 
HETATM   10  C   UNK     0     -22.980 -22.078  18.274  0.00  0.00     0.022 A 
HETATM   11  C   UNK     0     -24.029 -21.604  17.493  0.00  0.00    -0.027 A 
HETATM   12  C   UNK     0     -24.265 -22.556  16.534  0.00  0.00    -0.031 A 
HETATM   13  C   UNK     0     -25.319 -22.467  15.453  0.00  0.00     0.051 C 
HETATM   14  C   UNK     0     -22.429 -21.356  19.501  0.00  0.00     0.115 C 
HETATM   15  C   UNK     0     -22.605 -22.127  20.800  0.00  0.00     0.021 A 
HETATM   16  N   UNK     0     -22.141 -23.355  21.095  0.00  0.00    -0.361 N 
HETATM   17  C   UNK     0     -22.569 -23.705  22.310  0.00  0.00     0.022 A 
HETATM   18  C   UNK     0     -23.342 -22.650  22.835  0.00  0.00    -0.027 A 
HETATM   19  C   UNK     0     -23.355 -21.667  21.880  0.00  0.00    -0.031 A 
HETATM   20  C   UNK     0     -24.051 -20.329  22.056  0.00  0.00     0.051 C 
HETATM   21  C   UNK     0     -22.388 -25.000  23.069  0.00  0.00     0.115 C 
HETATM   22  C   UNK     0     -22.347 -26.279  22.266  0.00  0.00     0.022 A 
HETATM   23  N   UNK     0     -23.097 -26.620  21.210  0.00  0.00    -0.361 N 
HETATM   24  C   UNK     0     -22.627 -27.783  20.716  0.00  0.00     0.021 A 
HETATM   25  C   UNK     0     -21.556 -28.207  21.479  0.00  0.00    -0.031 A 
HETATM   26  C   UNK     0     -20.729 -29.468  21.343  0.00  0.00     0.051 C 
HETATM   27  C   UNK     0     -21.358 -27.261  22.478  0.00  0.00    -0.027 A 
HETATM   28  C   UNK     0     -23.092 -28.519  19.471  0.00  0.00     0.115 C 
HETATM   29  H   UNK     0     -24.328 -26.026  18.502  0.00  0.00     0.165 HD
HETATM   30  H   UNK     0     -21.718 -23.879  18.197  0.00  0.00     0.165 HD
HETATM   31  H   UNK     0     -21.458 -23.970  20.453  0.00  0.00     0.165 HD
HETATM   32  H   UNK     0     -23.992 -26.064  20.829  0.00  0.00     0.165 HD
ENDROOT
BRANCH   6  33
HETATM   33  C   UNK     0     -21.410 -27.122  14.917  0.00  0.00     0.051 C 
BRANCH  33  34
HETATM   34  C   UNK     0     -22.259 -27.651  13.785  0.00  0.00     0.114 C 
BRANCH  34  35
HETATM   35  C   UNK     0     -22.376 -26.566  12.770  0.00  0.00     0.139 C 
HETATM   36  O   UNK     0     -23.514 -26.204  12.353  0.00  0.00    -0.650 OA
BRANCH  35  37
HETATM   37  O   UNK     0     -21.270 -25.910  12.243  0.00  0.00    -0.776 OA
HETATM   38  H   UNK     0     -21.264 -25.539  11.307  0.00  0.00     0.167 HD
ENDBRANCH  35  37
ENDBRANCH  34  35
ENDBRANCH  33  34
ENDBRANCH   6  33
BRANCH  27  39
HETATM   39  C   UNK     0     -20.330 -27.410  23.544  0.00  0.00     0.051 C 
BRANCH  39  40
HETATM   40  C   UNK     0     -19.136 -26.568  23.480  0.00  0.00     0.114 C 
BRANCH  40  41
HETATM   41  C   UNK     0     -17.869 -27.064  22.992  0.00  0.00     0.139 C 
HETATM   42  O   UNK     0     -17.749 -28.111  22.342  0.00  0.00    -0.650 OA
BRANCH  41  43
HETATM   43  O   UNK     0     -16.685 -26.321  23.265  0.00  0.00    -0.776 OA
HETATM   44  H   UNK     0     -16.834 -25.479  23.808  0.00  0.00     0.167 HD
ENDBRANCH  41  43
ENDBRANCH  40  41
ENDBRANCH  39  40
ENDBRANCH  27  39
BRANCH  11  45
HETATM   45  C   UNK     0     -24.791 -20.313  17.622  0.00  0.00     0.051 C 
BRANCH  45  46
HETATM   46  C   UNK     0     -25.998 -20.404  18.484  0.00  0.00     0.114 C 
BRANCH  46  47
HETATM   47  C   UNK     0     -26.100 -19.123  19.239  0.00  0.00     0.139 C 
HETATM   48  O   UNK     0     -25.128 -18.354  19.235  0.00  0.00    -0.650 OA
BRANCH  47  49
HETATM   49  O   UNK     0     -27.243 -18.801  19.926  0.00  0.00    -0.776 OA
HETATM   50  H   UNK     0     -27.221 -18.256  20.796  0.00  0.00     0.167 HD
ENDBRANCH  47  49
ENDBRANCH  46  47
ENDBRANCH  45  46
ENDBRANCH  11  45
BRANCH  18  51
HETATM   51  C   UNK     0     -24.012 -22.574  24.183  0.00  0.00     0.051 C 
BRANCH  51  52
HETATM   52  C   UNK     0     -25.392 -23.189  24.007  0.00  0.00     0.114 C 
BRANCH  52  53
HETATM   53  C   UNK     0     -26.464 -22.188  24.167  0.00  0.00     0.139 C 
HETATM   54  O   UNK     0     -26.362 -21.300  25.028  0.00  0.00    -0.650 OA
BRANCH  53  55
HETATM   55  O   UNK     0     -27.575 -22.247  23.361  0.00  0.00    -0.776 OA
HETATM   56  H   UNK     0     -28.066 -21.470  22.985  0.00  0.00     0.167 HD
ENDBRANCH  53  55
ENDBRANCH  52  53
ENDBRANCH  51  52
ENDBRANCH  18  51
TORSDOF 16
ENDMDL
MODEL 5
REMARK VINA RESULT:      -8.8      2.338      7.232
REMARK  16 active torsions:
REMARK  status: ('A' for Active; 'I' for Inactive)
REMARK    1  A    between atoms: C_6  and  C_7 
REMARK    2  A    between atoms: C_7  and  C_8 
REMARK    3  A    between atoms: C_8  and  C_9 
REMARK    4  A    between atoms: C_9  and  O_11 
REMARK    5  A    between atoms: C_16  and  C_17 
REMARK    6  A    between atoms: C_17  and  C_18 
REMARK    7  A    between atoms: C_18  and  C_19 
REMARK    8  A    between atoms: C_19  and  O_21 
REMARK    9  A    between atoms: C_28  and  C_29 
REMARK   10  A    between atoms: C_29  and  C_30 
REMARK   11  A    between atoms: C_30  and  C_31 
REMARK   12  A    between atoms: C_31  and  O_33 
REMARK   13  A    between atoms: C_42  and  C_43 
REMARK   14  A    between atoms: C_43  and  C_44 
REMARK   15  A    between atoms: C_44  and  C_45 
REMARK   16  A    between atoms: C_45  and  O_47 
ROOT
HETATM    1  C   UNK     0     -22.775 -18.357  24.647  0.00  0.00     0.051 C 
HETATM    2  C   UNK     0     -22.619 -19.424  23.583  0.00  0.00    -0.031 A 
HETATM    3  C   UNK     0     -21.504 -20.177  23.249  0.00  0.00     0.021 A 
HETATM    4  N   UNK     0     -21.816 -20.990  22.212  0.00  0.00    -0.361 N 
HETATM    5  C   UNK     0     -23.106 -20.778  21.883  0.00  0.00     0.022 A 
HETATM    6  C   UNK     0     -23.639 -19.802  22.719  0.00  0.00    -0.027 A 
HETATM    7  C   UNK     0     -23.960 -21.481  20.874  0.00  0.00     0.115 C 
HETATM    8  C   UNK     0     -23.831 -22.993  20.808  0.00  0.00     0.021 A 
HETATM    9  N   UNK     0     -23.624 -23.859  21.812  0.00  0.00    -0.361 N 
HETATM   10  C   UNK     0     -23.485 -25.092  21.279  0.00  0.00     0.022 A 
HETATM   11  C   UNK     0     -23.616 -25.019  19.896  0.00  0.00    -0.027 A 
HETATM   12  C   UNK     0     -23.834 -23.699  19.592  0.00  0.00    -0.031 A 
HETATM   13  C   UNK     0     -24.042 -23.145  18.200  0.00  0.00     0.051 C 
HETATM   14  C   UNK     0     -23.171 -26.374  22.045  0.00  0.00     0.115 C 
HETATM   15  C   UNK     0     -21.843 -26.340  22.785  0.00  0.00     0.021 A 
HETATM   16  N   UNK     0     -21.454 -25.468  23.734  0.00  0.00    -0.361 N 
HETATM   17  C   UNK     0     -20.193 -25.733  24.082  0.00  0.00     0.022 A 
HETATM   18  C   UNK     0     -19.742 -26.837  23.331  0.00  0.00    -0.027 A 
HETATM   19  C   UNK     0     -20.785 -27.208  22.523  0.00  0.00    -0.031 A 
HETATM   20  C   UNK     0     -20.736 -28.388  21.570  0.00  0.00     0.051 C 
HETATM   21  C   UNK     0     -19.278 -25.010  25.044  0.00  0.00     0.115 C 
HETATM   22  C   UNK     0     -19.425 -23.510  25.153  0.00  0.00     0.022 A 
HETATM   23  N   UNK     0     -19.636 -22.624  24.171  0.00  0.00    -0.361 N 
HETATM   24  C   UNK     0     -19.849 -21.416  24.730  0.00  0.00     0.021 A 
HETATM   25  C   UNK     0     -19.763 -21.525  26.105  0.00  0.00    -0.031 A 
HETATM   26  C   UNK     0     -19.887 -20.442  27.157  0.00  0.00     0.051 C 
HETATM   27  C   UNK     0     -19.492 -22.856  26.399  0.00  0.00    -0.027 A 
HETATM   28  C   UNK     0     -20.222 -20.120  24.030  0.00  0.00     0.115 C 
HETATM   29  H   UNK     0     -21.110 -21.680  21.694  0.00  0.00     0.165 HD
HETATM   30  H   UNK     0     -23.625 -23.611  22.901  0.00  0.00     0.165 HD
HETATM   31  H   UNK     0     -22.098 -24.679  24.203  0.00  0.00     0.165 HD
HETATM   32  H   UNK     0     -19.594 -22.835  23.071  0.00  0.00     0.165 HD
ENDROOT
BRANCH   6  33
HETATM   33  C   UNK     0     -25.024 -19.208  22.758  0.00  0.00     0.051 C 
BRANCH  33  34
HETATM   34  C   UNK     0     -25.873 -19.895  23.801  0.00  0.00     0.114 C 
BRANCH  34  35
HETATM   35  C   UNK     0     -27.132 -20.334  23.134  0.00  0.00     0.139 C 
HETATM   36  O   UNK     0     -27.698 -19.584  22.285  0.00  0.00    -0.650 OA
BRANCH  35  37
HETATM   37  O   UNK     0     -27.734 -21.558  23.399  0.00  0.00    -0.776 OA
HETATM   38  H   UNK     0     -28.623 -21.814  23.001  0.00  0.00     0.167 HD
ENDBRANCH  35  37
ENDBRANCH  34  35
ENDBRANCH  33  34
ENDBRANCH   6  33
BRANCH  27  39
HETATM   39  C   UNK     0     -19.258 -23.349  27.784  0.00  0.00     0.051 C 
BRANCH  39  40
HETATM   40  C   UNK     0     -17.900 -23.281  28.325  0.00  0.00     0.114 C 
BRANCH  40  41
HETATM   41  C   UNK     0     -16.765 -23.845  27.629  0.00  0.00     0.139 C 
HETATM   42  O   UNK     0     -16.514 -25.057  27.601  0.00  0.00    -0.650 OA
BRANCH  41  43
HETATM   43  O   UNK     0     -15.878 -22.974  26.935  0.00  0.00    -0.776 OA
HETATM   44  H   UNK     0     -16.237 -22.623  26.056  0.00  0.00     0.167 HD
ENDBRANCH  41  43
ENDBRANCH  40  41
ENDBRANCH  39  40
ENDBRANCH  27  39
BRANCH  11  45
HETATM   45  C   UNK     0     -23.544 -26.130  18.883  0.00  0.00     0.051 C 
BRANCH  45  46
HETATM   46  C   UNK     0     -23.779 -27.482  19.450  0.00  0.00     0.114 C 
BRANCH  46  47
HETATM   47  C   UNK     0     -23.563 -28.466  18.350  0.00  0.00     0.139 C 
HETATM   48  O   UNK     0     -24.400 -29.364  18.186  0.00  0.00    -0.650 OA
BRANCH  47  49
HETATM   49  O   UNK     0     -22.460 -28.381  17.538  0.00  0.00    -0.776 OA
HETATM   50  H   UNK     0     -22.415 -28.856  16.629  0.00  0.00     0.167 HD
ENDBRANCH  47  49
ENDBRANCH  46  47
ENDBRANCH  45  46
ENDBRANCH  11  45
BRANCH  18  51
HETATM   51  C   UNK     0     -18.397 -27.514  23.395  0.00  0.00     0.051 C 
BRANCH  51  52
HETATM   52  C   UNK     0     -17.406 -26.553  22.755  0.00  0.00     0.114 C 
BRANCH  52  53
HETATM   53  C   UNK     0     -16.703 -27.169  21.613  0.00  0.00     0.139 C 
HETATM   54  O   UNK     0     -15.521 -26.871  21.377  0.00  0.00    -0.650 OA
BRANCH  53  55
HETATM   55  O   UNK     0     -17.363 -28.070  20.813  0.00  0.00    -0.776 OA
HETATM   56  H   UNK     0     -18.188 -27.891  20.290  0.00  0.00     0.167 HD
ENDBRANCH  53  55
ENDBRANCH  52  53
ENDBRANCH  51  52
ENDBRANCH  18  51
TORSDOF 16
ENDMDL
MODEL 6
REMARK VINA RESULT:      -8.5      1.728      7.096
REMARK  16 active torsions:
REMARK  status: ('A' for Active; 'I' for Inactive)
REMARK    1  A    between atoms: C_6  and  C_7 
REMARK    2  A    between atoms: C_7  and  C_8 
REMARK    3  A    between atoms: C_8  and  C_9 
REMARK    4  A    between atoms: C_9  and  O_11 
REMARK    5  A    between atoms: C_16  and  C_17 
REMARK    6  A    between atoms: C_17  and  C_18 
REMARK    7  A    between atoms: C_18  and  C_19 
REMARK    8  A    between atoms: C_19  and  O_21 
REMARK    9  A    between atoms: C_28  and  C_29 
REMARK   10  A    between atoms: C_29  and  C_30 
REMARK   11  A    between atoms: C_30  and  C_31 
REMARK   12  A    between atoms: C_31  and  O_33 
REMARK   13  A    between atoms: C_42  and  C_43 
REMARK   14  A    between atoms: C_43  and  C_44 
REMARK   15  A    between atoms: C_44  and  C_45 
REMARK   16  A    between atoms: C_45  and  O_47 
ROOT
HETATM    1  C   UNK     0     -21.963 -16.055  25.931  0.00  0.00     0.051 C 
HETATM    2  C   UNK     0     -22.185 -17.077  24.835  0.00  0.00    -0.031 A 
HETATM    3  C   UNK     0     -21.280 -17.948  24.248  0.00  0.00     0.021 A 
HETATM    4  N   UNK     0     -21.913 -18.659  23.285  0.00  0.00    -0.361 N 
HETATM    5  C   UNK     0     -23.203 -18.266  23.251  0.00  0.00     0.022 A 
HETATM    6  C   UNK     0     -23.407 -17.275  24.206  0.00  0.00    -0.027 A 
HETATM    7  C   UNK     0     -24.340 -18.800  22.437  0.00  0.00     0.115 C 
HETATM    8  C   UNK     0     -24.436 -20.310  22.309  0.00  0.00     0.021 A 
HETATM    9  N   UNK     0     -24.139 -21.247  23.223  0.00  0.00    -0.361 N 
HETATM   10  C   UNK     0     -24.286 -22.458  22.645  0.00  0.00     0.022 A 
HETATM   11  C   UNK     0     -24.698 -22.297  21.325  0.00  0.00    -0.027 A 
HETATM   12  C   UNK     0     -24.795 -20.947  21.107  0.00  0.00    -0.031 A 
HETATM   13  C   UNK     0     -25.216 -20.299  19.807  0.00  0.00     0.051 C 
HETATM   14  C   UNK     0     -23.995 -23.808  23.294  0.00  0.00     0.115 C 
HETATM   15  C   UNK     0     -22.548 -23.984  23.727  0.00  0.00     0.021 A 
HETATM   16  N   UNK     0     -21.850 -23.220  24.588  0.00  0.00    -0.361 N 
HETATM   17  C   UNK     0     -20.592 -23.662  24.646  0.00  0.00     0.022 A 
HETATM   18  C   UNK     0     -20.467 -24.773  23.789  0.00  0.00    -0.027 A 
HETATM   19  C   UNK     0     -21.699 -24.965  23.221  0.00  0.00    -0.031 A 
HETATM   20  C   UNK     0     -22.015 -26.090  22.252  0.00  0.00     0.051 C 
HETATM   21  C   UNK     0     -19.403 -23.113  25.401  0.00  0.00     0.115 C 
HETATM   22  C   UNK     0     -19.317 -21.615  25.574  0.00  0.00     0.022 A 
HETATM   23  N   UNK     0     -19.610 -20.658  24.683  0.00  0.00    -0.361 N 
HETATM   24  C   UNK     0     -19.532 -19.464  25.303  0.00  0.00     0.021 A 
HETATM   25  C   UNK     0     -19.170 -19.654  26.623  0.00  0.00    -0.031 A 
HETATM   26  C   UNK     0     -18.919 -18.621  27.701  0.00  0.00     0.051 C 
HETATM   27  C   UNK     0     -19.027 -21.023  26.820  0.00  0.00    -0.027 A 
HETATM   28  C   UNK     0     -19.865 -18.096  24.731  0.00  0.00     0.115 C 
HETATM   29  H   UNK     0     -21.435 -19.405  22.609  0.00  0.00     0.165 HD
HETATM   30  H   UNK     0     -23.874 -21.059  24.292  0.00  0.00     0.165 HD
HETATM   31  H   UNK     0     -22.265 -22.380  25.204  0.00  0.00     0.165 HD
HETATM   32  H   UNK     0     -19.833 -20.815  23.595  0.00  0.00     0.165 HD
ENDROOT
BRANCH   6  33
HETATM   33  C   UNK     0     -24.658 -16.511  24.559  0.00  0.00     0.051 C 
BRANCH  33  34
HETATM   34  C   UNK     0     -24.686 -15.175  23.854  0.00  0.00     0.114 C 
BRANCH  34  35
HETATM   35  C   UNK     0     -25.841 -14.407  24.400  0.00  0.00     0.139 C 
HETATM   36  O   UNK     0     -26.378 -13.489  23.712  0.00  0.00    -0.650 OA
BRANCH  35  37
HETATM   37  O   UNK     0     -26.378 -14.653  25.658  0.00  0.00    -0.776 OA
HETATM   38  H   UNK     0     -26.390 -15.575  26.063  0.00  0.00     0.167 HD
ENDBRANCH  35  37
ENDBRANCH  34  35
ENDBRANCH  33  34
ENDBRANCH   6  33
BRANCH  27  39
HETATM   39  C   UNK     0     -18.572 -21.613  28.109  0.00  0.00     0.051 C 
BRANCH  39  40
HETATM   40  C   UNK     0     -19.584 -22.118  29.036  0.00  0.00     0.114 C 
BRANCH  40  41
HETATM   41  C   UNK     0     -20.106 -23.464  28.949  0.00  0.00     0.139 C 
HETATM   42  O   UNK     0     -21.312 -23.736  29.028  0.00  0.00    -0.650 OA
BRANCH  41  43
HETATM   43  O   UNK     0     -19.200 -24.545  28.763  0.00  0.00    -0.776 OA
HETATM   44  H   UNK     0     -18.368 -24.499  29.340  0.00  0.00     0.167 HD
ENDBRANCH  41  43
ENDBRANCH  40  41
ENDBRANCH  39  40
ENDBRANCH  27  39
BRANCH  11  45
HETATM   45  C   UNK     0     -24.997 -23.354  20.296  0.00  0.00     0.051 C 
BRANCH  45  46
HETATM   46  C   UNK     0     -23.792 -24.045  19.769  0.00  0.00     0.114 C 
BRANCH  46  47
HETATM   47  C   UNK     0     -23.281 -23.232  18.629  0.00  0.00     0.139 C 
HETATM   48  O   UNK     0     -22.104 -22.845  18.658  0.00  0.00    -0.650 OA
BRANCH  47  49
HETATM   49  O   UNK     0     -24.094 -22.918  17.570  0.00  0.00    -0.776 OA
HETATM   50  H   UNK     0     -24.368 -23.614  16.866  0.00  0.00     0.167 HD
ENDBRANCH  47  49
ENDBRANCH  46  47
ENDBRANCH  45  46
ENDBRANCH  11  45
BRANCH  18  51
HETATM   51  C   UNK     0     -19.244 -25.619  23.542  0.00  0.00     0.051 C 
BRANCH  51  52
HETATM   52  C   UNK     0     -19.214 -26.659  24.653  0.00  0.00     0.114 C 
BRANCH  52  53
HETATM   53  C   UNK     0     -17.987 -26.560  25.466  0.00  0.00     0.139 C 
HETATM   54  O   UNK     0     -18.050 -26.165  26.641  0.00  0.00    -0.650 OA
BRANCH  53  55
HETATM   55  O   UNK     0     -16.777 -26.903  24.913  0.00  0.00    -0.776 OA
HETATM   56  H   UNK     0     -16.081 -26.271  24.594  0.00  0.00     0.167 HD
ENDBRANCH  53  55
ENDBRANCH  52  53
ENDBRANCH  51  52
ENDBRANCH  18  51
TORSDOF 16
ENDMDL
MODEL 7
REMARK VINA RESULT:      -8.5     29.164     32.829
REMARK  16 active torsions:
REMARK  status: ('A' for Active; 'I' for Inactive)
REMARK    1  A    between atoms: C_6  and  C_7 
REMARK    2  A    between atoms: C_7  and  C_8 
REMARK    3  A    between atoms: C_8  and  C_9 
REMARK    4  A    between atoms: C_9  and  O_11 
REMARK    5  A    between atoms: C_16  and  C_17 
REMARK    6  A    between atoms: C_17  and  C_18 
REMARK    7  A    between atoms: C_18  and  C_19 
REMARK    8  A    between atoms: C_19  and  O_21 
REMARK    9  A    between atoms: C_28  and  C_29 
REMARK   10  A    between atoms: C_29  and  C_30 
REMARK   11  A    between atoms: C_30  and  C_31 
REMARK   12  A    between atoms: C_31  and  O_33 
REMARK   13  A    between atoms: C_42  and  C_43 
REMARK   14  A    between atoms: C_43  and  C_44 
REMARK   15  A    between atoms: C_44  and  C_45 
REMARK   16  A    between atoms: C_45  and  O_47 
ROOT
HETATM    1  C   UNK     0       6.828 -11.271  22.498  0.00  0.00     0.051 C 
HETATM    2  C   UNK     0       7.188 -12.456  21.625  0.00  0.00    -0.031 A 
HETATM    3  C   UNK     0       6.541 -12.952  20.504  0.00  0.00     0.021 A 
HETATM    4  N   UNK     0       7.201 -14.048  20.062  0.00  0.00    -0.361 N 
HETATM    5  C   UNK     0       8.260 -14.258  20.872  0.00  0.00     0.022 A 
HETATM    6  C   UNK     0       8.280 -13.281  21.863  0.00  0.00    -0.027 A 
HETATM    7  C   UNK     0       9.353 -15.275  20.766  0.00  0.00     0.115 C 
HETATM    8  C   UNK     0       9.925 -15.518  19.381  0.00  0.00     0.021 A 
HETATM    9  N   UNK     0      10.120 -14.635  18.389  0.00  0.00    -0.361 N 
HETATM   10  C   UNK     0      10.562 -15.311  17.307  0.00  0.00     0.022 A 
HETATM   11  C   UNK     0      10.665 -16.665  17.614  0.00  0.00    -0.027 A 
HETATM   12  C   UNK     0      10.265 -16.802  18.918  0.00  0.00    -0.031 A 
HETATM   13  C   UNK     0      10.217 -18.105  19.685  0.00  0.00     0.051 C 
HETATM   14  C   UNK     0      10.854 -14.718  15.932  0.00  0.00     0.115 C 
HETATM   15  C   UNK     0       9.646 -14.076  15.269  0.00  0.00     0.021 A 
HETATM   16  N   UNK     0       8.890 -13.066  15.740  0.00  0.00    -0.361 N 
HETATM   17  C   UNK     0       7.882 -12.841  14.894  0.00  0.00     0.022 A 
HETATM   18  C   UNK     0       7.991 -13.742  13.816  0.00  0.00    -0.027 A 
HETATM   19  C   UNK     0       9.101 -14.509  14.062  0.00  0.00    -0.031 A 
HETATM   20  C   UNK     0       9.605 -15.589  13.123  0.00  0.00     0.051 C 
HETATM   21  C   UNK     0       6.725 -11.873  14.996  0.00  0.00     0.115 C 
HETATM   22  C   UNK     0       6.175 -11.588  16.374  0.00  0.00     0.022 A 
HETATM   23  N   UNK     0       5.974 -12.446  17.382  0.00  0.00    -0.361 N 
HETATM   24  C   UNK     0       5.608 -11.742  18.472  0.00  0.00     0.021 A 
HETATM   25  C   UNK     0       5.562 -10.398  18.155  0.00  0.00    -0.031 A 
HETATM   26  C   UNK     0       5.167  -9.225  19.028  0.00  0.00     0.051 C 
HETATM   27  C   UNK     0       5.920 -10.274  16.817  0.00  0.00    -0.027 A 
HETATM   28  C   UNK     0       5.362 -12.264  19.877  0.00  0.00     0.115 C 
HETATM   29  H   UNK     0       6.892 -14.690  19.205  0.00  0.00     0.165 HD
HETATM   30  H   UNK     0       9.993 -13.528  18.465  0.00  0.00     0.165 HD
HETATM   31  H   UNK     0       9.099 -12.467  16.664  0.00  0.00     0.165 HD
HETATM   32  H   UNK     0       6.047 -13.563  17.322  0.00  0.00     0.165 HD
ENDROOT
BRANCH   6  33
HETATM   33  C   UNK     0       9.244 -13.077  23.004  0.00  0.00     0.051 C 
BRANCH  33  34
HETATM   34  C   UNK     0       9.093 -14.172  24.034  0.00  0.00     0.114 C 
BRANCH  34  35
HETATM   35  C   UNK     0      10.148 -13.962  25.066  0.00  0.00     0.139 C 
HETATM   36  O   UNK     0      11.350 -13.767  24.719  0.00  0.00    -0.650 OA
BRANCH  35  37
HETATM   37  O   UNK     0       9.875 -13.965  26.429  0.00  0.00    -0.776 OA
HETATM   38  H   UNK     0       9.310 -14.680  26.858  0.00  0.00     0.167 HD
ENDBRANCH  35  37
ENDBRANCH  34  35
ENDBRANCH  33  34
ENDBRANCH   6  33
BRANCH  27  39
HETATM   39  C   UNK     0       5.916  -8.974  16.094  0.00  0.00     0.051 C 
BRANCH  39  40
HETATM   40  C   UNK     0       7.115  -8.138  16.161  0.00  0.00     0.114 C 
BRANCH  40  41
HETATM   41  C   UNK     0       8.181  -8.240  15.191  0.00  0.00     0.139 C 
HETATM   42  O   UNK     0       9.143  -9.012  15.310  0.00  0.00    -0.650 OA
BRANCH  41  43
HETATM   43  O   UNK     0       8.140  -7.417  14.030  0.00  0.00    -0.776 OA
HETATM   44  H   UNK     0       7.547  -6.601  14.116  0.00  0.00     0.167 HD
ENDBRANCH  41  43
ENDBRANCH  40  41
ENDBRANCH  39  40
ENDBRANCH  27  39
BRANCH  11  45
HETATM   45  C   UNK     0      11.119 -17.797  16.733  0.00  0.00     0.051 C 
BRANCH  45  46
HETATM   46  C   UNK     0      10.528 -19.114  17.085  0.00  0.00     0.114 C 
BRANCH  46  47
HETATM   47  C   UNK     0      11.306 -20.156  16.357  0.00  0.00     0.139 C 
HETATM   48  O   UNK     0      12.540 -20.163  16.471  0.00  0.00    -0.650 OA
BRANCH  47  49
HETATM   49  O   UNK     0      10.671 -21.088  15.575  0.00  0.00    -0.776 OA
HETATM   50  H   UNK     0       9.996 -21.757  15.963  0.00  0.00     0.167 HD
ENDBRANCH  47  49
ENDBRANCH  46  47
ENDBRANCH  45  46
ENDBRANCH  11  45
BRANCH  18  51
HETATM   51  C   UNK     0       7.099 -13.851  12.606  0.00  0.00     0.051 C 
BRANCH  51  52
HETATM   52  C   UNK     0       6.036 -14.883  12.953  0.00  0.00     0.114 C 
BRANCH  52  53
HETATM   53  C   UNK     0       4.934 -14.887  11.972  0.00  0.00     0.139 C 
HETATM   54  O   UNK     0       3.767 -15.080  12.348  0.00  0.00    -0.650 OA
BRANCH  53  55
HETATM   55  O   UNK     0       5.208 -14.681  10.641  0.00  0.00    -0.776 OA
HETATM   56  H   UNK     0       4.555 -14.735   9.895  0.00  0.00     0.167 HD
ENDBRANCH  53  55
ENDBRANCH  52  53
ENDBRANCH  51  52
ENDBRANCH  18  51
TORSDOF 16
ENDMDL
MODEL 8
REMARK VINA RESULT:      -8.3      4.867     10.279
REMARK  16 active torsions:
REMARK  status: ('A' for Active; 'I' for Inactive)
REMARK    1  A    between atoms: C_6  and  C_7 
REMARK    2  A    between atoms: C_7  and  C_8 
REMARK    3  A    between atoms: C_8  and  C_9 
REMARK    4  A    between atoms: C_9  and  O_11 
REMARK    5  A    between atoms: C_16  and  C_17 
REMARK    6  A    between atoms: C_17  and  C_18 
REMARK    7  A    between atoms: C_18  and  C_19 
REMARK    8  A    between atoms: C_19  and  O_21 
REMARK    9  A    between atoms: C_28  and  C_29 
REMARK   10  A    between atoms: C_29  and  C_30 
REMARK   11  A    between atoms: C_30  and  C_31 
REMARK   12  A    between atoms: C_31  and  O_33 
REMARK   13  A    between atoms: C_42  and  C_43 
REMARK   14  A    between atoms: C_43  and  C_44 
REMARK   15  A    between atoms: C_44  and  C_45 
REMARK   16  A    between atoms: C_45  and  O_47 
ROOT
HETATM    1  C   UNK     0     -20.531 -29.538  20.639  0.00  0.00     0.051 C 
HETATM    2  C   UNK     0     -21.450 -29.138  19.503  0.00  0.00    -0.031 A 
HETATM    3  C   UNK     0     -22.639 -28.425  19.543  0.00  0.00     0.021 A 
HETATM    4  N   UNK     0     -23.137 -28.328  18.288  0.00  0.00    -0.361 N 
HETATM    5  C   UNK     0     -22.289 -28.955  17.448  0.00  0.00     0.022 A 
HETATM    6  C   UNK     0     -21.224 -29.476  18.175  0.00  0.00    -0.027 A 
HETATM    7  C   UNK     0     -22.328 -29.056  15.955  0.00  0.00     0.115 C 
HETATM    8  C   UNK     0     -22.693 -27.792  15.196  0.00  0.00     0.021 A 
HETATM    9  N   UNK     0     -22.382 -26.521  15.491  0.00  0.00    -0.361 N 
HETATM   10  C   UNK     0     -22.994 -25.720  14.592  0.00  0.00     0.022 A 
HETATM   11  C   UNK     0     -23.711 -26.499  13.688  0.00  0.00    -0.027 A 
HETATM   12  C   UNK     0     -23.525 -27.805  14.062  0.00  0.00    -0.031 A 
HETATM   13  C   UNK     0     -24.115 -29.008  13.361  0.00  0.00     0.051 C 
HETATM   14  C   UNK     0     -22.971 -24.195  14.582  0.00  0.00     0.115 C 
HETATM   15  C   UNK     0     -23.565 -23.561  15.829  0.00  0.00     0.021 A 
HETATM   16  N   UNK     0     -23.172 -23.734  17.105  0.00  0.00    -0.361 N 
HETATM   17  C   UNK     0     -23.994 -23.060  17.912  0.00  0.00     0.022 A 
HETATM   18  C   UNK     0     -24.963 -22.408  17.124  0.00  0.00    -0.027 A 
HETATM   19  C   UNK     0     -24.683 -22.729  15.821  0.00  0.00    -0.031 A 
HETATM   20  C   UNK     0     -25.469 -22.202  14.635  0.00  0.00     0.051 C 
HETATM   21  C   UNK     0     -24.029 -22.986  19.422  0.00  0.00     0.115 C 
HETATM   22  C   UNK     0     -23.626 -24.222  20.191  0.00  0.00     0.022 A 
HETATM   23  N   UNK     0     -23.917 -25.501  19.918  0.00  0.00    -0.361 N 
HETATM   24  C   UNK     0     -23.235 -26.284  20.778  0.00  0.00     0.021 A 
HETATM   25  C   UNK     0     -22.494 -25.489  21.632  0.00  0.00    -0.031 A 
HETATM   26  C   UNK     0     -21.604 -25.902  22.786  0.00  0.00     0.051 C 
HETATM   27  C   UNK     0     -22.728 -24.166  21.276  0.00  0.00    -0.027 A 
HETATM   28  C   UNK     0     -23.170 -27.801  20.803  0.00  0.00     0.115 C 
HETATM   29  H   UNK     0     -24.106 -27.851  18.010  0.00  0.00     0.165 HD
HETATM   30  H   UNK     0     -21.691 -26.187  16.303  0.00  0.00     0.165 HD
HETATM   31  H   UNK     0     -22.268 -24.306  17.441  0.00  0.00     0.165 HD
HETATM   32  H   UNK     0     -24.642 -25.862  19.142  0.00  0.00     0.165 HD
ENDROOT
BRANCH   6  33
HETATM   33  C   UNK     0     -20.024 -30.262  17.711  0.00  0.00     0.051 C 
BRANCH  33  34
HETATM   34  C   UNK     0     -20.349 -31.735  17.627  0.00  0.00     0.114 C 
BRANCH  34  35
HETATM   35  C   UNK     0     -19.881 -32.220  16.297  0.00  0.00     0.139 C 
HETATM   36  O   UNK     0     -18.643 -32.285  16.042  0.00  0.00    -0.650 OA
BRANCH  35  37
HETATM   37  O   UNK     0     -20.756 -32.618  15.294  0.00  0.00    -0.776 OA
HETATM   38  H   UNK     0     -21.583 -33.160  15.490  0.00  0.00     0.167 HD
ENDBRANCH  35  37
ENDBRANCH  34  35
ENDBRANCH  33  34
ENDBRANCH   6  33
BRANCH  27  39
HETATM   39  C   UNK     0     -22.154 -23.013  22.021  0.00  0.00     0.051 C 
BRANCH  39  40
HETATM   40  C   UNK     0     -23.074 -22.072  22.660  0.00  0.00     0.114 C 
BRANCH  40  41
HETATM   41  C   UNK     0     -24.283 -22.507  23.322  0.00  0.00     0.139 C 
HETATM   42  O   UNK     0     -24.310 -22.940  24.482  0.00  0.00    -0.650 OA
BRANCH  41  43
HETATM   43  O   UNK     0     -25.518 -22.441  22.617  0.00  0.00    -0.776 OA
HETATM   44  H   UNK     0     -26.127 -21.685  22.908  0.00  0.00     0.167 HD
ENDBRANCH  41  43
ENDBRANCH  40  41
ENDBRANCH  39  40
ENDBRANCH  27  39
BRANCH  11  45
HETATM   45  C   UNK     0     -24.539 -26.054  12.513  0.00  0.00     0.051 C 
BRANCH  45  46
HETATM   46  C   UNK     0     -25.927 -25.659  12.864  0.00  0.00     0.114 C 
BRANCH  46  47
HETATM   47  C   UNK     0     -26.824 -26.770  12.437  0.00  0.00     0.139 C 
HETATM   48  O   UNK     0     -26.587 -27.344  11.365  0.00  0.00    -0.650 OA
BRANCH  47  49
HETATM   49  O   UNK     0     -27.891 -27.149  13.212  0.00  0.00    -0.776 OA
HETATM   50  H   UNK     0     -28.827 -26.743  13.088  0.00  0.00     0.167 HD
ENDBRANCH  47  49
ENDBRANCH  46  47
ENDBRANCH  45  46
ENDBRANCH  11  45
BRANCH  18  51
HETATM   51  C   UNK     0     -26.082 -21.511  17.586  0.00  0.00     0.051 C 
BRANCH  51  52
HETATM   52  C   UNK     0     -25.459 -20.145  17.833  0.00  0.00     0.114 C 
BRANCH  52  53
HETATM   53  C   UNK     0     -25.808 -19.614  19.165  0.00  0.00     0.139 C 
HETATM   54  O   UNK     0     -26.157 -18.429  19.290  0.00  0.00    -0.650 OA
BRANCH  53  55
HETATM   55  O   UNK     0     -25.742 -20.437  20.263  0.00  0.00    -0.776 OA
HETATM   56  H   UNK     0     -25.096 -21.178  20.399  0.00  0.00     0.167 HD
ENDBRANCH  53  55
ENDBRANCH  52  53
ENDBRANCH  51  52
ENDBRANCH  18  51
TORSDOF 16
ENDMDL
MODEL 9
REMARK VINA RESULT:      -8.2      3.786      9.162
REMARK  16 active torsions:
REMARK  status: ('A' for Active; 'I' for Inactive)
REMARK    1  A    between atoms: C_6  and  C_7 
REMARK    2  A    between atoms: C_7  and  C_8 
REMARK    3  A    between atoms: C_8  and  C_9 
REMARK    4  A    between atoms: C_9  and  O_11 
REMARK    5  A    between atoms: C_16  and  C_17 
REMARK    6  A    between atoms: C_17  and  C_18 
REMARK    7  A    between atoms: C_18  and  C_19 
REMARK    8  A    between atoms: C_19  and  O_21 
REMARK    9  A    between atoms: C_28  and  C_29 
REMARK   10  A    between atoms: C_29  and  C_30 
REMARK   11  A    between atoms: C_30  and  C_31 
REMARK   12  A    between atoms: C_31  and  O_33 
REMARK   13  A    between atoms: C_42  and  C_43 
REMARK   14  A    between atoms: C_43  and  C_44 
REMARK   15  A    between atoms: C_44  and  C_45 
REMARK   16  A    between atoms: C_45  and  O_47 
ROOT
HETATM    1  C   UNK     0     -24.851 -20.862  15.640  0.00  0.00     0.051 C 
HETATM    2  C   UNK     0     -23.965 -22.054  15.941  0.00  0.00    -0.031 A 
HETATM    3  C   UNK     0     -23.031 -22.224  16.950  0.00  0.00     0.021 A 
HETATM    4  N   UNK     0     -22.451 -23.440  16.815  0.00  0.00    -0.361 N 
HETATM    5  C   UNK     0     -23.002 -24.053  15.747  0.00  0.00     0.022 A 
HETATM    6  C   UNK     0     -23.951 -23.213  15.175  0.00  0.00    -0.027 A 
HETATM    7  C   UNK     0     -22.783 -25.439  15.227  0.00  0.00     0.115 C 
HETATM    8  C   UNK     0     -22.704 -26.550  16.259  0.00  0.00     0.021 A 
HETATM    9  N   UNK     0     -23.383 -26.671  17.411  0.00  0.00    -0.361 N 
HETATM   10  C   UNK     0     -22.926 -27.767  18.054  0.00  0.00     0.022 A 
HETATM   11  C   UNK     0     -21.933 -28.374  17.291  0.00  0.00    -0.027 A 
HETATM   12  C   UNK     0     -21.788 -27.613  16.159  0.00  0.00    -0.031 A 
HETATM   13  C   UNK     0     -20.820 -27.896  15.033  0.00  0.00     0.051 C 
HETATM   14  C   UNK     0     -23.368 -28.253  19.431  0.00  0.00     0.115 C 
HETATM   15  C   UNK     0     -23.104 -27.258  20.550  0.00  0.00     0.021 A 
HETATM   16  N   UNK     0     -23.564 -25.997  20.653  0.00  0.00    -0.361 N 
HETATM   17  C   UNK     0     -23.048 -25.431  21.746  0.00  0.00     0.022 A 
HETATM   18  C   UNK     0     -22.221 -26.371  22.391  0.00  0.00    -0.027 A 
HETATM   19  C   UNK     0     -22.265 -27.512  21.633  0.00  0.00    -0.031 A 
HETATM   20  C   UNK     0     -21.537 -28.794  21.993  0.00  0.00     0.051 C 
HETATM   21  C   UNK     0     -23.191 -24.019  22.268  0.00  0.00     0.115 C 
HETATM   22  C   UNK     0     -23.315 -22.908  21.252  0.00  0.00     0.022 A 
HETATM   23  N   UNK     0     -22.655 -22.765  20.095  0.00  0.00    -0.361 N 
HETATM   24  C   UNK     0     -23.180 -21.712  19.436  0.00  0.00     0.021 A 
HETATM   25  C   UNK     0     -24.196 -21.158  20.192  0.00  0.00    -0.031 A 
HETATM   26  C   UNK     0     -25.051 -19.944  19.895  0.00  0.00     0.051 C 
HETATM   27  C   UNK     0     -24.300 -21.906  21.359  0.00  0.00    -0.027 A 
HETATM   28  C   UNK     0     -22.826 -21.216  18.045  0.00  0.00     0.115 C 
HETATM   29  H   UNK     0     -21.629 -23.841  17.452  0.00  0.00     0.165 HD
HETATM   30  H   UNK     0     -24.219 -26.012  17.750  0.00  0.00     0.165 HD
HETATM   31  H   UNK     0     -24.305 -25.512  19.966  0.00  0.00     0.165 HD
HETATM   32  H   UNK     0     -21.783 -23.380  19.752  0.00  0.00     0.165 HD
ENDROOT
BRANCH   6  33
HETATM   33  C   UNK     0     -24.833 -23.424  13.970  0.00  0.00     0.051 C 
BRANCH  33  34
HETATM   34  C   UNK     0     -26.242 -23.768  14.391  0.00  0.00     0.114 C 
BRANCH  34  35
HETATM   35  C   UNK     0     -26.888 -24.478  13.250  0.00  0.00     0.139 C 
HETATM   36  O   UNK     0     -27.816 -25.312  13.463  0.00  0.00    -0.650 OA
BRANCH  35  37
HETATM   37  O   UNK     0     -26.518 -24.265  11.928  0.00  0.00    -0.776 OA
HETATM   38  H   UNK     0     -25.577 -24.423  11.605  0.00  0.00     0.167 HD
ENDBRANCH  35  37
ENDBRANCH  34  35
ENDBRANCH  33  34
ENDBRANCH   6  33
BRANCH  27  39
HETATM   39  C   UNK     0     -25.245 -21.566  22.458  0.00  0.00     0.051 C 
BRANCH  39  40
HETATM   40  C   UNK     0     -24.715 -20.896  23.645  0.00  0.00     0.114 C 
BRANCH  40  41
HETATM   41  C   UNK     0     -23.568 -20.018  23.587  0.00  0.00     0.139 C 
HETATM   42  O   UNK     0     -22.444 -20.334  23.999  0.00  0.00    -0.650 OA
BRANCH  41  43
HETATM   43  O   UNK     0     -23.721 -18.717  23.029  0.00  0.00    -0.776 OA
HETATM   44  H   UNK     0     -24.579 -18.583  22.507  0.00  0.00     0.167 HD
ENDBRANCH  41  43
ENDBRANCH  40  41
ENDBRANCH  39  40
ENDBRANCH  27  39
BRANCH  11  45
HETATM   45  C   UNK     0     -21.142 -29.619  17.592  0.00  0.00     0.051 C 
BRANCH  45  46
HETATM   46  C   UNK     0     -21.808 -30.877  17.168  0.00  0.00     0.114 C 
BRANCH  46  47
HETATM   47  C   UNK     0     -20.810 -31.661  16.385  0.00  0.00     0.139 C 
HETATM   48  O   UNK     0     -20.621 -31.362  15.198  0.00  0.00    -0.650 OA
BRANCH  47  49
HETATM   49  O   UNK     0     -20.117 -32.694  16.965  0.00  0.00    -0.776 OA
HETATM   50  H   UNK     0     -19.178 -32.566  17.359  0.00  0.00     0.167 HD
ENDBRANCH  47  49
ENDBRANCH  46  47
ENDBRANCH  45  46
ENDBRANCH  11  45
BRANCH  18  51
HETATM   51  C   UNK     0     -21.447 -26.198  23.672  0.00  0.00     0.051 C 
BRANCH  51  52
HETATM   52  C   UNK     0     -20.025 -25.839  23.266  0.00  0.00     0.114 C 
BRANCH  52  53
HETATM   53  C   UNK     0     -19.035 -26.756  23.863  0.00  0.00     0.139 C 
HETATM   54  O   UNK     0     -17.831 -26.635  23.587  0.00  0.00    -0.650 OA
BRANCH  53  55
HETATM   55  O   UNK     0     -19.454 -27.744  24.720  0.00  0.00    -0.776 OA
HETATM   56  H   UNK     0     -20.385 -28.073  24.821  0.00  0.00     0.167 HD
ENDBRANCH  53  55
ENDBRANCH  52  53
ENDBRANCH  51  52
ENDBRANCH  18  51
TORSDOF 16
ENDMDL
MODEL 10
REMARK VINA RESULT:      -8.0     28.305     31.936
REMARK  16 active torsions:
REMARK  status: ('A' for Active; 'I' for Inactive)
REMARK    1  A    between atoms: C_6  and  C_7 
REMARK    2  A    between atoms: C_7  and  C_8 
REMARK    3  A    between atoms: C_8  and  C_9 
REMARK    4  A    between atoms: C_9  and  O_11 
REMARK    5  A    between atoms: C_16  and  C_17 
REMARK    6  A    between atoms: C_17  and  C_18 
REMARK    7  A    between atoms: C_18  and  C_19 
REMARK    8  A    between atoms: C_19  and  O_21 
REMARK    9  A    between atoms: C_28  and  C_29 
REMARK   10  A    between atoms: C_29  and  C_30 
REMARK   11  A    between atoms: C_30  and  C_31 
REMARK   12  A    between atoms: C_31  and  O_33 
REMARK   13  A    between atoms: C_42  and  C_43 
REMARK   14  A    between atoms: C_43  and  C_44 
REMARK   15  A    between atoms: C_44  and  C_45 
REMARK   16  A    between atoms: C_45  and  O_47 
ROOT
HETATM    1  C   UNK     0       6.065 -10.560  21.991  0.00  0.00     0.051 C 
HETATM    2  C   UNK     0       6.599 -11.762  21.239  0.00  0.00    -0.031 A 
HETATM    3  C   UNK     0       5.993 -12.522  20.251  0.00  0.00     0.021 A 
HETATM    4  N   UNK     0       6.831 -13.521  19.886  0.00  0.00    -0.361 N 
HETATM    5  C   UNK     0       7.961 -13.409  20.613  0.00  0.00     0.022 A 
HETATM    6  C   UNK     0       7.849 -12.321  21.472  0.00  0.00    -0.027 A 
HETATM    7  C   UNK     0       9.229 -14.201  20.530  0.00  0.00     0.115 C 
HETATM    8  C   UNK     0       9.745 -14.518  19.138  0.00  0.00     0.021 A 
HETATM    9  N   UNK     0       9.689 -13.758  18.033  0.00  0.00    -0.361 N 
HETATM   10  C   UNK     0      10.187 -14.478  17.004  0.00  0.00     0.022 A 
HETATM   11  C   UNK     0      10.582 -15.731  17.462  0.00  0.00    -0.027 A 
HETATM   12  C   UNK     0      10.307 -15.763  18.805  0.00  0.00    -0.031 A 
HETATM   13  C   UNK     0      10.576 -16.933  19.725  0.00  0.00     0.051 C 
HETATM   14  C   UNK     0      10.260 -14.034  15.546  0.00  0.00     0.115 C 
HETATM   15  C   UNK     0       8.905 -13.734  14.925  0.00  0.00     0.021 A 
HETATM   16  N   UNK     0       7.993 -12.834  15.338  0.00  0.00    -0.361 N 
HETATM   17  C   UNK     0       6.906 -12.926  14.568  0.00  0.00     0.022 A 
HETATM   18  C   UNK     0       7.124 -13.928  13.602  0.00  0.00    -0.027 A 
HETATM   19  C   UNK     0       8.380 -14.426  13.835  0.00  0.00    -0.031 A 
HETATM   20  C   UNK     0       9.029 -15.507  12.991  0.00  0.00     0.051 C 
HETATM   21  C   UNK     0       5.586 -12.195  14.660  0.00  0.00     0.115 C 
HETATM   22  C   UNK     0       5.082 -11.834  16.037  0.00  0.00     0.022 A 
HETATM   23  N   UNK     0       5.128 -12.569  17.156  0.00  0.00    -0.361 N 
HETATM   24  C   UNK     0       4.700 -11.805  18.182  0.00  0.00     0.021 A 
HETATM   25  C   UNK     0       4.361 -10.552  17.710  0.00  0.00    -0.031 A 
HETATM   26  C   UNK     0       3.795  -9.369  18.468  0.00  0.00     0.051 C 
HETATM   27  C   UNK     0       4.596 -10.546  16.340  0.00  0.00    -0.027 A 
HETATM   28  C   UNK     0       4.659 -12.167  19.656  0.00  0.00     0.115 C 
HETATM   29  H   UNK     0       6.602 -14.322  19.145  0.00  0.00     0.165 HD
HETATM   30  H   UNK     0       9.346 -12.696  17.985  0.00  0.00     0.165 HD
HETATM   31  H   UNK     0       8.137 -12.085  16.159  0.00  0.00     0.165 HD
HETATM   32  H   UNK     0       5.422 -13.648  17.226  0.00  0.00     0.165 HD
ENDROOT
BRANCH   6  33
HETATM   33  C   UNK     0       8.825 -11.780  22.486  0.00  0.00     0.051 C 
BRANCH  33  34
HETATM   34  C   UNK     0       8.524 -12.324  23.862  0.00  0.00     0.114 C 
BRANCH  34  35
HETATM   35  C   UNK     0       9.464 -13.455  24.111  0.00  0.00     0.139 C 
HETATM   36  O   UNK     0       9.028 -14.564  24.536  0.00  0.00    -0.650 OA
BRANCH  35  37
HETATM   37  O   UNK     0      10.833 -13.353  23.892  0.00  0.00    -0.776 OA
HETATM   38  H   UNK     0      11.507 -13.641  24.582  0.00  0.00     0.167 HD
ENDBRANCH  35  37
ENDBRANCH  34  35
ENDBRANCH  33  34
ENDBRANCH   6  33
BRANCH  27  39
HETATM   39  C   UNK     0       4.280  -9.382  15.468  0.00  0.00     0.051 C 
BRANCH  39  40
HETATM   40  C   UNK     0       2.972  -9.340  14.814  0.00  0.00     0.114 C 
BRANCH  40  41
HETATM   41  C   UNK     0       1.791  -8.843  15.484  0.00  0.00     0.139 C 
HETATM   42  O   UNK     0       1.164  -9.490  16.334  0.00  0.00    -0.650 OA
BRANCH  41  43
HETATM   43  O   UNK     0       1.310  -7.542  15.163  0.00  0.00    -0.776 OA
HETATM   44  H   UNK     0       0.510  -7.245  15.708  0.00  0.00     0.167 HD
ENDBRANCH  41  43
ENDBRANCH  40  41
ENDBRANCH  39  40
ENDBRANCH  27  39
BRANCH  11  45
HETATM   45  C   UNK     0      11.198 -16.865  16.687  0.00  0.00     0.051 C 
BRANCH  45  46
HETATM   46  C   UNK     0      10.215 -17.855  16.177  0.00  0.00     0.114 C 
BRANCH  46  47
HETATM   47  C   UNK     0      10.574 -19.177  16.765  0.00  0.00     0.139 C 
HETATM   48  O   UNK     0      11.742 -19.577  16.655  0.00  0.00    -0.650 OA
BRANCH  47  49
HETATM   49  O   UNK     0       9.633 -19.937  17.412  0.00  0.00    -0.776 OA
HETATM   50  H   UNK     0       9.599 -20.959  17.318  0.00  0.00     0.167 HD
ENDBRANCH  47  49
ENDBRANCH  46  47
ENDBRANCH  45  46
ENDBRANCH  11  45
BRANCH  18  51
HETATM   51  C   UNK     0       6.194 -14.372  12.503  0.00  0.00     0.051 C 
BRANCH  51  52
HETATM   52  C   UNK     0       5.277 -15.419  13.117  0.00  0.00     0.114 C 
BRANCH  52  53
HETATM   53  C   UNK     0       4.621 -16.247  12.087  0.00  0.00     0.139 C 
HETATM   54  O   UNK     0       5.079 -16.284  10.934  0.00  0.00    -0.650 OA
BRANCH  53  55
HETATM   55  O   UNK     0       3.500 -16.973  12.411  0.00  0.00    -0.776 OA
HETATM   56  H   UNK     0       2.789 -16.696  13.046  0.00  0.00     0.167 HD
ENDBRANCH  53  55
ENDBRANCH  52  53
ENDBRANCH  51  52
ENDBRANCH  18  51
TORSDOF 16
ENDMDL
MODEL 11
REMARK VINA RESULT:      -7.8      4.605     10.188
REMARK  16 active torsions:
REMARK  status: ('A' for Active; 'I' for Inactive)
REMARK    1  A    between atoms: C_6  and  C_7 
REMARK    2  A    between atoms: C_7  and  C_8 
REMARK    3  A    between atoms: C_8  and  C_9 
REMARK    4  A    between atoms: C_9  and  O_11 
REMARK    5  A    between atoms: C_16  and  C_17 
REMARK    6  A    between atoms: C_17  and  C_18 
REMARK    7  A    between atoms: C_18  and  C_19 
REMARK    8  A    between atoms: C_19  and  O_21 
REMARK    9  A    between atoms: C_28  and  C_29 
REMARK   10  A    between atoms: C_29  and  C_30 
REMARK   11  A    between atoms: C_30  and  C_31 
REMARK   12  A    between atoms: C_31  and  O_33 
REMARK   13  A    between atoms: C_42  and  C_43 
REMARK   14  A    between atoms: C_43  and  C_44 
REMARK   15  A    between atoms: C_44  and  C_45 
REMARK   16  A    between atoms: C_45  and  O_47 
ROOT
HETATM    1  C   UNK     0     -20.250 -29.340  21.439  0.00  0.00     0.051 C 
HETATM    2  C   UNK     0     -21.145 -29.061  20.248  0.00  0.00    -0.031 A 
HETATM    3  C   UNK     0     -22.361 -28.398  20.198  0.00  0.00     0.021 A 
HETATM    4  N   UNK     0     -22.819 -28.413  18.924  0.00  0.00    -0.361 N 
HETATM    5  C   UNK     0     -21.917 -29.062  18.159  0.00  0.00     0.022 A 
HETATM    6  C   UNK     0     -20.858 -29.483  18.956  0.00  0.00    -0.027 A 
HETATM    7  C   UNK     0     -21.900 -29.271  16.677  0.00  0.00     0.115 C 
HETATM    8  C   UNK     0     -22.289 -28.081  15.817  0.00  0.00     0.021 A 
HETATM    9  N   UNK     0     -22.040 -26.780  16.028  0.00  0.00    -0.361 N 
HETATM   10  C   UNK     0     -22.651 -26.073  15.054  0.00  0.00     0.022 A 
HETATM   11  C   UNK     0     -23.304 -26.943  14.186  0.00  0.00    -0.027 A 
HETATM   12  C   UNK     0     -23.080 -28.211  14.661  0.00  0.00    -0.031 A 
HETATM   13  C   UNK     0     -23.596 -29.484  14.031  0.00  0.00     0.051 C 
HETATM   14  C   UNK     0     -22.690 -24.552  14.933  0.00  0.00     0.115 C 
HETATM   15  C   UNK     0     -23.352 -23.857  16.111  0.00  0.00     0.021 A 
HETATM   16  N   UNK     0     -22.997 -23.921  17.408  0.00  0.00    -0.361 N 
HETATM   17  C   UNK     0     -23.873 -23.226  18.137  0.00  0.00     0.022 A 
HETATM   18  C   UNK     0     -24.839 -22.674  17.273  0.00  0.00    -0.027 A 
HETATM   19  C   UNK     0     -24.501 -23.075  16.007  0.00  0.00    -0.031 A 
HETATM   20  C   UNK     0     -25.266 -22.669  14.760  0.00  0.00     0.051 C 
HETATM   21  C   UNK     0     -23.964 -23.046  19.636  0.00  0.00     0.115 C 
HETATM   22  C   UNK     0     -23.538 -24.206  20.505  0.00  0.00     0.022 A 
HETATM   23  N   UNK     0     -23.768 -25.512  20.317  0.00  0.00    -0.361 N 
HETATM   24  C   UNK     0     -23.086 -26.201  21.253  0.00  0.00     0.021 A 
HETATM   25  C   UNK     0     -22.408 -25.317  22.070  0.00  0.00    -0.031 A 
HETATM   26  C   UNK     0     -21.543 -25.608  23.279  0.00  0.00     0.051 C 
HETATM   27  C   UNK     0     -22.682 -24.034  21.611  0.00  0.00    -0.027 A 
HETATM   28  C   UNK     0     -22.961 -27.709  21.391  0.00  0.00     0.115 C 
HETATM   29  H   UNK     0     -23.796 -27.999  18.580  0.00  0.00     0.165 HD
HETATM   30  H   UNK     0     -21.391 -26.360  16.835  0.00  0.00     0.165 HD
HETATM   31  H   UNK     0     -22.083 -24.428  17.813  0.00  0.00     0.165 HD
HETATM   32  H   UNK     0     -24.450 -25.958  19.547  0.00  0.00     0.165 HD
ENDROOT
BRANCH   6  33
HETATM   33  C   UNK     0     -19.612 -30.249  18.589  0.00  0.00     0.051 C 
BRANCH  33  34
HETATM   34  C   UNK     0     -19.673 -31.659  19.128  0.00  0.00     0.114 C 
BRANCH  34  35
HETATM   35  C   UNK     0     -18.377 -31.930  19.814  0.00  0.00     0.139 C 
HETATM   36  O   UNK     0     -17.408 -31.125  19.688  0.00  0.00    -0.650 OA
BRANCH  35  37
HETATM   37  O   UNK     0     -18.170 -33.051  20.609  0.00  0.00    -0.776 OA
HETATM   38  H   UNK     0     -18.373 -33.983  20.282  0.00  0.00     0.167 HD
ENDBRANCH  35  37
ENDBRANCH  34  35
ENDBRANCH  33  34
ENDBRANCH   6  33
BRANCH  27  39
HETATM   39  C   UNK     0     -22.181 -22.807  22.288  0.00  0.00     0.051 C 
BRANCH  39  40
HETATM   40  C   UNK     0     -23.113 -22.039  23.113  0.00  0.00     0.114 C 
BRANCH  40  41
HETATM   41  C   UNK     0     -24.243 -22.654  23.774  0.00  0.00     0.139 C 
HETATM   42  O   UNK     0     -25.399 -22.610  23.333  0.00  0.00    -0.650 OA
BRANCH  41  43
HETATM   43  O   UNK     0     -24.033 -23.350  24.998  0.00  0.00    -0.776 OA
HETATM   44  H   UNK     0     -24.535 -24.226  25.073  0.00  0.00     0.167 HD
ENDBRANCH  41  43
ENDBRANCH  40  41
ENDBRANCH  39  40
ENDBRANCH  27  39
BRANCH  11  45
HETATM   45  C   UNK     0     -24.108 -26.620  12.956  0.00  0.00     0.051 C 
BRANCH  45  46
HETATM   46  C   UNK     0     -23.363 -26.790  11.683  0.00  0.00     0.114 C 
BRANCH  46  47
HETATM   47  C   UNK     0     -22.844 -25.448  11.292  0.00  0.00     0.139 C 
HETATM   48  O   UNK     0     -21.668 -25.166  11.562  0.00  0.00    -0.650 OA
BRANCH  47  49
HETATM   49  O   UNK     0     -23.650 -24.542  10.649  0.00  0.00    -0.776 OA
HETATM   50  H   UNK     0     -23.313 -23.613  10.373  0.00  0.00     0.167 HD
ENDBRANCH  47  49
ENDBRANCH  46  47
ENDBRANCH  45  46
ENDBRANCH  11  45
BRANCH  18  51
HETATM   51  C   UNK     0     -26.009 -21.795  17.632  0.00  0.00     0.051 C 
BRANCH  51  52
HETATM   52  C   UNK     0     -25.436 -20.409  17.892  0.00  0.00     0.114 C 
BRANCH  52  53
HETATM   53  C   UNK     0     -25.976 -19.815  19.130  0.00  0.00     0.139 C 
HETATM   54  O   UNK     0     -25.640 -20.270  20.235  0.00  0.00    -0.650 OA
BRANCH  53  55
HETATM   55  O   UNK     0     -26.852 -18.760  19.052  0.00  0.00    -0.776 OA
HETATM   56  H   UNK     0     -27.839 -18.825  18.964  0.00  0.00     0.167 HD
ENDBRANCH  53  55
ENDBRANCH  52  53
ENDBRANCH  51  52
ENDBRANCH  18  51
TORSDOF 16
ENDMDL
MODEL 12
REMARK VINA RESULT:      -7.8      5.408     12.354
REMARK  16 active torsions:
REMARK  status: ('A' for Active; 'I' for Inactive)
REMARK    1  A    between atoms: C_6  and  C_7 
REMARK    2  A    between atoms: C_7  and  C_8 
REMARK    3  A    between atoms: C_8  and  C_9 
REMARK    4  A    between atoms: C_9  and  O_11 
REMARK    5  A    between atoms: C_16  and  C_17 
REMARK    6  A    between atoms: C_17  and  C_18 
REMARK    7  A    between atoms: C_18  and  C_19 
REMARK    8  A    between atoms: C_19  and  O_21 
REMARK    9  A    between atoms: C_28  and  C_29 
REMARK   10  A    between atoms: C_29  and  C_30 
REMARK   11  A    between atoms: C_30  and  C_31 
REMARK   12  A    between atoms: C_31  and  O_33 
REMARK   13  A    between atoms: C_42  and  C_43 
REMARK   14  A    between atoms: C_43  and  C_44 
REMARK   15  A    between atoms: C_44  and  C_45 
REMARK   16  A    between atoms: C_45  and  O_47 
ROOT
HETATM    1  C   UNK     0     -20.833 -27.823  22.526  0.00  0.00     0.051 C 
HETATM    2  C   UNK     0     -21.193 -28.413  21.177  0.00  0.00    -0.031 A 
HETATM    3  C   UNK     0     -22.290 -28.158  20.371  0.00  0.00     0.021 A 
HETATM    4  N   UNK     0     -22.217 -28.939  19.266  0.00  0.00    -0.361 N 
HETATM    5  C   UNK     0     -21.092 -29.679  19.348  0.00  0.00     0.022 A 
HETATM    6  C   UNK     0     -20.428 -29.377  20.532  0.00  0.00    -0.027 A 
HETATM    7  C   UNK     0     -20.501 -30.625  18.350  0.00  0.00     0.115 C 
HETATM    8  C   UNK     0     -20.518 -30.182  16.897  0.00  0.00     0.021 A 
HETATM    9  N   UNK     0     -20.364 -28.946  16.398  0.00  0.00    -0.361 N 
HETATM   10  C   UNK     0     -20.546 -29.009  15.062  0.00  0.00     0.022 A 
HETATM   11  C   UNK     0     -20.814 -30.322  14.689  0.00  0.00    -0.027 A 
HETATM   12  C   UNK     0     -20.798 -31.067  15.841  0.00  0.00    -0.031 A 
HETATM   13  C   UNK     0     -21.035 -32.559  15.920  0.00  0.00     0.051 C 
HETATM   14  C   UNK     0     -20.526 -27.829  14.093  0.00  0.00     0.115 C 
HETATM   15  C   UNK     0     -21.591 -26.782  14.377  0.00  0.00     0.021 A 
HETATM   16  N   UNK     0     -21.768 -26.077  15.510  0.00  0.00    -0.361 N 
HETATM   17  C   UNK     0     -22.855 -25.312  15.384  0.00  0.00     0.022 A 
HETATM   18  C   UNK     0     -23.407 -25.522  14.105  0.00  0.00    -0.027 A 
HETATM   19  C   UNK     0     -22.605 -26.443  13.483  0.00  0.00    -0.031 A 
HETATM   20  C   UNK     0     -22.822 -26.930  12.062  0.00  0.00     0.051 C 
HETATM   21  C   UNK     0     -23.521 -24.397  16.387  0.00  0.00     0.115 C 
HETATM   22  C   UNK     0     -23.472 -24.803  17.841  0.00  0.00     0.022 A 
HETATM   23  N   UNK     0     -23.618 -26.026  18.367  0.00  0.00    -0.361 N 
HETATM   24  C   UNK     0     -23.357 -25.953  19.687  0.00  0.00     0.021 A 
HETATM   25  C   UNK     0     -23.045 -24.650  20.022  0.00  0.00    -0.031 A 
HETATM   26  C   UNK     0     -22.720 -24.066  21.382  0.00  0.00     0.051 C 
HETATM   27  C   UNK     0     -23.113 -23.894  18.857  0.00  0.00    -0.027 A 
HETATM   28  C   UNK     0     -23.303 -27.095  20.688  0.00  0.00     0.115 C 
HETATM   29  H   UNK     0     -22.981 -28.990  18.456  0.00  0.00     0.165 HD
HETATM   30  H   UNK     0     -20.079 -28.036  16.980  0.00  0.00     0.165 HD
HETATM   31  H   UNK     0     -21.086 -26.083  16.399  0.00  0.00     0.165 HD
HETATM   32  H   UNK     0     -23.950 -26.945  17.817  0.00  0.00     0.165 HD
ENDROOT
BRANCH   6  33
HETATM   33  C   UNK     0     -19.142 -29.929  21.091  0.00  0.00     0.051 C 
BRANCH  33  34
HETATM   34  C   UNK     0     -19.316 -31.369  21.513  0.00  0.00     0.114 C 
BRANCH  34  35
HETATM   35  C   UNK     0     -19.427 -31.389  23.000  0.00  0.00     0.139 C 
HETATM   36  O   UNK     0     -20.548 -31.208  23.557  0.00  0.00    -0.650 OA
BRANCH  35  37
HETATM   37  O   UNK     0     -18.333 -31.604  23.829  0.00  0.00    -0.776 OA
HETATM   38  H   UNK     0     -17.433 -31.190  23.646  0.00  0.00     0.167 HD
ENDBRANCH  35  37
ENDBRANCH  34  35
ENDBRANCH  33  34
ENDBRANCH   6  33
BRANCH  27  39
HETATM   39  C   UNK     0     -22.908 -22.420  18.834  0.00  0.00     0.051 C 
BRANCH  39  40
HETATM   40  C   UNK     0     -23.754 -21.616  17.952  0.00  0.00     0.114 C 
BRANCH  40  41
HETATM   41  C   UNK     0     -23.220 -20.551  17.133  0.00  0.00     0.139 C 
HETATM   42  O   UNK     0     -23.574 -19.368  17.234  0.00  0.00    -0.650 OA
BRANCH  41  43
HETATM   43  O   UNK     0     -22.235 -20.860  16.153  0.00  0.00    -0.776 OA
HETATM   44  H   UNK     0     -21.321 -21.078  16.532  0.00  0.00     0.167 HD
ENDBRANCH  41  43
ENDBRANCH  40  41
ENDBRANCH  39  40
ENDBRANCH  27  39
BRANCH  11  45
HETATM   45  C   UNK     0     -21.075 -30.877  13.314  0.00  0.00     0.051 C 
BRANCH  45  46
HETATM   46  C   UNK     0     -22.459 -30.655  12.823  0.00  0.00     0.114 C 
BRANCH  46  47
HETATM   47  C   UNK     0     -22.818 -31.824  11.971  0.00  0.00     0.139 C 
HETATM   48  O   UNK     0     -24.013 -32.022  11.711  0.00  0.00    -0.650 OA
BRANCH  47  49
HETATM   49  O   UNK     0     -21.849 -32.665  11.487  0.00  0.00    -0.776 OA
HETATM   50  H   UNK     0     -21.398 -33.375  12.077  0.00  0.00     0.167 HD
ENDBRANCH  47  49
ENDBRANCH  46  47
ENDBRANCH  45  46
ENDBRANCH  11  45
BRANCH  18  51
HETATM   51  C   UNK     0     -24.619 -24.863  13.499  0.00  0.00     0.051 C 
BRANCH  51  52
HETATM   52  C   UNK     0     -24.100 -23.713  12.649  0.00  0.00     0.114 C 
BRANCH  52  53
HETATM   53  C   UNK     0     -23.846 -22.504  13.456  0.00  0.00     0.139 C 
HETATM   54  O   UNK     0     -24.763 -21.998  14.123  0.00  0.00    -0.650 OA
BRANCH  53  55
HETATM   55  O   UNK     0     -22.593 -21.942  13.462  0.00  0.00    -0.776 OA
HETATM   56  H   UNK     0     -21.860 -22.142  12.823  0.00  0.00     0.167 HD
ENDBRANCH  53  55
ENDBRANCH  52  53
ENDBRANCH  51  52
ENDBRANCH  18  51
TORSDOF 16
ENDMDL
MODEL 13
REMARK VINA RESULT:      -7.6      4.522      9.868
REMARK  16 active torsions:
REMARK  status: ('A' for Active; 'I' for Inactive)
REMARK    1  A    between atoms: C_6  and  C_7 
REMARK    2  A    between atoms: C_7  and  C_8 
REMARK    3  A    between atoms: C_8  and  C_9 
REMARK    4  A    between atoms: C_9  and  O_11 
REMARK    5  A    between atoms: C_16  and  C_17 
REMARK    6  A    between atoms: C_17  and  C_18 
REMARK    7  A    between atoms: C_18  and  C_19 
REMARK    8  A    between atoms: C_19  and  O_21 
REMARK    9  A    between atoms: C_28  and  C_29 
REMARK   10  A    between atoms: C_29  and  C_30 
REMARK   11  A    between atoms: C_30  and  C_31 
REMARK   12  A    between atoms: C_31  and  O_33 
REMARK   13  A    between atoms: C_42  and  C_43 
REMARK   14  A    between atoms: C_43  and  C_44 
REMARK   15  A    between atoms: C_44  and  C_45 
REMARK   16  A    between atoms: C_45  and  O_47 
ROOT
HETATM    1  C   UNK     0     -24.244 -26.669  12.673  0.00  0.00     0.051 C 
HETATM    2  C   UNK     0     -23.354 -26.958  13.864  0.00  0.00    -0.031 A 
HETATM    3  C   UNK     0     -22.667 -26.076  14.684  0.00  0.00     0.021 A 
HETATM    4  N   UNK     0     -21.971 -26.782  15.606  0.00  0.00    -0.361 N 
HETATM    5  C   UNK     0     -22.206 -28.094  15.398  0.00  0.00     0.022 A 
HETATM    6  C   UNK     0     -23.065 -28.240  14.314  0.00  0.00    -0.027 A 
HETATM    7  C   UNK     0     -21.755 -29.280  16.192  0.00  0.00     0.115 C 
HETATM    8  C   UNK     0     -21.823 -29.153  17.704  0.00  0.00     0.021 A 
HETATM    9  N   UNK     0     -22.736 -28.512  18.449  0.00  0.00    -0.361 N 
HETATM   10  C   UNK     0     -22.349 -28.583  19.740  0.00  0.00     0.022 A 
HETATM   11  C   UNK     0     -21.159 -29.298  19.831  0.00  0.00    -0.027 A 
HETATM   12  C   UNK     0     -20.822 -29.660  18.551  0.00  0.00    -0.031 A 
HETATM   13  C   UNK     0     -19.598 -30.460  18.163  0.00  0.00     0.051 C 
HETATM   14  C   UNK     0     -23.055 -27.938  20.930  0.00  0.00     0.115 C 
HETATM   15  C   UNK     0     -23.142 -26.422  20.845  0.00  0.00     0.021 A 
HETATM   16  N   UNK     0     -23.719 -25.685  19.878  0.00  0.00    -0.361 N 
HETATM   17  C   UNK     0     -23.521 -24.391  20.135  0.00  0.00     0.022 A 
HETATM   18  C   UNK     0     -22.788 -24.278  21.333  0.00  0.00    -0.027 A 
HETATM   19  C   UNK     0     -22.558 -25.558  21.769  0.00  0.00    -0.031 A 
HETATM   20  C   UNK     0     -21.826 -25.892  23.056  0.00  0.00     0.051 C 
HETATM   21  C   UNK     0     -23.900 -23.170  19.328  0.00  0.00     0.115 C 
HETATM   22  C   UNK     0     -23.879 -23.295  17.823  0.00  0.00     0.022 A 
HETATM   23  N   UNK     0     -22.985 -23.931  17.055  0.00  0.00    -0.361 N 
HETATM   24  C   UNK     0     -23.431 -23.914  15.782  0.00  0.00     0.021 A 
HETATM   25  C   UNK     0     -24.637 -23.242  15.728  0.00  0.00    -0.031 A 
HETATM   26  C   UNK     0     -25.500 -22.930  14.524  0.00  0.00     0.051 C 
HETATM   27  C   UNK     0     -24.944 -22.836  17.021  0.00  0.00    -0.027 A 
HETATM   28  C   UNK     0     -22.808 -24.585  14.570  0.00  0.00     0.115 C 
HETATM   29  H   UNK     0     -21.287 -26.350  16.373  0.00  0.00     0.165 HD
HETATM   30  H   UNK     0     -23.682 -28.050  18.072  0.00  0.00     0.165 HD
HETATM   31  H   UNK     0     -24.320 -26.085  19.020  0.00  0.00     0.165 HD
HETATM   32  H   UNK     0     -22.007 -24.360  17.398  0.00  0.00     0.165 HD
ENDROOT
BRANCH   6  33
HETATM   33  C   UNK     0     -23.623 -29.489  13.680  0.00  0.00     0.051 C 
BRANCH  33  34
HETATM   34  C   UNK     0     -22.893 -29.809  12.396  0.00  0.00     0.114 C 
BRANCH  34  35
HETATM   35  C   UNK     0     -22.008 -30.979  12.665  0.00  0.00     0.139 C 
HETATM   36  O   UNK     0     -20.882 -30.812  13.218  0.00  0.00    -0.650 OA
BRANCH  35  37
HETATM   37  O   UNK     0     -22.365 -32.280  12.335  0.00  0.00    -0.776 OA
HETATM   38  H   UNK     0     -21.779 -33.068  12.556  0.00  0.00     0.167 HD
ENDBRANCH  35  37
ENDBRANCH  34  35
ENDBRANCH  33  34
ENDBRANCH   6  33
BRANCH  27  39
HETATM   39  C   UNK     0     -26.142 -22.017  17.350  0.00  0.00     0.051 C 
BRANCH  39  40
HETATM   40  C   UNK     0     -25.980 -20.569  17.475  0.00  0.00     0.114 C 
BRANCH  40  41
HETATM   41  C   UNK     0     -25.330 -19.961  18.614  0.00  0.00     0.139 C 
HETATM   42  O   UNK     0     -24.329 -19.237  18.524  0.00  0.00    -0.650 OA
BRANCH  41  43
HETATM   43  O   UNK     0     -25.854 -20.198  19.917  0.00  0.00    -0.776 OA
HETATM   44  H   UNK     0     -26.751 -20.668  19.928  0.00  0.00     0.167 HD
ENDBRANCH  41  43
ENDBRANCH  40  41
ENDBRANCH  39  40
ENDBRANCH  27  39
BRANCH  11  45
HETATM   45  C   UNK     0     -20.356 -29.641  21.057  0.00  0.00     0.051 C 
BRANCH  45  46
HETATM   46  C   UNK     0     -19.746 -28.465  21.730  0.00  0.00     0.114 C 
BRANCH  46  47
HETATM   47  C   UNK     0     -18.390 -28.876  22.194  0.00  0.00     0.139 C 
HETATM   48  O   UNK     0     -17.923 -29.947  21.781  0.00  0.00    -0.650 OA
BRANCH  47  49
HETATM   49  O   UNK     0     -17.675 -28.088  23.060  0.00  0.00    -0.776 OA
HETATM   50  H   UNK     0     -16.797 -27.633  22.784  0.00  0.00     0.167 HD
ENDBRANCH  47  49
ENDBRANCH  46  47
ENDBRANCH  45  46
ENDBRANCH  11  45
BRANCH  18  51
HETATM   51  C   UNK     0     -22.349 -23.020  22.036  0.00  0.00     0.051 C 
BRANCH  51  52
HETATM   52  C   UNK     0     -23.441 -22.691  23.043  0.00  0.00     0.114 C 
BRANCH  52  53
HETATM   53  C   UNK     0     -24.352 -21.644  22.542  0.00  0.00     0.139 C 
HETATM   54  O   UNK     0     -23.910 -20.520  22.254  0.00  0.00    -0.650 OA
BRANCH  53  55
HETATM   55  O   UNK     0     -25.691 -21.919  22.400  0.00  0.00    -0.776 OA
HETATM   56  H   UNK     0     -26.119 -22.807  22.512  0.00  0.00     0.167 HD
ENDBRANCH  53  55
ENDBRANCH  52  53
ENDBRANCH  51  52
ENDBRANCH  18  51
TORSDOF 16
ENDMDL
MODEL 14
REMARK VINA RESULT:      -7.6      4.611      9.421
REMARK  16 active torsions:
REMARK  status: ('A' for Active; 'I' for Inactive)
REMARK    1  A    between atoms: C_6  and  C_7 
REMARK    2  A    between atoms: C_7  and  C_8 
REMARK    3  A    between atoms: C_8  and  C_9 
REMARK    4  A    between atoms: C_9  and  O_11 
REMARK    5  A    between atoms: C_16  and  C_17 
REMARK    6  A    between atoms: C_17  and  C_18 
REMARK    7  A    between atoms: C_18  and  C_19 
REMARK    8  A    between atoms: C_19  and  O_21 
REMARK    9  A    between atoms: C_28  and  C_29 
REMARK   10  A    between atoms: C_29  and  C_30 
REMARK   11  A    between atoms: C_30  and  C_31 
REMARK   12  A    between atoms: C_31  and  O_33 
REMARK   13  A    between atoms: C_42  and  C_43 
REMARK   14  A    between atoms: C_43  and  C_44 
REMARK   15  A    between atoms: C_44  and  C_45 
REMARK   16  A    between atoms: C_45  and  O_47 
ROOT
HETATM    1  C   UNK     0     -23.711 -24.543  14.012  0.00  0.00     0.051 C 
HETATM    2  C   UNK     0     -23.249 -24.934  15.401  0.00  0.00    -0.031 A 
HETATM    3  C   UNK     0     -22.745 -24.138  16.417  0.00  0.00     0.021 A 
HETATM    4  N   UNK     0     -22.431 -24.921  17.476  0.00  0.00    -0.361 N 
HETATM    5  C   UNK     0     -22.732 -26.197  17.160  0.00  0.00     0.022 A 
HETATM    6  C   UNK     0     -23.243 -26.242  15.868  0.00  0.00    -0.027 A 
HETATM    7  C   UNK     0     -22.664 -27.429  18.008  0.00  0.00     0.115 C 
HETATM    8  C   UNK     0     -23.162 -27.301  19.437  0.00  0.00     0.021 A 
HETATM    9  N   UNK     0     -24.181 -26.564  19.905  0.00  0.00    -0.361 N 
HETATM   10  C   UNK     0     -24.203 -26.683  21.249  0.00  0.00     0.022 A 
HETATM   11  C   UNK     0     -23.175 -27.528  21.658  0.00  0.00    -0.027 A 
HETATM   12  C   UNK     0     -22.515 -27.921  20.522  0.00  0.00    -0.031 A 
HETATM   13  C   UNK     0     -21.324 -28.852  20.480  0.00  0.00     0.051 C 
HETATM   14  C   UNK     0     -25.155 -25.967  22.203  0.00  0.00     0.115 C 
HETATM   15  C   UNK     0     -25.052 -24.451  22.152  0.00  0.00     0.021 A 
HETATM   16  N   UNK     0     -25.235 -23.650  21.085  0.00  0.00    -0.361 N 
HETATM   17  C   UNK     0     -24.985 -22.387  21.437  0.00  0.00     0.022 A 
HETATM   18  C   UNK     0     -24.631 -22.362  22.800  0.00  0.00    -0.027 A 
HETATM   19  C   UNK     0     -24.678 -23.660  23.237  0.00  0.00    -0.031 A 
HETATM   20  C   UNK     0     -24.399 -24.080  24.668  0.00  0.00     0.051 C 
HETATM   21  C   UNK     0     -24.978 -21.128  20.599  0.00  0.00     0.115 C 
HETATM   22  C   UNK     0     -24.526 -21.249  19.162  0.00  0.00     0.022 A 
HETATM   23  N   UNK     0     -23.518 -21.979  18.668  0.00  0.00    -0.361 N 
HETATM   24  C   UNK     0     -23.564 -21.908  17.322  0.00  0.00     0.021 A 
HETATM   25  C   UNK     0     -24.621 -21.104  16.941  0.00  0.00    -0.031 A 
HETATM   26  C   UNK     0     -25.053 -20.693  15.549  0.00  0.00     0.051 C 
HETATM   27  C   UNK     0     -25.252 -20.671  18.102  0.00  0.00    -0.027 A 
HETATM   28  C   UNK     0     -22.686 -22.640  16.322  0.00  0.00     0.115 C 
HETATM   29  H   UNK     0     -21.962 -24.571  18.425  0.00  0.00     0.165 HD
HETATM   30  H   UNK     0     -24.919 -25.998  19.284  0.00  0.00     0.165 HD
HETATM   31  H   UNK     0     -25.595 -23.977  20.075  0.00  0.00     0.165 HD
HETATM   32  H   UNK     0     -22.737 -22.517  19.266  0.00  0.00     0.165 HD
ENDROOT
BRANCH   6  33
HETATM   33  C   UNK     0     -23.718 -27.418  15.052  0.00  0.00     0.051 C 
BRANCH  33  34
HETATM   34  C   UNK     0     -22.547 -28.230  14.552  0.00  0.00     0.114 C 
BRANCH  34  35
HETATM   35  C   UNK     0     -22.236 -27.761  13.171  0.00  0.00     0.139 C 
HETATM   36  O   UNK     0     -21.049 -27.457  12.853  0.00  0.00    -0.650 OA
BRANCH  35  37
HETATM   37  O   UNK     0     -23.207 -27.637  12.185  0.00  0.00    -0.776 OA
HETATM   38  H   UNK     0     -23.217 -28.226  11.368  0.00  0.00     0.167 HD
ENDBRANCH  35  37
ENDBRANCH  34  35
ENDBRANCH  33  34
ENDBRANCH   6  33
BRANCH  27  39
HETATM   39  C   UNK     0     -26.400 -19.723  18.095  0.00  0.00     0.051 C 
BRANCH  39  40
HETATM   40  C   UNK     0     -26.498 -18.745  19.178  0.00  0.00     0.114 C 
BRANCH  40  41
HETATM   41  C   UNK     0     -27.617 -17.837  19.297  0.00  0.00     0.139 C 
HETATM   42  O   UNK     0     -27.513 -16.607  19.196  0.00  0.00    -0.650 OA
BRANCH  41  43
HETATM   43  O   UNK     0     -28.915 -18.368  19.543  0.00  0.00    -0.776 OA
HETATM   44  H   UNK     0     -28.931 -19.363  19.733  0.00  0.00     0.167 HD
ENDBRANCH  41  43
ENDBRANCH  40  41
ENDBRANCH  39  40
ENDBRANCH  27  39
BRANCH  11  45
HETATM   45  C   UNK     0     -22.812 -27.963  23.053  0.00  0.00     0.051 C 
BRANCH  45  46
HETATM   46  C   UNK     0     -23.973 -28.380  23.879  0.00  0.00     0.114 C 
BRANCH  46  47
HETATM   47  C   UNK     0     -23.459 -29.309  24.926  0.00  0.00     0.139 C 
HETATM   48  O   UNK     0     -22.392 -29.905  24.717  0.00  0.00    -0.650 OA
BRANCH  47  49
HETATM   49  O   UNK     0     -24.151 -29.503  26.094  0.00  0.00    -0.776 OA
HETATM   50  H   UNK     0     -23.707 -29.899  26.931  0.00  0.00     0.167 HD
ENDBRANCH  47  49
ENDBRANCH  46  47
ENDBRANCH  45  46
ENDBRANCH  11  45
BRANCH  18  51
HETATM   51  C   UNK     0     -24.288 -21.163  23.646  0.00  0.00     0.051 C 
BRANCH  51  52
HETATM   52  C   UNK     0     -25.596 -20.687  24.261  0.00  0.00     0.114 C 
BRANCH  52  53
HETATM   53  C   UNK     0     -26.164 -19.542  23.524  0.00  0.00     0.139 C 
HETATM   54  O   UNK     0     -27.278 -19.640  22.985  0.00  0.00    -0.650 OA
BRANCH  53  55
HETATM   55  O   UNK     0     -25.453 -18.370  23.437  0.00  0.00    -0.776 OA
HETATM   56  H   UNK     0     -25.769 -17.472  23.720  0.00  0.00     0.167 HD
ENDBRANCH  53  55
ENDBRANCH  52  53
ENDBRANCH  51  52
ENDBRANCH  18  51
TORSDOF 16
ENDMDL
MODEL 15
REMARK VINA RESULT:      -7.5      6.456     10.080
REMARK  16 active torsions:
REMARK  status: ('A' for Active; 'I' for Inactive)
REMARK    1  A    between atoms: C_6  and  C_7 
REMARK    2  A    between atoms: C_7  and  C_8 
REMARK    3  A    between atoms: C_8  and  C_9 
REMARK    4  A    between atoms: C_9  and  O_11 
REMARK    5  A    between atoms: C_16  and  C_17 
REMARK    6  A    between atoms: C_17  and  C_18 
REMARK    7  A    between atoms: C_18  and  C_19 
REMARK    8  A    between atoms: C_19  and  O_21 
REMARK    9  A    between atoms: C_28  and  C_29 
REMARK   10  A    between atoms: C_29  and  C_30 
REMARK   11  A    between atoms: C_30  and  C_31 
REMARK   12  A    between atoms: C_31  and  O_33 
REMARK   13  A    between atoms: C_42  and  C_43 
REMARK   14  A    between atoms: C_43  and  C_44 
REMARK   15  A    between atoms: C_44  and  C_45 
REMARK   16  A    between atoms: C_45  and  O_47 
ROOT
HETATM    1  C   UNK     0     -22.808 -28.265   9.172  0.00  0.00     0.051 C 
HETATM    2  C   UNK     0     -23.513 -27.485  10.263  0.00  0.00    -0.031 A 
HETATM    3  C   UNK     0     -24.116 -27.945  11.423  0.00  0.00     0.021 A 
HETATM    4  N   UNK     0     -24.648 -26.893  12.090  0.00  0.00    -0.361 N 
HETATM    5  C   UNK     0     -24.390 -25.773  11.385  0.00  0.00     0.022 A 
HETATM    6  C   UNK     0     -23.683 -26.107  10.234  0.00  0.00    -0.027 A 
HETATM    7  C   UNK     0     -24.677 -24.344  11.728  0.00  0.00     0.115 C 
HETATM    8  C   UNK     0     -24.406 -23.920  13.161  0.00  0.00     0.021 A 
HETATM    9  N   UNK     0     -23.426 -24.327  13.982  0.00  0.00    -0.361 N 
HETATM   10  C   UNK     0     -23.628 -23.758  15.190  0.00  0.00     0.022 A 
HETATM   11  C   UNK     0     -24.763 -22.955  15.142  0.00  0.00    -0.027 A 
HETATM   12  C   UNK     0     -25.258 -23.052  13.866  0.00  0.00    -0.031 A 
HETATM   13  C   UNK     0     -26.489 -22.341  13.349  0.00  0.00     0.051 C 
HETATM   14  C   UNK     0     -22.793 -23.989  16.446  0.00  0.00     0.115 C 
HETATM   15  C   UNK     0     -22.781 -25.433  16.921  0.00  0.00     0.021 A 
HETATM   16  N   UNK     0     -22.375 -26.519  16.237  0.00  0.00    -0.361 N 
HETATM   17  C   UNK     0     -22.590 -27.609  16.977  0.00  0.00     0.022 A 
HETATM   18  C   UNK     0     -23.155 -27.213  18.206  0.00  0.00    -0.027 A 
HETATM   19  C   UNK     0     -23.268 -25.848  18.158  0.00  0.00    -0.031 A 
HETATM   20  C   UNK     0     -23.801 -25.005  19.303  0.00  0.00     0.051 C 
HETATM   21  C   UNK     0     -22.377 -29.068  16.643  0.00  0.00     0.115 C 
HETATM   22  C   UNK     0     -22.601 -29.496  15.212  0.00  0.00     0.022 A 
HETATM   23  N   UNK     0     -23.565 -29.104  14.369  0.00  0.00    -0.361 N 
HETATM   24  C   UNK     0     -23.300 -29.621  13.152  0.00  0.00     0.021 A 
HETATM   25  C   UNK     0     -22.142 -30.373  13.216  0.00  0.00    -0.031 A 
HETATM   26  C   UNK     0     -21.467 -31.176  12.124  0.00  0.00     0.051 C 
HETATM   27  C   UNK     0     -21.676 -30.308  14.524  0.00  0.00    -0.027 A 
HETATM   28  C   UNK     0     -24.056 -29.382  11.857  0.00  0.00     0.115 C 
HETATM   29  H   UNK     0     -25.238 -26.954  13.034  0.00  0.00     0.165 HD
HETATM   30  H   UNK     0     -22.562 -24.976  13.699  0.00  0.00     0.165 HD
HETATM   31  H   UNK     0     -21.882 -26.514  15.230  0.00  0.00     0.165 HD
HETATM   32  H   UNK     0     -24.467 -28.494  14.636  0.00  0.00     0.165 HD
ENDROOT
BRANCH   6  33
HETATM   33  C   UNK     0     -23.166 -25.229   9.123  0.00  0.00     0.051 C 
BRANCH  33  34
HETATM   34  C   UNK     0     -24.255 -24.944   8.116  0.00  0.00     0.114 C 
BRANCH  34  35
HETATM   35  C   UNK     0     -24.508 -23.474   8.136  0.00  0.00     0.139 C 
HETATM   36  O   UNK     0     -25.623 -23.026   8.533  0.00  0.00    -0.650 OA
BRANCH  35  37
HETATM   37  O   UNK     0     -23.558 -22.545   7.734  0.00  0.00    -0.776 OA
HETATM   38  H   UNK     0     -23.357 -22.371   6.763  0.00  0.00     0.167 HD
ENDBRANCH  35  37
ENDBRANCH  34  35
ENDBRANCH  33  34
ENDBRANCH   6  33
BRANCH  27  39
HETATM   39  C   UNK     0     -20.480 -31.056  14.996  0.00  0.00     0.051 C 
BRANCH  39  40
HETATM   40  C   UNK     0     -19.159 -30.479  14.751  0.00  0.00     0.114 C 
BRANCH  40  41
HETATM   41  C   UNK     0     -18.986 -29.129  14.263  0.00  0.00     0.139 C 
HETATM   42  O   UNK     0     -19.111 -28.123  14.974  0.00  0.00    -0.650 OA
BRANCH  41  43
HETATM   43  O   UNK     0     -18.656 -28.927  12.893  0.00  0.00    -0.776 OA
HETATM   44  H   UNK     0     -18.535 -29.781  12.360  0.00  0.00     0.167 HD
ENDBRANCH  41  43
ENDBRANCH  40  41
ENDBRANCH  39  40
ENDBRANCH  27  39
BRANCH  11  45
HETATM   45  C   UNK     0     -25.374 -22.120  16.236  0.00  0.00     0.051 C 
BRANCH  45  46
HETATM   46  C   UNK     0     -25.012 -20.681  16.174  0.00  0.00     0.114 C 
BRANCH  46  47
HETATM   47  C   UNK     0     -23.850 -20.479  17.086  0.00  0.00     0.139 C 
HETATM   48  O   UNK     0     -23.876 -21.009  18.205  0.00  0.00    -0.650 OA
BRANCH  47  49
HETATM   49  O   UNK     0     -22.774 -19.721  16.696  0.00  0.00    -0.776 OA
HETATM   50  H   UNK     0     -22.542 -19.572  15.707  0.00  0.00     0.167 HD
ENDBRANCH  47  49
ENDBRANCH  46  47
ENDBRANCH  45  46
ENDBRANCH  11  45
BRANCH  18  51
HETATM   51  C   UNK     0     -23.545 -28.086  19.370  0.00  0.00     0.051 C 
BRANCH  51  52
HETATM   52  C   UNK     0     -22.312 -28.193  20.255  0.00  0.00     0.114 C 
BRANCH  52  53
HETATM   53  C   UNK     0     -22.638 -27.983  21.679  0.00  0.00     0.139 C 
HETATM   54  O   UNK     0     -23.553 -27.207  21.999  0.00  0.00    -0.650 OA
BRANCH  53  55
HETATM   55  O   UNK     0     -21.921 -28.646  22.645  0.00  0.00    -0.776 OA
HETATM   56  H   UNK     0     -20.953 -28.864  22.607  0.00  0.00     0.167 HD
ENDBRANCH  53  55
ENDBRANCH  52  53
ENDBRANCH  51  52
ENDBRANCH  18  51
TORSDOF 16
ENDMDL
MODEL 16
REMARK VINA RESULT:      -7.5      4.671      9.670
REMARK  16 active torsions:
REMARK  status: ('A' for Active; 'I' for Inactive)
REMARK    1  A    between atoms: C_6  and  C_7 
REMARK    2  A    between atoms: C_7  and  C_8 
REMARK    3  A    between atoms: C_8  and  C_9 
REMARK    4  A    between atoms: C_9  and  O_11 
REMARK    5  A    between atoms: C_16  and  C_17 
REMARK    6  A    between atoms: C_17  and  C_18 
REMARK    7  A    between atoms: C_18  and  C_19 
REMARK    8  A    between atoms: C_19  and  O_21 
REMARK    9  A    between atoms: C_28  and  C_29 
REMARK   10  A    between atoms: C_29  and  C_30 
REMARK   11  A    between atoms: C_30  and  C_31 
REMARK   12  A    between atoms: C_31  and  O_33 
REMARK   13  A    between atoms: C_42  and  C_43 
REMARK   14  A    between atoms: C_43  and  C_44 
REMARK   15  A    between atoms: C_44  and  C_45 
REMARK   16  A    between atoms: C_45  and  O_47 
ROOT
HETATM    1  C   UNK     0     -25.356 -21.536  16.709  0.00  0.00     0.051 C 
HETATM    2  C   UNK     0     -24.289 -22.605  16.585  0.00  0.00    -0.031 A 
HETATM    3  C   UNK     0     -23.248 -22.913  17.447  0.00  0.00     0.021 A 
HETATM    4  N   UNK     0     -22.521 -23.925  16.917  0.00  0.00    -0.361 N 
HETATM    5  C   UNK     0     -23.081 -24.275  15.740  0.00  0.00     0.022 A 
HETATM    6  C   UNK     0     -24.188 -23.467  15.501  0.00  0.00    -0.027 A 
HETATM    7  C   UNK     0     -22.722 -25.391  14.810  0.00  0.00     0.115 C 
HETATM    8  C   UNK     0     -22.393 -26.730  15.446  0.00  0.00     0.021 A 
HETATM    9  N   UNK     0     -22.935 -27.293  16.536  0.00  0.00    -0.361 N 
HETATM   10  C   UNK     0     -22.272 -28.442  16.788  0.00  0.00     0.022 A 
HETATM   11  C   UNK     0     -21.282 -28.628  15.828  0.00  0.00    -0.027 A 
HETATM   12  C   UNK     0     -21.353 -27.553  14.979  0.00  0.00    -0.031 A 
HETATM   13  C   UNK     0     -20.466 -27.331  13.775  0.00  0.00     0.051 C 
HETATM   14  C   UNK     0     -22.510 -29.379  17.969  0.00  0.00     0.115 C 
HETATM   15  C   UNK     0     -22.281 -28.731  19.325  0.00  0.00     0.021 A 
HETATM   16  N   UNK     0     -22.899 -27.648  19.833  0.00  0.00    -0.361 N 
HETATM   17  C   UNK     0     -22.365 -27.355  21.021  0.00  0.00     0.022 A 
HETATM   18  C   UNK     0     -21.357 -28.298  21.305  0.00  0.00    -0.027 A 
HETATM   19  C   UNK     0     -21.315 -29.155  20.236  0.00  0.00    -0.031 A 
HETATM   20  C   UNK     0     -20.385 -30.351  20.150  0.00  0.00     0.051 C 
HETATM   21  C   UNK     0     -22.652 -26.204  21.958  0.00  0.00     0.115 C 
HETATM   22  C   UNK     0     -23.024 -24.877  21.339  0.00  0.00     0.022 A 
HETATM   23  N   UNK     0     -22.504 -24.293  20.252  0.00  0.00    -0.361 N 
HETATM   24  C   UNK     0     -23.230 -23.191  19.974  0.00  0.00     0.021 A 
HETATM   25  C   UNK     0     -24.235 -23.057  20.912  0.00  0.00    -0.031 A 
HETATM   26  C   UNK     0     -25.275 -21.963  21.044  0.00  0.00     0.051 C 
HETATM   27  C   UNK     0     -24.124 -24.124  21.796  0.00  0.00    -0.027 A 
HETATM   28  C   UNK     0     -23.081 -22.255  18.787  0.00  0.00     0.115 C 
HETATM   29  H   UNK     0     -21.594 -24.359  17.359  0.00  0.00     0.165 HD
HETATM   30  H   UNK     0     -23.819 -26.908  17.102  0.00  0.00     0.165 HD
HETATM   31  H   UNK     0     -23.762 -27.107  19.365  0.00  0.00     0.165 HD
HETATM   32  H   UNK     0     -21.591 -24.630  19.694  0.00  0.00     0.165 HD
ENDROOT
BRANCH   6  33
HETATM   33  C   UNK     0     -25.142 -23.451  14.334  0.00  0.00     0.051 C 
BRANCH  33  34
HETATM   34  C   UNK     0     -24.583 -22.628  13.197  0.00  0.00     0.114 C 
BRANCH  34  35
HETATM   35  C   UNK     0     -25.706 -22.343  12.258  0.00  0.00     0.139 C 
HETATM   36  O   UNK     0     -25.963 -23.142  11.311  0.00  0.00    -0.650 OA
BRANCH  35  37
HETATM   37  O   UNK     0     -26.510 -21.216  12.372  0.00  0.00    -0.776 OA
HETATM   38  H   UNK     0     -27.458 -21.267  12.709  0.00  0.00     0.167 HD
ENDBRANCH  35  37
ENDBRANCH  34  35
ENDBRANCH  33  34
ENDBRANCH   6  33
BRANCH  27  39
HETATM   39  C   UNK     0     -24.997 -24.281  22.991  0.00  0.00     0.051 C 
BRANCH  39  40
HETATM   40  C   UNK     0     -24.585 -23.641  24.241  0.00  0.00     0.114 C 
BRANCH  40  41
HETATM   41  C   UNK     0     -24.902 -22.264  24.543  0.00  0.00     0.139 C 
HETATM   42  O   UNK     0     -24.175 -21.311  24.233  0.00  0.00    -0.650 OA
BRANCH  41  43
HETATM   43  O   UNK     0     -26.112 -21.969  25.234  0.00  0.00    -0.776 OA
HETATM   44  H   UNK     0     -26.716 -22.769  25.382  0.00  0.00     0.167 HD
ENDBRANCH  41  43
ENDBRANCH  40  41
ENDBRANCH  39  40
ENDBRANCH  27  39
BRANCH  11  45
HETATM   45  C   UNK     0     -20.302 -29.762  15.694  0.00  0.00     0.051 C 
BRANCH  45  46
HETATM   46  C   UNK     0     -20.813 -30.915  14.910  0.00  0.00     0.114 C 
BRANCH  46  47
HETATM   47  C   UNK     0     -20.473 -32.152  15.671  0.00  0.00     0.139 C 
HETATM   48  O   UNK     0     -19.905 -33.077  15.074  0.00  0.00    -0.650 OA
BRANCH  47  49
HETATM   49  O   UNK     0     -20.784 -32.265  17.002  0.00  0.00    -0.776 OA
HETATM   50  H   UNK     0     -20.223 -31.812  17.734  0.00  0.00     0.167 HD
ENDBRANCH  47  49
ENDBRANCH  46  47
ENDBRANCH  45  46
ENDBRANCH  11  45
BRANCH  18  51
HETATM   51  C   UNK     0     -20.496 -28.390  22.538  0.00  0.00     0.051 C 
BRANCH  51  52
HETATM   52  C   UNK     0     -21.322 -29.131  23.580  0.00  0.00     0.114 C 
BRANCH  52  53
HETATM   53  C   UNK     0     -20.618 -30.322  24.094  0.00  0.00     0.139 C 
HETATM   54  O   UNK     0     -20.129 -30.311  25.235  0.00  0.00    -0.650 OA
BRANCH  53  55
HETATM   55  O   UNK     0     -20.504 -31.439  23.302  0.00  0.00    -0.776 OA
HETATM   56  H   UNK     0     -19.748 -32.082  23.304  0.00  0.00     0.167 HD
ENDBRANCH  53  55
ENDBRANCH  52  53
ENDBRANCH  51  52
ENDBRANCH  18  51
TORSDOF 16
ENDMDL
MODEL 17
REMARK VINA RESULT:      -7.3     42.043     45.147
REMARK  16 active torsions:
REMARK  status: ('A' for Active; 'I' for Inactive)
REMARK    1  A    between atoms: C_6  and  C_7 
REMARK    2  A    between atoms: C_7  and  C_8 
REMARK    3  A    between atoms: C_8  and  C_9 
REMARK    4  A    between atoms: C_9  and  O_11 
REMARK    5  A    between atoms: C_16  and  C_17 
REMARK    6  A    between atoms: C_17  and  C_18 
REMARK    7  A    between atoms: C_18  and  C_19 
REMARK    8  A    between atoms: C_19  and  O_21 
REMARK    9  A    between atoms: C_28  and  C_29 
REMARK   10  A    between atoms: C_29  and  C_30 
REMARK   11  A    between atoms: C_30  and  C_31 
REMARK   12  A    between atoms: C_31  and  O_33 
REMARK   13  A    between atoms: C_42  and  C_43 
REMARK   14  A    between atoms: C_43  and  C_44 
REMARK   15  A    between atoms: C_44  and  C_45 
REMARK   16  A    between atoms: C_45  and  O_47 
ROOT
HETATM    1  C   UNK     0      21.743 -10.739  20.081  0.00  0.00     0.051 C 
HETATM    2  C   UNK     0      22.353 -11.082  21.425  0.00  0.00    -0.031 A 
HETATM    3  C   UNK     0      22.637 -10.254  22.499  0.00  0.00     0.021 A 
HETATM    4  N   UNK     0      23.208 -10.988  23.483  0.00  0.00    -0.361 N 
HETATM    5  C   UNK     0      23.286 -12.267  23.064  0.00  0.00     0.022 A 
HETATM    6  C   UNK     0      22.762 -12.361  21.779  0.00  0.00    -0.027 A 
HETATM    7  C   UNK     0      23.746 -13.485  23.802  0.00  0.00     0.115 C 
HETATM    8  C   UNK     0      23.287 -13.622  25.243  0.00  0.00     0.021 A 
HETATM    9  N   UNK     0      22.115 -13.260  25.786  0.00  0.00    -0.361 N 
HETATM   10  C   UNK     0      22.180 -13.484  27.115  0.00  0.00     0.022 A 
HETATM   11  C   UNK     0      23.427 -14.014  27.437  0.00  0.00    -0.027 A 
HETATM   12  C   UNK     0      24.129 -14.104  26.262  0.00  0.00    -0.031 A 
HETATM   13  C   UNK     0      25.539 -14.633  26.125  0.00  0.00     0.051 C 
HETATM   14  C   UNK     0      21.096 -13.160  28.139  0.00  0.00     0.115 C 
HETATM   15  C   UNK     0      20.745 -11.682  28.216  0.00  0.00     0.021 A 
HETATM   16  N   UNK     0      20.293 -10.892  27.224  0.00  0.00    -0.361 N 
HETATM   17  C   UNK     0      20.172  -9.643  27.679  0.00  0.00     0.022 A 
HETATM   18  C   UNK     0      20.555  -9.620  29.035  0.00  0.00    -0.027 A 
HETATM   19  C   UNK     0      20.910 -10.904  29.360  0.00  0.00    -0.031 A 
HETATM   20  C   UNK     0      21.355 -11.331  30.746  0.00  0.00     0.051 C 
HETATM   21  C   UNK     0      19.776  -8.378  26.952  0.00  0.00     0.115 C 
HETATM   22  C   UNK     0      20.188  -8.248  25.505  0.00  0.00     0.022 A 
HETATM   23  N   UNK     0      21.348  -8.604  24.936  0.00  0.00    -0.361 N 
HETATM   24  C   UNK     0      21.231  -8.445  23.602  0.00  0.00     0.021 A 
HETATM   25  C   UNK     0      19.970  -7.965  23.306  0.00  0.00    -0.031 A 
HETATM   26  C   UNK     0      19.384  -7.594  21.959  0.00  0.00     0.051 C 
HETATM   27  C   UNK     0      19.284  -7.830  24.507  0.00  0.00    -0.027 A 
HETATM   28  C   UNK     0      22.248  -8.803  22.532  0.00  0.00     0.115 C 
HETATM   29  H   UNK     0      23.589 -10.589  24.452  0.00  0.00     0.165 HD
HETATM   30  H   UNK     0      21.220 -12.892  25.226  0.00  0.00     0.165 HD
HETATM   31  H   UNK     0      20.008 -11.231  26.195  0.00  0.00     0.165 HD
HETATM   32  H   UNK     0      22.275  -8.930  25.476  0.00  0.00     0.165 HD
ENDROOT
BRANCH   6  33
HETATM   33  C   UNK     0      22.624 -13.559  20.872  0.00  0.00     0.051 C 
BRANCH  33  34
HETATM   34  C   UNK     0      23.943 -13.883  20.211  0.00  0.00     0.114 C 
BRANCH  34  35
HETATM   35  C   UNK     0      23.850 -13.444  18.789  0.00  0.00     0.139 C 
HETATM   36  O   UNK     0      24.543 -12.469  18.377  0.00  0.00    -0.650 OA
BRANCH  35  37
HETATM   37  O   UNK     0      23.021 -14.067  17.865  0.00  0.00    -0.776 OA
HETATM   38  H   UNK     0      23.171 -13.987  16.872  0.00  0.00     0.167 HD
ENDBRANCH  35  37
ENDBRANCH  34  35
ENDBRANCH  33  34
ENDBRANCH   6  33
BRANCH  27  39
HETATM   39  C   UNK     0      17.909  -7.269  24.596  0.00  0.00     0.051 C 
BRANCH  39  40
HETATM   40  C   UNK     0      17.662  -6.184  25.545  0.00  0.00     0.114 C 
BRANCH  40  41
HETATM   41  C   UNK     0      16.612  -5.211  25.347  0.00  0.00     0.139 C 
HETATM   42  O   UNK     0      15.964  -5.108  24.296  0.00  0.00    -0.650 OA
BRANCH  41  43
HETATM   43  O   UNK     0      16.291  -4.314  26.406  0.00  0.00    -0.776 OA
HETATM   44  H   UNK     0      15.309  -4.077  26.471  0.00  0.00     0.167 HD
ENDBRANCH  41  43
ENDBRANCH  40  41
ENDBRANCH  39  40
ENDBRANCH  27  39
BRANCH  11  45
HETATM   45  C   UNK     0      23.955 -14.428  28.784  0.00  0.00     0.051 C 
BRANCH  45  46
HETATM   46  C   UNK     0      23.095 -15.407  29.497  0.00  0.00     0.114 C 
BRANCH  46  47
HETATM   47  C   UNK     0      23.049 -16.644  28.664  0.00  0.00     0.139 C 
HETATM   48  O   UNK     0      24.099 -17.276  28.485  0.00  0.00    -0.650 OA
BRANCH  47  49
HETATM   49  O   UNK     0      21.871 -17.072  28.107  0.00  0.00    -0.776 OA
HETATM   50  H   UNK     0      21.816 -17.405  27.138  0.00  0.00     0.167 HD
ENDBRANCH  47  49
ENDBRANCH  46  47
ENDBRANCH  45  46
ENDBRANCH  11  45
BRANCH  18  51
HETATM   51  C   UNK     0      20.561  -8.443  29.976  0.00  0.00     0.051 C 
BRANCH  51  52
HETATM   52  C   UNK     0      21.958  -7.845  29.901  0.00  0.00     0.114 C 
BRANCH  52  53
HETATM   53  C   UNK     0      21.922  -6.403  29.586  0.00  0.00     0.139 C 
HETATM   54  O   UNK     0      20.852  -5.865  29.261  0.00  0.00    -0.650 OA
BRANCH  53  55
HETATM   55  O   UNK     0      23.078  -5.664  29.652  0.00  0.00    -0.776 OA
HETATM   56  H   UNK     0      23.138  -4.673  29.658  0.00  0.00     0.167 HD
ENDBRANCH  53  55
ENDBRANCH  52  53
ENDBRANCH  51  52
ENDBRANCH  18  51
TORSDOF 16
ENDMDL
MODEL 18
REMARK VINA RESULT:      -7.3      7.247     14.236
REMARK  16 active torsions:
REMARK  status: ('A' for Active; 'I' for Inactive)
REMARK    1  A    between atoms: C_6  and  C_7 
REMARK    2  A    between atoms: C_7  and  C_8 
REMARK    3  A    between atoms: C_8  and  C_9 
REMARK    4  A    between atoms: C_9  and  O_11 
REMARK    5  A    between atoms: C_16  and  C_17 
REMARK    6  A    between atoms: C_17  and  C_18 
REMARK    7  A    between atoms: C_18  and  C_19 
REMARK    8  A    between atoms: C_19  and  O_21 
REMARK    9  A    between atoms: C_28  and  C_29 
REMARK   10  A    between atoms: C_29  and  C_30 
REMARK   11  A    between atoms: C_30  and  C_31 
REMARK   12  A    between atoms: C_31  and  O_33 
REMARK   13  A    between atoms: C_42  and  C_43 
REMARK   14  A    between atoms: C_43  and  C_44 
REMARK   15  A    between atoms: C_44  and  C_45 
REMARK   16  A    between atoms: C_45  and  O_47 
ROOT
HETATM    1  C   UNK     0     -24.892 -20.669  14.661  0.00  0.00     0.051 C 
HETATM    2  C   UNK     0     -24.770 -22.131  15.038  0.00  0.00    -0.031 A 
HETATM    3  C   UNK     0     -25.435 -23.232  14.520  0.00  0.00     0.021 A 
HETATM    4  N   UNK     0     -25.033 -24.342  15.182  0.00  0.00    -0.361 N 
HETATM    5  C   UNK     0     -24.119 -23.975  16.104  0.00  0.00     0.022 A 
HETATM    6  C   UNK     0     -23.933 -22.598  16.043  0.00  0.00    -0.027 A 
HETATM    7  C   UNK     0     -23.302 -24.825  17.027  0.00  0.00     0.115 C 
HETATM    8  C   UNK     0     -22.708 -26.093  16.438  0.00  0.00     0.021 A 
HETATM    9  N   UNK     0     -22.232 -26.296  15.200  0.00  0.00    -0.361 N 
HETATM   10  C   UNK     0     -21.890 -27.598  15.091  0.00  0.00     0.022 A 
HETATM   11  C   UNK     0     -22.144 -28.248  16.295  0.00  0.00    -0.027 A 
HETATM   12  C   UNK     0     -22.659 -27.305  17.148  0.00  0.00    -0.031 A 
HETATM   13  C   UNK     0     -23.079 -27.558  18.579  0.00  0.00     0.051 C 
HETATM   14  C   UNK     0     -21.363 -28.289  13.837  0.00  0.00     0.115 C 
HETATM   15  C   UNK     0     -22.327 -28.251  12.661  0.00  0.00     0.021 A 
HETATM   16  N   UNK     0     -22.845 -27.164  12.059  0.00  0.00    -0.361 N 
HETATM   17  C   UNK     0     -23.704 -27.554  11.114  0.00  0.00     0.022 A 
HETATM   18  C   UNK     0     -23.740 -28.963  11.094  0.00  0.00    -0.027 A 
HETATM   19  C   UNK     0     -22.872 -29.387  12.066  0.00  0.00    -0.031 A 
HETATM   20  C   UNK     0     -22.580 -30.847  12.358  0.00  0.00     0.051 C 
HETATM   21  C   UNK     0     -24.594 -26.732  10.210  0.00  0.00     0.115 C 
HETATM   22  C   UNK     0     -25.157 -25.446  10.768  0.00  0.00     0.022 A 
HETATM   23  N   UNK     0     -25.633 -25.213  11.998  0.00  0.00    -0.361 N 
HETATM   24  C   UNK     0     -25.895 -23.895  12.109  0.00  0.00     0.021 A 
HETATM   25  C   UNK     0     -25.588 -23.265  10.918  0.00  0.00    -0.031 A 
HETATM   26  C   UNK     0     -25.747 -21.806  10.542  0.00  0.00     0.051 C 
HETATM   27  C   UNK     0     -25.114 -24.237  10.044  0.00  0.00    -0.027 A 
HETATM   28  C   UNK     0     -26.362 -23.140  13.341  0.00  0.00     0.115 C 
HETATM   29  H   UNK     0     -25.426 -25.373  15.020  0.00  0.00     0.165 HD
HETATM   30  H   UNK     0     -22.090 -25.513  14.416  0.00  0.00     0.165 HD
HETATM   31  H   UNK     0     -22.564 -26.100  12.272  0.00  0.00     0.165 HD
HETATM   32  H   UNK     0     -25.831 -25.985  12.787  0.00  0.00     0.165 HD
ENDROOT
BRANCH   6  33
HETATM   33  C   UNK     0     -23.034 -21.703  16.858  0.00  0.00     0.051 C 
BRANCH  33  34
HETATM   34  C   UNK     0     -23.482 -21.666  18.300  0.00  0.00     0.114 C 
BRANCH  34  35
HETATM   35  C   UNK     0     -24.650 -20.743  18.382  0.00  0.00     0.139 C 
HETATM   36  O   UNK     0     -25.809 -21.201  18.603  0.00  0.00    -0.650 OA
BRANCH  35  37
HETATM   37  O   UNK     0     -24.531 -19.368  18.225  0.00  0.00    -0.776 OA
HETATM   38  H   UNK     0     -23.648 -18.927  18.026  0.00  0.00     0.167 HD
ENDBRANCH  35  37
ENDBRANCH  34  35
ENDBRANCH  33  34
ENDBRANCH   6  33
BRANCH  27  39
HETATM   39  C   UNK     0     -24.748 -23.948   8.631  0.00  0.00     0.051 C 
BRANCH  39  40
HETATM   40  C   UNK     0     -25.710 -24.284   7.582  0.00  0.00     0.114 C 
BRANCH  40  41
HETATM   41  C   UNK     0     -27.134 -24.323   7.826  0.00  0.00     0.139 C 
HETATM   42  O   UNK     0     -27.848 -23.312   7.870  0.00  0.00    -0.650 OA
BRANCH  41  43
HETATM   43  O   UNK     0     -27.767 -25.582   8.029  0.00  0.00    -0.776 OA
HETATM   44  H   UNK     0     -27.637 -26.243   7.273  0.00  0.00     0.167 HD
ENDBRANCH  41  43
ENDBRANCH  40  41
ENDBRANCH  39  40
ENDBRANCH  27  39
BRANCH  11  45
HETATM   45  C   UNK     0     -21.917 -29.692  16.651  0.00  0.00     0.051 C 
BRANCH  45  46
HETATM   46  C   UNK     0     -20.549 -29.986  17.149  0.00  0.00     0.114 C 
BRANCH  46  47
HETATM   47  C   UNK     0     -20.545 -31.400  17.624  0.00  0.00     0.139 C 
HETATM   48  O   UNK     0     -21.215 -32.235  17.000  0.00  0.00    -0.650 OA
BRANCH  47  49
HETATM   49  O   UNK     0     -19.818 -31.769  18.727  0.00  0.00    -0.776 OA
HETATM   50  H   UNK     0     -18.938 -31.305  18.980  0.00  0.00     0.167 HD
ENDBRANCH  47  49
ENDBRANCH  46  47
ENDBRANCH  45  46
ENDBRANCH  11  45
BRANCH  18  51
HETATM   51  C   UNK     0     -24.541 -29.856  10.182  0.00  0.00     0.051 C 
BRANCH  51  52
HETATM   52  C   UNK     0     -25.863 -30.111  10.890  0.00  0.00     0.114 C 
BRANCH  52  53
HETATM   53  C   UNK     0     -27.018 -29.785  10.032  0.00  0.00     0.139 C 
HETATM   54  O   UNK     0     -27.484 -28.634  10.028  0.00  0.00    -0.650 OA
BRANCH  53  55
HETATM   55  O   UNK     0     -27.575 -30.761   9.242  0.00  0.00    -0.776 OA
HETATM   56  H   UNK     0     -27.689 -30.721   8.257  0.00  0.00     0.167 HD
ENDBRANCH  53  55
ENDBRANCH  52  53
ENDBRANCH  51  52
ENDBRANCH  18  51
TORSDOF 16
ENDMDL
MODEL 19
REMARK VINA RESULT:      -7.3     28.155     34.447
REMARK  16 active torsions:
REMARK  status: ('A' for Active; 'I' for Inactive)
REMARK    1  A    between atoms: C_6  and  C_7 
REMARK    2  A    between atoms: C_7  and  C_8 
REMARK    3  A    between atoms: C_8  and  C_9 
REMARK    4  A    between atoms: C_9  and  O_11 
REMARK    5  A    between atoms: C_16  and  C_17 
REMARK    6  A    between atoms: C_17  and  C_18 
REMARK    7  A    between atoms: C_18  and  C_19 
REMARK    8  A    between atoms: C_19  and  O_21 
REMARK    9  A    between atoms: C_28  and  C_29 
REMARK   10  A    between atoms: C_29  and  C_30 
REMARK   11  A    between atoms: C_30  and  C_31 
REMARK   12  A    between atoms: C_31  and  O_33 
REMARK   13  A    between atoms: C_42  and  C_43 
REMARK   14  A    between atoms: C_43  and  C_44 
REMARK   15  A    between atoms: C_44  and  C_45 
REMARK   16  A    between atoms: C_45  and  O_47 
ROOT
HETATM    1  C   UNK     0     -13.262  15.310  21.595  0.00  0.00     0.051 C 
HETATM    2  C   UNK     0     -13.773  13.884  21.563  0.00  0.00    -0.031 A 
HETATM    3  C   UNK     0     -13.073  12.702  21.379  0.00  0.00     0.021 A 
HETATM    4  N   UNK     0     -13.945  11.666  21.393  0.00  0.00    -0.361 N 
HETATM    5  C   UNK     0     -15.184  12.161  21.590  0.00  0.00     0.022 A 
HETATM    6  C   UNK     0     -15.114  13.546  21.698  0.00  0.00    -0.027 A 
HETATM    7  C   UNK     0     -16.480  11.436  21.778  0.00  0.00     0.115 C 
HETATM    8  C   UNK     0     -16.452  10.211  22.675  0.00  0.00     0.021 A 
HETATM    9  N   UNK     0     -15.727  10.003  23.785  0.00  0.00    -0.361 N 
HETATM   10  C   UNK     0     -15.951   8.739  24.201  0.00  0.00     0.022 A 
HETATM   11  C   UNK     0     -16.852   8.118  23.342  0.00  0.00    -0.027 A 
HETATM   12  C   UNK     0     -17.172   9.040  22.378  0.00  0.00    -0.031 A 
HETATM   13  C   UNK     0     -18.128   8.807  21.229  0.00  0.00     0.051 C 
HETATM   14  C   UNK     0     -15.287   8.051  25.391  0.00  0.00     0.115 C 
HETATM   15  C   UNK     0     -13.775   7.943  25.274  0.00  0.00     0.021 A 
HETATM   16  N   UNK     0     -12.888   8.947  25.133  0.00  0.00    -0.361 N 
HETATM   17  C   UNK     0     -11.664   8.434  24.995  0.00  0.00     0.022 A 
HETATM   18  C   UNK     0     -11.755   7.029  25.059  0.00  0.00    -0.027 A 
HETATM   19  C   UNK     0     -13.083   6.735  25.235  0.00  0.00    -0.031 A 
HETATM   20  C   UNK     0     -13.621   5.324  25.391  0.00  0.00     0.051 C 
HETATM   21  C   UNK     0     -10.344   9.125  24.738  0.00  0.00     0.115 C 
HETATM   22  C   UNK     0     -10.363  10.371  23.884  0.00  0.00     0.022 A 
HETATM   23  N   UNK     0     -11.078  10.606  22.777  0.00  0.00    -0.361 N 
HETATM   24  C   UNK     0     -10.900  11.895  22.424  0.00  0.00     0.021 A 
HETATM   25  C   UNK     0     -10.041  12.502  23.321  0.00  0.00    -0.031 A 
HETATM   26  C   UNK     0      -9.510  13.920  23.322  0.00  0.00     0.051 C 
HETATM   27  C   UNK     0      -9.684  11.546  24.265  0.00  0.00    -0.027 A 
HETATM   28  C   UNK     0     -11.574  12.651  21.292  0.00  0.00     0.115 C 
HETATM   29  H   UNK     0     -13.684  10.596  21.224  0.00  0.00     0.165 HD
HETATM   30  H   UNK     0     -15.094  10.764  24.305  0.00  0.00     0.165 HD
HETATM   31  H   UNK     0     -13.124  10.042  25.180  0.00  0.00     0.165 HD
HETATM   32  H   UNK     0     -11.682   9.852  22.208  0.00  0.00     0.165 HD
ENDROOT
BRANCH   6  33
HETATM   33  C   UNK     0     -16.209  14.560  21.915  0.00  0.00     0.051 C 
BRANCH  33  34
HETATM   34  C   UNK     0     -16.800  14.998  20.596  0.00  0.00     0.114 C 
BRANCH  34  35
HETATM   35  C   UNK     0     -16.750  16.488  20.557  0.00  0.00     0.139 C 
HETATM   36  O   UNK     0     -16.369  17.139  21.574  0.00  0.00    -0.650 OA
BRANCH  35  37
HETATM   37  O   UNK     0     -17.107  17.221  19.432  0.00  0.00    -0.776 OA
HETATM   38  H   UNK     0     -18.011  17.128  18.998  0.00  0.00     0.167 HD
ENDBRANCH  35  37
ENDBRANCH  34  35
ENDBRANCH  33  34
ENDBRANCH   6  33
BRANCH  27  39
HETATM   39  C   UNK     0      -8.709  11.810  25.357  0.00  0.00     0.051 C 
BRANCH  39  40
HETATM   40  C   UNK     0      -7.294  11.540  25.105  0.00  0.00     0.114 C 
BRANCH  40  41
HETATM   41  C   UNK     0      -6.356  12.589  24.773  0.00  0.00     0.139 C 
HETATM   42  O   UNK     0      -6.446  13.747  25.203  0.00  0.00    -0.650 OA
BRANCH  41  43
HETATM   43  O   UNK     0      -5.265  12.293  23.907  0.00  0.00    -0.776 OA
HETATM   44  H   UNK     0      -4.390  12.730  24.171  0.00  0.00     0.167 HD
ENDBRANCH  41  43
ENDBRANCH  40  41
ENDBRANCH  39  40
ENDBRANCH  27  39
BRANCH  11  45
HETATM   45  C   UNK     0     -17.405   6.720  23.406  0.00  0.00     0.051 C 
BRANCH  45  46
HETATM   46  C   UNK     0     -16.444   5.668  22.986  0.00  0.00     0.114 C 
BRANCH  46  47
HETATM   47  C   UNK     0     -16.856   4.401  23.655  0.00  0.00     0.139 C 
HETATM   48  O   UNK     0     -17.240   4.449  24.832  0.00  0.00    -0.650 OA
BRANCH  47  49
HETATM   49  O   UNK     0     -16.810   3.205  22.983  0.00  0.00    -0.776 OA
HETATM   50  H   UNK     0     -17.522   2.941  22.291  0.00  0.00     0.167 HD
ENDBRANCH  47  49
ENDBRANCH  46  47
ENDBRANCH  45  46
ENDBRANCH  11  45
BRANCH  18  51
HETATM   51  C   UNK     0     -10.637   6.023  24.977  0.00  0.00     0.051 C 
BRANCH  51  52
HETATM   52  C   UNK     0     -10.027   5.950  26.370  0.00  0.00     0.114 C 
BRANCH  52  53
HETATM   53  C   UNK     0      -8.617   5.518  26.330  0.00  0.00     0.139 C 
HETATM   54  O   UNK     0      -8.303   4.471  25.742  0.00  0.00    -0.650 OA
BRANCH  53  55
HETATM   55  O   UNK     0      -7.655   6.279  26.950  0.00  0.00    -0.776 OA
HETATM   56  H   UNK     0      -6.878   5.934  27.462  0.00  0.00     0.167 HD
ENDBRANCH  53  55
ENDBRANCH  52  53
ENDBRANCH  51  52
ENDBRANCH  18  51
TORSDOF 16
ENDMDL
MODEL 20
REMARK VINA RESULT:      -7.3      5.378     10.986
REMARK  16 active torsions:
REMARK  status: ('A' for Active; 'I' for Inactive)
REMARK    1  A    between atoms: C_6  and  C_7 
REMARK    2  A    between atoms: C_7  and  C_8 
REMARK    3  A    between atoms: C_8  and  C_9 
REMARK    4  A    between atoms: C_9  and  O_11 
REMARK    5  A    between atoms: C_16  and  C_17 
REMARK    6  A    between atoms: C_17  and  C_18 
REMARK    7  A    between atoms: C_18  and  C_19 
REMARK    8  A    between atoms: C_19  and  O_21 
REMARK    9  A    between atoms: C_28  and  C_29 
REMARK   10  A    between atoms: C_29  and  C_30 
REMARK   11  A    between atoms: C_30  and  C_31 
REMARK   12  A    between atoms: C_31  and  O_33 
REMARK   13  A    between atoms: C_42  and  C_43 
REMARK   14  A    between atoms: C_43  and  C_44 
REMARK   15  A    between atoms: C_44  and  C_45 
REMARK   16  A    between atoms: C_45  and  O_47 
ROOT
HETATM    1  C   UNK     0     -21.636 -29.714  12.132  0.00  0.00     0.051 C 
HETATM    2  C   UNK     0     -21.167 -29.452  13.548  0.00  0.00    -0.031 A 
HETATM    3  C   UNK     0     -20.810 -28.255  14.149  0.00  0.00     0.021 A 
HETATM    4  N   UNK     0     -20.423 -28.500  15.424  0.00  0.00    -0.361 N 
HETATM    5  C   UNK     0     -20.534 -29.825  15.651  0.00  0.00     0.022 A 
HETATM    6  C   UNK     0     -20.994 -30.451  14.497  0.00  0.00    -0.027 A 
HETATM    7  C   UNK     0     -20.322 -30.595  16.916  0.00  0.00     0.115 C 
HETATM    8  C   UNK     0     -20.877 -29.980  18.189  0.00  0.00     0.021 A 
HETATM    9  N   UNK     0     -22.002 -29.268  18.352  0.00  0.00    -0.361 N 
HETATM   10  C   UNK     0     -22.049 -28.844  19.633  0.00  0.00     0.022 A 
HETATM   11  C   UNK     0     -20.926 -29.304  20.316  0.00  0.00    -0.027 A 
HETATM   12  C   UNK     0     -20.184 -30.020  19.413  0.00  0.00    -0.031 A 
HETATM   13  C   UNK     0     -18.874 -30.714  19.712  0.00  0.00     0.051 C 
HETATM   14  C   UNK     0     -23.120 -27.949  20.248  0.00  0.00     0.115 C 
HETATM   15  C   UNK     0     -23.228 -26.580  19.595  0.00  0.00     0.021 A 
HETATM   16  N   UNK     0     -23.488 -26.304  18.304  0.00  0.00    -0.361 N 
HETATM   17  C   UNK     0     -23.427 -24.984  18.116  0.00  0.00     0.022 A 
HETATM   18  C   UNK     0     -23.122 -24.369  19.347  0.00  0.00    -0.027 A 
HETATM   19  C   UNK     0     -23.002 -25.380  20.266  0.00  0.00    -0.031 A 
HETATM   20  C   UNK     0     -22.711 -25.152  21.738  0.00  0.00     0.051 C 
HETATM   21  C   UNK     0     -23.569 -24.175  16.847  0.00  0.00     0.115 C 
HETATM   22  C   UNK     0     -23.061 -24.793  15.566  0.00  0.00     0.022 A 
HETATM   23  N   UNK     0     -21.946 -25.510  15.375  0.00  0.00    -0.361 N 
HETATM   24  C   UNK     0     -21.960 -25.987  14.114  0.00  0.00     0.021 A 
HETATM   25  C   UNK     0     -23.106 -25.558  13.474  0.00  0.00    -0.031 A 
HETATM   26  C   UNK     0     -23.548 -25.799  12.045  0.00  0.00     0.051 C 
HETATM   27  C   UNK     0     -23.827 -24.792  14.383  0.00  0.00    -0.027 A 
HETATM   28  C   UNK     0     -20.958 -26.926  13.464  0.00  0.00     0.115 C 
HETATM   29  H   UNK     0     -20.037 -27.739  16.142  0.00  0.00     0.165 HD
HETATM   30  H   UNK     0     -22.792 -29.105  17.578  0.00  0.00     0.165 HD
HETATM   31  H   UNK     0     -23.767 -27.053  17.517  0.00  0.00     0.165 HD
HETATM   32  H   UNK     0     -21.117 -25.651  16.116  0.00  0.00     0.165 HD
ENDROOT
BRANCH   6  33
HETATM   33  C   UNK     0     -21.275 -31.908  14.231  0.00  0.00     0.051 C 
BRANCH  33  34
HETATM   34  C   UNK     0     -20.047 -32.600  13.688  0.00  0.00     0.114 C 
BRANCH  34  35
HETATM   35  C   UNK     0     -20.437 -33.266  12.412  0.00  0.00     0.139 C 
HETATM   36  O   UNK     0     -21.423 -34.058  12.382  0.00  0.00    -0.650 OA
BRANCH  35  37
HETATM   37  O   UNK     0     -19.757 -33.055  11.218  0.00  0.00    -0.776 OA
HETATM   38  H   UNK     0     -19.888 -32.222  10.668  0.00  0.00     0.167 HD
ENDBRANCH  35  37
ENDBRANCH  34  35
ENDBRANCH  33  34
ENDBRANCH   6  33
BRANCH  27  39
HETATM   39  C   UNK     0     -25.095 -24.096  14.030  0.00  0.00     0.051 C 
BRANCH  39  40
HETATM   40  C   UNK     0     -25.024 -22.700  13.601  0.00  0.00     0.114 C 
BRANCH  40  41
HETATM   41  C   UNK     0     -23.981 -21.806  14.054  0.00  0.00     0.139 C 
HETATM   42  O   UNK     0     -24.131 -20.992  14.974  0.00  0.00    -0.650 OA
BRANCH  41  43
HETATM   43  O   UNK     0     -22.708 -21.852  13.417  0.00  0.00    -0.776 OA
HETATM   44  H   UNK     0     -21.936 -22.056  14.040  0.00  0.00     0.167 HD
ENDBRANCH  41  43
ENDBRANCH  40  41
ENDBRANCH  39  40
ENDBRANCH  27  39
BRANCH  11  45
HETATM   45  C   UNK     0     -20.549 -29.093  21.758  0.00  0.00     0.051 C 
BRANCH  45  46
HETATM   46  C   UNK     0     -19.774 -27.850  22.006  0.00  0.00     0.114 C 
BRANCH  46  47
HETATM   47  C   UNK     0     -18.363 -28.256  22.269  0.00  0.00     0.139 C 
HETATM   48  O   UNK     0     -17.464 -27.748  21.585  0.00  0.00    -0.650 OA
BRANCH  47  49
HETATM   49  O   UNK     0     -18.066 -29.172  23.247  0.00  0.00    -0.776 OA
HETATM   50  H   UNK     0     -17.364 -28.986  23.973  0.00  0.00     0.167 HD
ENDBRANCH  47  49
ENDBRANCH  46  47
ENDBRANCH  45  46
ENDBRANCH  11  45
BRANCH  18  51
HETATM   51  C   UNK     0     -22.976 -22.898  19.636  0.00  0.00     0.051 C 
BRANCH  51  52
HETATM   52  C   UNK     0     -24.383 -22.365  19.861  0.00  0.00     0.114 C 
BRANCH  52  53
HETATM   53  C   UNK     0     -24.764 -21.371  18.839  0.00  0.00     0.139 C 
HETATM   54  O   UNK     0     -23.953 -20.500  18.487  0.00  0.00    -0.650 OA
BRANCH  53  55
HETATM   55  O   UNK     0     -26.020 -21.415  18.284  0.00  0.00    -0.776 OA
HETATM   56  H   UNK     0     -26.632 -20.643  18.163  0.00  0.00     0.167 HD
ENDBRANCH  53  55
ENDBRANCH  52  53
ENDBRANCH  51  52
ENDBRANCH  18  51
TORSDOF 16
ENDMDL
