MODEL 1
REMARK VINA RESULT:      -8.8      0.000      0.000
REMARK  16 active torsions:
REMARK  status: ('A' for Active; 'I' for Inactive)
REMARK    1  A    between atoms: C_6  and  C_7 
REMARK    2  A    between atoms: C_7  and  C_8 
REMARK    3  A    between atoms: C_8  and  C_9 
REMARK    4  A    between atoms: C_9  and  O_11 
REMARK    5  A    between atoms: C_16  and  C_17 
REMARK    6  A    between atoms: C_17  and  C_18 
REMARK    7  A    between atoms: C_18  and  C_19 
REMARK    8  A    between atoms: C_19  and  O_21 
REMARK    9  A    between atoms: C_28  and  C_29 
REMARK   10  A    between atoms: C_29  and  C_30 
REMARK   11  A    between atoms: C_30  and  C_31 
REMARK   12  A    between atoms: C_31  and  O_33 
REMARK   13  A    between atoms: C_42  and  C_43 
REMARK   14  A    between atoms: C_43  and  C_44 
REMARK   15  A    between atoms: C_44  and  C_45 
REMARK   16  A    between atoms: C_45  and  O_47 
ROOT
HETATM    1  C   UNK     0     -29.478  -8.631   4.986  0.00  0.00     0.051 C 
HETATM    2  C   UNK     0     -30.502  -7.522   5.115  0.00  0.00    -0.031 A 
HETATM    3  C   UNK     0     -31.683  -7.495   5.840  0.00  0.00     0.021 A 
HETATM    4  N   UNK     0     -32.299  -6.306   5.636  0.00  0.00    -0.361 N 
HETATM    5  C   UNK     0     -31.532  -5.572   4.804  0.00  0.00     0.022 A 
HETATM    6  C   UNK     0     -30.401  -6.304   4.456  0.00  0.00    -0.027 A 
HETATM    7  C   UNK     0     -31.711  -4.160   4.341  0.00  0.00     0.115 C 
HETATM    8  C   UNK     0     -32.150  -3.150   5.386  0.00  0.00     0.021 A 
HETATM    9  N   UNK     0     -31.816  -3.092   6.685  0.00  0.00    -0.361 N 
HETATM   10  C   UNK     0     -32.512  -2.084   7.252  0.00  0.00     0.022 A 
HETATM   11  C   UNK     0     -33.309  -1.470   6.291  0.00  0.00    -0.027 A 
HETATM   12  C   UNK     0     -33.085  -2.136   5.113  0.00  0.00    -0.031 A 
HETATM   13  C   UNK     0     -33.736  -1.810   3.787  0.00  0.00     0.051 C 
HETATM   14  C   UNK     0     -32.494  -1.695   8.728  0.00  0.00     0.115 C 
HETATM   15  C   UNK     0     -32.969  -2.798   9.661  0.00  0.00     0.021 A 
HETATM   16  N   UNK     0     -32.456  -4.035   9.798  0.00  0.00    -0.361 N 
HETATM   17  C   UNK     0     -33.200  -4.723  10.668  0.00  0.00     0.022 A 
HETATM   18  C   UNK     0     -34.241  -3.891  11.126  0.00  0.00    -0.027 A 
HETATM   19  C   UNK     0     -34.084  -2.688  10.489  0.00  0.00    -0.031 A 
HETATM   20  C   UNK     0     -34.980  -1.486  10.724  0.00  0.00     0.051 C 
HETATM   21  C   UNK     0     -33.092  -6.165  11.111  0.00  0.00     0.115 C 
HETATM   22  C   UNK     0     -32.615  -7.174  10.093  0.00  0.00     0.022 A 
HETATM   23  N   UNK     0     -32.927  -7.253   8.793  0.00  0.00    -0.361 N 
HETATM   24  C   UNK     0     -32.165  -8.212   8.232  0.00  0.00     0.021 A 
HETATM   25  C   UNK     0     -31.349  -8.772   9.196  0.00  0.00    -0.031 A 
HETATM   26  C   UNK     0     -30.353  -9.905   9.061  0.00  0.00     0.051 C 
HETATM   27  C   UNK     0     -31.618  -8.124  10.395  0.00  0.00    -0.027 A 
HETATM   28  C   UNK     0     -32.094  -8.605   6.766  0.00  0.00     0.115 C 
HETATM   29  H   UNK     0     -33.290  -6.009   6.050  0.00  0.00     0.165 HD
HETATM   30  H   UNK     0     -31.051  -3.729   7.193  0.00  0.00     0.165 HD
HETATM   31  H   UNK     0     -31.523  -4.416   9.308  0.00  0.00     0.165 HD
HETATM   32  H   UNK     0     -33.721  -6.660   8.268  0.00  0.00     0.165 HD
ENDROOT
BRANCH   6  33
HETATM   33  C   UNK     0     -29.249  -5.939   3.555  0.00  0.00     0.051 C 
BRANCH  33  34
HETATM   34  C   UNK     0     -29.281  -6.759   2.287  0.00  0.00     0.114 C 
BRANCH  34  35
HETATM   35  C   UNK     0     -27.968  -7.457   2.174  0.00  0.00     0.139 C 
HETATM   36  O   UNK     0     -27.823  -8.412   1.356  0.00  0.00    -0.650 OA
BRANCH  35  37
HETATM   37  O   UNK     0     -26.863  -7.105   2.939  0.00  0.00    -0.776 OA
HETATM   38  H   UNK     0     -26.121  -6.530   2.574  0.00  0.00     0.167 HD
ENDBRANCH  35  37
ENDBRANCH  34  35
ENDBRANCH  33  34
ENDBRANCH   6  33
BRANCH  27  39
HETATM   39  C   UNK     0     -30.979  -8.505  11.684  0.00  0.00     0.051 C 
BRANCH  39  40
HETATM   40  C   UNK     0     -31.596  -9.568  12.477  0.00  0.00     0.114 C 
BRANCH  40  41
HETATM   41  C   UNK     0     -32.090 -10.788  11.879  0.00  0.00     0.139 C 
HETATM   42  O   UNK     0     -33.195 -10.881  11.329  0.00  0.00    -0.650 OA
BRANCH  41  43
HETATM   43  O   UNK     0     -31.274 -11.955  11.917  0.00  0.00    -0.776 OA
HETATM   44  H   UNK     0     -31.147 -12.347  12.842  0.00  0.00     0.167 HD
ENDBRANCH  41  43
ENDBRANCH  40  41
ENDBRANCH  39  40
ENDBRANCH  27  39
BRANCH  11  45
HETATM   45  C   UNK     0     -34.246  -0.303   6.450  0.00  0.00     0.051 C 
BRANCH  45  46
HETATM   46  C   UNK     0     -33.675   0.832   7.220  0.00  0.00     0.114 C 
BRANCH  46  47
HETATM   47  C   UNK     0     -34.805   1.494   7.934  0.00  0.00     0.139 C 
HETATM   48  O   UNK     0     -34.679   2.679   8.272  0.00  0.00    -0.650 OA
BRANCH  47  49
HETATM   49  O   UNK     0     -35.960   0.806   8.212  0.00  0.00    -0.776 OA
HETATM   50  H   UNK     0     -36.834   1.286   8.457  0.00  0.00     0.167 HD
ENDBRANCH  47  49
ENDBRANCH  46  47
ENDBRANCH  45  46
ENDBRANCH  11  45
BRANCH  18  51
HETATM   51  C   UNK     0     -35.313  -4.219  12.132  0.00  0.00     0.051 C 
BRANCH  51  52
HETATM   52  C   UNK     0     -36.259  -5.192  11.445  0.00  0.00     0.114 C 
BRANCH  52  53
HETATM   53  C   UNK     0     -37.418  -4.503  10.846  0.00  0.00     0.139 C 
HETATM   54  O   UNK     0     -37.734  -3.367  11.234  0.00  0.00    -0.650 OA
BRANCH  53  55
HETATM   55  O   UNK     0     -38.146  -5.126   9.862  0.00  0.00    -0.776 OA
HETATM   56  H   UNK     0     -37.811  -5.828   9.244  0.00  0.00     0.167 HD
ENDBRANCH  53  55
ENDBRANCH  52  53
ENDBRANCH  51  52
ENDBRANCH  18  51
TORSDOF 16
ENDMDL
MODEL 2
REMARK VINA RESULT:      -8.7      2.458      7.459
REMARK  16 active torsions:
REMARK  status: ('A' for Active; 'I' for Inactive)
REMARK    1  A    between atoms: C_6  and  C_7 
REMARK    2  A    between atoms: C_7  and  C_8 
REMARK    3  A    between atoms: C_8  and  C_9 
REMARK    4  A    between atoms: C_9  and  O_11 
REMARK    5  A    between atoms: C_16  and  C_17 
REMARK    6  A    between atoms: C_17  and  C_18 
REMARK    7  A    between atoms: C_18  and  C_19 
REMARK    8  A    between atoms: C_19  and  O_21 
REMARK    9  A    between atoms: C_28  and  C_29 
REMARK   10  A    between atoms: C_29  and  C_30 
REMARK   11  A    between atoms: C_30  and  C_31 
REMARK   12  A    between atoms: C_31  and  O_33 
REMARK   13  A    between atoms: C_42  and  C_43 
REMARK   14  A    between atoms: C_43  and  C_44 
REMARK   15  A    between atoms: C_44  and  C_45 
REMARK   16  A    between atoms: C_45  and  O_47 
ROOT
HETATM    1  C   UNK     0     -30.660  -4.793   4.251  0.00  0.00     0.051 C 
HETATM    2  C   UNK     0     -30.951  -4.867   5.736  0.00  0.00    -0.031 A 
HETATM    3  C   UNK     0     -30.773  -3.905   6.717  0.00  0.00     0.021 A 
HETATM    4  N   UNK     0     -31.140  -4.420   7.914  0.00  0.00    -0.361 N 
HETATM    5  C   UNK     0     -31.557  -5.688   7.716  0.00  0.00     0.022 A 
HETATM    6  C   UNK     0     -31.449  -6.001   6.365  0.00  0.00    -0.027 A 
HETATM    7  C   UNK     0     -32.150  -6.659   8.689  0.00  0.00     0.115 C 
HETATM    8  C   UNK     0     -33.176  -6.106   9.663  0.00  0.00     0.021 A 
HETATM    9  N   UNK     0     -34.098  -5.154   9.455  0.00  0.00    -0.361 N 
HETATM   10  C   UNK     0     -34.729  -4.919  10.625  0.00  0.00     0.022 A 
HETATM   11  C   UNK     0     -34.206  -5.750  11.611  0.00  0.00    -0.027 A 
HETATM   12  C   UNK     0     -33.227  -6.500  11.012  0.00  0.00    -0.031 A 
HETATM   13  C   UNK     0     -32.385  -7.550  11.702  0.00  0.00     0.051 C 
HETATM   14  C   UNK     0     -35.809  -3.869  10.871  0.00  0.00     0.115 C 
HETATM   15  C   UNK     0     -35.351  -2.442  10.618  0.00  0.00     0.021 A 
HETATM   16  N   UNK     0     -34.862  -1.927   9.474  0.00  0.00    -0.361 N 
HETATM   17  C   UNK     0     -34.509  -0.657   9.680  0.00  0.00     0.022 A 
HETATM   18  C   UNK     0     -34.789  -0.325  11.021  0.00  0.00    -0.027 A 
HETATM   19  C   UNK     0     -35.317  -1.451  11.597  0.00  0.00    -0.031 A 
HETATM   20  C   UNK     0     -35.793  -1.519  13.036  0.00  0.00     0.051 C 
HETATM   21  C   UNK     0     -33.849   0.332   8.747  0.00  0.00     0.115 C 
HETATM   22  C   UNK     0     -32.858  -0.209   7.743  0.00  0.00     0.022 A 
HETATM   23  N   UNK     0     -31.932  -1.160   7.921  0.00  0.00    -0.361 N 
HETATM   24  C   UNK     0     -31.370  -1.433   6.727  0.00  0.00     0.021 A 
HETATM   25  C   UNK     0     -31.941  -0.631   5.757  0.00  0.00    -0.031 A 
HETATM   26  C   UNK     0     -31.616  -0.542   4.281  0.00  0.00     0.051 C 
HETATM   27  C   UNK     0     -32.896   0.161   6.384  0.00  0.00    -0.027 A 
HETATM   28  C   UNK     0     -30.337  -2.500   6.407  0.00  0.00     0.115 C 
HETATM   29  H   UNK     0     -31.065  -3.899   8.896  0.00  0.00     0.165 HD
HETATM   30  H   UNK     0     -34.340  -4.680   8.472  0.00  0.00     0.165 HD
HETATM   31  H   UNK     0     -34.810  -2.456   8.487  0.00  0.00     0.165 HD
HETATM   32  H   UNK     0     -31.636  -1.618   8.901  0.00  0.00     0.165 HD
ENDROOT
BRANCH   6  33
HETATM   33  C   UNK     0     -31.777  -7.280   5.636  0.00  0.00     0.051 C 
BRANCH  33  34
HETATM   34  C   UNK     0     -30.518  -7.957   5.150  0.00  0.00     0.114 C 
BRANCH  34  35
HETATM   35  C   UNK     0     -30.401  -9.255   5.875  0.00  0.00     0.139 C 
HETATM   36  O   UNK     0     -30.394  -9.281   7.140  0.00  0.00    -0.650 OA
BRANCH  35  37
HETATM   37  O   UNK     0     -30.299 -10.474   5.215  0.00  0.00    -0.776 OA
HETATM   38  H   UNK     0     -29.531 -10.686   4.598  0.00  0.00     0.167 HD
ENDBRANCH  35  37
ENDBRANCH  34  35
ENDBRANCH  33  34
ENDBRANCH   6  33
BRANCH  27  39
HETATM   39  C   UNK     0     -33.675   1.209   5.669  0.00  0.00     0.051 C 
BRANCH  39  40
HETATM   40  C   UNK     0     -35.057   0.911   5.294  0.00  0.00     0.114 C 
BRANCH  40  41
HETATM   41  C   UNK     0     -36.185   1.532   5.952  0.00  0.00     0.139 C 
HETATM   42  O   UNK     0     -36.709   2.585   5.563  0.00  0.00    -0.650 OA
BRANCH  41  43
HETATM   43  O   UNK     0     -36.735   0.914   7.111  0.00  0.00    -0.776 OA
HETATM   44  H   UNK     0     -36.608   1.440   7.967  0.00  0.00     0.167 HD
ENDBRANCH  41  43
ENDBRANCH  40  41
ENDBRANCH  39  40
ENDBRANCH  27  39
BRANCH  11  45
HETATM   45  C   UNK     0     -34.596  -5.852  13.061  0.00  0.00     0.051 C 
BRANCH  45  46
HETATM   46  C   UNK     0     -35.970  -5.369  13.354  0.00  0.00     0.114 C 
BRANCH  46  47
HETATM   47  C   UNK     0     -36.908  -6.480  13.025  0.00  0.00     0.139 C 
HETATM   48  O   UNK     0     -37.800  -6.275  12.189  0.00  0.00    -0.650 OA
BRANCH  47  49
HETATM   49  O   UNK     0     -36.789  -7.704  13.634  0.00  0.00    -0.776 OA
HETATM   50  H   UNK     0     -36.588  -8.560  13.103  0.00  0.00     0.167 HD
ENDBRANCH  47  49
ENDBRANCH  46  47
ENDBRANCH  45  46
ENDBRANCH  11  45
BRANCH  18  51
HETATM   51  C   UNK     0     -34.584   0.999  11.710  0.00  0.00     0.051 C 
BRANCH  51  52
HETATM   52  C   UNK     0     -35.955   1.652  11.794  0.00  0.00     0.114 C 
BRANCH  52  53
HETATM   53  C   UNK     0     -36.587   1.778  10.466  0.00  0.00     0.139 C 
HETATM   54  O   UNK     0     -36.202   2.654   9.676  0.00  0.00    -0.650 OA
BRANCH  53  55
HETATM   55  O   UNK     0     -37.603   0.924  10.113  0.00  0.00    -0.776 OA
HETATM   56  H   UNK     0     -38.569   1.150  10.074  0.00  0.00     0.167 HD
ENDBRANCH  53  55
ENDBRANCH  52  53
ENDBRANCH  51  52
ENDBRANCH  18  51
TORSDOF 16
ENDMDL
MODEL 3
REMARK VINA RESULT:      -8.7     23.577     26.095
REMARK  16 active torsions:
REMARK  status: ('A' for Active; 'I' for Inactive)
REMARK    1  A    between atoms: C_6  and  C_7 
REMARK    2  A    between atoms: C_7  and  C_8 
REMARK    3  A    between atoms: C_8  and  C_9 
REMARK    4  A    between atoms: C_9  and  O_11 
REMARK    5  A    between atoms: C_16  and  C_17 
REMARK    6  A    between atoms: C_17  and  C_18 
REMARK    7  A    between atoms: C_18  and  C_19 
REMARK    8  A    between atoms: C_19  and  O_21 
REMARK    9  A    between atoms: C_28  and  C_29 
REMARK   10  A    between atoms: C_29  and  C_30 
REMARK   11  A    between atoms: C_30  and  C_31 
REMARK   12  A    between atoms: C_31  and  O_33 
REMARK   13  A    between atoms: C_42  and  C_43 
REMARK   14  A    between atoms: C_43  and  C_44 
REMARK   15  A    between atoms: C_44  and  C_45 
REMARK   16  A    between atoms: C_45  and  O_47 
ROOT
HETATM    1  C   UNK     0     -14.846   6.445   9.587  0.00  0.00     0.051 C 
HETATM    2  C   UNK     0     -13.793   5.549  10.207  0.00  0.00    -0.031 A 
HETATM    3  C   UNK     0     -12.455   5.809  10.459  0.00  0.00     0.021 A 
HETATM    4  N   UNK     0     -11.885   4.705  10.997  0.00  0.00    -0.361 N 
HETATM    5  C   UNK     0     -12.832   3.750  11.101  0.00  0.00     0.022 A 
HETATM    6  C   UNK     0     -14.037   4.244  10.614  0.00  0.00    -0.027 A 
HETATM    7  C   UNK     0     -12.746   2.386  11.712  0.00  0.00     0.115 C 
HETATM    8  C   UNK     0     -11.998   2.275  13.029  0.00  0.00     0.021 A 
HETATM    9  N   UNK     0     -11.949   3.156  14.040  0.00  0.00    -0.361 N 
HETATM   10  C   UNK     0     -11.089   2.684  14.967  0.00  0.00     0.022 A 
HETATM   11  C   UNK     0     -10.578   1.460  14.546  0.00  0.00    -0.027 A 
HETATM   12  C   UNK     0     -11.146   1.196  13.326  0.00  0.00    -0.031 A 
HETATM   13  C   UNK     0     -10.887  -0.036  12.489  0.00  0.00     0.051 C 
HETATM   14  C   UNK     0     -10.677   3.388  16.256  0.00  0.00     0.115 C 
HETATM   15  C   UNK     0      -9.993   4.728  16.034  0.00  0.00     0.021 A 
HETATM   16  N   UNK     0     -10.484   5.805  15.394  0.00  0.00    -0.361 N 
HETATM   17  C   UNK     0      -9.547   6.755  15.352  0.00  0.00     0.022 A 
HETATM   18  C   UNK     0      -8.394   6.278  16.004  0.00  0.00    -0.027 A 
HETATM   19  C   UNK     0      -8.686   5.007  16.428  0.00  0.00    -0.031 A 
HETATM   20  C   UNK     0      -7.722   4.137  17.215  0.00  0.00     0.051 C 
HETATM   21  C   UNK     0      -9.571   8.114  14.690  0.00  0.00     0.115 C 
HETATM   22  C   UNK     0     -10.349   8.250  13.402  0.00  0.00     0.022 A 
HETATM   23  N   UNK     0     -10.419   7.387  12.381  0.00  0.00    -0.361 N 
HETATM   24  C   UNK     0     -11.339   7.840  11.506  0.00  0.00     0.021 A 
HETATM   25  C   UNK     0     -11.867   9.030  11.970  0.00  0.00    -0.031 A 
HETATM   26  C   UNK     0     -12.895   9.933  11.323  0.00  0.00     0.051 C 
HETATM   27  C   UNK     0     -11.248   9.313  13.183  0.00  0.00    -0.027 A 
HETATM   28  C   UNK     0     -11.834   7.160  10.241  0.00  0.00     0.115 C 
HETATM   29  H   UNK     0     -10.808   4.594  11.262  0.00  0.00     0.165 HD
HETATM   30  H   UNK     0     -12.558   4.089  14.125  0.00  0.00     0.165 HD
HETATM   31  H   UNK     0     -11.530   5.916  15.005  0.00  0.00     0.165 HD
HETATM   32  H   UNK     0      -9.787   6.470  12.246  0.00  0.00     0.165 HD
ENDROOT
BRANCH   6  33
HETATM   33  C   UNK     0     -15.385   3.578  10.504  0.00  0.00     0.051 C 
BRANCH  33  34
HETATM   34  C   UNK     0     -15.455   2.712   9.269  0.00  0.00     0.114 C 
BRANCH  34  35
HETATM   35  C   UNK     0     -16.328   3.410   8.282  0.00  0.00     0.139 C 
HETATM   36  O   UNK     0     -17.583   3.429   8.442  0.00  0.00    -0.650 OA
BRANCH  35  37
HETATM   37  O   UNK     0     -15.821   4.063   7.164  0.00  0.00    -0.776 OA
HETATM   38  H   UNK     0     -16.398   4.644   6.578  0.00  0.00     0.167 HD
ENDBRANCH  35  37
ENDBRANCH  34  35
ENDBRANCH  33  34
ENDBRANCH   6  33
BRANCH  27  39
HETATM   39  C   UNK     0     -11.508  10.558  13.954  0.00  0.00     0.051 C 
BRANCH  39  40
HETATM   40  C   UNK     0     -10.962  11.816  13.445  0.00  0.00     0.114 C 
BRANCH  40  41
HETATM   41  C   UNK     0      -9.575  12.182  13.623  0.00  0.00     0.139 C 
HETATM   42  O   UNK     0      -9.031  13.114  13.016  0.00  0.00    -0.650 OA
BRANCH  41  43
HETATM   43  O   UNK     0      -8.777  11.440  14.539  0.00  0.00    -0.776 OA
HETATM   44  H   UNK     0      -8.188  10.737  14.109  0.00  0.00     0.167 HD
ENDBRANCH  41  43
ENDBRANCH  40  41
ENDBRANCH  39  40
ENDBRANCH  27  39
BRANCH  11  45
HETATM   45  C   UNK     0      -9.598   0.558  15.247  0.00  0.00     0.051 C 
BRANCH  45  46
HETATM   46  C   UNK     0     -10.018   0.148  16.611  0.00  0.00     0.114 C 
BRANCH  46  47
HETATM   47  C   UNK     0     -10.743  -1.148  16.479  0.00  0.00     0.139 C 
HETATM   48  O   UNK     0     -11.977  -1.129  16.376  0.00  0.00    -0.650 OA
BRANCH  47  49
HETATM   49  O   UNK     0     -10.059  -2.338  16.474  0.00  0.00    -0.776 OA
HETATM   50  H   UNK     0     -10.524  -3.232  16.277  0.00  0.00     0.167 HD
ENDBRANCH  47  49
ENDBRANCH  46  47
ENDBRANCH  45  46
ENDBRANCH  11  45
BRANCH  18  51
HETATM   51  C   UNK     0      -7.091   7.001  16.230  0.00  0.00     0.051 C 
BRANCH  51  52
HETATM   52  C   UNK     0      -7.267   7.806  17.509  0.00  0.00     0.114 C 
BRANCH  52  53
HETATM   53  C   UNK     0      -6.674   9.153  17.397  0.00  0.00     0.139 C 
HETATM   54  O   UNK     0      -6.003   9.617  18.332  0.00  0.00    -0.650 OA
BRANCH  53  55
HETATM   55  O   UNK     0      -6.873   9.889  16.254  0.00  0.00    -0.776 OA
HETATM   56  H   UNK     0      -7.396   9.605  15.459  0.00  0.00     0.167 HD
ENDBRANCH  53  55
ENDBRANCH  52  53
ENDBRANCH  51  52
ENDBRANCH  18  51
TORSDOF 16
ENDMDL
MODEL 4
REMARK VINA RESULT:      -8.6     22.861     25.063
REMARK  16 active torsions:
REMARK  status: ('A' for Active; 'I' for Inactive)
REMARK    1  A    between atoms: C_6  and  C_7 
REMARK    2  A    between atoms: C_7  and  C_8 
REMARK    3  A    between atoms: C_8  and  C_9 
REMARK    4  A    between atoms: C_9  and  O_11 
REMARK    5  A    between atoms: C_16  and  C_17 
REMARK    6  A    between atoms: C_17  and  C_18 
REMARK    7  A    between atoms: C_18  and  C_19 
REMARK    8  A    between atoms: C_19  and  O_21 
REMARK    9  A    between atoms: C_28  and  C_29 
REMARK   10  A    between atoms: C_29  and  C_30 
REMARK   11  A    between atoms: C_30  and  C_31 
REMARK   12  A    between atoms: C_31  and  O_33 
REMARK   13  A    between atoms: C_42  and  C_43 
REMARK   14  A    between atoms: C_43  and  C_44 
REMARK   15  A    between atoms: C_44  and  C_45 
REMARK   16  A    between atoms: C_45  and  O_47 
ROOT
HETATM    1  C   UNK     0      -9.746   0.425  18.333  0.00  0.00     0.051 C 
HETATM    2  C   UNK     0     -10.779   0.930  17.345  0.00  0.00    -0.031 A 
HETATM    3  C   UNK     0     -11.180   2.229  17.079  0.00  0.00     0.021 A 
HETATM    4  N   UNK     0     -12.155   2.206  16.139  0.00  0.00    -0.361 N 
HETATM    5  C   UNK     0     -12.377   0.921  15.795  0.00  0.00     0.022 A 
HETATM    6  C   UNK     0     -11.535   0.096  16.532  0.00  0.00    -0.027 A 
HETATM    7  C   UNK     0     -13.280   0.361  14.741  0.00  0.00     0.115 C 
HETATM    8  C   UNK     0     -13.301   1.084  13.406  0.00  0.00     0.021 A 
HETATM    9  N   UNK     0     -12.287   1.689  12.767  0.00  0.00    -0.361 N 
HETATM   10  C   UNK     0     -12.782   2.279  11.658  0.00  0.00     0.022 A 
HETATM   11  C   UNK     0     -14.151   2.040  11.576  0.00  0.00    -0.027 A 
HETATM   12  C   UNK     0     -14.484   1.288  12.674  0.00  0.00    -0.031 A 
HETATM   13  C   UNK     0     -15.872   0.785  13.000  0.00  0.00     0.051 C 
HETATM   14  C   UNK     0     -11.999   3.132  10.665  0.00  0.00     0.115 C 
HETATM   15  C   UNK     0     -11.380   4.378  11.278  0.00  0.00     0.021 A 
HETATM   16  N   UNK     0     -10.502   4.443  12.296  0.00  0.00    -0.361 N 
HETATM   17  C   UNK     0     -10.256   5.723  12.582  0.00  0.00     0.022 A 
HETATM   18  C   UNK     0     -11.001   6.532  11.701  0.00  0.00    -0.027 A 
HETATM   19  C   UNK     0     -11.700   5.677  10.888  0.00  0.00    -0.031 A 
HETATM   20  C   UNK     0     -12.609   6.137   9.763  0.00  0.00     0.051 C 
HETATM   21  C   UNK     0      -9.406   6.329  13.676  0.00  0.00     0.115 C 
HETATM   22  C   UNK     0      -9.341   5.596  14.995  0.00  0.00     0.022 A 
HETATM   23  N   UNK     0     -10.334   4.982  15.653  0.00  0.00    -0.361 N 
HETATM   24  C   UNK     0      -9.804   4.336  16.711  0.00  0.00     0.021 A 
HETATM   25  C   UNK     0      -8.439   4.548  16.742  0.00  0.00    -0.031 A 
HETATM   26  C   UNK     0      -7.422   4.066  17.755  0.00  0.00     0.051 C 
HETATM   27  C   UNK     0      -8.119   5.352  15.654  0.00  0.00    -0.027 A 
HETATM   28  C   UNK     0     -10.517   3.428  17.698  0.00  0.00     0.115 C 
HETATM   29  H   UNK     0     -12.707   3.095  15.755  0.00  0.00     0.165 HD
HETATM   30  H   UNK     0     -11.211   1.658  13.069  0.00  0.00     0.165 HD
HETATM   31  H   UNK     0     -10.009   3.567  12.793  0.00  0.00     0.165 HD
HETATM   32  H   UNK     0     -11.425   5.034  15.400  0.00  0.00     0.165 HD
ENDROOT
BRANCH   6  33
HETATM   33  C   UNK     0     -11.398  -1.406  16.525  0.00  0.00     0.051 C 
BRANCH  33  34
HETATM   34  C   UNK     0     -12.357  -2.035  17.508  0.00  0.00     0.114 C 
BRANCH  34  35
HETATM   35  C   UNK     0     -11.637  -3.157  18.177  0.00  0.00     0.139 C 
HETATM   36  O   UNK     0     -10.889  -2.931  19.172  0.00  0.00    -0.650 OA
BRANCH  35  37
HETATM   37  O   UNK     0     -11.750  -4.476  17.756  0.00  0.00    -0.776 OA
HETATM   38  H   UNK     0     -12.344  -4.743  16.987  0.00  0.00     0.167 HD
ENDBRANCH  35  37
ENDBRANCH  34  35
ENDBRANCH  33  34
ENDBRANCH   6  33
BRANCH  27  39
HETATM   39  C   UNK     0      -6.743   5.854  15.394  0.00  0.00     0.051 C 
BRANCH  39  40
HETATM   40  C   UNK     0      -6.432   7.241  15.741  0.00  0.00     0.114 C 
BRANCH  40  41
HETATM   41  C   UNK     0      -7.454   8.181  16.144  0.00  0.00     0.139 C 
HETATM   42  O   UNK     0      -7.934   8.222  17.284  0.00  0.00    -0.650 OA
BRANCH  41  43
HETATM   43  O   UNK     0      -7.945   9.117  15.190  0.00  0.00    -0.776 OA
HETATM   44  H   UNK     0      -8.809   8.842  14.739  0.00  0.00     0.167 HD
ENDBRANCH  41  43
ENDBRANCH  40  41
ENDBRANCH  39  40
ENDBRANCH  27  39
BRANCH  11  45
HETATM   45  C   UNK     0     -15.123   2.488  10.518  0.00  0.00     0.051 C 
BRANCH  45  46
HETATM   46  C   UNK     0     -14.505   3.274   9.420  0.00  0.00     0.114 C 
BRANCH  46  47
HETATM   47  C   UNK     0     -14.977   2.685   8.135  0.00  0.00     0.139 C 
HETATM   48  O   UNK     0     -16.196   2.550   7.957  0.00  0.00    -0.650 OA
BRANCH  47  49
HETATM   49  O   UNK     0     -14.083   2.299   7.168  0.00  0.00    -0.776 OA
HETATM   50  H   UNK     0     -14.157   2.622   6.196  0.00  0.00     0.167 HD
ENDBRANCH  47  49
ENDBRANCH  46  47
ENDBRANCH  45  46
ENDBRANCH  11  45
BRANCH  18  51
HETATM   51  C   UNK     0     -11.030   8.036  11.624  0.00  0.00     0.051 C 
BRANCH  51  52
HETATM   52  C   UNK     0     -11.971   8.501  12.726  0.00  0.00     0.114 C 
BRANCH  52  53
HETATM   53  C   UNK     0     -11.304   9.427  13.662  0.00  0.00     0.139 C 
HETATM   54  O   UNK     0     -10.941  10.549  13.275  0.00  0.00    -0.650 OA
BRANCH  53  55
HETATM   55  O   UNK     0     -11.086   9.038  14.962  0.00  0.00    -0.776 OA
HETATM   56  H   UNK     0     -11.077   9.634  15.756  0.00  0.00     0.167 HD
ENDBRANCH  53  55
ENDBRANCH  52  53
ENDBRANCH  51  52
ENDBRANCH  18  51
TORSDOF 16
ENDMDL
MODEL 5
REMARK VINA RESULT:      -8.2     20.135     22.166
REMARK  16 active torsions:
REMARK  status: ('A' for Active; 'I' for Inactive)
REMARK    1  A    between atoms: C_6  and  C_7 
REMARK    2  A    between atoms: C_7  and  C_8 
REMARK    3  A    between atoms: C_8  and  C_9 
REMARK    4  A    between atoms: C_9  and  O_11 
REMARK    5  A    between atoms: C_16  and  C_17 
REMARK    6  A    between atoms: C_17  and  C_18 
REMARK    7  A    between atoms: C_18  and  C_19 
REMARK    8  A    between atoms: C_19  and  O_21 
REMARK    9  A    between atoms: C_28  and  C_29 
REMARK   10  A    between atoms: C_29  and  C_30 
REMARK   11  A    between atoms: C_30  and  C_31 
REMARK   12  A    between atoms: C_31  and  O_33 
REMARK   13  A    between atoms: C_42  and  C_43 
REMARK   14  A    between atoms: C_43  and  C_44 
REMARK   15  A    between atoms: C_44  and  C_45 
REMARK   16  A    between atoms: C_45  and  O_47 
ROOT
HETATM    1  C   UNK     0     -15.367  -0.059  11.797  0.00  0.00     0.051 C 
HETATM    2  C   UNK     0     -14.582   0.193  13.067  0.00  0.00    -0.031 A 
HETATM    3  C   UNK     0     -15.006   0.156  14.386  0.00  0.00     0.021 A 
HETATM    4  N   UNK     0     -13.968   0.480  15.193  0.00  0.00    -0.361 N 
HETATM    5  C   UNK     0     -12.889   0.714  14.418  0.00  0.00     0.022 A 
HETATM    6  C   UNK     0     -13.239   0.547  13.083  0.00  0.00    -0.027 A 
HETATM    7  C   UNK     0     -11.478   1.015  14.817  0.00  0.00     0.115 C 
HETATM    8  C   UNK     0     -10.907   0.203  15.966  0.00  0.00     0.021 A 
HETATM    9  N   UNK     0     -11.131  -1.084  16.274  0.00  0.00    -0.361 N 
HETATM   10  C   UNK     0     -10.489  -1.357  17.429  0.00  0.00     0.022 A 
HETATM   11  C   UNK     0      -9.825  -0.218  17.873  0.00  0.00    -0.027 A 
HETATM   12  C   UNK     0     -10.084   0.769  16.956  0.00  0.00    -0.031 A 
HETATM   13  C   UNK     0      -9.561   2.186  17.026  0.00  0.00     0.051 C 
HETATM   14  C   UNK     0     -10.519  -2.682  18.185  0.00  0.00     0.115 C 
HETATM   15  C   UNK     0     -11.907  -3.100  18.641  0.00  0.00     0.021 A 
HETATM   16  N   UNK     0     -12.995  -3.309  17.876  0.00  0.00    -0.361 N 
HETATM   17  C   UNK     0     -14.036  -3.594  18.662  0.00  0.00     0.022 A 
HETATM   18  C   UNK     0     -13.603  -3.578  20.003  0.00  0.00    -0.027 A 
HETATM   19  C   UNK     0     -12.268  -3.269  19.976  0.00  0.00    -0.031 A 
HETATM   20  C   UNK     0     -11.397  -3.184  21.216  0.00  0.00     0.051 C 
HETATM   21  C   UNK     0     -15.485  -3.837  18.306  0.00  0.00     0.115 C 
HETATM   22  C   UNK     0     -16.054  -3.068  17.136  0.00  0.00     0.022 A 
HETATM   23  N   UNK     0     -15.845  -1.788  16.804  0.00  0.00    -0.361 N 
HETATM   24  C   UNK     0     -16.429  -1.559  15.610  0.00  0.00     0.021 A 
HETATM   25  C   UNK     0     -17.039  -2.718  15.169  0.00  0.00    -0.031 A 
HETATM   26  C   UNK     0     -17.851  -2.948  13.911  0.00  0.00     0.051 C 
HETATM   27  C   UNK     0     -16.812  -3.698  16.129  0.00  0.00    -0.027 A 
HETATM   28  C   UNK     0     -16.386  -0.286  14.783  0.00  0.00     0.115 C 
HETATM   29  H   UNK     0     -14.016   0.579  16.303  0.00  0.00     0.165 HD
HETATM   30  H   UNK     0     -11.702  -1.816  15.651  0.00  0.00     0.165 HD
HETATM   31  H   UNK     0     -13.019  -3.303  16.755  0.00  0.00     0.165 HD
HETATM   32  H   UNK     0     -15.318  -1.021  17.430  0.00  0.00     0.165 HD
ENDROOT
BRANCH   6  33
HETATM   33  C   UNK     0     -12.404   0.698  11.836  0.00  0.00     0.051 C 
BRANCH  33  34
HETATM   34  C   UNK     0     -12.414   2.129  11.355  0.00  0.00     0.114 C 
BRANCH  34  35
HETATM   35  C   UNK     0     -11.974   2.125   9.930  0.00  0.00     0.139 C 
HETATM   36  O   UNK     0     -10.746   2.020   9.643  0.00  0.00    -0.650 OA
BRANCH  35  37
HETATM   37  O   UNK     0     -12.866   2.231   8.870  0.00  0.00    -0.776 OA
HETATM   38  H   UNK     0     -13.834   1.967   8.958  0.00  0.00     0.167 HD
ENDBRANCH  35  37
ENDBRANCH  34  35
ENDBRANCH  33  34
ENDBRANCH   6  33
BRANCH  27  39
HETATM   39  C   UNK     0     -17.380  -5.071  16.035  0.00  0.00     0.051 C 
BRANCH  39  40
HETATM   40  C   UNK     0     -16.731  -6.030  15.142  0.00  0.00     0.114 C 
BRANCH  40  41
HETATM   41  C   UNK     0     -16.235  -7.305  15.611  0.00  0.00     0.139 C 
HETATM   42  O   UNK     0     -16.751  -7.939  16.541  0.00  0.00    -0.650 OA
BRANCH  41  43
HETATM   43  O   UNK     0     -15.093  -7.876  14.980  0.00  0.00    -0.776 OA
HETATM   44  H   UNK     0     -15.049  -7.728  13.979  0.00  0.00     0.167 HD
ENDBRANCH  41  43
ENDBRANCH  40  41
ENDBRANCH  39  40
ENDBRANCH  27  39
BRANCH  11  45
HETATM   45  C   UNK     0      -8.975  -0.042  19.103  0.00  0.00     0.051 C 
BRANCH  45  46
HETATM   46  C   UNK     0      -9.742   0.314  20.324  0.00  0.00     0.114 C 
BRANCH  46  47
HETATM   47  C   UNK     0      -8.892   1.243  21.124  0.00  0.00     0.139 C 
HETATM   48  O   UNK     0      -8.815   2.428  20.770  0.00  0.00    -0.650 OA
BRANCH  47  49
HETATM   49  O   UNK     0      -8.209   0.796  22.226  0.00  0.00    -0.776 OA
HETATM   50  H   UNK     0      -7.529   1.384  22.721  0.00  0.00     0.167 HD
ENDBRANCH  47  49
ENDBRANCH  46  47
ENDBRANCH  45  46
ENDBRANCH  11  45
BRANCH  18  51
HETATM   51  C   UNK     0     -14.414  -3.864  21.241  0.00  0.00     0.051 C 
BRANCH  51  52
HETATM   52  C   UNK     0     -14.358  -5.370  21.449  0.00  0.00     0.114 C 
BRANCH  52  53
HETATM   53  C   UNK     0     -15.706  -5.966  21.519  0.00  0.00     0.139 C 
HETATM   54  O   UNK     0     -16.709  -5.254  21.351  0.00  0.00    -0.650 OA
BRANCH  53  55
HETATM   55  O   UNK     0     -15.843  -7.308  21.776  0.00  0.00    -0.776 OA
HETATM   56  H   UNK     0     -15.231  -8.027  21.469  0.00  0.00     0.167 HD
ENDBRANCH  53  55
ENDBRANCH  52  53
ENDBRANCH  51  52
ENDBRANCH  18  51
TORSDOF 16
ENDMDL
MODEL 6
REMARK VINA RESULT:      -8.2      2.431      3.546
REMARK  16 active torsions:
REMARK  status: ('A' for Active; 'I' for Inactive)
REMARK    1  A    between atoms: C_6  and  C_7 
REMARK    2  A    between atoms: C_7  and  C_8 
REMARK    3  A    between atoms: C_8  and  C_9 
REMARK    4  A    between atoms: C_9  and  O_11 
REMARK    5  A    between atoms: C_16  and  C_17 
REMARK    6  A    between atoms: C_17  and  C_18 
REMARK    7  A    between atoms: C_18  and  C_19 
REMARK    8  A    between atoms: C_19  and  O_21 
REMARK    9  A    between atoms: C_28  and  C_29 
REMARK   10  A    between atoms: C_29  and  C_30 
REMARK   11  A    between atoms: C_30  and  C_31 
REMARK   12  A    between atoms: C_31  and  O_33 
REMARK   13  A    between atoms: C_42  and  C_43 
REMARK   14  A    between atoms: C_43  and  C_44 
REMARK   15  A    between atoms: C_44  and  C_45 
REMARK   16  A    between atoms: C_45  and  O_47 
ROOT
HETATM    1  C   UNK     0     -29.961  -5.171   5.281  0.00  0.00     0.051 C 
HETATM    2  C   UNK     0     -31.087  -4.386   5.921  0.00  0.00    -0.031 A 
HETATM    3  C   UNK     0     -32.254  -4.844   6.513  0.00  0.00     0.021 A 
HETATM    4  N   UNK     0     -32.987  -3.782   6.924  0.00  0.00    -0.361 N 
HETATM    5  C   UNK     0     -32.309  -2.658   6.615  0.00  0.00     0.022 A 
HETATM    6  C   UNK     0     -31.117  -2.999   5.984  0.00  0.00    -0.027 A 
HETATM    7  C   UNK     0     -32.634  -1.232   6.934  0.00  0.00     0.115 C 
HETATM    8  C   UNK     0     -33.154  -0.948   8.332  0.00  0.00     0.021 A 
HETATM    9  N   UNK     0     -32.808  -1.535   9.488  0.00  0.00    -0.361 N 
HETATM   10  C   UNK     0     -33.591  -1.031  10.465  0.00  0.00     0.022 A 
HETATM   11  C   UNK     0     -34.459  -0.086   9.925  0.00  0.00    -0.027 A 
HETATM   12  C   UNK     0     -34.189  -0.029   8.582  0.00  0.00    -0.031 A 
HETATM   13  C   UNK     0     -34.889   0.869   7.587  0.00  0.00     0.051 C 
HETATM   14  C   UNK     0     -33.590  -1.456  11.931  0.00  0.00     0.115 C 
HETATM   15  C   UNK     0     -33.939  -2.919  12.149  0.00  0.00     0.021 A 
HETATM   16  N   UNK     0     -33.305  -3.998  11.652  0.00  0.00    -0.361 N 
HETATM   17  C   UNK     0     -33.964  -5.100  12.017  0.00  0.00     0.022 A 
HETATM   18  C   UNK     0     -35.075  -4.722  12.797  0.00  0.00    -0.027 A 
HETATM   19  C   UNK     0     -35.047  -3.354  12.873  0.00  0.00    -0.031 A 
HETATM   20  C   UNK     0     -36.054  -2.532  13.657  0.00  0.00     0.051 C 
HETATM   21  C   UNK     0     -33.708  -6.547  11.662  0.00  0.00     0.115 C 
HETATM   22  C   UNK     0     -33.149  -6.841  10.290  0.00  0.00     0.022 A 
HETATM   23  N   UNK     0     -33.472  -6.269   9.123  0.00  0.00    -0.361 N 
HETATM   24  C   UNK     0     -32.627  -6.729   8.178  0.00  0.00     0.021 A 
HETATM   25  C   UNK     0     -31.745  -7.626   8.749  0.00  0.00    -0.031 A 
HETATM   26  C   UNK     0     -30.644  -8.432   8.090  0.00  0.00     0.051 C 
HETATM   27  C   UNK     0     -32.059  -7.715  10.100  0.00  0.00    -0.027 A 
HETATM   28  C   UNK     0     -32.540  -6.304   6.722  0.00  0.00     0.115 C 
HETATM   29  H   UNK     0     -33.997  -3.833   7.394  0.00  0.00     0.165 HD
HETATM   30  H   UNK     0     -31.977  -2.269   9.627  0.00  0.00     0.165 HD
HETATM   31  H   UNK     0     -32.346  -3.985  11.071  0.00  0.00     0.165 HD
HETATM   32  H   UNK     0     -34.328  -5.568   8.946  0.00  0.00     0.165 HD
ENDROOT
BRANCH   6  33
HETATM   33  C   UNK     0     -30.020  -2.118   5.442  0.00  0.00     0.051 C 
BRANCH  33  34
HETATM   34  C   UNK     0     -28.971  -1.859   6.497  0.00  0.00     0.114 C 
BRANCH  34  35
HETATM   35  C   UNK     0     -27.723  -1.444   5.794  0.00  0.00     0.139 C 
HETATM   36  O   UNK     0     -26.641  -1.318   6.438  0.00  0.00    -0.650 OA
BRANCH  35  37
HETATM   37  O   UNK     0     -27.683  -1.184   4.429  0.00  0.00    -0.776 OA
HETATM   38  H   UNK     0     -27.747  -0.248   4.062  0.00  0.00     0.167 HD
ENDBRANCH  35  37
ENDBRANCH  34  35
ENDBRANCH  33  34
ENDBRANCH   6  33
BRANCH  27  39
HETATM   39  C   UNK     0     -31.366  -8.643  11.035  0.00  0.00     0.051 C 
BRANCH  39  40
HETATM   40  C   UNK     0     -32.047  -9.880  11.417  0.00  0.00     0.114 C 
BRANCH  40  41
HETATM   41  C   UNK     0     -31.825 -11.128  10.722  0.00  0.00     0.139 C 
HETATM   42  O   UNK     0     -30.702 -11.541  10.402  0.00  0.00    -0.650 OA
BRANCH  41  43
HETATM   43  O   UNK     0     -32.945 -11.937  10.379  0.00  0.00    -0.776 OA
HETATM   44  H   UNK     0     -33.694 -11.440   9.913  0.00  0.00     0.167 HD
ENDBRANCH  41  43
ENDBRANCH  40  41
ENDBRANCH  39  40
ENDBRANCH  27  39
BRANCH  11  45
HETATM   45  C   UNK     0     -35.505   0.741  10.625  0.00  0.00     0.051 C 
BRANCH  45  46
HETATM   46  C   UNK     0     -36.260   0.005  11.670  0.00  0.00     0.114 C 
BRANCH  46  47
HETATM   47  C   UNK     0     -37.438  -0.623  11.005  0.00  0.00     0.139 C 
HETATM   48  O   UNK     0     -38.496   0.020  10.944  0.00  0.00    -0.650 OA
BRANCH  47  49
HETATM   49  O   UNK     0     -37.355  -1.884  10.472  0.00  0.00    -0.776 OA
HETATM   50  H   UNK     0     -38.132  -2.552  10.529  0.00  0.00     0.167 HD
ENDBRANCH  47  49
ENDBRANCH  46  47
ENDBRANCH  45  46
ENDBRANCH  11  45
BRANCH  18  51
HETATM   51  C   UNK     0     -36.095  -5.617  13.452  0.00  0.00     0.051 C 
BRANCH  51  52
HETATM   52  C   UNK     0     -36.946  -6.187  12.327  0.00  0.00     0.114 C 
BRANCH  52  53
HETATM   53  C   UNK     0     -37.535  -5.124  11.491  0.00  0.00     0.139 C 
HETATM   54  O   UNK     0     -38.329  -4.310  11.989  0.00  0.00    -0.650 OA
BRANCH  53  55
HETATM   55  O   UNK     0     -37.204  -5.043  10.160  0.00  0.00    -0.776 OA
HETATM   56  H   UNK     0     -36.427  -5.482   9.724  0.00  0.00     0.167 HD
ENDBRANCH  53  55
ENDBRANCH  52  53
ENDBRANCH  51  52
ENDBRANCH  18  51
TORSDOF 16
ENDMDL
MODEL 7
REMARK VINA RESULT:      -8.2      1.980      8.156
REMARK  16 active torsions:
REMARK  status: ('A' for Active; 'I' for Inactive)
REMARK    1  A    between atoms: C_6  and  C_7 
REMARK    2  A    between atoms: C_7  and  C_8 
REMARK    3  A    between atoms: C_8  and  C_9 
REMARK    4  A    between atoms: C_9  and  O_11 
REMARK    5  A    between atoms: C_16  and  C_17 
REMARK    6  A    between atoms: C_17  and  C_18 
REMARK    7  A    between atoms: C_18  and  C_19 
REMARK    8  A    between atoms: C_19  and  O_21 
REMARK    9  A    between atoms: C_28  and  C_29 
REMARK   10  A    between atoms: C_29  and  C_30 
REMARK   11  A    between atoms: C_30  and  C_31 
REMARK   12  A    between atoms: C_31  and  O_33 
REMARK   13  A    between atoms: C_42  and  C_43 
REMARK   14  A    between atoms: C_43  and  C_44 
REMARK   15  A    between atoms: C_44  and  C_45 
REMARK   16  A    between atoms: C_45  and  O_47 
ROOT
HETATM    1  C   UNK     0     -34.297  -6.027  13.208  0.00  0.00     0.051 C 
HETATM    2  C   UNK     0     -34.044  -5.941  11.716  0.00  0.00    -0.031 A 
HETATM    3  C   UNK     0     -34.691  -5.180  10.756  0.00  0.00     0.021 A 
HETATM    4  N   UNK     0     -34.150  -5.445   9.544  0.00  0.00    -0.361 N 
HETATM    5  C   UNK     0     -33.166  -6.352   9.711  0.00  0.00     0.022 A 
HETATM    6  C   UNK     0     -33.074  -6.687  11.058  0.00  0.00    -0.027 A 
HETATM    7  C   UNK     0     -32.202  -6.907   8.710  0.00  0.00     0.115 C 
HETATM    8  C   UNK     0     -31.597  -5.920   7.727  0.00  0.00     0.021 A 
HETATM    9  N   UNK     0     -31.248  -4.641   7.934  0.00  0.00    -0.361 N 
HETATM   10  C   UNK     0     -30.839  -4.122   6.757  0.00  0.00     0.022 A 
HETATM   11  C   UNK     0     -30.918  -5.096   5.766  0.00  0.00    -0.027 A 
HETATM   12  C   UNK     0     -31.395  -6.232   6.370  0.00  0.00    -0.031 A 
HETATM   13  C   UNK     0     -31.639  -7.553   5.678  0.00  0.00     0.051 C 
HETATM   14  C   UNK     0     -30.410  -2.679   6.509  0.00  0.00     0.115 C 
HETATM   15  C   UNK     0     -31.496  -1.655   6.796  0.00  0.00     0.021 A 
HETATM   16  N   UNK     0     -32.144  -1.449   7.958  0.00  0.00    -0.361 N 
HETATM   17  C   UNK     0     -33.075  -0.509   7.781  0.00  0.00     0.022 A 
HETATM   18  C   UNK     0     -33.025  -0.074   6.441  0.00  0.00    -0.027 A 
HETATM   19  C   UNK     0     -32.031  -0.799   5.836  0.00  0.00    -0.031 A 
HETATM   20  C   UNK     0     -31.618  -0.618   4.386  0.00  0.00     0.051 C 
HETATM   21  C   UNK     0     -34.108   0.030   8.744  0.00  0.00     0.115 C 
HETATM   22  C   UNK     0     -34.686  -0.930   9.756  0.00  0.00     0.022 A 
HETATM   23  N   UNK     0     -35.039  -2.210   9.579  0.00  0.00    -0.361 N 
HETATM   24  C   UNK     0     -35.368  -2.729  10.779  0.00  0.00     0.021 A 
HETATM   25  C   UNK     0     -35.234  -1.756  11.751  0.00  0.00    -0.031 A 
HETATM   26  C   UNK     0     -35.524  -1.846  13.235  0.00  0.00     0.051 C 
HETATM   27  C   UNK     0     -34.798  -0.596  11.121  0.00  0.00    -0.027 A 
HETATM   28  C   UNK     0     -35.745  -4.165  11.099  0.00  0.00     0.115 C 
HETATM   29  H   UNK     0     -34.493  -5.019   8.573  0.00  0.00     0.165 HD
HETATM   30  H   UNK     0     -31.241  -4.116   8.921  0.00  0.00     0.165 HD
HETATM   31  H   UNK     0     -31.909  -1.943   8.936  0.00  0.00     0.165 HD
HETATM   32  H   UNK     0     -35.101  -2.748   8.597  0.00  0.00     0.165 HD
ENDROOT
BRANCH   6  33
HETATM   33  C   UNK     0     -32.149  -7.650  11.758  0.00  0.00     0.051 C 
BRANCH  33  34
HETATM   34  C   UNK     0     -32.539  -9.079  11.459  0.00  0.00     0.114 C 
BRANCH  34  35
HETATM   35  C   UNK     0     -31.315  -9.785  10.982  0.00  0.00     0.139 C 
HETATM   36  O   UNK     0     -30.300  -9.123  10.615  0.00  0.00    -0.650 OA
BRANCH  35  37
HETATM   37  O   UNK     0     -31.225 -11.170  10.921  0.00  0.00    -0.776 OA
HETATM   38  H   UNK     0     -31.428 -11.755  11.715  0.00  0.00     0.167 HD
ENDBRANCH  35  37
ENDBRANCH  34  35
ENDBRANCH  33  34
ENDBRANCH   6  33
BRANCH  27  39
HETATM   39  C   UNK     0     -34.608   0.693  11.839  0.00  0.00     0.051 C 
BRANCH  39  40
HETATM   40  C   UNK     0     -35.644   1.718  11.713  0.00  0.00     0.114 C 
BRANCH  40  41
HETATM   41  C   UNK     0     -36.578   1.737  10.610  0.00  0.00     0.139 C 
HETATM   42  O   UNK     0     -36.487   2.516   9.651  0.00  0.00    -0.650 OA
BRANCH  41  43
HETATM   43  O   UNK     0     -37.667   0.820  10.610  0.00  0.00    -0.776 OA
HETATM   44  H   UNK     0     -37.460  -0.076  11.036  0.00  0.00     0.167 HD
ENDBRANCH  41  43
ENDBRANCH  40  41
ENDBRANCH  39  40
ENDBRANCH  27  39
BRANCH  11  45
HETATM   45  C   UNK     0     -30.564  -4.987   4.307  0.00  0.00     0.051 C 
BRANCH  45  46
HETATM   46  C   UNK     0     -30.923  -6.184   3.505  0.00  0.00     0.114 C 
BRANCH  46  47
HETATM   47  C   UNK     0     -29.664  -6.699   2.893  0.00  0.00     0.139 C 
HETATM   48  O   UNK     0     -29.683  -7.811   2.346  0.00  0.00    -0.650 OA
BRANCH  47  49
HETATM   49  O   UNK     0     -28.509  -5.961   2.936  0.00  0.00    -0.776 OA
HETATM   50  H   UNK     0     -27.833  -5.961   2.162  0.00  0.00     0.167 HD
ENDBRANCH  47  49
ENDBRANCH  46  47
ENDBRANCH  45  46
ENDBRANCH  11  45
BRANCH  18  51
HETATM   51  C   UNK     0     -33.863   0.989   5.780  0.00  0.00     0.051 C 
BRANCH  51  52
HETATM   52  C   UNK     0     -35.163   0.312   5.371  0.00  0.00     0.114 C 
BRANCH  52  53
HETATM   53  C   UNK     0     -36.343   1.109   5.761  0.00  0.00     0.139 C 
HETATM   54  O   UNK     0     -36.842   1.913   4.958  0.00  0.00    -0.650 OA
BRANCH  53  55
HETATM   55  O   UNK     0     -36.881   0.956   7.015  0.00  0.00    -0.776 OA
HETATM   56  H   UNK     0     -37.148   1.689   7.629  0.00  0.00     0.167 HD
ENDBRANCH  53  55
ENDBRANCH  52  53
ENDBRANCH  51  52
ENDBRANCH  18  51
TORSDOF 16
ENDMDL
MODEL 8
REMARK VINA RESULT:      -8.2      6.973     10.086
REMARK  16 active torsions:
REMARK  status: ('A' for Active; 'I' for Inactive)
REMARK    1  A    between atoms: C_6  and  C_7 
REMARK    2  A    between atoms: C_7  and  C_8 
REMARK    3  A    between atoms: C_8  and  C_9 
REMARK    4  A    between atoms: C_9  and  O_11 
REMARK    5  A    between atoms: C_16  and  C_17 
REMARK    6  A    between atoms: C_17  and  C_18 
REMARK    7  A    between atoms: C_18  and  C_19 
REMARK    8  A    between atoms: C_19  and  O_21 
REMARK    9  A    between atoms: C_28  and  C_29 
REMARK   10  A    between atoms: C_29  and  C_30 
REMARK   11  A    between atoms: C_30  and  C_31 
REMARK   12  A    between atoms: C_31  and  O_33 
REMARK   13  A    between atoms: C_42  and  C_43 
REMARK   14  A    between atoms: C_43  and  C_44 
REMARK   15  A    between atoms: C_44  and  C_45 
REMARK   16  A    between atoms: C_45  and  O_47 
ROOT
HETATM    1  C   UNK     0     -33.527   1.622  -0.221  0.00  0.00     0.051 C 
HETATM    2  C   UNK     0     -32.222   2.000   0.450  0.00  0.00    -0.031 A 
HETATM    3  C   UNK     0     -31.947   2.190   1.795  0.00  0.00     0.021 A 
HETATM    4  N   UNK     0     -30.649   2.551   1.933  0.00  0.00    -0.361 N 
HETATM    5  C   UNK     0     -30.089   2.587   0.707  0.00  0.00     0.022 A 
HETATM    6  C   UNK     0     -31.046   2.250  -0.245  0.00  0.00    -0.027 A 
HETATM    7  C   UNK     0     -28.665   2.837   0.317  0.00  0.00     0.115 C 
HETATM    8  C   UNK     0     -27.599   2.164   1.164  0.00  0.00     0.021 A 
HETATM    9  N   UNK     0     -27.635   0.957   1.749  0.00  0.00    -0.361 N 
HETATM   10  C   UNK     0     -26.508   0.810   2.477  0.00  0.00     0.022 A 
HETATM   11  C   UNK     0     -25.720   1.950   2.349  0.00  0.00    -0.027 A 
HETATM   12  C   UNK     0     -26.401   2.807   1.523  0.00  0.00    -0.031 A 
HETATM   13  C   UNK     0     -25.921   4.175   1.095  0.00  0.00     0.051 C 
HETATM   14  C   UNK     0     -26.154  -0.382   3.361  0.00  0.00     0.115 C 
HETATM   15  C   UNK     0     -27.139  -0.623   4.494  0.00  0.00     0.021 A 
HETATM   16  N   UNK     0     -28.461  -0.861   4.397  0.00  0.00    -0.361 N 
HETATM   17  C   UNK     0     -28.982  -0.947   5.623  0.00  0.00     0.022 A 
HETATM   18  C   UNK     0     -27.949  -0.766   6.564  0.00  0.00    -0.027 A 
HETATM   19  C   UNK     0     -26.800  -0.565   5.844  0.00  0.00    -0.031 A 
HETATM   20  C   UNK     0     -25.434  -0.362   6.474  0.00  0.00     0.051 C 
HETATM   21  C   UNK     0     -30.418  -1.131   6.057  0.00  0.00     0.115 C 
HETATM   22  C   UNK     0     -31.492  -0.504   5.200  0.00  0.00     0.022 A 
HETATM   23  N   UNK     0     -31.482   0.694   4.600  0.00  0.00    -0.361 N 
HETATM   24  C   UNK     0     -32.577   0.786   3.819  0.00  0.00     0.021 A 
HETATM   25  C   UNK     0     -33.316  -0.376   3.926  0.00  0.00    -0.031 A 
HETATM   26  C   UNK     0     -34.638  -0.728   3.276  0.00  0.00     0.051 C 
HETATM   27  C   UNK     0     -32.642  -1.217   4.804  0.00  0.00    -0.027 A 
HETATM   28  C   UNK     0     -32.953   1.916   2.876  0.00  0.00     0.115 C 
HETATM   29  H   UNK     0     -30.149   2.817   2.893  0.00  0.00     0.165 HD
HETATM   30  H   UNK     0     -28.432   0.185   1.611  0.00  0.00     0.165 HD
HETATM   31  H   UNK     0     -29.030  -1.019   3.444  0.00  0.00     0.165 HD
HETATM   32  H   UNK     0     -30.722   1.504   4.757  0.00  0.00     0.165 HD
ENDROOT
BRANCH   6  33
HETATM   33  C   UNK     0     -30.929   2.152  -1.745  0.00  0.00     0.051 C 
BRANCH  33  34
HETATM   34  C   UNK     0     -31.103   3.509  -2.386  0.00  0.00     0.114 C 
BRANCH  34  35
HETATM   35  C   UNK     0     -29.841   3.823  -3.115  0.00  0.00     0.139 C 
HETATM   36  O   UNK     0     -29.096   4.768  -2.722  0.00  0.00    -0.650 OA
BRANCH  35  37
HETATM   37  O   UNK     0     -29.425   3.112  -4.234  0.00  0.00    -0.776 OA
HETATM   38  H   UNK     0     -30.051   2.897  -4.994  0.00  0.00     0.167 HD
ENDBRANCH  35  37
ENDBRANCH  34  35
ENDBRANCH  33  34
ENDBRANCH   6  33
BRANCH  27  39
HETATM   39  C   UNK     0     -33.173  -2.542   5.226  0.00  0.00     0.051 C 
BRANCH  39  40
HETATM   40  C   UNK     0     -32.521  -3.746   4.712  0.00  0.00     0.114 C 
BRANCH  40  41
HETATM   41  C   UNK     0     -32.701  -5.042   5.327  0.00  0.00     0.139 C 
HETATM   42  O   UNK     0     -32.749  -5.216   6.553  0.00  0.00    -0.650 OA
BRANCH  41  43
HETATM   43  O   UNK     0     -32.833  -6.190   4.495  0.00  0.00    -0.776 OA
HETATM   44  H   UNK     0     -32.126  -6.267   3.773  0.00  0.00     0.167 HD
ENDBRANCH  41  43
ENDBRANCH  40  41
ENDBRANCH  39  40
ENDBRANCH  27  39
BRANCH  11  45
HETATM   45  C   UNK     0     -24.378   2.242   2.966  0.00  0.00     0.051 C 
BRANCH  45  46
HETATM   46  C   UNK     0     -24.446   2.695   4.379  0.00  0.00     0.114 C 
BRANCH  46  47
HETATM   47  C   UNK     0     -23.128   2.389   5.005  0.00  0.00     0.139 C 
HETATM   48  O   UNK     0     -22.919   2.774   6.164  0.00  0.00    -0.650 OA
BRANCH  47  49
HETATM   49  O   UNK     0     -22.166   1.697   4.314  0.00  0.00    -0.776 OA
HETATM   50  H   UNK     0     -22.356   0.788   3.876  0.00  0.00     0.167 HD
ENDBRANCH  47  49
ENDBRANCH  46  47
ENDBRANCH  45  46
ENDBRANCH  11  45
BRANCH  18  51
HETATM   51  C   UNK     0     -28.048  -0.803   8.067  0.00  0.00     0.051 C 
BRANCH  51  52
HETATM   52  C   UNK     0     -27.958   0.641   8.536  0.00  0.00     0.114 C 
BRANCH  52  53
HETATM   53  C   UNK     0     -27.689   0.733   9.984  0.00  0.00     0.139 C 
HETATM   54  O   UNK     0     -28.218   1.630  10.659  0.00  0.00    -0.650 OA
BRANCH  53  55
HETATM   55  O   UNK     0     -26.849  -0.178  10.578  0.00  0.00    -0.776 OA
HETATM   56  H   UNK     0     -27.128  -0.978  11.095  0.00  0.00     0.167 HD
ENDBRANCH  53  55
ENDBRANCH  52  53
ENDBRANCH  51  52
ENDBRANCH  18  51
TORSDOF 16
ENDMDL
MODEL 9
REMARK VINA RESULT:      -8.1     19.958     21.904
REMARK  16 active torsions:
REMARK  status: ('A' for Active; 'I' for Inactive)
REMARK    1  A    between atoms: C_6  and  C_7 
REMARK    2  A    between atoms: C_7  and  C_8 
REMARK    3  A    between atoms: C_8  and  C_9 
REMARK    4  A    between atoms: C_9  and  O_11 
REMARK    5  A    between atoms: C_16  and  C_17 
REMARK    6  A    between atoms: C_17  and  C_18 
REMARK    7  A    between atoms: C_18  and  C_19 
REMARK    8  A    between atoms: C_19  and  O_21 
REMARK    9  A    between atoms: C_28  and  C_29 
REMARK   10  A    between atoms: C_29  and  C_30 
REMARK   11  A    between atoms: C_30  and  C_31 
REMARK   12  A    between atoms: C_31  and  O_33 
REMARK   13  A    between atoms: C_42  and  C_43 
REMARK   14  A    between atoms: C_43  and  C_44 
REMARK   15  A    between atoms: C_44  and  C_45 
REMARK   16  A    between atoms: C_45  and  O_47 
ROOT
HETATM    1  C   UNK     0      -9.602  -0.839  20.079  0.00  0.00     0.051 C 
HETATM    2  C   UNK     0     -10.193  -0.865  18.684  0.00  0.00    -0.031 A 
HETATM    3  C   UNK     0     -10.772  -1.918  17.994  0.00  0.00     0.021 A 
HETATM    4  N   UNK     0     -11.135  -1.490  16.761  0.00  0.00    -0.361 N 
HETATM    5  C   UNK     0     -10.807  -0.186  16.654  0.00  0.00     0.022 A 
HETATM    6  C   UNK     0     -10.213   0.237  17.839  0.00  0.00    -0.027 A 
HETATM    7  C   UNK     0     -11.075   0.775  15.538  0.00  0.00     0.115 C 
HETATM    8  C   UNK     0     -12.452   0.712  14.901  0.00  0.00     0.021 A 
HETATM    9  N   UNK     0     -13.633   0.457  15.486  0.00  0.00    -0.361 N 
HETATM   10  C   UNK     0     -14.577   0.412  14.522  0.00  0.00     0.022 A 
HETATM   11  C   UNK     0     -13.989   0.653  13.283  0.00  0.00    -0.027 A 
HETATM   12  C   UNK     0     -12.651   0.844  13.515  0.00  0.00    -0.031 A 
HETATM   13  C   UNK     0     -11.614   1.143  12.456  0.00  0.00     0.051 C 
HETATM   14  C   UNK     0     -16.054   0.087  14.721  0.00  0.00     0.115 C 
HETATM   15  C   UNK     0     -16.309  -1.297  15.296  0.00  0.00     0.021 A 
HETATM   16  N   UNK     0     -15.859  -1.798  16.462  0.00  0.00    -0.361 N 
HETATM   17  C   UNK     0     -16.243  -3.072  16.570  0.00  0.00     0.022 A 
HETATM   18  C   UNK     0     -16.986  -3.415  15.423  0.00  0.00    -0.027 A 
HETATM   19  C   UNK     0     -17.021  -2.295  14.634  0.00  0.00    -0.031 A 
HETATM   20  C   UNK     0     -17.757  -2.218  13.309  0.00  0.00     0.051 C 
HETATM   21  C   UNK     0     -15.938  -4.091  17.644  0.00  0.00     0.115 C 
HETATM   22  C   UNK     0     -14.588  -4.013  18.317  0.00  0.00     0.022 A 
HETATM   23  N   UNK     0     -13.397  -3.757  17.761  0.00  0.00    -0.361 N 
HETATM   24  C   UNK     0     -12.486  -3.639  18.748  0.00  0.00     0.021 A 
HETATM   25  C   UNK     0     -13.103  -3.834  19.968  0.00  0.00    -0.031 A 
HETATM   26  C   UNK     0     -12.494  -3.839  21.355  0.00  0.00     0.051 C 
HETATM   27  C   UNK     0     -14.449  -4.075  19.719  0.00  0.00    -0.027 A 
HETATM   28  C   UNK     0     -11.020  -3.261  18.619  0.00  0.00     0.115 C 
HETATM   29  H   UNK     0     -11.583  -2.123  15.961  0.00  0.00     0.165 HD
HETATM   30  H   UNK     0     -13.812   0.359  16.584  0.00  0.00     0.165 HD
HETATM   31  H   UNK     0     -15.300  -1.227  17.249  0.00  0.00     0.165 HD
HETATM   32  H   UNK     0     -13.180  -3.700  16.663  0.00  0.00     0.165 HD
ENDROOT
BRANCH   6  33
HETATM   33  C   UNK     0      -9.668   1.589  18.222  0.00  0.00     0.051 C 
BRANCH  33  34
HETATM   34  C   UNK     0      -8.288   1.794  17.644  0.00  0.00     0.114 C 
BRANCH  34  35
HETATM   35  C   UNK     0      -7.335   1.891  18.786  0.00  0.00     0.139 C 
HETATM   36  O   UNK     0      -7.753   2.202  19.940  0.00  0.00    -0.650 OA
BRANCH  35  37
HETATM   37  O   UNK     0      -5.974   1.650  18.649  0.00  0.00    -0.776 OA
HETATM   38  H   UNK     0      -5.283   2.179  19.158  0.00  0.00     0.167 HD
ENDBRANCH  35  37
ENDBRANCH  34  35
ENDBRANCH  33  34
ENDBRANCH   6  33
BRANCH  27  39
HETATM   39  C   UNK     0     -15.427  -4.403  20.792  0.00  0.00     0.051 C 
BRANCH  39  40
HETATM   40  C   UNK     0     -16.385  -3.374  21.195  0.00  0.00     0.114 C 
BRANCH  40  41
HETATM   41  C   UNK     0     -16.184  -1.974  20.897  0.00  0.00     0.139 C 
HETATM   42  O   UNK     0     -15.542  -1.205  21.625  0.00  0.00    -0.650 OA
BRANCH  41  43
HETATM   43  O   UNK     0     -16.748  -1.433  19.707  0.00  0.00    -0.776 OA
HETATM   44  H   UNK     0     -17.449  -0.718  19.862  0.00  0.00     0.167 HD
ENDBRANCH  41  43
ENDBRANCH  40  41
ENDBRANCH  39  40
ENDBRANCH  27  39
BRANCH  11  45
HETATM   45  C   UNK     0     -14.640   0.710  11.927  0.00  0.00     0.051 C 
BRANCH  45  46
HETATM   46  C   UNK     0     -15.338   1.989  11.643  0.00  0.00     0.114 C 
BRANCH  46  47
HETATM   47  C   UNK     0     -15.027   2.359  10.233  0.00  0.00     0.139 C 
HETATM   48  O   UNK     0     -15.964   2.652   9.476  0.00  0.00    -0.650 OA
BRANCH  47  49
HETATM   49  O   UNK     0     -13.732   2.374   9.780  0.00  0.00    -0.776 OA
HETATM   50  H   UNK     0     -13.460   2.866   8.921  0.00  0.00     0.167 HD
ENDBRANCH  47  49
ENDBRANCH  46  47
ENDBRANCH  45  46
ENDBRANCH  11  45
BRANCH  18  51
HETATM   51  C   UNK     0     -17.645  -4.732  15.107  0.00  0.00     0.051 C 
BRANCH  51  52
HETATM   52  C   UNK     0     -16.648  -5.517  14.268  0.00  0.00     0.114 C 
BRANCH  52  53
HETATM   53  C   UNK     0     -16.648  -6.952  14.613  0.00  0.00     0.139 C 
HETATM   54  O   UNK     0     -17.600  -7.673  14.274  0.00  0.00    -0.650 OA
BRANCH  53  55
HETATM   55  O   UNK     0     -15.593  -7.483  15.314  0.00  0.00    -0.776 OA
HETATM   56  H   UNK     0     -15.465  -7.442  16.298  0.00  0.00     0.167 HD
ENDBRANCH  53  55
ENDBRANCH  52  53
ENDBRANCH  51  52
ENDBRANCH  18  51
TORSDOF 16
ENDMDL
MODEL 10
REMARK VINA RESULT:      -8.0     20.009     21.979
REMARK  16 active torsions:
REMARK  status: ('A' for Active; 'I' for Inactive)
REMARK    1  A    between atoms: C_6  and  C_7 
REMARK    2  A    between atoms: C_7  and  C_8 
REMARK    3  A    between atoms: C_8  and  C_9 
REMARK    4  A    between atoms: C_9  and  O_11 
REMARK    5  A    between atoms: C_16  and  C_17 
REMARK    6  A    between atoms: C_17  and  C_18 
REMARK    7  A    between atoms: C_18  and  C_19 
REMARK    8  A    between atoms: C_19  and  O_21 
REMARK    9  A    between atoms: C_28  and  C_29 
REMARK   10  A    between atoms: C_29  and  C_30 
REMARK   11  A    between atoms: C_30  and  C_31 
REMARK   12  A    between atoms: C_31  and  O_33 
REMARK   13  A    between atoms: C_42  and  C_43 
REMARK   14  A    between atoms: C_43  and  C_44 
REMARK   15  A    between atoms: C_44  and  C_45 
REMARK   16  A    between atoms: C_45  and  O_47 
ROOT
HETATM    1  C   UNK     0      -9.560  -0.810  20.168  0.00  0.00     0.051 C 
HETATM    2  C   UNK     0     -10.175  -0.899  18.786  0.00  0.00    -0.031 A 
HETATM    3  C   UNK     0     -10.761  -1.983  18.152  0.00  0.00     0.021 A 
HETATM    4  N   UNK     0     -11.147  -1.611  16.908  0.00  0.00    -0.361 N 
HETATM    5  C   UNK     0     -10.828  -0.311  16.739  0.00  0.00     0.022 A 
HETATM    6  C   UNK     0     -10.216   0.165  17.894  0.00  0.00    -0.027 A 
HETATM    7  C   UNK     0     -11.120   0.599  15.587  0.00  0.00     0.115 C 
HETATM    8  C   UNK     0     -12.508   0.503  14.978  0.00  0.00     0.021 A 
HETATM    9  N   UNK     0     -13.677   0.268  15.594  0.00  0.00    -0.361 N 
HETATM   10  C   UNK     0     -14.637   0.176  14.649  0.00  0.00     0.022 A 
HETATM   11  C   UNK     0     -14.072   0.366  13.391  0.00  0.00    -0.027 A 
HETATM   12  C   UNK     0     -12.731   0.573  13.591  0.00  0.00    -0.031 A 
HETATM   13  C   UNK     0     -11.715   0.830  12.502  0.00  0.00     0.051 C 
HETATM   14  C   UNK     0     -16.109  -0.146  14.889  0.00  0.00     0.115 C 
HETATM   15  C   UNK     0     -16.346  -1.505  15.528  0.00  0.00     0.021 A 
HETATM   16  N   UNK     0     -15.874  -1.953  16.706  0.00  0.00    -0.361 N 
HETATM   17  C   UNK     0     -16.249  -3.223  16.875  0.00  0.00     0.022 A 
HETATM   18  C   UNK     0     -17.010  -3.619  15.758  0.00  0.00    -0.027 A 
HETATM   19  C   UNK     0     -17.065  -2.534  14.922  0.00  0.00    -0.031 A 
HETATM   20  C   UNK     0     -17.824  -2.519  13.608  0.00  0.00     0.051 C 
HETATM   21  C   UNK     0     -15.920  -4.193  17.987  0.00  0.00     0.115 C 
HETATM   22  C   UNK     0     -14.559  -4.080  18.633  0.00  0.00     0.022 A 
HETATM   23  N   UNK     0     -13.379  -3.842  18.045  0.00  0.00    -0.361 N 
HETATM   24  C   UNK     0     -12.451  -3.677  19.009  0.00  0.00     0.021 A 
HETATM   25  C   UNK     0     -13.046  -3.822  20.248  0.00  0.00    -0.031 A 
HETATM   26  C   UNK     0     -12.413  -3.765  21.622  0.00  0.00     0.051 C 
HETATM   27  C   UNK     0     -14.395  -4.080  20.033  0.00  0.00    -0.027 A 
HETATM   28  C   UNK     0     -10.990  -3.299  18.838  0.00  0.00     0.115 C 
HETATM   29  H   UNK     0     -11.606  -2.280  16.144  0.00  0.00     0.165 HD
HETATM   30  H   UNK     0     -13.836   0.216  16.699  0.00  0.00     0.165 HD
HETATM   31  H   UNK     0     -15.304  -1.346  17.457  0.00  0.00     0.165 HD
HETATM   32  H   UNK     0     -13.181  -3.832  16.942  0.00  0.00     0.165 HD
ENDROOT
BRANCH   6  33
HETATM   33  C   UNK     0      -9.671   1.536  18.209  0.00  0.00     0.051 C 
BRANCH  33  34
HETATM   34  C   UNK     0      -8.269   1.691  17.671  0.00  0.00     0.114 C 
BRANCH  34  35
HETATM   35  C   UNK     0      -7.360   1.869  18.839  0.00  0.00     0.139 C 
HETATM   36  O   UNK     0      -7.807   2.329  19.930  0.00  0.00    -0.650 OA
BRANCH  35  37
HETATM   37  O   UNK     0      -6.009   1.546  18.794  0.00  0.00    -0.776 OA
HETATM   38  H   UNK     0      -5.616   0.812  19.361  0.00  0.00     0.167 HD
ENDBRANCH  35  37
ENDBRANCH  34  35
ENDBRANCH  33  34
ENDBRANCH   6  33
BRANCH  27  39
HETATM   39  C   UNK     0     -15.352  -4.365  21.136  0.00  0.00     0.051 C 
BRANCH  39  40
HETATM   40  C   UNK     0     -15.765  -5.751  21.356  0.00  0.00     0.114 C 
BRANCH  40  41
HETATM   41  C   UNK     0     -15.079  -6.622  22.284  0.00  0.00     0.139 C 
HETATM   42  O   UNK     0     -13.880  -6.915  22.187  0.00  0.00    -0.650 OA
BRANCH  41  43
HETATM   43  O   UNK     0     -15.806  -7.180  23.374  0.00  0.00    -0.776 OA
HETATM   44  H   UNK     0     -15.930  -8.184  23.325  0.00  0.00     0.167 HD
ENDBRANCH  41  43
ENDBRANCH  40  41
ENDBRANCH  39  40
ENDBRANCH  27  39
BRANCH  11  45
HETATM   45  C   UNK     0     -14.747   0.361  12.046  0.00  0.00     0.051 C 
BRANCH  45  46
HETATM   46  C   UNK     0     -15.595   1.552  11.789  0.00  0.00     0.114 C 
BRANCH  46  47
HETATM   47  C   UNK     0     -14.974   2.302  10.659  0.00  0.00     0.139 C 
HETATM   48  O   UNK     0     -13.931   2.936  10.872  0.00  0.00    -0.650 OA
BRANCH  47  49
HETATM   49  O   UNK     0     -15.544   2.291   9.411  0.00  0.00    -0.776 OA
HETATM   50  H   UNK     0     -16.558   2.202   9.275  0.00  0.00     0.167 HD
ENDBRANCH  47  49
ENDBRANCH  46  47
ENDBRANCH  45  46
ENDBRANCH  11  45
BRANCH  18  51
HETATM   51  C   UNK     0     -17.668  -4.952  15.511  0.00  0.00     0.051 C 
BRANCH  51  52
HETATM   52  C   UNK     0     -16.649  -5.796  14.759  0.00  0.00     0.114 C 
BRANCH  52  53
HETATM   53  C   UNK     0     -16.302  -7.025  15.498  0.00  0.00     0.139 C 
HETATM   54  O   UNK     0     -16.929  -7.331  16.526  0.00  0.00    -0.650 OA
BRANCH  53  55
HETATM   55  O   UNK     0     -15.282  -7.825  15.045  0.00  0.00    -0.776 OA
HETATM   56  H   UNK     0     -15.363  -8.775  14.767  0.00  0.00     0.167 HD
ENDBRANCH  53  55
ENDBRANCH  52  53
ENDBRANCH  51  52
ENDBRANCH  18  51
TORSDOF 16
ENDMDL
MODEL 11
REMARK VINA RESULT:      -8.0     22.972     25.555
REMARK  16 active torsions:
REMARK  status: ('A' for Active; 'I' for Inactive)
REMARK    1  A    between atoms: C_6  and  C_7 
REMARK    2  A    between atoms: C_7  and  C_8 
REMARK    3  A    between atoms: C_8  and  C_9 
REMARK    4  A    between atoms: C_9  and  O_11 
REMARK    5  A    between atoms: C_16  and  C_17 
REMARK    6  A    between atoms: C_17  and  C_18 
REMARK    7  A    between atoms: C_18  and  C_19 
REMARK    8  A    between atoms: C_19  and  O_21 
REMARK    9  A    between atoms: C_28  and  C_29 
REMARK   10  A    between atoms: C_29  and  C_30 
REMARK   11  A    between atoms: C_30  and  C_31 
REMARK   12  A    between atoms: C_31  and  O_33 
REMARK   13  A    between atoms: C_42  and  C_43 
REMARK   14  A    between atoms: C_43  and  C_44 
REMARK   15  A    between atoms: C_44  and  C_45 
REMARK   16  A    between atoms: C_45  and  O_47 
ROOT
HETATM    1  C   UNK     0     -14.393   5.632   8.710  0.00  0.00     0.051 C 
HETATM    2  C   UNK     0     -13.401   4.889   9.582  0.00  0.00    -0.031 A 
HETATM    3  C   UNK     0     -12.231   5.345  10.169  0.00  0.00     0.021 A 
HETATM    4  N   UNK     0     -11.645   4.323  10.837  0.00  0.00    -0.361 N 
HETATM    5  C   UNK     0     -12.420   3.228  10.696  0.00  0.00     0.022 A 
HETATM    6  C   UNK     0     -13.526   3.546   9.914  0.00  0.00    -0.027 A 
HETATM    7  C   UNK     0     -12.272   1.872  11.311  0.00  0.00     0.115 C 
HETATM    8  C   UNK     0     -11.875   1.827  12.776  0.00  0.00     0.021 A 
HETATM    9  N   UNK     0     -12.228   2.663  13.764  0.00  0.00    -0.361 N 
HETATM   10  C   UNK     0     -11.567   2.295  14.882  0.00  0.00     0.022 A 
HETATM   11  C   UNK     0     -10.774   1.184  14.608  0.00  0.00    -0.027 A 
HETATM   12  C   UNK     0     -10.963   0.884  13.284  0.00  0.00    -0.031 A 
HETATM   13  C   UNK     0     -10.303  -0.257  12.543  0.00  0.00     0.051 C 
HETATM   14  C   UNK     0     -11.615   3.003  16.232  0.00  0.00     0.115 C 
HETATM   15  C   UNK     0     -11.124   4.441  16.191  0.00  0.00     0.021 A 
HETATM   16  N   UNK     0     -11.605   5.453  15.444  0.00  0.00    -0.361 N 
HETATM   17  C   UNK     0     -10.855   6.539  15.643  0.00  0.00     0.022 A 
HETATM   18  C   UNK     0      -9.843   6.224  16.571  0.00  0.00    -0.027 A 
HETATM   19  C   UNK     0     -10.023   4.907  16.908  0.00  0.00    -0.031 A 
HETATM   20  C   UNK     0      -9.163   4.169  17.917  0.00  0.00     0.051 C 
HETATM   21  C   UNK     0     -10.930   7.904  14.996  0.00  0.00     0.115 C 
HETATM   22  C   UNK     0     -11.366   7.967  13.551  0.00  0.00     0.022 A 
HETATM   23  N   UNK     0     -11.034   7.145  12.547  0.00  0.00    -0.361 N 
HETATM   24  C   UNK     0     -11.763   7.483  11.464  0.00  0.00     0.021 A 
HETATM   25  C   UNK     0     -12.577   8.555  11.775  0.00  0.00    -0.031 A 
HETATM   26  C   UNK     0     -13.540   9.311  10.884  0.00  0.00     0.051 C 
HETATM   27  C   UNK     0     -12.341   8.883  13.105  0.00  0.00    -0.027 A 
HETATM   28  C   UNK     0     -11.803   6.784  10.116  0.00  0.00     0.115 C 
HETATM   29  H   UNK     0     -10.668   4.373  11.371  0.00  0.00     0.165 HD
HETATM   30  H   UNK     0     -12.982   3.485  13.688  0.00  0.00     0.165 HD
HETATM   31  H   UNK     0     -12.521   5.414  14.799  0.00  0.00     0.165 HD
HETATM   32  H   UNK     0     -10.249   6.345  12.581  0.00  0.00     0.165 HD
ENDROOT
BRANCH   6  33
HETATM   33  C   UNK     0     -14.675   2.681   9.462  0.00  0.00     0.051 C 
BRANCH  33  34
HETATM   34  C   UNK     0     -15.830   2.778  10.430  0.00  0.00     0.114 C 
BRANCH  34  35
HETATM   35  C   UNK     0     -15.584   1.791  11.520  0.00  0.00     0.139 C 
HETATM   36  O   UNK     0     -15.394   2.186  12.707  0.00  0.00    -0.650 OA
BRANCH  35  37
HETATM   37  O   UNK     0     -15.553   0.420  11.297  0.00  0.00    -0.776 OA
HETATM   38  H   UNK     0     -15.551   0.030  10.368  0.00  0.00     0.167 HD
ENDBRANCH  35  37
ENDBRANCH  34  35
ENDBRANCH  33  34
ENDBRANCH   6  33
BRANCH  27  39
HETATM   39  C   UNK     0     -12.987  10.040  13.782  0.00  0.00     0.051 C 
BRANCH  39  40
HETATM   40  C   UNK     0     -12.284  11.323  13.785  0.00  0.00     0.114 C 
BRANCH  40  41
HETATM   41  C   UNK     0     -12.402  12.268  12.697  0.00  0.00     0.139 C 
HETATM   42  O   UNK     0     -11.428  12.794  12.141  0.00  0.00    -0.650 OA
BRANCH  41  43
HETATM   43  O   UNK     0     -13.698  12.625  12.228  0.00  0.00    -0.776 OA
HETATM   44  H   UNK     0     -14.446  12.040  12.580  0.00  0.00     0.167 HD
ENDBRANCH  41  43
ENDBRANCH  40  41
ENDBRANCH  39  40
ENDBRANCH  27  39
BRANCH  11  45
HETATM   45  C   UNK     0      -9.870   0.420  15.539  0.00  0.00     0.051 C 
BRANCH  45  46
HETATM   46  C   UNK     0     -10.579  -0.554  16.407  0.00  0.00     0.114 C 
BRANCH  46  47
HETATM   47  C   UNK     0      -9.977  -0.454  17.767  0.00  0.00     0.139 C 
HETATM   48  O   UNK     0     -10.525  -1.053  18.703  0.00  0.00    -0.650 OA
BRANCH  47  49
HETATM   49  O   UNK     0      -8.843   0.288  17.981  0.00  0.00    -0.776 OA
HETATM   50  H   UNK     0      -8.760   0.945  18.765  0.00  0.00     0.167 HD
ENDBRANCH  47  49
ENDBRANCH  46  47
ENDBRANCH  45  46
ENDBRANCH  11  45
BRANCH  18  51
HETATM   51  C   UNK     0      -8.776   7.133  17.123  0.00  0.00     0.051 C 
BRANCH  51  52
HETATM   52  C   UNK     0      -7.682   7.195  16.068  0.00  0.00     0.114 C 
BRANCH  52  53
HETATM   53  C   UNK     0      -7.143   8.560  15.915  0.00  0.00     0.139 C 
HETATM   54  O   UNK     0      -6.178   8.929  16.603  0.00  0.00    -0.650 OA
BRANCH  53  55
HETATM   55  O   UNK     0      -7.718   9.420  15.010  0.00  0.00    -0.776 OA
HETATM   56  H   UNK     0      -8.685   9.634  14.941  0.00  0.00     0.167 HD
ENDBRANCH  53  55
ENDBRANCH  52  53
ENDBRANCH  51  52
ENDBRANCH  18  51
TORSDOF 16
ENDMDL
MODEL 12
REMARK VINA RESULT:      -7.8     21.415     23.375
REMARK  16 active torsions:
REMARK  status: ('A' for Active; 'I' for Inactive)
REMARK    1  A    between atoms: C_6  and  C_7 
REMARK    2  A    between atoms: C_7  and  C_8 
REMARK    3  A    between atoms: C_8  and  C_9 
REMARK    4  A    between atoms: C_9  and  O_11 
REMARK    5  A    between atoms: C_16  and  C_17 
REMARK    6  A    between atoms: C_17  and  C_18 
REMARK    7  A    between atoms: C_18  and  C_19 
REMARK    8  A    between atoms: C_19  and  O_21 
REMARK    9  A    between atoms: C_28  and  C_29 
REMARK   10  A    between atoms: C_29  and  C_30 
REMARK   11  A    between atoms: C_30  and  C_31 
REMARK   12  A    between atoms: C_31  and  O_33 
REMARK   13  A    between atoms: C_42  and  C_43 
REMARK   14  A    between atoms: C_43  and  C_44 
REMARK   15  A    between atoms: C_44  and  C_45 
REMARK   16  A    between atoms: C_45  and  O_47 
ROOT
HETATM    1  C   UNK     0     -15.302  -2.046  16.459  0.00  0.00     0.051 C 
HETATM    2  C   UNK     0     -15.311  -0.764  15.652  0.00  0.00    -0.031 A 
HETATM    3  C   UNK     0     -14.920   0.512  16.024  0.00  0.00     0.021 A 
HETATM    4  N   UNK     0     -15.132   1.358  14.988  0.00  0.00    -0.361 N 
HETATM    5  C   UNK     0     -15.641   0.647  13.961  0.00  0.00     0.022 A 
HETATM    6  C   UNK     0     -15.769  -0.684  14.343  0.00  0.00    -0.027 A 
HETATM    7  C   UNK     0     -15.962   1.085  12.566  0.00  0.00     0.115 C 
HETATM    8  C   UNK     0     -14.952   1.994  11.888  0.00  0.00     0.021 A 
HETATM    9  N   UNK     0     -13.614   1.984  11.994  0.00  0.00    -0.361 N 
HETATM   10  C   UNK     0     -13.130   3.029  11.290  0.00  0.00     0.022 A 
HETATM   11  C   UNK     0     -14.184   3.726  10.706  0.00  0.00    -0.027 A 
HETATM   12  C   UNK     0     -15.335   3.079  11.079  0.00  0.00    -0.031 A 
HETATM   13  C   UNK     0     -16.735   3.482  10.673  0.00  0.00     0.051 C 
HETATM   14  C   UNK     0     -11.665   3.442  11.182  0.00  0.00     0.115 C 
HETATM   15  C   UNK     0     -11.028   3.805  12.514  0.00  0.00     0.021 A 
HETATM   16  N   UNK     0     -10.912   3.028  13.608  0.00  0.00    -0.361 N 
HETATM   17  C   UNK     0     -10.356   3.737  14.592  0.00  0.00     0.022 A 
HETATM   18  C   UNK     0     -10.087   5.036  14.114  0.00  0.00    -0.027 A 
HETATM   19  C   UNK     0     -10.512   5.064  12.811  0.00  0.00    -0.031 A 
HETATM   20  C   UNK     0     -10.375   6.274  11.905  0.00  0.00     0.051 C 
HETATM   21  C   UNK     0     -10.077   3.355  16.028  0.00  0.00     0.115 C 
HETATM   22  C   UNK     0     -11.050   2.415  16.701  0.00  0.00     0.022 A 
HETATM   23  N   UNK     0     -12.386   2.400  16.610  0.00  0.00    -0.361 N 
HETATM   24  C   UNK     0     -12.842   1.306  17.255  0.00  0.00     0.021 A 
HETATM   25  C   UNK     0     -11.773   0.606  17.782  0.00  0.00    -0.031 A 
HETATM   26  C   UNK     0     -11.780  -0.657  18.617  0.00  0.00     0.051 C 
HETATM   27  C   UNK     0     -10.616   1.297  17.441  0.00  0.00    -0.027 A 
HETATM   28  C   UNK     0     -14.275   0.811  17.347  0.00  0.00     0.115 C 
HETATM   29  H   UNK     0     -14.958   2.459  15.003  0.00  0.00     0.165 HD
HETATM   30  H   UNK     0     -13.005   1.211  12.524  0.00  0.00     0.165 HD
HETATM   31  H   UNK     0     -11.185   1.943  13.673  0.00  0.00     0.165 HD
HETATM   32  H   UNK     0     -13.025   3.184  16.127  0.00  0.00     0.165 HD
ENDROOT
BRANCH   6  33
HETATM   33  C   UNK     0     -16.288  -1.870  13.570  0.00  0.00     0.051 C 
BRANCH  33  34
HETATM   34  C   UNK     0     -17.758  -2.085  13.843  0.00  0.00     0.114 C 
BRANCH  34  35
HETATM   35  C   UNK     0     -18.501  -1.707  12.606  0.00  0.00     0.139 C 
HETATM   36  O   UNK     0     -18.880  -0.513  12.430  0.00  0.00    -0.650 OA
BRANCH  35  37
HETATM   37  O   UNK     0     -18.806  -2.623  11.606  0.00  0.00    -0.776 OA
HETATM   38  H   UNK     0     -19.740  -2.728  11.245  0.00  0.00     0.167 HD
ENDBRANCH  35  37
ENDBRANCH  34  35
ENDBRANCH  33  34
ENDBRANCH   6  33
BRANCH  27  39
HETATM   39  C   UNK     0      -9.261   0.882  17.896  0.00  0.00     0.051 C 
BRANCH  39  40
HETATM   40  C   UNK     0      -8.510   1.793  18.760  0.00  0.00     0.114 C 
BRANCH  40  41
HETATM   41  C   UNK     0      -7.195   2.279  18.409  0.00  0.00     0.139 C 
HETATM   42  O   UNK     0      -6.148   1.678  18.685  0.00  0.00    -0.650 OA
BRANCH  41  43
HETATM   43  O   UNK     0      -7.078   3.513  17.708  0.00  0.00    -0.776 OA
HETATM   44  H   UNK     0      -7.858   3.724  17.097  0.00  0.00     0.167 HD
ENDBRANCH  41  43
ENDBRANCH  40  41
ENDBRANCH  39  40
ENDBRANCH  27  39
BRANCH  11  45
HETATM   45  C   UNK     0     -14.134   4.948   9.830  0.00  0.00     0.051 C 
BRANCH  45  46
HETATM   46  C   UNK     0     -14.336   4.667   8.385  0.00  0.00     0.114 C 
BRANCH  46  47
HETATM   47  C   UNK     0     -13.074   4.059   7.874  0.00  0.00     0.139 C 
HETATM   48  O   UNK     0     -12.015   4.685   8.015  0.00  0.00    -0.650 OA
BRANCH  47  49
HETATM   49  O   UNK     0     -13.084   2.832   7.259  0.00  0.00    -0.776 OA
HETATM   50  H   UNK     0     -13.577   2.671   6.373  0.00  0.00     0.167 HD
ENDBRANCH  47  49
ENDBRANCH  46  47
ENDBRANCH  45  46
ENDBRANCH  11  45
BRANCH  18  51
HETATM   51  C   UNK     0      -9.442   6.179  14.853  0.00  0.00     0.051 C 
BRANCH  51  52
HETATM   52  C   UNK     0      -7.948   5.894  14.859  0.00  0.00     0.114 C 
BRANCH  52  53
HETATM   53  C   UNK     0      -7.224   6.777  15.793  0.00  0.00     0.139 C 
HETATM   54  O   UNK     0      -7.037   7.970  15.503  0.00  0.00    -0.650 OA
BRANCH  53  55
HETATM   55  O   UNK     0      -6.755   6.272  16.981  0.00  0.00    -0.776 OA
HETATM   56  H   UNK     0      -7.261   5.693  17.610  0.00  0.00     0.167 HD
ENDBRANCH  53  55
ENDBRANCH  52  53
ENDBRANCH  51  52
ENDBRANCH  18  51
TORSDOF 16
ENDMDL
MODEL 13
REMARK VINA RESULT:      -7.8     23.192     25.583
REMARK  16 active torsions:
REMARK  status: ('A' for Active; 'I' for Inactive)
REMARK    1  A    between atoms: C_6  and  C_7 
REMARK    2  A    between atoms: C_7  and  C_8 
REMARK    3  A    between atoms: C_8  and  C_9 
REMARK    4  A    between atoms: C_9  and  O_11 
REMARK    5  A    between atoms: C_16  and  C_17 
REMARK    6  A    between atoms: C_17  and  C_18 
REMARK    7  A    between atoms: C_18  and  C_19 
REMARK    8  A    between atoms: C_19  and  O_21 
REMARK    9  A    between atoms: C_28  and  C_29 
REMARK   10  A    between atoms: C_29  and  C_30 
REMARK   11  A    between atoms: C_30  and  C_31 
REMARK   12  A    between atoms: C_31  and  O_33 
REMARK   13  A    between atoms: C_42  and  C_43 
REMARK   14  A    between atoms: C_43  and  C_44 
REMARK   15  A    between atoms: C_44  and  C_45 
REMARK   16  A    between atoms: C_45  and  O_47 
ROOT
HETATM    1  C   UNK     0     -15.117   2.167  10.872  0.00  0.00     0.051 C 
HETATM    2  C   UNK     0     -14.002   1.735  11.802  0.00  0.00    -0.031 A 
HETATM    3  C   UNK     0     -12.648   2.023  11.746  0.00  0.00     0.021 A 
HETATM    4  N   UNK     0     -12.020   1.397  12.770  0.00  0.00    -0.361 N 
HETATM    5  C   UNK     0     -12.946   0.723  13.482  0.00  0.00     0.022 A 
HETATM    6  C   UNK     0     -14.197   0.911  12.903  0.00  0.00    -0.027 A 
HETATM    7  C   UNK     0     -12.792  -0.049  14.755  0.00  0.00     0.115 C 
HETATM    8  C   UNK     0     -11.917   0.574  15.829  0.00  0.00     0.021 A 
HETATM    9  N   UNK     0     -11.775   1.871  16.142  0.00  0.00    -0.361 N 
HETATM   10  C   UNK     0     -10.825   1.970  17.096  0.00  0.00     0.022 A 
HETATM   11  C   UNK     0     -10.349   0.701  17.413  0.00  0.00    -0.027 A 
HETATM   12  C   UNK     0     -11.033  -0.183  16.618  0.00  0.00    -0.031 A 
HETATM   13  C   UNK     0     -10.849  -1.684  16.621  0.00  0.00     0.051 C 
HETATM   14  C   UNK     0     -10.292   3.263  17.707  0.00  0.00     0.115 C 
HETATM   15  C   UNK     0      -9.642   4.198  16.700  0.00  0.00     0.021 A 
HETATM   16  N   UNK     0     -10.201   4.740  15.602  0.00  0.00    -0.361 N 
HETATM   17  C   UNK     0      -9.280   5.446  14.944  0.00  0.00     0.022 A 
HETATM   18  C   UNK     0      -8.064   5.369  15.652  0.00  0.00    -0.027 A 
HETATM   19  C   UNK     0      -8.305   4.586  16.751  0.00  0.00    -0.031 A 
HETATM   20  C   UNK     0      -7.263   4.274  17.809  0.00  0.00     0.051 C 
HETATM   21  C   UNK     0      -9.378   6.183  13.627  0.00  0.00     0.115 C 
HETATM   22  C   UNK     0     -10.279   5.597  12.565  0.00  0.00     0.022 A 
HETATM   23  N   UNK     0     -10.444   4.310  12.234  0.00  0.00    -0.361 N 
HETATM   24  C   UNK     0     -11.448   4.228  11.339  0.00  0.00     0.021 A 
HETATM   25  C   UNK     0     -11.936   5.495  11.079  0.00  0.00    -0.031 A 
HETATM   26  C   UNK     0     -13.029   5.917  10.120  0.00  0.00     0.051 C 
HETATM   27  C   UNK     0     -11.203   6.388  11.852  0.00  0.00    -0.027 A 
HETATM   28  C   UNK     0     -12.060   2.973  10.741  0.00  0.00     0.115 C 
HETATM   29  H   UNK     0     -10.922   1.403  12.958  0.00  0.00     0.165 HD
HETATM   30  H   UNK     0     -12.379   2.715  15.728  0.00  0.00     0.165 HD
HETATM   31  H   UNK     0     -11.281   4.662  15.310  0.00  0.00     0.165 HD
HETATM   32  H   UNK     0      -9.822   3.450  12.597  0.00  0.00     0.165 HD
ENDROOT
BRANCH   6  33
HETATM   33  C   UNK     0     -15.545   0.371  13.310  0.00  0.00     0.051 C 
BRANCH  33  34
HETATM   34  C   UNK     0     -15.735  -1.037  12.796  0.00  0.00     0.114 C 
BRANCH  34  35
HETATM   35  C   UNK     0     -15.972  -1.915  13.978  0.00  0.00     0.139 C 
HETATM   36  O   UNK     0     -15.958  -1.428  15.146  0.00  0.00    -0.650 OA
BRANCH  35  37
HETATM   37  O   UNK     0     -16.218  -3.277  13.861  0.00  0.00    -0.776 OA
HETATM   38  H   UNK     0     -16.255  -3.885  14.664  0.00  0.00     0.167 HD
ENDBRANCH  35  37
ENDBRANCH  34  35
ENDBRANCH  33  34
ENDBRANCH   6  33
BRANCH  27  39
HETATM   39  C   UNK     0     -11.394   7.862  11.788  0.00  0.00     0.051 C 
BRANCH  39  40
HETATM   40  C   UNK     0     -11.982   8.537  12.945  0.00  0.00     0.114 C 
BRANCH  40  41
HETATM   41  C   UNK     0     -11.184   9.299  13.880  0.00  0.00     0.139 C 
HETATM   42  O   UNK     0     -10.658  10.385  13.603  0.00  0.00    -0.650 OA
BRANCH  41  43
HETATM   43  O   UNK     0     -10.981   8.787  15.193  0.00  0.00    -0.776 OA
HETATM   44  H   UNK     0     -10.290   9.290  15.737  0.00  0.00     0.167 HD
ENDBRANCH  41  43
ENDBRANCH  40  41
ENDBRANCH  39  40
ENDBRANCH  27  39
BRANCH  11  45
HETATM   45  C   UNK     0      -9.298   0.313  18.418  0.00  0.00     0.051 C 
BRANCH  45  46
HETATM   46  C   UNK     0      -9.736   0.441  19.832  0.00  0.00     0.114 C 
BRANCH  46  47
HETATM   47  C   UNK     0      -9.390  -0.837  20.518  0.00  0.00     0.139 C 
HETATM   48  O   UNK     0      -9.109  -0.804  21.725  0.00  0.00    -0.650 OA
BRANCH  47  49
HETATM   49  O   UNK     0      -9.381  -2.024  19.831  0.00  0.00    -0.776 OA
HETATM   50  H   UNK     0      -8.510  -2.523  19.616  0.00  0.00     0.167 HD
ENDBRANCH  47  49
ENDBRANCH  46  47
ENDBRANCH  45  46
ENDBRANCH  11  45
BRANCH  18  51
HETATM   51  C   UNK     0      -6.751   6.024  15.311  0.00  0.00     0.051 C 
BRANCH  51  52
HETATM   52  C   UNK     0      -6.594   7.191  16.275  0.00  0.00     0.114 C 
BRANCH  52  53
HETATM   53  C   UNK     0      -7.763   8.091  16.243  0.00  0.00     0.139 C 
HETATM   54  O   UNK     0      -7.897   8.904  15.315  0.00  0.00    -0.650 OA
BRANCH  53  55
HETATM   55  O   UNK     0      -8.699   8.025  17.247  0.00  0.00    -0.776 OA
HETATM   56  H   UNK     0      -8.553   8.269  18.198  0.00  0.00     0.167 HD
ENDBRANCH  53  55
ENDBRANCH  52  53
ENDBRANCH  51  52
ENDBRANCH  18  51
TORSDOF 16
ENDMDL
MODEL 14
REMARK VINA RESULT:      -7.7      5.992     12.282
REMARK  16 active torsions:
REMARK  status: ('A' for Active; 'I' for Inactive)
REMARK    1  A    between atoms: C_6  and  C_7 
REMARK    2  A    between atoms: C_7  and  C_8 
REMARK    3  A    between atoms: C_8  and  C_9 
REMARK    4  A    between atoms: C_9  and  O_11 
REMARK    5  A    between atoms: C_16  and  C_17 
REMARK    6  A    between atoms: C_17  and  C_18 
REMARK    7  A    between atoms: C_18  and  C_19 
REMARK    8  A    between atoms: C_19  and  O_21 
REMARK    9  A    between atoms: C_28  and  C_29 
REMARK   10  A    between atoms: C_29  and  C_30 
REMARK   11  A    between atoms: C_30  and  C_31 
REMARK   12  A    between atoms: C_31  and  O_33 
REMARK   13  A    between atoms: C_42  and  C_43 
REMARK   14  A    between atoms: C_43  and  C_44 
REMARK   15  A    between atoms: C_44  and  C_45 
REMARK   16  A    between atoms: C_45  and  O_47 
ROOT
HETATM    1  C   UNK     0     -36.169   1.411   6.686  0.00  0.00     0.051 C 
HETATM    2  C   UNK     0     -34.851   0.727   6.387  0.00  0.00    -0.031 A 
HETATM    3  C   UNK     0     -34.371   0.227   5.187  0.00  0.00     0.021 A 
HETATM    4  N   UNK     0     -33.154  -0.330   5.395  0.00  0.00    -0.361 N 
HETATM    5  C   UNK     0     -32.845  -0.188   6.700  0.00  0.00     0.022 A 
HETATM    6  C   UNK     0     -33.886   0.466   7.351  0.00  0.00    -0.027 A 
HETATM    7  C   UNK     0     -31.584  -0.546   7.424  0.00  0.00     0.115 C 
HETATM    8  C   UNK     0     -30.278  -0.215   6.722  0.00  0.00     0.021 A 
HETATM    9  N   UNK     0     -29.993   0.838   5.941  0.00  0.00    -0.361 N 
HETATM   10  C   UNK     0     -28.743   0.675   5.458  0.00  0.00     0.022 A 
HETATM   11  C   UNK     0     -28.205  -0.511   5.949  0.00  0.00    -0.027 A 
HETATM   12  C   UNK     0     -29.167  -1.077   6.746  0.00  0.00    -0.031 A 
HETATM   13  C   UNK     0     -29.024  -2.380   7.499  0.00  0.00     0.051 C 
HETATM   14  C   UNK     0     -28.028   1.600   4.477  0.00  0.00     0.115 C 
HETATM   15  C   UNK     0     -28.729   1.734   3.135  0.00  0.00     0.021 A 
HETATM   16  N   UNK     0     -29.983   2.167   2.903  0.00  0.00    -0.361 N 
HETATM   17  C   UNK     0     -30.246   2.069   1.598  0.00  0.00     0.022 A 
HETATM   18  C   UNK     0     -29.106   1.557   0.947  0.00  0.00    -0.027 A 
HETATM   19  C   UNK     0     -28.163   1.353   1.920  0.00  0.00    -0.031 A 
HETATM   20  C   UNK     0     -26.762   0.838   1.643  0.00  0.00     0.051 C 
HETATM   21  C   UNK     0     -31.523   2.355   0.840  0.00  0.00     0.115 C 
HETATM   22  C   UNK     0     -32.830   2.072   1.543  0.00  0.00     0.022 A 
HETATM   23  N   UNK     0     -33.141   1.034   2.330  0.00  0.00    -0.361 N 
HETATM   24  C   UNK     0     -34.360   1.256   2.861  0.00  0.00     0.021 A 
HETATM   25  C   UNK     0     -34.850   2.462   2.397  0.00  0.00    -0.031 A 
HETATM   26  C   UNK     0     -36.185   3.119   2.677  0.00  0.00     0.051 C 
HETATM   27  C   UNK     0     -33.888   3.003   1.551  0.00  0.00    -0.027 A 
HETATM   28  C   UNK     0     -35.097   0.408   3.883  0.00  0.00     0.115 C 
HETATM   29  H   UNK     0     -32.541  -0.854   4.626  0.00  0.00     0.165 HD
HETATM   30  H   UNK     0     -30.652   1.724   5.768  0.00  0.00     0.165 HD
HETATM   31  H   UNK     0     -30.681   2.595   3.669  0.00  0.00     0.165 HD
HETATM   32  H   UNK     0     -32.521   0.113   2.483  0.00  0.00     0.165 HD
ENDROOT
BRANCH   6  33
HETATM   33  C   UNK     0     -34.031   0.855   8.800  0.00  0.00     0.051 C 
BRANCH  33  34
HETATM   34  C   UNK     0     -34.488  -0.324   9.627  0.00  0.00     0.114 C 
BRANCH  34  35
HETATM   35  C   UNK     0     -35.741   0.080  10.327  0.00  0.00     0.139 C 
HETATM   36  O   UNK     0     -35.697   0.506  11.517  0.00  0.00    -0.650 OA
BRANCH  35  37
HETATM   37  O   UNK     0     -36.991   0.015   9.723  0.00  0.00    -0.776 OA
HETATM   38  H   UNK     0     -37.372  -0.850   9.375  0.00  0.00     0.167 HD
ENDBRANCH  35  37
ENDBRANCH  34  35
ENDBRANCH  33  34
ENDBRANCH   6  33
BRANCH  27  39
HETATM   39  C   UNK     0     -34.090   4.272   0.801  0.00  0.00     0.051 C 
BRANCH  39  40
HETATM   40  C   UNK     0     -34.323   4.197  -0.641  0.00  0.00     0.114 C 
BRANCH  40  41
HETATM   41  C   UNK     0     -35.033   3.095  -1.250  0.00  0.00     0.139 C 
HETATM   42  O   UNK     0     -34.524   2.327  -2.078  0.00  0.00    -0.650 OA
BRANCH  41  43
HETATM   43  O   UNK     0     -36.392   2.866  -0.891  0.00  0.00    -0.776 OA
HETATM   44  H   UNK     0     -36.800   3.590  -0.312  0.00  0.00     0.167 HD
ENDBRANCH  41  43
ENDBRANCH  40  41
ENDBRANCH  39  40
ENDBRANCH  27  39
BRANCH  11  45
HETATM   45  C   UNK     0     -26.846  -1.105   5.695  0.00  0.00     0.051 C 
BRANCH  45  46
HETATM   46  C   UNK     0     -25.744  -0.434   6.430  0.00  0.00     0.114 C 
BRANCH  46  47
HETATM   47  C   UNK     0     -25.474  -1.240   7.655  0.00  0.00     0.139 C 
HETATM   48  O   UNK     0     -26.089  -0.962   8.694  0.00  0.00    -0.650 OA
BRANCH  47  49
HETATM   49  O   UNK     0     -24.564  -2.266   7.634  0.00  0.00    -0.776 OA
HETATM   50  H   UNK     0     -24.190  -2.681   8.496  0.00  0.00     0.167 HD
ENDBRANCH  47  49
ENDBRANCH  46  47
ENDBRANCH  45  46
ENDBRANCH  11  45
BRANCH  18  51
HETATM   51  C   UNK     0     -28.919   1.297  -0.526  0.00  0.00     0.051 C 
BRANCH  51  52
HETATM   52  C   UNK     0     -28.439   2.607  -1.132  0.00  0.00     0.114 C 
BRANCH  52  53
HETATM   53  C   UNK     0     -28.986   2.819  -2.486  0.00  0.00     0.139 C 
HETATM   54  O   UNK     0     -28.344   3.477  -3.320  0.00  0.00    -0.650 OA
BRANCH  53  55
HETATM   55  O   UNK     0     -30.210   2.287  -2.815  0.00  0.00    -0.776 OA
HETATM   56  H   UNK     0     -30.973   2.782  -3.213  0.00  0.00     0.167 HD
ENDBRANCH  53  55
ENDBRANCH  52  53
ENDBRANCH  51  52
ENDBRANCH  18  51
TORSDOF 16
ENDMDL
MODEL 15
REMARK VINA RESULT:      -7.6     22.870     24.836
REMARK  16 active torsions:
REMARK  status: ('A' for Active; 'I' for Inactive)
REMARK    1  A    between atoms: C_6  and  C_7 
REMARK    2  A    between atoms: C_7  and  C_8 
REMARK    3  A    between atoms: C_8  and  C_9 
REMARK    4  A    between atoms: C_9  and  O_11 
REMARK    5  A    between atoms: C_16  and  C_17 
REMARK    6  A    between atoms: C_17  and  C_18 
REMARK    7  A    between atoms: C_18  and  C_19 
REMARK    8  A    between atoms: C_19  and  O_21 
REMARK    9  A    between atoms: C_28  and  C_29 
REMARK   10  A    between atoms: C_29  and  C_30 
REMARK   11  A    between atoms: C_30  and  C_31 
REMARK   12  A    between atoms: C_31  and  O_33 
REMARK   13  A    between atoms: C_42  and  C_43 
REMARK   14  A    between atoms: C_43  and  C_44 
REMARK   15  A    between atoms: C_44  and  C_45 
REMARK   16  A    between atoms: C_45  and  O_47 
ROOT
HETATM    1  C   UNK     0     -10.857   1.217  14.326  0.00  0.00     0.051 C 
HETATM    2  C   UNK     0     -11.879   2.202  13.797  0.00  0.00    -0.031 A 
HETATM    3  C   UNK     0     -12.333   3.385  14.358  0.00  0.00     0.021 A 
HETATM    4  N   UNK     0     -13.274   3.925  13.548  0.00  0.00    -0.361 N 
HETATM    5  C   UNK     0     -13.423   3.117  12.478  0.00  0.00     0.022 A 
HETATM    6  C   UNK     0     -12.567   2.027  12.603  0.00  0.00    -0.027 A 
HETATM    7  C   UNK     0     -14.263   3.303  11.253  0.00  0.00     0.115 C 
HETATM    8  C   UNK     0     -14.273   4.692  10.639  0.00  0.00     0.021 A 
HETATM    9  N   UNK     0     -13.269   5.579  10.560  0.00  0.00    -0.361 N 
HETATM   10  C   UNK     0     -13.756   6.715  10.017  0.00  0.00     0.022 A 
HETATM   11  C   UNK     0     -15.108   6.553   9.731  0.00  0.00    -0.027 A 
HETATM   12  C   UNK     0     -15.440   5.281  10.120  0.00  0.00    -0.031 A 
HETATM   13  C   UNK     0     -16.813   4.659   9.993  0.00  0.00     0.051 C 
HETATM   14  C   UNK     0     -12.982   8.012   9.798  0.00  0.00     0.115 C 
HETATM   15  C   UNK     0     -12.443   8.632  11.077  0.00  0.00     0.021 A 
HETATM   16  N   UNK     0     -11.604   8.076  11.970  0.00  0.00    -0.361 N 
HETATM   17  C   UNK     0     -11.429   8.917  12.991  0.00  0.00     0.022 A 
HETATM   18  C   UNK     0     -12.183  10.082  12.748  0.00  0.00    -0.027 A 
HETATM   19  C   UNK     0     -12.813   9.892  11.545  0.00  0.00    -0.031 A 
HETATM   20  C   UNK     0     -13.705  10.928  10.886  0.00  0.00     0.051 C 
HETATM   21  C   UNK     0     -10.646   8.741  14.272  0.00  0.00     0.115 C 
HETATM   22  C   UNK     0     -10.590   7.355  14.871  0.00  0.00     0.022 A 
HETATM   23  N   UNK     0     -11.573   6.449  14.960  0.00  0.00    -0.361 N 
HETATM   24  C   UNK     0     -11.048   5.300  15.430  0.00  0.00     0.021 A 
HETATM   25  C   UNK     0      -9.697   5.473  15.660  0.00  0.00    -0.031 A 
HETATM   26  C   UNK     0      -8.692   4.489  16.223  0.00  0.00     0.051 C 
HETATM   27  C   UNK     0      -9.380   6.780  15.310  0.00  0.00    -0.027 A 
HETATM   28  C   UNK     0     -11.749   3.965  15.615  0.00  0.00     0.115 C 
HETATM   29  H   UNK     0     -13.855   4.854  13.756  0.00  0.00     0.165 HD
HETATM   30  H   UNK     0     -12.204   5.389  10.840  0.00  0.00     0.165 HD
HETATM   31  H   UNK     0     -11.086   7.088  11.855  0.00  0.00     0.165 HD
HETATM   32  H   UNK     0     -12.656   6.626  14.731  0.00  0.00     0.165 HD
ENDROOT
BRANCH   6  33
HETATM   33  C   UNK     0     -12.359   0.848  11.688  0.00  0.00     0.051 C 
BRANCH  33  34
HETATM   34  C   UNK     0     -11.122   1.038  10.843  0.00  0.00     0.114 C 
BRANCH  34  35
HETATM   35  C   UNK     0     -11.392   2.164   9.903  0.00  0.00     0.139 C 
HETATM   36  O   UNK     0     -12.177   2.002   8.924  0.00  0.00    -0.650 OA
BRANCH  35  37
HETATM   37  O   UNK     0     -10.814   3.419  10.051  0.00  0.00    -0.776 OA
HETATM   38  H   UNK     0     -10.485   3.755  10.943  0.00  0.00     0.167 HD
ENDBRANCH  35  37
ENDBRANCH  34  35
ENDBRANCH  33  34
ENDBRANCH   6  33
BRANCH  27  39
HETATM   39  C   UNK     0      -8.021   7.360  15.487  0.00  0.00     0.051 C 
BRANCH  39  40
HETATM   40  C   UNK     0      -7.485   7.469  16.844  0.00  0.00     0.114 C 
BRANCH  40  41
HETATM   41  C   UNK     0      -6.943   8.705  17.362  0.00  0.00     0.139 C 
HETATM   42  O   UNK     0      -6.174   9.435  16.722  0.00  0.00    -0.650 OA
BRANCH  41  43
HETATM   43  O   UNK     0      -7.303   9.121  18.675  0.00  0.00    -0.776 OA
HETATM   44  H   UNK     0      -8.155   9.666  18.724  0.00  0.00     0.167 HD
ENDBRANCH  41  43
ENDBRANCH  40  41
ENDBRANCH  39  40
ENDBRANCH  27  39
BRANCH  11  45
HETATM   45  C   UNK     0     -16.065   7.538   9.114  0.00  0.00     0.051 C 
BRANCH  45  46
HETATM   46  C   UNK     0     -16.513   8.608  10.041  0.00  0.00     0.114 C 
BRANCH  46  47
HETATM   47  C   UNK     0     -16.666   9.854   9.236  0.00  0.00     0.139 C 
HETATM   48  O   UNK     0     -16.305   9.841   8.051  0.00  0.00    -0.650 OA
BRANCH  47  49
HETATM   49  O   UNK     0     -17.193  10.991   9.794  0.00  0.00    -0.776 OA
HETATM   50  H   UNK     0     -16.982  11.274  10.758  0.00  0.00     0.167 HD
ENDBRANCH  47  49
ENDBRANCH  46  47
ENDBRANCH  45  46
ENDBRANCH  11  45
BRANCH  18  51
HETATM   51  C   UNK     0     -12.281  11.318  13.604  0.00  0.00     0.051 C 
BRANCH  51  52
HETATM   52  C   UNK     0     -11.070  12.172  13.260  0.00  0.00     0.114 C 
BRANCH  52  53
HETATM   53  C   UNK     0     -11.451  13.396  12.529  0.00  0.00     0.139 C 
HETATM   54  O   UNK     0     -11.110  13.545  11.345  0.00  0.00    -0.650 OA
BRANCH  53  55
HETATM   55  O   UNK     0     -12.180  14.370  13.168  0.00  0.00    -0.776 OA
HETATM   56  H   UNK     0     -13.074  14.251  13.584  0.00  0.00     0.167 HD
ENDBRANCH  53  55
ENDBRANCH  52  53
ENDBRANCH  51  52
ENDBRANCH  18  51
TORSDOF 16
ENDMDL
MODEL 16
REMARK VINA RESULT:      -7.6     19.678     21.594
REMARK  16 active torsions:
REMARK  status: ('A' for Active; 'I' for Inactive)
REMARK    1  A    between atoms: C_6  and  C_7 
REMARK    2  A    between atoms: C_7  and  C_8 
REMARK    3  A    between atoms: C_8  and  C_9 
REMARK    4  A    between atoms: C_9  and  O_11 
REMARK    5  A    between atoms: C_16  and  C_17 
REMARK    6  A    between atoms: C_17  and  C_18 
REMARK    7  A    between atoms: C_18  and  C_19 
REMARK    8  A    between atoms: C_19  and  O_21 
REMARK    9  A    between atoms: C_28  and  C_29 
REMARK   10  A    between atoms: C_29  and  C_30 
REMARK   11  A    between atoms: C_30  and  C_31 
REMARK   12  A    between atoms: C_31  and  O_33 
REMARK   13  A    between atoms: C_42  and  C_43 
REMARK   14  A    between atoms: C_43  and  C_44 
REMARK   15  A    between atoms: C_44  and  C_45 
REMARK   16  A    between atoms: C_45  and  O_47 
ROOT
HETATM    1  C   UNK     0     -10.387  -2.221  20.731  0.00  0.00     0.051 C 
HETATM    2  C   UNK     0     -10.705  -2.054  19.259  0.00  0.00    -0.031 A 
HETATM    3  C   UNK     0     -11.461  -2.863  18.425  0.00  0.00     0.021 A 
HETATM    4  N   UNK     0     -11.449  -2.341  17.176  0.00  0.00    -0.361 N 
HETATM    5  C   UNK     0     -10.709  -1.214  17.197  0.00  0.00     0.022 A 
HETATM    6  C   UNK     0     -10.225  -1.006  18.484  0.00  0.00    -0.027 A 
HETATM    7  C   UNK     0     -10.459  -0.219  16.107  0.00  0.00     0.115 C 
HETATM    8  C   UNK     0     -11.652   0.168  15.251  0.00  0.00     0.021 A 
HETATM    9  N   UNK     0     -12.934   0.310  15.619  0.00  0.00    -0.361 N 
HETATM   10  C   UNK     0     -13.662   0.572  14.512  0.00  0.00     0.022 A 
HETATM   11  C   UNK     0     -12.823   0.610  13.402  0.00  0.00    -0.027 A 
HETATM   12  C   UNK     0     -11.555   0.356  13.860  0.00  0.00    -0.031 A 
HETATM   13  C   UNK     0     -10.310   0.302  13.003  0.00  0.00     0.051 C 
HETATM   14  C   UNK     0     -15.177   0.745  14.449  0.00  0.00     0.115 C 
HETATM   15  C   UNK     0     -15.955  -0.482  14.897  0.00  0.00     0.021 A 
HETATM   16  N   UNK     0     -15.897  -1.101  16.091  0.00  0.00    -0.361 N 
HETATM   17  C   UNK     0     -16.681  -2.182  16.063  0.00  0.00     0.022 A 
HETATM   18  C   UNK     0     -17.285  -2.266  14.793  0.00  0.00    -0.027 A 
HETATM   19  C   UNK     0     -16.823  -1.195  14.072  0.00  0.00    -0.031 A 
HETATM   20  C   UNK     0     -17.255  -0.885  12.651  0.00  0.00     0.051 C 
HETATM   21  C   UNK     0     -16.908  -3.244  17.114  0.00  0.00     0.115 C 
HETATM   22  C   UNK     0     -15.742  -3.608  18.003  0.00  0.00     0.022 A 
HETATM   23  N   UNK     0     -14.454  -3.752  17.664  0.00  0.00    -0.361 N 
HETATM   24  C   UNK     0     -13.738  -3.935  18.792  0.00  0.00     0.021 A 
HETATM   25  C   UNK     0     -14.586  -3.919  19.882  0.00  0.00    -0.031 A 
HETATM   26  C   UNK     0     -14.260  -4.121  21.347  0.00  0.00     0.051 C 
HETATM   27  C   UNK     0     -15.874  -3.711  19.402  0.00  0.00    -0.027 A 
HETATM   28  C   UNK     0     -12.229  -4.053  18.926  0.00  0.00     0.115 C 
HETATM   29  H   UNK     0     -11.931  -2.795  16.279  0.00  0.00     0.165 HD
HETATM   30  H   UNK     0     -13.323   0.275  16.666  0.00  0.00     0.165 HD
HETATM   31  H   UNK     0     -15.330  -0.742  16.989  0.00  0.00     0.165 HD
HETATM   32  H   UNK     0     -14.044  -3.769  16.621  0.00  0.00     0.165 HD
ENDROOT
BRANCH   6  33
HETATM   33  C   UNK     0      -9.352   0.097  19.026  0.00  0.00     0.051 C 
BRANCH  33  34
HETATM   34  C   UNK     0     -10.169   1.335  19.312  0.00  0.00     0.114 C 
BRANCH  34  35
HETATM   35  C   UNK     0      -9.539   2.466  18.572  0.00  0.00     0.139 C 
HETATM   36  O   UNK     0      -9.960   3.648  18.737  0.00  0.00    -0.650 OA
BRANCH  35  37
HETATM   37  O   UNK     0      -8.483   2.287  17.688  0.00  0.00    -0.776 OA
HETATM   38  H   UNK     0      -8.429   2.782  16.812  0.00  0.00     0.167 HD
ENDBRANCH  35  37
ENDBRANCH  34  35
ENDBRANCH  33  34
ENDBRANCH   6  33
BRANCH  27  39
HETATM   39  C   UNK     0     -17.075  -3.703  20.281  0.00  0.00     0.051 C 
BRANCH  39  40
HETATM   40  C   UNK     0     -17.658  -2.413  20.649  0.00  0.00     0.114 C 
BRANCH  40  41
HETATM   41  C   UNK     0     -16.985  -1.161  20.387  0.00  0.00     0.139 C 
HETATM   42  O   UNK     0     -17.226  -0.448  19.403  0.00  0.00    -0.650 OA
BRANCH  41  43
HETATM   43  O   UNK     0     -15.989  -0.708  21.297  0.00  0.00    -0.776 OA
HETATM   44  H   UNK     0     -15.037  -0.819  20.967  0.00  0.00     0.167 HD
ENDBRANCH  41  43
ENDBRANCH  40  41
ENDBRANCH  39  40
ENDBRANCH  27  39
BRANCH  11  45
HETATM   45  C   UNK     0     -13.176   0.874  11.963  0.00  0.00     0.051 C 
BRANCH  45  46
HETATM   46  C   UNK     0     -13.130   2.308  11.581  0.00  0.00     0.114 C 
BRANCH  46  47
HETATM   47  C   UNK     0     -12.155   2.435  10.460  0.00  0.00     0.139 C 
HETATM   48  O   UNK     0     -11.042   2.927  10.696  0.00  0.00    -0.650 OA
BRANCH  47  49
HETATM   49  O   UNK     0     -12.481   2.019   9.194  0.00  0.00    -0.776 OA
HETATM   50  H   UNK     0     -12.495   1.025   8.934  0.00  0.00     0.167 HD
ENDBRANCH  47  49
ENDBRANCH  46  47
ENDBRANCH  45  46
ENDBRANCH  11  45
BRANCH  18  51
HETATM   51  C   UNK     0     -18.265  -3.299  14.300  0.00  0.00     0.051 C 
BRANCH  51  52
HETATM   52  C   UNK     0     -19.648  -2.782  14.667  0.00  0.00     0.114 C 
BRANCH  52  53
HETATM   53  C   UNK     0     -20.498  -3.845  15.238  0.00  0.00     0.139 C 
HETATM   54  O   UNK     0     -20.305  -5.031  14.924  0.00  0.00    -0.650 OA
BRANCH  53  55
HETATM   55  O   UNK     0     -21.502  -3.514  16.115  0.00  0.00    -0.776 OA
HETATM   56  H   UNK     0     -22.475  -3.521  15.918  0.00  0.00     0.167 HD
ENDBRANCH  53  55
ENDBRANCH  52  53
ENDBRANCH  51  52
ENDBRANCH  18  51
TORSDOF 16
ENDMDL
MODEL 17
REMARK VINA RESULT:      -7.6     20.059     21.922
REMARK  16 active torsions:
REMARK  status: ('A' for Active; 'I' for Inactive)
REMARK    1  A    between atoms: C_6  and  C_7 
REMARK    2  A    between atoms: C_7  and  C_8 
REMARK    3  A    between atoms: C_8  and  C_9 
REMARK    4  A    between atoms: C_9  and  O_11 
REMARK    5  A    between atoms: C_16  and  C_17 
REMARK    6  A    between atoms: C_17  and  C_18 
REMARK    7  A    between atoms: C_18  and  C_19 
REMARK    8  A    between atoms: C_19  and  O_21 
REMARK    9  A    between atoms: C_28  and  C_29 
REMARK   10  A    between atoms: C_29  and  C_30 
REMARK   11  A    between atoms: C_30  and  C_31 
REMARK   12  A    between atoms: C_31  and  O_33 
REMARK   13  A    between atoms: C_42  and  C_43 
REMARK   14  A    between atoms: C_43  and  C_44 
REMARK   15  A    between atoms: C_44  and  C_45 
REMARK   16  A    between atoms: C_45  and  O_47 
ROOT
HETATM    1  C   UNK     0      -9.337  -0.321  20.068  0.00  0.00     0.051 C 
HETATM    2  C   UNK     0      -9.961  -0.471  18.696  0.00  0.00    -0.031 A 
HETATM    3  C   UNK     0     -10.471  -1.603  18.080  0.00  0.00     0.021 A 
HETATM    4  N   UNK     0     -10.899  -1.275  16.838  0.00  0.00    -0.361 N 
HETATM    5  C   UNK     0     -10.681   0.044  16.652  0.00  0.00     0.022 A 
HETATM    6  C   UNK     0     -10.093   0.577  17.794  0.00  0.00    -0.027 A 
HETATM    7  C   UNK     0     -11.056   0.917  15.495  0.00  0.00     0.115 C 
HETATM    8  C   UNK     0     -12.440   0.709  14.905  0.00  0.00     0.021 A 
HETATM    9  N   UNK     0     -13.580   0.394  15.538  0.00  0.00    -0.361 N 
HETATM   10  C   UNK     0     -14.542   0.219  14.607  0.00  0.00     0.022 A 
HETATM   11  C   UNK     0     -14.009   0.438  13.341  0.00  0.00    -0.027 A 
HETATM   12  C   UNK     0     -12.685   0.747  13.521  0.00  0.00    -0.031 A 
HETATM   13  C   UNK     0     -11.704   1.068  12.416  0.00  0.00     0.051 C 
HETATM   14  C   UNK     0     -15.983  -0.210  14.870  0.00  0.00     0.115 C 
HETATM   15  C   UNK     0     -16.108  -1.577  15.525  0.00  0.00     0.021 A 
HETATM   16  N   UNK     0     -15.589  -1.974  16.702  0.00  0.00    -0.361 N 
HETATM   17  C   UNK     0     -15.865  -3.267  16.888  0.00  0.00     0.022 A 
HETATM   18  C   UNK     0     -16.608  -3.731  15.785  0.00  0.00    -0.027 A 
HETATM   19  C   UNK     0     -16.755  -2.663  14.939  0.00  0.00    -0.031 A 
HETATM   20  C   UNK     0     -17.529  -2.719  13.635  0.00  0.00     0.051 C 
HETATM   21  C   UNK     0     -15.451  -4.197  18.006  0.00  0.00     0.115 C 
HETATM   22  C   UNK     0     -14.094  -3.974  18.632  0.00  0.00     0.022 A 
HETATM   23  N   UNK     0     -12.943  -3.655  18.026  0.00  0.00    -0.361 N 
HETATM   24  C   UNK     0     -12.018  -3.410  18.977  0.00  0.00     0.021 A 
HETATM   25  C   UNK     0     -12.585  -3.586  20.224  0.00  0.00    -0.031 A 
HETATM   26  C   UNK     0     -11.941  -3.466  21.590  0.00  0.00     0.051 C 
HETATM   27  C   UNK     0     -13.913  -3.947  20.030  0.00  0.00    -0.027 A 
HETATM   28  C   UNK     0     -10.592  -2.925  18.783  0.00  0.00     0.115 C 
HETATM   29  H   UNK     0     -11.316  -1.985  16.087  0.00  0.00     0.165 HD
HETATM   30  H   UNK     0     -13.722   0.342  16.646  0.00  0.00     0.165 HD
HETATM   31  H   UNK     0     -15.057  -1.317  17.439  0.00  0.00     0.165 HD
HETATM   32  H   UNK     0     -12.760  -3.642  16.920  0.00  0.00     0.165 HD
ENDROOT
BRANCH   6  33
HETATM   33  C   UNK     0      -9.650   1.988  18.088  0.00  0.00     0.051 C 
BRANCH  33  34
HETATM   34  C   UNK     0      -8.200   2.183  17.714  0.00  0.00     0.114 C 
BRANCH  34  35
HETATM   35  C   UNK     0      -7.847   3.600  18.014  0.00  0.00     0.139 C 
HETATM   36  O   UNK     0      -7.122   4.260  17.213  0.00  0.00    -0.650 OA
BRANCH  35  37
HETATM   37  O   UNK     0      -8.287   4.256  19.157  0.00  0.00    -0.776 OA
HETATM   38  H   UNK     0      -7.829   5.079  19.511  0.00  0.00     0.167 HD
ENDBRANCH  35  37
ENDBRANCH  34  35
ENDBRANCH  33  34
ENDBRANCH   6  33
BRANCH  27  39
HETATM   39  C   UNK     0     -14.832  -4.292  21.148  0.00  0.00     0.051 C 
BRANCH  39  40
HETATM   40  C   UNK     0     -15.765  -3.269  21.620  0.00  0.00     0.114 C 
BRANCH  40  41
HETATM   41  C   UNK     0     -15.636  -1.878  21.249  0.00  0.00     0.139 C 
HETATM   42  O   UNK     0     -14.909  -1.075  21.849  0.00  0.00    -0.650 OA
BRANCH  41  43
HETATM   43  O   UNK     0     -16.377  -1.388  20.136  0.00  0.00    -0.776 OA
HETATM   44  H   UNK     0     -16.798  -2.109  19.562  0.00  0.00     0.167 HD
ENDBRANCH  41  43
ENDBRANCH  40  41
ENDBRANCH  39  40
ENDBRANCH  27  39
BRANCH  11  45
HETATM   45  C   UNK     0     -14.698   0.367  12.004  0.00  0.00     0.051 C 
BRANCH  45  46
HETATM   46  C   UNK     0     -15.615   1.503  11.734  0.00  0.00     0.114 C 
BRANCH  46  47
HETATM   47  C   UNK     0     -15.034   2.282  10.604  0.00  0.00     0.139 C 
HETATM   48  O   UNK     0     -14.099   3.061  10.840  0.00  0.00    -0.650 OA
BRANCH  47  49
HETATM   49  O   UNK     0     -15.522   2.142   9.329  0.00  0.00    -0.776 OA
HETATM   50  H   UNK     0     -16.217   2.788   8.937  0.00  0.00     0.167 HD
ENDBRANCH  47  49
ENDBRANCH  46  47
ENDBRANCH  45  46
ENDBRANCH  11  45
BRANCH  18  51
HETATM   51  C   UNK     0     -17.166  -5.113  15.560  0.00  0.00     0.051 C 
BRANCH  51  52
HETATM   52  C   UNK     0     -18.560  -5.114  16.169  0.00  0.00     0.114 C 
BRANCH  52  53
HETATM   53  C   UNK     0     -19.456  -6.069  15.489  0.00  0.00     0.139 C 
HETATM   54  O   UNK     0     -20.460  -5.657  14.885  0.00  0.00    -0.650 OA
BRANCH  53  55
HETATM   55  O   UNK     0     -19.175  -7.413  15.532  0.00  0.00    -0.776 OA
HETATM   56  H   UNK     0     -18.316  -7.838  15.274  0.00  0.00     0.167 HD
ENDBRANCH  53  55
ENDBRANCH  52  53
ENDBRANCH  51  52
ENDBRANCH  18  51
TORSDOF 16
ENDMDL
MODEL 18
REMARK VINA RESULT:      -7.6     22.557     24.725
REMARK  16 active torsions:
REMARK  status: ('A' for Active; 'I' for Inactive)
REMARK    1  A    between atoms: C_6  and  C_7 
REMARK    2  A    between atoms: C_7  and  C_8 
REMARK    3  A    between atoms: C_8  and  C_9 
REMARK    4  A    between atoms: C_9  and  O_11 
REMARK    5  A    between atoms: C_16  and  C_17 
REMARK    6  A    between atoms: C_17  and  C_18 
REMARK    7  A    between atoms: C_18  and  C_19 
REMARK    8  A    between atoms: C_19  and  O_21 
REMARK    9  A    between atoms: C_28  and  C_29 
REMARK   10  A    between atoms: C_29  and  C_30 
REMARK   11  A    between atoms: C_30  and  C_31 
REMARK   12  A    between atoms: C_31  and  O_33 
REMARK   13  A    between atoms: C_42  and  C_43 
REMARK   14  A    between atoms: C_43  and  C_44 
REMARK   15  A    between atoms: C_44  and  C_45 
REMARK   16  A    between atoms: C_45  and  O_47 
ROOT
HETATM    1  C   UNK     0      -9.069   0.592  19.156  0.00  0.00     0.051 C 
HETATM    2  C   UNK     0     -10.222   0.832  18.202  0.00  0.00    -0.031 A 
HETATM    3  C   UNK     0     -10.788   2.028  17.790  0.00  0.00     0.021 A 
HETATM    4  N   UNK     0     -11.819   1.763  16.954  0.00  0.00    -0.361 N 
HETATM    5  C   UNK     0     -11.917   0.424  16.817  0.00  0.00     0.022 A 
HETATM    6  C   UNK     0     -10.935  -0.189  17.587  0.00  0.00    -0.027 A 
HETATM    7  C   UNK     0     -12.824  -0.379  15.938  0.00  0.00     0.115 C 
HETATM    8  C   UNK     0     -13.024   0.128  14.521  0.00  0.00     0.021 A 
HETATM    9  N   UNK     0     -12.136   0.729  13.715  0.00  0.00    -0.361 N 
HETATM   10  C   UNK     0     -12.775   1.091  12.582  0.00  0.00     0.022 A 
HETATM   11  C   UNK     0     -14.110   0.703  12.657  0.00  0.00    -0.027 A 
HETATM   12  C   UNK     0     -14.274   0.096  13.875  0.00  0.00    -0.031 A 
HETATM   13  C   UNK     0     -15.567  -0.492  14.392  0.00  0.00     0.051 C 
HETATM   14  C   UNK     0     -12.170   1.860  11.411  0.00  0.00     0.115 C 
HETATM   15  C   UNK     0     -11.654   3.241  11.783  0.00  0.00     0.021 A 
HETATM   16  N   UNK     0     -10.718   3.550  12.700  0.00  0.00    -0.361 N 
HETATM   17  C   UNK     0     -10.600   4.877  12.777  0.00  0.00     0.022 A 
HETATM   18  C   UNK     0     -11.496   5.462  11.860  0.00  0.00    -0.027 A 
HETATM   19  C   UNK     0     -12.149   4.426  11.242  0.00  0.00    -0.031 A 
HETATM   20  C   UNK     0     -13.184   4.614  10.148  0.00  0.00     0.051 C 
HETATM   21  C   UNK     0      -9.748   5.725  13.693  0.00  0.00     0.115 C 
HETATM   22  C   UNK     0      -9.504   5.212  15.093  0.00  0.00     0.022 A 
HETATM   23  N   UNK     0     -10.369   4.605  15.917  0.00  0.00    -0.361 N 
HETATM   24  C   UNK     0      -9.693   4.185  17.005  0.00  0.00     0.021 A 
HETATM   25  C   UNK     0      -8.363   4.538  16.884  0.00  0.00    -0.031 A 
HETATM   26  C   UNK     0      -7.226   4.322  17.861  0.00  0.00     0.051 C 
HETATM   27  C   UNK     0      -8.218   5.197  15.668  0.00  0.00    -0.027 A 
HETATM   28  C   UNK     0     -10.224   3.368  18.170  0.00  0.00     0.115 C 
HETATM   29  H   UNK     0     -12.496   2.522  16.497  0.00  0.00     0.165 HD
HETATM   30  H   UNK     0     -11.045   0.856  13.921  0.00  0.00     0.165 HD
HETATM   31  H   UNK     0     -10.093   2.815  13.270  0.00  0.00     0.165 HD
HETATM   32  H   UNK     0     -11.474   4.506  15.757  0.00  0.00     0.165 HD
ENDROOT
BRANCH   6  33
HETATM   33  C   UNK     0     -10.627  -1.652  17.782  0.00  0.00     0.051 C 
BRANCH  33  34
HETATM   34  C   UNK     0     -11.458  -2.229  18.903  0.00  0.00     0.114 C 
BRANCH  34  35
HETATM   35  C   UNK     0     -12.221  -3.383  18.346  0.00  0.00     0.139 C 
HETATM   36  O   UNK     0     -13.468  -3.475  18.540  0.00  0.00    -0.650 OA
BRANCH  35  37
HETATM   37  O   UNK     0     -11.619  -4.389  17.601  0.00  0.00    -0.776 OA
HETATM   38  H   UNK     0     -10.788  -4.864  17.916  0.00  0.00     0.167 HD
ENDBRANCH  35  37
ENDBRANCH  34  35
ENDBRANCH  33  34
ENDBRANCH   6  33
BRANCH  27  39
HETATM   39  C   UNK     0      -6.930   5.793  15.218  0.00  0.00     0.051 C 
BRANCH  39  40
HETATM   40  C   UNK     0      -6.559   7.111  15.731  0.00  0.00     0.114 C 
BRANCH  40  41
HETATM   41  C   UNK     0      -7.546   8.100  16.100  0.00  0.00     0.139 C 
HETATM   42  O   UNK     0      -7.860   8.348  17.272  0.00  0.00    -0.650 OA
BRANCH  41  43
HETATM   43  O   UNK     0      -8.202   8.838  15.074  0.00  0.00    -0.776 OA
HETATM   44  H   UNK     0      -8.913   9.479  15.408  0.00  0.00     0.167 HD
ENDBRANCH  41  43
ENDBRANCH  40  41
ENDBRANCH  39  40
ENDBRANCH  27  39
BRANCH  11  45
HETATM   45  C   UNK     0     -15.201   0.883  11.636  0.00  0.00     0.051 C 
BRANCH  45  46
HETATM   46  C   UNK     0     -15.710   2.275  11.532  0.00  0.00     0.114 C 
BRANCH  46  47
HETATM   47  C   UNK     0     -16.754   2.444  12.583  0.00  0.00     0.139 C 
HETATM   48  O   UNK     0     -16.544   3.248  13.502  0.00  0.00    -0.650 OA
BRANCH  47  49
HETATM   49  O   UNK     0     -17.921   1.725  12.536  0.00  0.00    -0.776 OA
HETATM   50  H   UNK     0     -18.682   1.962  11.888  0.00  0.00     0.167 HD
ENDBRANCH  47  49
ENDBRANCH  46  47
ENDBRANCH  45  46
ENDBRANCH  11  45
BRANCH  18  51
HETATM   51  C   UNK     0     -11.703   6.926  11.572  0.00  0.00     0.051 C 
BRANCH  51  52
HETATM   52  C   UNK     0     -12.864   7.373  12.447  0.00  0.00     0.114 C 
BRANCH  52  53
HETATM   53  C   UNK     0     -13.802   8.244  11.713  0.00  0.00     0.139 C 
HETATM   54  O   UNK     0     -14.879   7.787  11.298  0.00  0.00    -0.650 OA
BRANCH  53  55
HETATM   55  O   UNK     0     -13.476   9.559  11.491  0.00  0.00    -0.776 OA
HETATM   56  H   UNK     0     -13.527  10.294  12.156  0.00  0.00     0.167 HD
ENDBRANCH  53  55
ENDBRANCH  52  53
ENDBRANCH  51  52
ENDBRANCH  18  51
TORSDOF 16
ENDMDL
MODEL 19
REMARK VINA RESULT:      -7.6      5.735     10.749
REMARK  16 active torsions:
REMARK  status: ('A' for Active; 'I' for Inactive)
REMARK    1  A    between atoms: C_6  and  C_7 
REMARK    2  A    between atoms: C_7  and  C_8 
REMARK    3  A    between atoms: C_8  and  C_9 
REMARK    4  A    between atoms: C_9  and  O_11 
REMARK    5  A    between atoms: C_16  and  C_17 
REMARK    6  A    between atoms: C_17  and  C_18 
REMARK    7  A    between atoms: C_18  and  C_19 
REMARK    8  A    between atoms: C_19  and  O_21 
REMARK    9  A    between atoms: C_28  and  C_29 
REMARK   10  A    between atoms: C_29  and  C_30 
REMARK   11  A    between atoms: C_30  and  C_31 
REMARK   12  A    between atoms: C_31  and  O_33 
REMARK   13  A    between atoms: C_42  and  C_43 
REMARK   14  A    between atoms: C_43  and  C_44 
REMARK   15  A    between atoms: C_44  and  C_45 
REMARK   16  A    between atoms: C_45  and  O_47 
ROOT
HETATM    1  C   UNK     0     -26.940  -1.106   4.927  0.00  0.00     0.051 C 
HETATM    2  C   UNK     0     -28.215  -0.401   5.342  0.00  0.00    -0.031 A 
HETATM    3  C   UNK     0     -28.707   0.832   4.945  0.00  0.00     0.021 A 
HETATM    4  N   UNK     0     -29.869   1.075   5.597  0.00  0.00    -0.361 N 
HETATM    5  C   UNK     0     -30.132   0.019   6.394  0.00  0.00     0.022 A 
HETATM    6  C   UNK     0     -29.116  -0.922   6.261  0.00  0.00    -0.027 A 
HETATM    7  C   UNK     0     -31.331  -0.254   7.249  0.00  0.00     0.115 C 
HETATM    8  C   UNK     0     -32.686   0.068   6.643  0.00  0.00     0.021 A 
HETATM    9  N   UNK     0     -33.083  -0.056   5.367  0.00  0.00    -0.361 N 
HETATM   10  C   UNK     0     -34.336   0.435   5.269  0.00  0.00     0.022 A 
HETATM   11  C   UNK     0     -34.762   0.878   6.517  0.00  0.00    -0.027 A 
HETATM   12  C   UNK     0     -33.728   0.650   7.388  0.00  0.00    -0.031 A 
HETATM   13  C   UNK     0     -33.742   0.971   8.866  0.00  0.00     0.051 C 
HETATM   14  C   UNK     0     -35.159   0.554   3.989  0.00  0.00     0.115 C 
HETATM   15  C   UNK     0     -34.528   1.444   2.931  0.00  0.00     0.021 A 
HETATM   16  N   UNK     0     -33.321   1.302   2.352  0.00  0.00    -0.361 N 
HETATM   17  C   UNK     0     -33.107   2.329   1.527  0.00  0.00     0.022 A 
HETATM   18  C   UNK     0     -34.232   3.176   1.563  0.00  0.00    -0.027 A 
HETATM   19  C   UNK     0     -35.115   2.610   2.445  0.00  0.00    -0.031 A 
HETATM   20  C   UNK     0     -36.485   3.187   2.756  0.00  0.00     0.051 C 
HETATM   21  C   UNK     0     -31.889   2.674   0.700  0.00  0.00     0.115 C 
HETATM   22  C   UNK     0     -30.536   2.320   1.271  0.00  0.00     0.022 A 
HETATM   23  N   UNK     0     -30.115   2.429   2.537  0.00  0.00    -0.361 N 
HETATM   24  C   UNK     0     -28.894   1.864   2.628  0.00  0.00     0.021 A 
HETATM   25  C   UNK     0     -28.516   1.388   1.387  0.00  0.00    -0.031 A 
HETATM   26  C   UNK     0     -27.222   0.715   0.978  0.00  0.00     0.051 C 
HETATM   27  C   UNK     0     -29.550   1.669   0.502  0.00  0.00    -0.027 A 
HETATM   28  C   UNK     0     -28.053   1.663   3.877  0.00  0.00     0.115 C 
HETATM   29  H   UNK     0     -30.474   2.007   5.520  0.00  0.00     0.165 HD
HETATM   30  H   UNK     0     -32.499  -0.535   4.544  0.00  0.00     0.165 HD
HETATM   31  H   UNK     0     -32.625   0.434   2.491  0.00  0.00     0.165 HD
HETATM   32  H   UNK     0     -30.657   2.945   3.371  0.00  0.00     0.165 HD
ENDROOT
BRANCH   6  33
HETATM   33  C   UNK     0     -28.938  -2.259   6.934  0.00  0.00     0.051 C 
BRANCH  33  34
HETATM   34  C   UNK     0     -30.263  -2.971   7.070  0.00  0.00     0.114 C 
BRANCH  34  35
HETATM   35  C   UNK     0     -30.607  -3.532   5.732  0.00  0.00     0.139 C 
HETATM   36  O   UNK     0     -31.412  -2.919   4.972  0.00  0.00    -0.650 OA
BRANCH  35  37
HETATM   37  O   UNK     0     -30.073  -4.725   5.260  0.00  0.00    -0.776 OA
HETATM   38  H   UNK     0     -30.614  -5.574   5.221  0.00  0.00     0.167 HD
ENDBRANCH  35  37
ENDBRANCH  34  35
ENDBRANCH  33  34
ENDBRANCH   6  33
BRANCH  27  39
HETATM   39  C   UNK     0     -29.475   1.368  -0.954  0.00  0.00     0.051 C 
BRANCH  39  40
HETATM   40  C   UNK     0     -28.875   2.365  -1.839  0.00  0.00     0.114 C 
BRANCH  40  41
HETATM   41  C   UNK     0     -27.799   2.041  -2.748  0.00  0.00     0.139 C 
HETATM   42  O   UNK     0     -26.720   2.649  -2.775  0.00  0.00    -0.650 OA
BRANCH  41  43
HETATM   43  O   UNK     0     -27.972   0.969  -3.669  0.00  0.00    -0.776 OA
HETATM   44  H   UNK     0     -27.405   0.153  -3.473  0.00  0.00     0.167 HD
ENDBRANCH  41  43
ENDBRANCH  40  41
ENDBRANCH  39  40
ENDBRANCH  27  39
BRANCH  11  45
HETATM   45  C   UNK     0     -36.083   1.490   6.899  0.00  0.00     0.051 C 
BRANCH  45  46
HETATM   46  C   UNK     0     -36.037   2.963   7.084  0.00  0.00     0.114 C 
BRANCH  46  47
HETATM   47  C   UNK     0     -36.934   3.293   8.229  0.00  0.00     0.139 C 
HETATM   48  O   UNK     0     -36.617   2.902   9.361  0.00  0.00    -0.650 OA
BRANCH  47  49
HETATM   49  O   UNK     0     -38.086   4.012   8.035  0.00  0.00    -0.776 OA
HETATM   50  H   UNK     0     -39.009   3.644   8.293  0.00  0.00     0.167 HD
ENDBRANCH  47  49
ENDBRANCH  46  47
ENDBRANCH  45  46
ENDBRANCH  11  45
BRANCH  18  51
HETATM   51  C   UNK     0     -34.462   4.445   0.783  0.00  0.00     0.051 C 
BRANCH  51  52
HETATM   52  C   UNK     0     -34.804   4.016  -0.636  0.00  0.00     0.114 C 
BRANCH  52  53
HETATM   53  C   UNK     0     -36.261   3.999  -0.870  0.00  0.00     0.139 C 
HETATM   54  O   UNK     0     -36.850   5.042  -1.198  0.00  0.00    -0.650 OA
BRANCH  53  55
HETATM   55  O   UNK     0     -36.960   2.827  -0.718  0.00  0.00    -0.776 OA
HETATM   56  H   UNK     0     -36.576   1.912  -0.730  0.00  0.00     0.167 HD
ENDBRANCH  53  55
ENDBRANCH  52  53
ENDBRANCH  51  52
ENDBRANCH  18  51
TORSDOF 16
ENDMDL
MODEL 20
REMARK VINA RESULT:      -7.4     21.633     24.118
REMARK  16 active torsions:
REMARK  status: ('A' for Active; 'I' for Inactive)
REMARK    1  A    between atoms: C_6  and  C_7 
REMARK    2  A    between atoms: C_7  and  C_8 
REMARK    3  A    between atoms: C_8  and  C_9 
REMARK    4  A    between atoms: C_9  and  O_11 
REMARK    5  A    between atoms: C_16  and  C_17 
REMARK    6  A    between atoms: C_17  and  C_18 
REMARK    7  A    between atoms: C_18  and  C_19 
REMARK    8  A    between atoms: C_19  and  O_21 
REMARK    9  A    between atoms: C_28  and  C_29 
REMARK   10  A    between atoms: C_29  and  C_30 
REMARK   11  A    between atoms: C_30  and  C_31 
REMARK   12  A    between atoms: C_31  and  O_33 
REMARK   13  A    between atoms: C_42  and  C_43 
REMARK   14  A    between atoms: C_43  and  C_44 
REMARK   15  A    between atoms: C_44  and  C_45 
REMARK   16  A    between atoms: C_45  and  O_47 
ROOT
HETATM    1  C   UNK     0      -9.907   8.174  12.937  0.00  0.00     0.051 C 
HETATM    2  C   UNK     0     -10.403   7.121  13.906  0.00  0.00    -0.031 A 
HETATM    3  C   UNK     0     -11.700   6.715  14.176  0.00  0.00     0.021 A 
HETATM    4  N   UNK     0     -11.674   5.765  15.141  0.00  0.00    -0.361 N 
HETATM    5  C   UNK     0     -10.387   5.550  15.485  0.00  0.00     0.022 A 
HETATM    6  C   UNK     0      -9.566   6.384  14.734  0.00  0.00    -0.027 A 
HETATM    7  C   UNK     0      -9.810   4.543  16.430  0.00  0.00     0.115 C 
HETATM    8  C   UNK     0     -10.389   3.140  16.367  0.00  0.00     0.021 A 
HETATM    9  N   UNK     0     -10.823   2.461  15.294  0.00  0.00    -0.361 N 
HETATM   10  C   UNK     0     -11.339   1.289  15.720  0.00  0.00     0.022 A 
HETATM   11  C   UNK     0     -11.226   1.207  17.105  0.00  0.00    -0.027 A 
HETATM   12  C   UNK     0     -10.628   2.369  17.519  0.00  0.00    -0.031 A 
HETATM   13  C   UNK     0     -10.298   2.720  18.953  0.00  0.00     0.051 C 
HETATM   14  C   UNK     0     -12.005   0.228  14.849  0.00  0.00     0.115 C 
HETATM   15  C   UNK     0     -13.242   0.721  14.116  0.00  0.00     0.021 A 
HETATM   16  N   UNK     0     -13.328   1.744  13.244  0.00  0.00    -0.361 N 
HETATM   17  C   UNK     0     -14.602   1.901  12.876  0.00  0.00     0.022 A 
HETATM   18  C   UNK     0     -15.382   0.928  13.532  0.00  0.00    -0.027 A 
HETATM   19  C   UNK     0     -14.519   0.195  14.304  0.00  0.00    -0.031 A 
HETATM   20  C   UNK     0     -14.944  -0.989  15.154  0.00  0.00     0.051 C 
HETATM   21  C   UNK     0     -15.233   2.942  11.981  0.00  0.00     0.115 C 
HETATM   22  C   UNK     0     -14.639   4.331  12.000  0.00  0.00     0.022 A 
HETATM   23  N   UNK     0     -14.195   5.030  13.053  0.00  0.00    -0.361 N 
HETATM   24  C   UNK     0     -13.614   6.159  12.598  0.00  0.00     0.021 A 
HETATM   25  C   UNK     0     -13.696   6.193  11.219  0.00  0.00    -0.031 A 
HETATM   26  C   UNK     0     -13.226   7.269  10.263  0.00  0.00     0.051 C 
HETATM   27  C   UNK     0     -14.348   5.034  10.813  0.00  0.00    -0.027 A 
HETATM   28  C   UNK     0     -12.887   7.220  13.405  0.00  0.00     0.115 C 
HETATM   29  H   UNK     0     -12.567   5.281  15.600  0.00  0.00     0.165 HD
HETATM   30  H   UNK     0     -10.721   2.785  14.229  0.00  0.00     0.165 HD
HETATM   31  H   UNK     0     -12.466   2.337  12.843  0.00  0.00     0.165 HD
HETATM   32  H   UNK     0     -14.325   4.753  14.131  0.00  0.00     0.165 HD
ENDROOT
BRANCH   6  33
HETATM   33  C   UNK     0      -8.065   6.534  14.745  0.00  0.00     0.051 C 
BRANCH  33  34
HETATM   34  C   UNK     0      -7.658   7.789  15.480  0.00  0.00     0.114 C 
BRANCH  34  35
HETATM   35  C   UNK     0      -7.440   7.419  16.908  0.00  0.00     0.139 C 
HETATM   36  O   UNK     0      -7.793   8.208  17.832  0.00  0.00    -0.650 OA
BRANCH  35  37
HETATM   37  O   UNK     0      -6.854   6.218  17.290  0.00  0.00    -0.776 OA
HETATM   38  H   UNK     0      -6.004   5.880  16.868  0.00  0.00     0.167 HD
ENDBRANCH  35  37
ENDBRANCH  34  35
ENDBRANCH  33  34
ENDBRANCH   6  33
BRANCH  27  39
HETATM   39  C   UNK     0     -14.685   4.749   9.392  0.00  0.00     0.051 C 
BRANCH  39  40
HETATM   40  C   UNK     0     -13.596   4.424   8.472  0.00  0.00     0.114 C 
BRANCH  40  41
HETATM   41  C   UNK     0     -13.100   3.075   8.310  0.00  0.00     0.139 C 
HETATM   42  O   UNK     0     -12.324   2.532   9.107  0.00  0.00    -0.650 OA
BRANCH  41  43
HETATM   43  O   UNK     0     -13.518   2.317   7.179  0.00  0.00    -0.776 OA
HETATM   44  H   UNK     0     -13.934   2.866   6.437  0.00  0.00     0.167 HD
ENDBRANCH  41  43
ENDBRANCH  40  41
ENDBRANCH  39  40
ENDBRANCH  27  39
BRANCH  11  45
HETATM   45  C   UNK     0     -11.653   0.090  18.019  0.00  0.00     0.051 C 
BRANCH  45  46
HETATM   46  C   UNK     0     -10.577  -0.885  18.329  0.00  0.00     0.114 C 
BRANCH  46  47
HETATM   47  C   UNK     0     -10.867  -2.125  17.553  0.00  0.00     0.139 C 
HETATM   48  O   UNK     0     -11.908  -2.749  17.802  0.00  0.00    -0.650 OA
BRANCH  47  49
HETATM   49  O   UNK     0     -10.001  -2.567  16.586  0.00  0.00    -0.776 OA
HETATM   50  H   UNK     0     -10.148  -2.368  15.589  0.00  0.00     0.167 HD
ENDBRANCH  47  49
ENDBRANCH  46  47
ENDBRANCH  45  46
ENDBRANCH  11  45
BRANCH  18  51
HETATM   51  C   UNK     0     -16.866   0.696  13.413  0.00  0.00     0.051 C 
BRANCH  51  52
HETATM   52  C   UNK     0     -17.036  -0.518  12.512  0.00  0.00     0.114 C 
BRANCH  52  53
HETATM   53  C   UNK     0     -18.259  -1.278  12.839  0.00  0.00     0.139 C 
HETATM   54  O   UNK     0     -18.457  -1.666  14.001  0.00  0.00    -0.650 OA
BRANCH  53  55
HETATM   55  O   UNK     0     -19.172  -1.554  11.850  0.00  0.00    -0.776 OA
HETATM   56  H   UNK     0     -18.960  -1.843  10.924  0.00  0.00     0.167 HD
ENDBRANCH  53  55
ENDBRANCH  52  53
ENDBRANCH  51  52
ENDBRANCH  18  51
TORSDOF 16
ENDMDL
