MODEL 1
REMARK VINA RESULT:     -10.2      0.000      0.000
REMARK  28 active torsions:
REMARK  status: ('A' for Active; 'I' for Inactive)
REMARK    1  A    between atoms: C_2  and  O_3 
REMARK    2  A    between atoms: C_2  and  C_4 
REMARK    3  A    between atoms: C_4  and  C_5 
REMARK    4  A    between atoms: C_5  and  C_6 
REMARK    5  A    between atoms: C_7  and  C_8 
REMARK    6  A    between atoms: C_8  and  C_9 
REMARK    7  A    between atoms: C_9  and  O_11 
REMARK    8  A    between atoms: C_28  and  C_29 
REMARK    9  A    between atoms: C_29  and  C_30 
REMARK   10  A    between atoms: C_30  and  O_32 
REMARK   11  A    between atoms: C_33  and  C_34 
REMARK   12  A    between atoms: C_34  and  C_35 
REMARK   13  A    between atoms: C_35  and  C_36 
REMARK   14  A    between atoms: C_36  and  O_38 
REMARK   15  A    between atoms: C_39  and  C_40 
REMARK   16  A    between atoms: C_40  and  C_41 
REMARK   17  A    between atoms: C_41  and  C_42 
REMARK   18  A    between atoms: C_42  and  O_44 
REMARK   19  A    between atoms: C_45  and  C_46 
REMARK   20  A    between atoms: C_46  and  C_47 
REMARK   21  A    between atoms: C_47  and  O_49 
REMARK   22  A    between atoms: C_50  and  C_51 
REMARK   23  A    between atoms: C_51  and  C_52 
REMARK   24  A    between atoms: C_52  and  O_54 
REMARK   25  A    between atoms: C_55  and  C_56 
REMARK   26  A    between atoms: C_56  and  C_57 
REMARK   27  A    between atoms: C_57  and  C_58 
REMARK   28  A    between atoms: C_58  and  O_60 
ROOT
ATOM      1  O   UNK d   0     -27.442  -5.141   1.746  0.00  0.00    -0.650 OA
ATOM      2  C   UNK d   0     -26.627  -4.192   1.711  0.00  0.00     0.139 C 
ENDROOT
BRANCH   2   3
ATOM      3  O   UNK d   0     -26.606  -3.363   0.615  0.00  0.00    -0.776 OA
ATOM      4  H   UNK d   0     -27.066  -3.630  -0.258  0.00  0.00     0.167 HD
ENDBRANCH   2   3
BRANCH   2   5
ATOM      5  C   UNK d   0     -25.691  -3.968   2.848  0.00  0.00     0.115 C 
BRANCH   5   6
ATOM      6  C   UNK d   0     -25.065  -5.270   3.268  0.00  0.00     0.052 C 
BRANCH   6   7
ATOM      7  C   UNK d   0     -23.556  -5.210   3.286  0.00  0.00    -0.020 A 
ATOM      8  C   UNK d   0     -22.774  -5.098   4.329  0.00  0.00    -0.011 A 
ATOM      9  C   UNK d   0     -21.400  -5.073   3.855  0.00  0.00     0.067 A 
ATOM     10  C   UNK d   0     -20.128  -4.994   4.442  0.00  0.00     0.062 C 
ATOM     11  N   UNK d   0     -21.439  -5.169   2.509  0.00  0.00    -0.248 NA
ATOM     12  C   UNK d   0     -18.897  -5.266   3.835  0.00  0.00     0.041 A 
ATOM     13  N   UNK d   0     -18.417  -4.941   2.620  0.00  0.00    -0.355 N 
ATOM     14  C   UNK d   0     -17.958  -6.055   4.524  0.00  0.00    -0.022 A 
ATOM     15  C   UNK d   0     -17.201  -5.511   2.517  0.00  0.00     0.042 A 
ATOM     16  H   UNK d   0     -18.919  -4.306   1.857  0.00  0.00     0.166 HD
ATOM     17  C   UNK d   0     -16.269  -5.488   1.460  0.00  0.00     0.062 C 
ATOM     18  C   UNK d   0     -16.879  -6.217   3.691  0.00  0.00    -0.013 A 
ATOM     19  C   UNK d   0     -16.483  -5.661   0.117  0.00  0.00     0.067 A 
ATOM     20  N   UNK d   0     -17.752  -5.657  -0.298  0.00  0.00    -0.248 NA
ATOM     21  C   UNK d   0     -15.651  -5.876  -1.055  0.00  0.00    -0.011 A 
ATOM     22  C   UNK d   0     -17.810  -5.855  -1.656  0.00  0.00     0.066 A 
ATOM     23  C   UNK d   0     -19.074  -5.835  -2.229  0.00  0.00     0.062 C 
ATOM     24  C   UNK d   0     -16.433  -5.993  -2.089  0.00  0.00    -0.020 A 
ATOM     25  C   UNK d   0     -20.297  -5.548  -1.604  0.00  0.00     0.041 A 
ATOM     26  N   UNK d   0     -20.780  -5.883  -0.401  0.00  0.00    -0.355 N 
ATOM     27  C   UNK d   0     -21.237  -4.752  -2.294  0.00  0.00    -0.022 A 
ATOM     28  C   UNK d   0     -21.996  -5.324  -0.300  0.00  0.00     0.042 A 
ATOM     29  H   UNK d   0     -20.278  -6.530   0.360  0.00  0.00     0.166 HD
ATOM     30  C   UNK d   0     -22.938  -5.345   0.741  0.00  0.00     0.062 C 
ATOM     31  C   UNK d   0     -22.315  -4.605  -1.476  0.00  0.00    -0.013 A 
ATOM     32  C   UNK d   0     -22.707  -5.256   2.105  0.00  0.00     0.066 A 
BRANCH   8  33
ATOM     33  C   UNK d   0     -23.190  -5.006   5.741  0.00  0.00     0.151 C 
BRANCH  33  34
ATOM     34  C   UNK d   0     -23.294  -3.614   6.215  0.00  0.00     0.143 C 
ATOM     35  O   UNK d   0     -24.011  -2.793   5.626  0.00  0.00    -0.650 OA
BRANCH  34  36
ATOM     36  O   UNK d   0     -22.584  -3.224   7.327  0.00  0.00    -0.776 OA
ATOM     37  H   UNK d   0     -22.409  -2.230   7.528  0.00  0.00     0.167 HD
ENDBRANCH  34  36
ENDBRANCH  33  34
ENDBRANCH   8  33
BRANCH  31  38
ATOM     38  C   UNK d   0     -23.568  -3.819  -1.785  0.00  0.00     0.151 C 
BRANCH  38  39
ATOM     39  C   UNK d   0     -23.548  -2.486  -1.220  0.00  0.00     0.143 C 
ATOM     40  O   UNK d   0     -24.332  -2.133  -0.321  0.00  0.00    -0.650 OA
BRANCH  39  41
ATOM     41  O   UNK d   0     -22.622  -1.555  -1.688  0.00  0.00    -0.776 OA
ATOM     42  H   UNK d   0     -21.884  -1.270  -1.037  0.00  0.00     0.167 HD
ENDBRANCH  39  41
ENDBRANCH  38  39
ENDBRANCH  31  38
BRANCH  27  43
ATOM     43  C   UNK d   0     -21.150  -4.144  -3.672  0.00  0.00     0.052 C 
BRANCH  43  44
ATOM     44  C   UNK d   0     -21.664  -5.043  -4.749  0.00  0.00     0.115 C 
BRANCH  44  45
ATOM     45  C   UNK d   0     -21.274  -4.423  -6.042  0.00  0.00     0.139 C 
ATOM     46  O   UNK d   0     -21.318  -5.135  -7.076  0.00  0.00    -0.650 OA
BRANCH  45  47
ATOM     47  O   UNK d   0     -20.876  -3.108  -6.150  0.00  0.00    -0.776 OA
ATOM     48  H   UNK d   0     -21.275  -2.353  -5.569  0.00  0.00     0.167 HD
ENDBRANCH  45  47
ENDBRANCH  44  45
ENDBRANCH  43  44
ENDBRANCH  27  43
BRANCH  24  49
ATOM     49  C   UNK d   0     -16.006  -6.183  -3.485  0.00  0.00     0.052 C 
BRANCH  49  50
ATOM     50  C   UNK d   0     -15.636  -4.860  -4.105  0.00  0.00     0.115 C 
BRANCH  50  51
ATOM     51  C   UNK d   0     -14.405  -4.810  -4.882  0.00  0.00     0.139 C 
ATOM     52  O   UNK d   0     -13.285  -4.596  -4.362  0.00  0.00    -0.650 OA
BRANCH  51  53
ATOM     53  O   UNK d   0     -14.452  -5.002  -6.255  0.00  0.00    -0.776 OA
ATOM     54  H   UNK d   0     -15.203  -5.553  -6.632  0.00  0.00     0.167 HD
ENDBRANCH  51  53
ENDBRANCH  50  51
ENDBRANCH  49  50
ENDBRANCH  24  49
BRANCH  21  55
ATOM     55  C   UNK d   0     -14.159  -5.938  -1.020  0.00  0.00     0.151 C 
BRANCH  55  56
ATOM     56  C   UNK d   0     -13.664  -6.612   0.190  0.00  0.00     0.143 C 
ATOM     57  O   UNK d   0     -13.869  -7.820   0.421  0.00  0.00    -0.650 OA
BRANCH  56  58
ATOM     58  O   UNK d   0     -12.935  -5.853   1.104  0.00  0.00    -0.776 OA
ATOM     59  H   UNK d   0     -13.503  -5.217   1.693  0.00  0.00     0.167 HD
ENDBRANCH  56  58
ENDBRANCH  55  56
ENDBRANCH  21  55
BRANCH  18  60
ATOM     60  C   UNK d   0     -15.638  -7.007   4.028  0.00  0.00     0.151 C 
BRANCH  60  61
ATOM     61  C   UNK d   0     -14.662  -6.029   4.533  0.00  0.00     0.143 C 
ATOM     62  O   UNK d   0     -13.873  -5.356   3.869  0.00  0.00    -0.650 OA
BRANCH  61  63
ATOM     63  O   UNK d   0     -14.649  -5.862   5.939  0.00  0.00    -0.776 OA
ATOM     64  H   UNK d   0     -13.803  -5.624   6.425  0.00  0.00     0.167 HD
ENDBRANCH  61  63
ENDBRANCH  60  61
ENDBRANCH  18  60
BRANCH  14  65
ATOM     65  C   UNK d   0     -17.961  -6.578   5.932  0.00  0.00     0.052 C 
BRANCH  65  66
ATOM     66  C   UNK d   0     -19.324  -6.917   6.424  0.00  0.00     0.115 C 
BRANCH  66  67
ATOM     67  C   UNK d   0     -19.736  -6.490   7.731  0.00  0.00     0.139 C 
ATOM     68  O   UNK d   0     -20.906  -5.973   7.868  0.00  0.00    -0.650 OA
BRANCH  67  69
ATOM     69  O   UNK d   0     -19.011  -6.561   8.920  0.00  0.00    -0.776 OA
ATOM     70  H   UNK d   0     -19.548  -6.831   9.757  0.00  0.00     0.167 HD
ENDBRANCH  67  69
ENDBRANCH  66  67
ENDBRANCH  65  66
ENDBRANCH  14  65
ENDBRANCH   6   7
ENDBRANCH   5   6
ENDBRANCH   2   5
TORSDOF 28
ENDMDL
MODEL 2
REMARK VINA RESULT:      -9.9      1.916      7.864
REMARK  28 active torsions:
REMARK  status: ('A' for Active; 'I' for Inactive)
REMARK    1  A    between atoms: C_2  and  O_3 
REMARK    2  A    between atoms: C_2  and  C_4 
REMARK    3  A    between atoms: C_4  and  C_5 
REMARK    4  A    between atoms: C_5  and  C_6 
REMARK    5  A    between atoms: C_7  and  C_8 
REMARK    6  A    between atoms: C_8  and  C_9 
REMARK    7  A    between atoms: C_9  and  O_11 
REMARK    8  A    between atoms: C_28  and  C_29 
REMARK    9  A    between atoms: C_29  and  C_30 
REMARK   10  A    between atoms: C_30  and  O_32 
REMARK   11  A    between atoms: C_33  and  C_34 
REMARK   12  A    between atoms: C_34  and  C_35 
REMARK   13  A    between atoms: C_35  and  C_36 
REMARK   14  A    between atoms: C_36  and  O_38 
REMARK   15  A    between atoms: C_39  and  C_40 
REMARK   16  A    between atoms: C_40  and  C_41 
REMARK   17  A    between atoms: C_41  and  C_42 
REMARK   18  A    between atoms: C_42  and  O_44 
REMARK   19  A    between atoms: C_45  and  C_46 
REMARK   20  A    between atoms: C_46  and  C_47 
REMARK   21  A    between atoms: C_47  and  O_49 
REMARK   22  A    between atoms: C_50  and  C_51 
REMARK   23  A    between atoms: C_51  and  C_52 
REMARK   24  A    between atoms: C_52  and  O_54 
REMARK   25  A    between atoms: C_55  and  C_56 
REMARK   26  A    between atoms: C_56  and  C_57 
REMARK   27  A    between atoms: C_57  and  C_58 
REMARK   28  A    between atoms: C_58  and  O_60 
ROOT
ATOM      1  O   UNK d   0     -25.880  -0.608   5.064  0.00  0.00    -0.650 OA
ATOM      2  C   UNK d   0     -25.827  -1.824   4.774  0.00  0.00     0.139 C 
ENDROOT
BRANCH   2   3
ATOM      3  O   UNK d   0     -25.600  -2.744   5.769  0.00  0.00    -0.776 OA
ATOM      4  H   UNK d   0     -26.355  -3.337   6.121  0.00  0.00     0.167 HD
ENDBRANCH   2   3
BRANCH   2   5
ATOM      5  C   UNK d   0     -26.007  -2.265   3.362  0.00  0.00     0.115 C 
BRANCH   5   6
ATOM      6  C   UNK d   0     -26.024  -3.768   3.287  0.00  0.00     0.052 C 
BRANCH   6   7
ATOM      7  C   UNK d   0     -24.899  -4.321   2.446  0.00  0.00    -0.020 A 
ATOM      8  C   UNK d   0     -24.878  -4.481   1.147  0.00  0.00    -0.011 A 
ATOM      9  C   UNK d   0     -23.591  -5.053   0.790  0.00  0.00     0.067 A 
ATOM     10  C   UNK d   0     -22.946  -5.435  -0.397  0.00  0.00     0.062 C 
ATOM     11  N   UNK d   0     -22.893  -5.214   1.934  0.00  0.00    -0.248 NA
ATOM     12  C   UNK d   0     -21.586  -5.712  -0.571  0.00  0.00     0.041 A 
ATOM     13  N   UNK d   0     -20.719  -6.408   0.189  0.00  0.00    -0.355 N 
ATOM     14  C   UNK d   0     -20.916  -5.162  -1.679  0.00  0.00    -0.022 A 
ATOM     15  C   UNK d   0     -19.514  -6.307  -0.405  0.00  0.00     0.042 A 
ATOM     16  H   UNK d   0     -20.957  -6.975   1.115  0.00  0.00     0.166 HD
ATOM     17  C   UNK d   0     -18.265  -6.843  -0.033  0.00  0.00     0.062 C 
ATOM     18  C   UNK d   0     -19.598  -5.533  -1.578  0.00  0.00    -0.013 A 
ATOM     19  C   UNK d   0     -17.674  -6.874   1.204  0.00  0.00     0.067 A 
ATOM     20  N   UNK d   0     -18.436  -6.537   2.248  0.00  0.00    -0.248 NA
ATOM     21  C   UNK d   0     -16.351  -7.181   1.722  0.00  0.00    -0.011 A 
ATOM     22  C   UNK d   0     -17.707  -6.600   3.410  0.00  0.00     0.066 A 
ATOM     23  C   UNK d   0     -18.390  -6.309   4.582  0.00  0.00     0.062 C 
ATOM     24  C   UNK d   0     -16.376  -7.014   3.013  0.00  0.00    -0.020 A 
ATOM     25  C   UNK d   0     -19.760  -6.046   4.737  0.00  0.00     0.041 A 
ATOM     26  N   UNK d   0     -20.618  -5.342   3.990  0.00  0.00    -0.355 N 
ATOM     27  C   UNK d   0     -20.432  -6.602   5.847  0.00  0.00    -0.022 A 
ATOM     28  C   UNK d   0     -21.819  -5.433   4.584  0.00  0.00     0.042 A 
ATOM     29  H   UNK d   0     -20.375  -4.763   3.065  0.00  0.00     0.166 HD
ATOM     30  C   UNK d   0     -23.067  -4.897   4.231  0.00  0.00     0.062 C 
ATOM     31  C   UNK d   0     -21.736  -6.220   5.758  0.00  0.00    -0.013 A 
ATOM     32  C   UNK d   0     -23.625  -4.791   2.966  0.00  0.00     0.066 A 
BRANCH   8  33
ATOM     33  C   UNK d   0     -25.958  -4.153   0.197  0.00  0.00     0.151 C 
BRANCH  33  34
ATOM     34  C   UNK d   0     -25.889  -2.762  -0.286  0.00  0.00     0.143 C 
ATOM     35  O   UNK d   0     -26.853  -1.994  -0.154  0.00  0.00    -0.650 OA
BRANCH  34  36
ATOM     36  O   UNK d   0     -24.738  -2.314  -0.892  0.00  0.00    -0.776 OA
ATOM     37  H   UNK d   0     -23.913  -2.044  -0.339  0.00  0.00     0.167 HD
ENDBRANCH  34  36
ENDBRANCH  33  34
ENDBRANCH   8  33
BRANCH  31  38
ATOM     38  C   UNK d   0     -22.840  -6.589   6.720  0.00  0.00     0.151 C 
BRANCH  38  39
ATOM     39  C   UNK d   0     -23.598  -7.745   6.289  0.00  0.00     0.143 C 
ATOM     40  O   UNK d   0     -23.051  -8.774   5.855  0.00  0.00    -0.650 OA
BRANCH  39  41
ATOM     41  O   UNK d   0     -24.990  -7.717   6.358  0.00  0.00    -0.776 OA
ATOM     42  H   UNK d   0     -25.423  -6.822   6.606  0.00  0.00     0.167 HD
ENDBRANCH  39  41
ENDBRANCH  38  39
ENDBRANCH  31  38
BRANCH  27  43
ATOM     43  C   UNK d   0     -19.892  -7.460   6.963  0.00  0.00     0.052 C 
BRANCH  43  44
ATOM     44  C   UNK d   0     -19.292  -6.669   8.080  0.00  0.00     0.115 C 
BRANCH  44  45
ATOM     45  C   UNK d   0     -17.856  -7.044   8.142  0.00  0.00     0.139 C 
ATOM     46  O   UNK d   0     -17.566  -8.263   8.227  0.00  0.00    -0.650 OA
BRANCH  45  47
ATOM     47  O   UNK d   0     -16.839  -6.115   8.104  0.00  0.00    -0.776 OA
ATOM     48  H   UNK d   0     -16.333  -5.804   8.949  0.00  0.00     0.167 HD
ENDBRANCH  45  47
ENDBRANCH  44  45
ENDBRANCH  43  44
ENDBRANCH  27  43
BRANCH  24  49
ATOM     49  C   UNK d   0     -15.258  -7.253   3.941  0.00  0.00     0.052 C 
BRANCH  49  50
ATOM     50  C   UNK d   0     -14.818  -5.959   4.577  0.00  0.00     0.115 C 
BRANCH  50  51
ATOM     51  C   UNK d   0     -14.023  -5.053   3.758  0.00  0.00     0.139 C 
ATOM     52  O   UNK d   0     -12.784  -5.178   3.619  0.00  0.00    -0.650 OA
BRANCH  51  53
ATOM     53  O   UNK d   0     -14.642  -4.002   3.100  0.00  0.00    -0.776 OA
ATOM     54  H   UNK d   0     -15.292  -4.218   2.364  0.00  0.00     0.167 HD
ENDBRANCH  51  53
ENDBRANCH  50  51
ENDBRANCH  49  50
ENDBRANCH  24  49
BRANCH  21  55
ATOM     55  C   UNK d   0     -15.201  -7.613   0.873  0.00  0.00     0.151 C 
BRANCH  55  56
ATOM     56  C   UNK d   0     -14.609  -6.488   0.134  0.00  0.00     0.143 C 
ATOM     57  O   UNK d   0     -14.985  -6.158  -1.008  0.00  0.00    -0.650 OA
BRANCH  56  58
ATOM     58  O   UNK d   0     -13.584  -5.772   0.751  0.00  0.00    -0.776 OA
ATOM     59  H   UNK d   0     -12.665  -5.831   0.278  0.00  0.00     0.167 HD
ENDBRANCH  56  58
ENDBRANCH  55  56
ENDBRANCH  21  55
BRANCH  18  60
ATOM     60  C   UNK d   0     -18.516  -5.152  -2.557  0.00  0.00     0.151 C 
BRANCH  60  61
ATOM     61  C   UNK d   0     -18.103  -6.403  -3.211  0.00  0.00     0.143 C 
ATOM     62  O   UNK d   0     -16.993  -6.667  -3.675  0.00  0.00    -0.650 OA
BRANCH  61  63
ATOM     63  O   UNK d   0     -19.109  -7.395  -3.302  0.00  0.00    -0.776 OA
ATOM     64  H   UNK d   0     -19.415  -7.899  -2.489  0.00  0.00     0.167 HD
ENDBRANCH  61  63
ENDBRANCH  60  61
ENDBRANCH  18  60
BRANCH  14  65
ATOM     65  C   UNK d   0     -21.440  -4.403  -2.865  0.00  0.00     0.052 C 
BRANCH  65  66
ATOM     66  C   UNK d   0     -21.549  -5.241  -4.089  0.00  0.00     0.115 C 
BRANCH  66  67
ATOM     67  C   UNK d   0     -21.161  -4.698  -5.360  0.00  0.00     0.139 C 
ATOM     68  O   UNK d   0     -19.907  -4.572  -5.616  0.00  0.00    -0.650 OA
BRANCH  67  69
ATOM     69  O   UNK d   0     -21.991  -4.271  -6.396  0.00  0.00    -0.776 OA
ATOM     70  H   UNK d   0     -21.747  -4.613  -7.336  0.00  0.00     0.167 HD
ENDBRANCH  67  69
ENDBRANCH  66  67
ENDBRANCH  65  66
ENDBRANCH  14  65
ENDBRANCH   6   7
ENDBRANCH   5   6
ENDBRANCH   2   5
TORSDOF 28
ENDMDL
MODEL 3
REMARK VINA RESULT:      -9.5      4.101      9.916
REMARK  28 active torsions:
REMARK  status: ('A' for Active; 'I' for Inactive)
REMARK    1  A    between atoms: C_2  and  O_3 
REMARK    2  A    between atoms: C_2  and  C_4 
REMARK    3  A    between atoms: C_4  and  C_5 
REMARK    4  A    between atoms: C_5  and  C_6 
REMARK    5  A    between atoms: C_7  and  C_8 
REMARK    6  A    between atoms: C_8  and  C_9 
REMARK    7  A    between atoms: C_9  and  O_11 
REMARK    8  A    between atoms: C_28  and  C_29 
REMARK    9  A    between atoms: C_29  and  C_30 
REMARK   10  A    between atoms: C_30  and  O_32 
REMARK   11  A    between atoms: C_33  and  C_34 
REMARK   12  A    between atoms: C_34  and  C_35 
REMARK   13  A    between atoms: C_35  and  C_36 
REMARK   14  A    between atoms: C_36  and  O_38 
REMARK   15  A    between atoms: C_39  and  C_40 
REMARK   16  A    between atoms: C_40  and  C_41 
REMARK   17  A    between atoms: C_41  and  C_42 
REMARK   18  A    between atoms: C_42  and  O_44 
REMARK   19  A    between atoms: C_45  and  C_46 
REMARK   20  A    between atoms: C_46  and  C_47 
REMARK   21  A    between atoms: C_47  and  O_49 
REMARK   22  A    between atoms: C_50  and  C_51 
REMARK   23  A    between atoms: C_51  and  C_52 
REMARK   24  A    between atoms: C_52  and  O_54 
REMARK   25  A    between atoms: C_55  and  C_56 
REMARK   26  A    between atoms: C_56  and  C_57 
REMARK   27  A    between atoms: C_57  and  C_58 
REMARK   28  A    between atoms: C_58  and  O_60 
ROOT
ATOM      1  O   UNK d   0     -24.982  -7.694  -0.497  0.00  0.00    -0.650 OA
ATOM      2  C   UNK d   0     -25.868  -6.835  -0.290  0.00  0.00     0.139 C 
ENDROOT
BRANCH   2   3
ATOM      3  O   UNK d   0     -26.928  -7.144   0.529  0.00  0.00    -0.776 OA
ATOM      4  H   UNK d   0     -27.616  -7.850   0.258  0.00  0.00     0.167 HD
ENDBRANCH   2   3
BRANCH   2   5
ATOM      5  C   UNK d   0     -25.772  -5.491  -0.928  0.00  0.00     0.115 C 
BRANCH   5   6
ATOM      6  C   UNK d   0     -24.551  -4.767  -0.429  0.00  0.00     0.052 C 
BRANCH   6   7
ATOM      7  C   UNK d   0     -24.664  -4.371   1.024  0.00  0.00    -0.020 A 
ATOM      8  C   UNK d   0     -25.559  -3.587   1.570  0.00  0.00    -0.011 A 
ATOM      9  C   UNK d   0     -25.260  -3.493   2.989  0.00  0.00     0.067 A 
ATOM     10  C   UNK d   0     -25.827  -2.852   4.103  0.00  0.00     0.062 C 
ATOM     11  N   UNK d   0     -24.164  -4.246   3.219  0.00  0.00    -0.248 NA
ATOM     12  C   UNK d   0     -25.558  -3.104   5.453  0.00  0.00     0.041 A 
ATOM     13  N   UNK d   0     -24.397  -3.323   6.099  0.00  0.00    -0.355 N 
ATOM     14  C   UNK d   0     -26.634  -3.218   6.351  0.00  0.00    -0.022 A 
ATOM     15  C   UNK d   0     -24.710  -3.581   7.383  0.00  0.00     0.042 A 
ATOM     16  H   UNK d   0     -23.376  -3.278   5.661  0.00  0.00     0.166 HD
ATOM     17  C   UNK d   0     -23.881  -3.874   8.484  0.00  0.00     0.062 C 
ATOM     18  C   UNK d   0     -26.103  -3.524   7.580  0.00  0.00    -0.013 A 
ATOM     19  C   UNK d   0     -22.811  -4.730   8.555  0.00  0.00     0.067 A 
ATOM     20  N   UNK d   0     -22.348  -5.215   7.400  0.00  0.00    -0.248 NA
ATOM     21  C   UNK d   0     -21.999  -5.302   9.615  0.00  0.00    -0.011 A 
ATOM     22  C   UNK d   0     -21.293  -6.064   7.628  0.00  0.00     0.066 A 
ATOM     23  C   UNK d   0     -20.689  -6.612   6.507  0.00  0.00     0.062 C 
ATOM     24  C   UNK d   0     -21.115  -6.085   9.067  0.00  0.00    -0.020 A 
ATOM     25  C   UNK d   0     -20.965  -6.336   5.159  0.00  0.00     0.041 A 
ATOM     26  N   UNK d   0     -22.120  -6.133   4.513  0.00  0.00    -0.355 N 
ATOM     27  C   UNK d   0     -19.884  -6.218   4.258  0.00  0.00    -0.022 A 
ATOM     28  C   UNK d   0     -21.811  -5.885   3.230  0.00  0.00     0.042 A 
ATOM     29  H   UNK d   0     -23.146  -6.190   4.953  0.00  0.00     0.166 HD
ATOM     30  C   UNK d   0     -22.626  -5.601   2.123  0.00  0.00     0.062 C 
ATOM     31  C   UNK d   0     -20.410  -5.932   3.036  0.00  0.00    -0.013 A 
ATOM     32  C   UNK d   0     -23.757  -4.801   2.077  0.00  0.00     0.066 A 
BRANCH   8  33
ATOM     33  C   UNK d   0     -26.675  -2.907   0.887  0.00  0.00     0.151 C 
BRANCH  33  34
ATOM     34  C   UNK d   0     -26.278  -1.617   0.293  0.00  0.00     0.143 C 
ATOM     35  O   UNK d   0     -25.198  -1.086   0.587  0.00  0.00    -0.650 OA
BRANCH  34  36
ATOM     36  O   UNK d   0     -27.123  -0.996  -0.598  0.00  0.00    -0.776 OA
ATOM     37  H   UNK d   0     -28.120  -1.244  -0.650  0.00  0.00     0.167 HD
ENDBRANCH  34  36
ENDBRANCH  33  34
ENDBRANCH   8  33
BRANCH  31  38
ATOM     38  C   UNK d   0     -19.631  -5.704   1.762  0.00  0.00     0.151 C 
BRANCH  38  39
ATOM     39  C   UNK d   0     -19.606  -6.868   0.903  0.00  0.00     0.143 C 
ATOM     40  O   UNK d   0     -18.950  -7.887   1.182  0.00  0.00    -0.650 OA
BRANCH  39  41
ATOM     41  O   UNK d   0     -20.340  -6.862  -0.283  0.00  0.00    -0.776 OA
ATOM     42  H   UNK d   0     -20.237  -7.679  -0.894  0.00  0.00     0.167 HD
ENDBRANCH  39  41
ENDBRANCH  38  39
ENDBRANCH  31  38
BRANCH  27  43
ATOM     43  C   UNK d   0     -18.405  -6.366   4.512  0.00  0.00     0.052 C 
BRANCH  43  44
ATOM     44  C   UNK d   0     -17.701  -5.059   4.683  0.00  0.00     0.115 C 
BRANCH  44  45
ATOM     45  C   UNK d   0     -16.568  -5.305   5.613  0.00  0.00     0.139 C 
ATOM     46  O   UNK d   0     -16.491  -6.430   6.167  0.00  0.00    -0.650 OA
BRANCH  45  47
ATOM     47  O   UNK d   0     -15.605  -4.358   5.885  0.00  0.00    -0.776 OA
ATOM     48  H   UNK d   0     -15.429  -3.546   5.272  0.00  0.00     0.167 HD
ENDBRANCH  45  47
ENDBRANCH  44  45
ENDBRANCH  43  44
ENDBRANCH  27  43
BRANCH  24  49
ATOM     49  C   UNK d   0     -20.064  -6.837   9.774  0.00  0.00     0.052 C 
BRANCH  49  50
ATOM     50  C   UNK d   0     -18.786  -6.828   8.976  0.00  0.00     0.115 C 
BRANCH  50  51
ATOM     51  C   UNK d   0     -17.891  -7.966   9.140  0.00  0.00     0.139 C 
ATOM     52  O   UNK d   0     -17.526  -8.382  10.265  0.00  0.00    -0.650 OA
BRANCH  51  53
ATOM     53  O   UNK d   0     -17.410  -8.628   8.021  0.00  0.00    -0.776 OA
ATOM     54  H   UNK d   0     -16.583  -9.190   8.120  0.00  0.00     0.167 HD
ENDBRANCH  51  53
ENDBRANCH  50  51
ENDBRANCH  49  50
ENDBRANCH  24  49
BRANCH  21  55
ATOM     55  C   UNK d   0     -22.188  -5.003  11.066  0.00  0.00     0.151 C 
BRANCH  55  56
ATOM     56  C   UNK d   0     -23.319  -5.749  11.639  0.00  0.00     0.143 C 
ATOM     57  O   UNK d   0     -23.320  -6.991  11.753  0.00  0.00    -0.650 OA
BRANCH  56  58
ATOM     58  O   UNK d   0     -24.426  -5.020  12.069  0.00  0.00    -0.776 OA
ATOM     59  H   UNK d   0     -24.203  -4.128  12.547  0.00  0.00     0.167 HD
ENDBRANCH  56  58
ENDBRANCH  55  56
ENDBRANCH  21  55
BRANCH  18  60
ATOM     60  C   UNK d   0     -26.906  -3.744   8.838  0.00  0.00     0.151 C 
BRANCH  60  61
ATOM     61  C   UNK d   0     -27.089  -5.199   8.951  0.00  0.00     0.143 C 
ATOM     62  O   UNK d   0     -27.692  -5.934   8.168  0.00  0.00    -0.650 OA
BRANCH  61  63
ATOM     63  O   UNK d   0     -26.499  -5.794  10.092  0.00  0.00    -0.776 OA
ATOM     64  H   UNK d   0     -26.968  -5.789  10.980  0.00  0.00     0.167 HD
ENDBRANCH  61  63
ENDBRANCH  60  61
ENDBRANCH  18  60
BRANCH  14  65
ATOM     65  C   UNK d   0     -28.102  -2.964   6.160  0.00  0.00     0.052 C 
BRANCH  65  66
ATOM     66  C   UNK d   0     -28.478  -1.539   6.361  0.00  0.00     0.115 C 
BRANCH  66  67
ATOM     67  C   UNK d   0     -29.786  -1.210   6.854  0.00  0.00     0.139 C 
ATOM     68  O   UNK d   0     -30.282  -0.062   6.558  0.00  0.00    -0.650 OA
BRANCH  67  69
ATOM     69  O   UNK d   0     -30.624  -1.999   7.642  0.00  0.00    -0.776 OA
ATOM     70  H   UNK d   0     -31.330  -1.490   8.192  0.00  0.00     0.167 HD
ENDBRANCH  67  69
ENDBRANCH  66  67
ENDBRANCH  65  66
ENDBRANCH  14  65
ENDBRANCH   6   7
ENDBRANCH   5   6
ENDBRANCH   2   5
TORSDOF 28
ENDMDL
MODEL 4
REMARK VINA RESULT:      -9.4      3.644      9.914
REMARK  28 active torsions:
REMARK  status: ('A' for Active; 'I' for Inactive)
REMARK    1  A    between atoms: C_2  and  O_3 
REMARK    2  A    between atoms: C_2  and  C_4 
REMARK    3  A    between atoms: C_4  and  C_5 
REMARK    4  A    between atoms: C_5  and  C_6 
REMARK    5  A    between atoms: C_7  and  C_8 
REMARK    6  A    between atoms: C_8  and  C_9 
REMARK    7  A    between atoms: C_9  and  O_11 
REMARK    8  A    between atoms: C_28  and  C_29 
REMARK    9  A    between atoms: C_29  and  C_30 
REMARK   10  A    between atoms: C_30  and  O_32 
REMARK   11  A    between atoms: C_33  and  C_34 
REMARK   12  A    between atoms: C_34  and  C_35 
REMARK   13  A    between atoms: C_35  and  C_36 
REMARK   14  A    between atoms: C_36  and  O_38 
REMARK   15  A    between atoms: C_39  and  C_40 
REMARK   16  A    between atoms: C_40  and  C_41 
REMARK   17  A    between atoms: C_41  and  C_42 
REMARK   18  A    between atoms: C_42  and  O_44 
REMARK   19  A    between atoms: C_45  and  C_46 
REMARK   20  A    between atoms: C_46  and  C_47 
REMARK   21  A    between atoms: C_47  and  O_49 
REMARK   22  A    between atoms: C_50  and  C_51 
REMARK   23  A    between atoms: C_51  and  C_52 
REMARK   24  A    between atoms: C_52  and  O_54 
REMARK   25  A    between atoms: C_55  and  C_56 
REMARK   26  A    between atoms: C_56  and  C_57 
REMARK   27  A    between atoms: C_57  and  C_58 
REMARK   28  A    between atoms: C_58  and  O_60 
ROOT
ATOM      1  O   UNK d   0     -26.105  -4.869   0.129  0.00  0.00    -0.650 OA
ATOM      2  C   UNK d   0     -26.398  -5.539   1.144  0.00  0.00     0.139 C 
ENDROOT
BRANCH   2   3
ATOM      3  O   UNK d   0     -26.945  -6.790   0.990  0.00  0.00    -0.776 OA
ATOM      4  H   UNK d   0     -26.928  -7.470   1.753  0.00  0.00     0.167 HD
ENDBRANCH   2   3
BRANCH   2   5
ATOM      5  C   UNK d   0     -26.154  -4.981   2.504  0.00  0.00     0.115 C 
BRANCH   5   6
ATOM      6  C   UNK d   0     -25.004  -4.012   2.468  0.00  0.00     0.052 C 
BRANCH   6   7
ATOM      7  C   UNK d   0     -23.708  -4.630   2.935  0.00  0.00    -0.020 A 
ATOM      8  C   UNK d   0     -22.681  -4.979   2.203  0.00  0.00    -0.011 A 
ATOM      9  C   UNK d   0     -21.672  -5.536   3.088  0.00  0.00     0.067 A 
ATOM     10  C   UNK d   0     -20.377  -6.058   2.946  0.00  0.00     0.062 C 
ATOM     11  N   UNK d   0     -22.171  -5.492   4.341  0.00  0.00    -0.248 NA
ATOM     12  C   UNK d   0     -19.442  -6.294   3.960  0.00  0.00     0.041 A 
ATOM     13  N   UNK d   0     -19.583  -6.828   5.188  0.00  0.00    -0.355 N 
ATOM     14  C   UNK d   0     -18.111  -5.883   3.767  0.00  0.00    -0.022 A 
ATOM     15  C   UNK d   0     -18.376  -6.759   5.783  0.00  0.00     0.042 A 
ATOM     16  H   UNK d   0     -20.511  -7.262   5.620  0.00  0.00     0.166 HD
ATOM     17  C   UNK d   0     -17.965  -7.175   7.064  0.00  0.00     0.062 C 
ATOM     18  C   UNK d   0     -17.428  -6.172   4.922  0.00  0.00    -0.013 A 
ATOM     19  C   UNK d   0     -18.590  -6.994   8.272  0.00  0.00     0.067 A 
ATOM     20  N   UNK d   0     -19.846  -6.543   8.241  0.00  0.00    -0.248 NA
ATOM     21  C   UNK d   0     -18.228  -7.158   9.670  0.00  0.00    -0.011 A 
ATOM     22  C   UNK d   0     -20.332  -6.398   9.517  0.00  0.00     0.066 A 
ATOM     23  C   UNK d   0     -21.647  -5.970   9.631  0.00  0.00     0.062 C 
ATOM     24  C   UNK d   0     -19.251  -6.804  10.394  0.00  0.00    -0.020 A 
ATOM     25  C   UNK d   0     -22.573  -5.752   8.600  0.00  0.00     0.041 A 
ATOM     26  N   UNK d   0     -22.437  -5.207   7.385  0.00  0.00    -0.355 N 
ATOM     27  C   UNK d   0     -23.908  -6.168   8.793  0.00  0.00    -0.022 A 
ATOM     28  C   UNK d   0     -23.641  -5.266   6.794  0.00  0.00     0.042 A 
ATOM     29  H   UNK d   0     -21.506  -4.761   6.957  0.00  0.00     0.166 HD
ATOM     30  C   UNK d   0     -24.066  -4.848   5.523  0.00  0.00     0.062 C 
ATOM     31  C   UNK d   0     -24.590  -5.866   7.655  0.00  0.00    -0.013 A 
ATOM     32  C   UNK d   0     -23.392  -4.957   4.317  0.00  0.00     0.066 A 
BRANCH   8  33
ATOM     33  C   UNK d   0     -22.551  -4.846   0.740  0.00  0.00     0.151 C 
BRANCH  33  34
ATOM     34  C   UNK d   0     -22.694  -6.133   0.035  0.00  0.00     0.143 C 
ATOM     35  O   UNK d   0     -21.875  -6.480  -0.828  0.00  0.00    -0.650 OA
BRANCH  34  36
ATOM     36  O   UNK d   0     -23.752  -6.957   0.342  0.00  0.00    -0.776 OA
ATOM     37  H   UNK d   0     -23.954  -7.797  -0.217  0.00  0.00     0.167 HD
ENDBRANCH  34  36
ENDBRANCH  33  34
ENDBRANCH   8  33
BRANCH  31  38
ATOM     38  C   UNK d   0     -26.053  -6.140   7.392  0.00  0.00     0.151 C 
BRANCH  38  39
ATOM     39  C   UNK d   0     -26.924  -5.136   7.964  0.00  0.00     0.143 C 
ATOM     40  O   UNK d   0     -27.739  -5.397   8.866  0.00  0.00    -0.650 OA
BRANCH  39  41
ATOM     41  O   UNK d   0     -26.858  -3.824   7.496  0.00  0.00    -0.776 OA
ATOM     42  H   UNK d   0     -25.956  -3.346   7.588  0.00  0.00     0.167 HD
ENDBRANCH  39  41
ENDBRANCH  38  39
ENDBRANCH  31  38
BRANCH  27  43
ATOM     43  C   UNK d   0     -24.543  -6.826   9.993  0.00  0.00     0.052 C 
BRANCH  43  44
ATOM     44  C   UNK d   0     -24.415  -8.315   9.987  0.00  0.00     0.115 C 
BRANCH  44  45
ATOM     45  C   UNK d   0     -25.709  -8.854  10.480  0.00  0.00     0.139 C 
ATOM     46  O   UNK d   0     -26.724  -8.713   9.753  0.00  0.00    -0.650 OA
BRANCH  45  47
ATOM     47  O   UNK d   0     -25.837  -9.502  11.689  0.00  0.00    -0.776 OA
ATOM     48  H   UNK d   0     -25.112 -10.135  12.065  0.00  0.00     0.167 HD
ENDBRANCH  45  47
ENDBRANCH  44  45
ENDBRANCH  43  44
ENDBRANCH  27  43
BRANCH  24  49
ATOM     49  C   UNK d   0     -19.332  -6.850  11.864  0.00  0.00     0.052 C 
BRANCH  49  50
ATOM     50  C   UNK d   0     -19.999  -5.605  12.391  0.00  0.00     0.115 C 
BRANCH  50  51
ATOM     51  C   UNK d   0     -20.557  -5.669  13.735  0.00  0.00     0.139 C 
ATOM     52  O   UNK d   0     -21.761  -5.417  13.980  0.00  0.00    -0.650 OA
BRANCH  51  53
ATOM     53  O   UNK d   0     -19.742  -6.017  14.801  0.00  0.00    -0.776 OA
ATOM     54  H   UNK d   0     -19.294  -6.917  14.783  0.00  0.00     0.167 HD
ENDBRANCH  51  53
ENDBRANCH  50  51
ENDBRANCH  49  50
ENDBRANCH  24  49
BRANCH  21  55
ATOM     55  C   UNK d   0     -16.901  -7.656  10.137  0.00  0.00     0.151 C 
BRANCH  55  56
ATOM     56  C   UNK d   0     -16.863  -9.124  10.228  0.00  0.00     0.143 C 
ATOM     57  O   UNK d   0     -16.757  -9.860   9.227  0.00  0.00    -0.650 OA
BRANCH  56  58
ATOM     58  O   UNK d   0     -16.950  -9.698  11.495  0.00  0.00    -0.776 OA
ATOM     59  H   UNK d   0     -17.627 -10.478  11.574  0.00  0.00     0.167 HD
ENDBRANCH  56  58
ENDBRANCH  55  56
ENDBRANCH  21  55
BRANCH  18  60
ATOM     60  C   UNK d   0     -15.965  -5.889   5.156  0.00  0.00     0.151 C 
BRANCH  60  61
ATOM     61  C   UNK d   0     -15.907  -4.573   5.811  0.00  0.00     0.143 C 
ATOM     62  O   UNK d   0     -16.009  -3.471   5.273  0.00  0.00    -0.650 OA
BRANCH  61  63
ATOM     63  O   UNK d   0     -15.714  -4.607   7.213  0.00  0.00    -0.776 OA
ATOM     64  H   UNK d   0     -15.228  -5.369   7.651  0.00  0.00     0.167 HD
ENDBRANCH  61  63
ENDBRANCH  60  61
ENDBRANCH  18  60
BRANCH  14  65
ATOM     65  C   UNK d   0     -17.420  -5.333   2.551  0.00  0.00     0.052 C 
BRANCH  65  66
ATOM     66  C   UNK d   0     -16.765  -6.386   1.730  0.00  0.00     0.115 C 
BRANCH  66  67
ATOM     67  C   UNK d   0     -17.564  -7.402   1.106  0.00  0.00     0.139 C 
ATOM     68  O   UNK d   0     -18.365  -7.059   0.160  0.00  0.00    -0.650 OA
BRANCH  67  69
ATOM     69  O   UNK d   0     -17.591  -8.766   1.398  0.00  0.00    -0.776 OA
ATOM     70  H   UNK d   0     -17.367  -9.020   2.371  0.00  0.00     0.167 HD
ENDBRANCH  67  69
ENDBRANCH  66  67
ENDBRANCH  65  66
ENDBRANCH  14  65
ENDBRANCH   6   7
ENDBRANCH   5   6
ENDBRANCH   2   5
TORSDOF 28
ENDMDL
MODEL 5
REMARK VINA RESULT:      -9.2      1.689     10.837
REMARK  28 active torsions:
REMARK  status: ('A' for Active; 'I' for Inactive)
REMARK    1  A    between atoms: C_2  and  O_3 
REMARK    2  A    between atoms: C_2  and  C_4 
REMARK    3  A    between atoms: C_4  and  C_5 
REMARK    4  A    between atoms: C_5  and  C_6 
REMARK    5  A    between atoms: C_7  and  C_8 
REMARK    6  A    between atoms: C_8  and  C_9 
REMARK    7  A    between atoms: C_9  and  O_11 
REMARK    8  A    between atoms: C_28  and  C_29 
REMARK    9  A    between atoms: C_29  and  C_30 
REMARK   10  A    between atoms: C_30  and  O_32 
REMARK   11  A    between atoms: C_33  and  C_34 
REMARK   12  A    between atoms: C_34  and  C_35 
REMARK   13  A    between atoms: C_35  and  C_36 
REMARK   14  A    between atoms: C_36  and  O_38 
REMARK   15  A    between atoms: C_39  and  C_40 
REMARK   16  A    between atoms: C_40  and  C_41 
REMARK   17  A    between atoms: C_41  and  C_42 
REMARK   18  A    between atoms: C_42  and  O_44 
REMARK   19  A    between atoms: C_45  and  C_46 
REMARK   20  A    between atoms: C_46  and  C_47 
REMARK   21  A    between atoms: C_47  and  O_49 
REMARK   22  A    between atoms: C_50  and  C_51 
REMARK   23  A    between atoms: C_51  and  C_52 
REMARK   24  A    between atoms: C_52  and  O_54 
REMARK   25  A    between atoms: C_55  and  C_56 
REMARK   26  A    between atoms: C_56  and  C_57 
REMARK   27  A    between atoms: C_57  and  C_58 
REMARK   28  A    between atoms: C_58  and  O_60 
ROOT
ATOM      1  O   UNK d   0     -14.213  -8.386   1.844  0.00  0.00    -0.650 OA
ATOM      2  C   UNK d   0     -14.029  -7.254   1.344  0.00  0.00     0.139 C 
ENDROOT
BRANCH   2   3
ATOM      3  O   UNK d   0     -13.577  -6.231   2.141  0.00  0.00    -0.776 OA
ATOM      4  H   UNK d   0     -12.743  -6.343   2.721  0.00  0.00     0.167 HD
ENDBRANCH   2   3
BRANCH   2   5
ATOM      5  C   UNK d   0     -14.300  -7.023  -0.104  0.00  0.00     0.115 C 
BRANCH   5   6
ATOM      6  C   UNK d   0     -15.415  -7.918  -0.571  0.00  0.00     0.052 C 
BRANCH   6   7
ATOM      7  C   UNK d   0     -16.745  -7.206  -0.634  0.00  0.00    -0.020 A 
ATOM      8  C   UNK d   0     -17.316  -6.672  -1.684  0.00  0.00    -0.011 A 
ATOM      9  C   UNK d   0     -18.578  -6.093  -1.257  0.00  0.00     0.067 A 
ATOM     10  C   UNK d   0     -19.642  -5.416  -1.875  0.00  0.00     0.062 C 
ATOM     11  N   UNK d   0     -18.693  -6.315   0.069  0.00  0.00    -0.248 NA
ATOM     12  C   UNK d   0     -20.915  -5.176  -1.345  0.00  0.00     0.041 A 
ATOM     13  N   UNK d   0     -21.305  -4.784  -0.118  0.00  0.00    -0.355 N 
ATOM     14  C   UNK d   0     -22.043  -5.413  -2.152  0.00  0.00    -0.022 A 
ATOM     15  C   UNK d   0     -22.651  -4.772  -0.122  0.00  0.00     0.042 A 
ATOM     16  H   UNK d   0     -20.641  -4.501   0.729  0.00  0.00     0.166 HD
ATOM     17  C   UNK d   0     -23.565  -4.439   0.897  0.00  0.00     0.062 C 
ATOM     18  C   UNK d   0     -23.150  -5.161  -1.381  0.00  0.00    -0.013 A 
ATOM     19  C   UNK d   0     -23.555  -4.806   2.218  0.00  0.00     0.067 A 
ATOM     20  N   UNK d   0     -22.445  -5.392   2.675  0.00  0.00    -0.248 NA
ATOM     21  C   UNK d   0     -24.490  -4.739   3.329  0.00  0.00    -0.011 A 
ATOM     22  C   UNK d   0     -22.587  -5.715   4.002  0.00  0.00     0.066 A 
ATOM     23  C   UNK d   0     -21.489  -6.298   4.616  0.00  0.00     0.062 C 
ATOM     24  C   UNK d   0     -23.920  -5.276   4.368  0.00  0.00    -0.020 A 
ATOM     25  C   UNK d   0     -20.215  -6.519   4.070  0.00  0.00     0.041 A 
ATOM     26  N   UNK d   0     -19.827  -6.924   2.855  0.00  0.00    -0.355 N 
ATOM     27  C   UNK d   0     -19.083  -6.277   4.879  0.00  0.00    -0.022 A 
ATOM     28  C   UNK d   0     -18.485  -6.944   2.859  0.00  0.00     0.042 A 
ATOM     29  H   UNK d   0     -20.495  -7.217   2.008  0.00  0.00     0.166 HD
ATOM     30  C   UNK d   0     -17.564  -7.282   1.856  0.00  0.00     0.062 C 
ATOM     31  C   UNK d   0     -17.984  -6.543   4.121  0.00  0.00    -0.013 A 
ATOM     32  C   UNK d   0     -17.623  -6.981   0.504  0.00  0.00     0.066 A 
BRANCH   8  33
ATOM     33  C   UNK d   0     -16.788  -6.647  -3.061  0.00  0.00     0.151 C 
BRANCH  33  34
ATOM     34  C   UNK d   0     -16.337  -5.305  -3.474  0.00  0.00     0.143 C 
ATOM     35  O   UNK d   0     -15.760  -4.554  -2.674  0.00  0.00    -0.650 OA
BRANCH  34  36
ATOM     36  O   UNK d   0     -16.561  -4.885  -4.764  0.00  0.00    -0.776 OA
ATOM     37  H   UNK d   0     -16.301  -5.470  -5.570  0.00  0.00     0.167 HD
ENDBRANCH  34  36
ENDBRANCH  33  34
ENDBRANCH   8  33
BRANCH  31  38
ATOM     38  C   UNK d   0     -16.545  -6.412   4.560  0.00  0.00     0.151 C 
BRANCH  38  39
ATOM     39  C   UNK d   0     -16.028  -5.069   4.399  0.00  0.00     0.143 C 
ATOM     40  O   UNK d   0     -15.860  -4.551   3.281  0.00  0.00    -0.650 OA
BRANCH  39  41
ATOM     41  O   UNK d   0     -15.704  -4.318   5.528  0.00  0.00    -0.776 OA
ATOM     42  H   UNK d   0     -15.729  -4.806   6.429  0.00  0.00     0.167 HD
ENDBRANCH  39  41
ENDBRANCH  38  39
ENDBRANCH  31  38
BRANCH  27  43
ATOM     43  C   UNK d   0     -19.011  -5.816   6.313  0.00  0.00     0.052 C 
BRANCH  43  44
ATOM     44  C   UNK d   0     -19.022  -6.941   7.297  0.00  0.00     0.115 C 
BRANCH  44  45
ATOM     45  C   UNK d   0     -17.688  -6.944   7.952  0.00  0.00     0.139 C 
ATOM     46  O   UNK d   0     -17.282  -8.017   8.463  0.00  0.00    -0.650 OA
BRANCH  45  47
ATOM     47  O   UNK d   0     -16.883  -5.827   8.015  0.00  0.00    -0.776 OA
ATOM     48  H   UNK d   0     -15.871  -5.876   8.212  0.00  0.00     0.167 HD
ENDBRANCH  45  47
ENDBRANCH  44  45
ENDBRANCH  43  44
ENDBRANCH  27  43
BRANCH  24  49
ATOM     49  C   UNK d   0     -24.499  -5.383   5.718  0.00  0.00     0.052 C 
BRANCH  49  50
ATOM     50  C   UNK d   0     -24.354  -4.077   6.456  0.00  0.00     0.115 C 
BRANCH  50  51
ATOM     51  C   UNK d   0     -23.112  -3.859   7.186  0.00  0.00     0.139 C 
ATOM     52  O   UNK d   0     -22.403  -4.801   7.611  0.00  0.00    -0.650 OA
BRANCH  51  53
ATOM     53  O   UNK d   0     -22.680  -2.565   7.433  0.00  0.00    -0.776 OA
ATOM     54  H   UNK d   0     -21.787  -2.439   7.878  0.00  0.00     0.167 HD
ENDBRANCH  51  53
ENDBRANCH  50  51
ENDBRANCH  49  50
ENDBRANCH  24  49
BRANCH  21  55
ATOM     55  C   UNK d   0     -25.855  -4.142   3.236  0.00  0.00     0.151 C 
BRANCH  55  56
ATOM     56  C   UNK d   0     -25.819  -2.672   3.295  0.00  0.00     0.143 C 
ATOM     57  O   UNK d   0     -26.014  -2.035   4.349  0.00  0.00    -0.650 OA
BRANCH  56  58
ATOM     58  O   UNK d   0     -25.554  -1.981   2.114  0.00  0.00    -0.776 OA
ATOM     59  H   UNK d   0     -25.752  -0.965   2.150  0.00  0.00     0.167 HD
ENDBRANCH  56  58
ENDBRANCH  55  56
ENDBRANCH  21  55
BRANCH  18  60
ATOM     60  C   UNK d   0     -24.578  -5.298  -1.848  0.00  0.00     0.151 C 
BRANCH  60  61
ATOM     61  C   UNK d   0     -25.134  -6.446  -1.116  0.00  0.00     0.143 C 
ATOM     62  O   UNK d   0     -24.675  -7.588  -1.068  0.00  0.00    -0.650 OA
BRANCH  61  63
ATOM     63  O   UNK d   0     -26.326  -6.184  -0.399  0.00  0.00    -0.776 OA
ATOM     64  H   UNK d   0     -26.300  -5.925   0.571  0.00  0.00     0.167 HD
ENDBRANCH  61  63
ENDBRANCH  60  61
ENDBRANCH  18  60
BRANCH  14  65
ATOM     65  C   UNK d   0     -22.151  -5.759  -3.610  0.00  0.00     0.052 C 
BRANCH  65  66
ATOM     66  C   UNK d   0     -21.949  -4.586  -4.503  0.00  0.00     0.115 C 
BRANCH  66  67
ATOM     67  C   UNK d   0     -20.827  -4.557  -5.398  0.00  0.00     0.139 C 
ATOM     68  O   UNK d   0     -21.023  -4.202  -6.618  0.00  0.00    -0.650 OA
BRANCH  67  69
ATOM     69  O   UNK d   0     -19.499  -4.875  -5.112  0.00  0.00    -0.776 OA
ATOM     70  H   UNK d   0     -19.356  -5.682  -4.487  0.00  0.00     0.167 HD
ENDBRANCH  67  69
ENDBRANCH  66  67
ENDBRANCH  65  66
ENDBRANCH  14  65
ENDBRANCH   6   7
ENDBRANCH   5   6
ENDBRANCH   2   5
TORSDOF 28
ENDMDL
MODEL 6
REMARK VINA RESULT:      -9.2      3.139      8.667
REMARK  28 active torsions:
REMARK  status: ('A' for Active; 'I' for Inactive)
REMARK    1  A    between atoms: C_2  and  O_3 
REMARK    2  A    between atoms: C_2  and  C_4 
REMARK    3  A    between atoms: C_4  and  C_5 
REMARK    4  A    between atoms: C_5  and  C_6 
REMARK    5  A    between atoms: C_7  and  C_8 
REMARK    6  A    between atoms: C_8  and  C_9 
REMARK    7  A    between atoms: C_9  and  O_11 
REMARK    8  A    between atoms: C_28  and  C_29 
REMARK    9  A    between atoms: C_29  and  C_30 
REMARK   10  A    between atoms: C_30  and  O_32 
REMARK   11  A    between atoms: C_33  and  C_34 
REMARK   12  A    between atoms: C_34  and  C_35 
REMARK   13  A    between atoms: C_35  and  C_36 
REMARK   14  A    between atoms: C_36  and  O_38 
REMARK   15  A    between atoms: C_39  and  C_40 
REMARK   16  A    between atoms: C_40  and  C_41 
REMARK   17  A    between atoms: C_41  and  C_42 
REMARK   18  A    between atoms: C_42  and  O_44 
REMARK   19  A    between atoms: C_45  and  C_46 
REMARK   20  A    between atoms: C_46  and  C_47 
REMARK   21  A    between atoms: C_47  and  O_49 
REMARK   22  A    between atoms: C_50  and  C_51 
REMARK   23  A    between atoms: C_51  and  C_52 
REMARK   24  A    between atoms: C_52  and  O_54 
REMARK   25  A    between atoms: C_55  and  C_56 
REMARK   26  A    between atoms: C_56  and  C_57 
REMARK   27  A    between atoms: C_57  and  C_58 
REMARK   28  A    between atoms: C_58  and  O_60 
ROOT
ATOM      1  O   UNK d   0     -28.650  -3.968   8.789  0.00  0.00    -0.650 OA
ATOM      2  C   UNK d   0     -27.455  -4.325   8.694  0.00  0.00     0.139 C 
ENDROOT
BRANCH   2   3
ATOM      3  O   UNK d   0     -27.165  -5.599   8.270  0.00  0.00    -0.776 OA
ATOM      4  H   UNK d   0     -26.398  -6.132   8.686  0.00  0.00     0.167 HD
ENDBRANCH   2   3
BRANCH   2   5
ATOM      5  C   UNK d   0     -26.360  -3.374   9.038  0.00  0.00     0.115 C 
BRANCH   5   6
ATOM      6  C   UNK d   0     -26.310  -2.256   8.032  0.00  0.00     0.052 C 
BRANCH   6   7
ATOM      7  C   UNK d   0     -26.077  -2.750   6.625  0.00  0.00    -0.020 A 
ATOM      8  C   UNK d   0     -26.878  -2.638   5.596  0.00  0.00    -0.011 A 
ATOM      9  C   UNK d   0     -26.232  -3.271   4.458  0.00  0.00     0.067 A 
ATOM     10  C   UNK d   0     -26.537  -3.469   3.103  0.00  0.00     0.062 C 
ATOM     11  N   UNK d   0     -25.044  -3.747   4.886  0.00  0.00    -0.248 NA
ATOM     12  C   UNK d   0     -25.660  -3.863   2.086  0.00  0.00     0.041 A 
ATOM     13  N   UNK d   0     -24.693  -4.799   2.062  0.00  0.00    -0.355 N 
ATOM     14  C   UNK d   0     -25.691  -3.177   0.858  0.00  0.00    -0.022 A 
ATOM     15  C   UNK d   0     -24.104  -4.720   0.854  0.00  0.00     0.042 A 
ATOM     16  H   UNK d   0     -24.445  -5.515   2.877  0.00  0.00     0.166 HD
ATOM     17  C   UNK d   0     -23.041  -5.466   0.306  0.00  0.00     0.062 C 
ATOM     18  C   UNK d   0     -24.702  -3.714   0.071  0.00  0.00    -0.013 A 
ATOM     19  C   UNK d   0     -21.850  -5.823   0.883  0.00  0.00     0.067 A 
ATOM     20  N   UNK d   0     -21.732  -5.624   2.198  0.00  0.00    -0.248 NA
ATOM     21  C   UNK d   0     -20.592  -6.385   0.421  0.00  0.00    -0.011 A 
ATOM     22  C   UNK d   0     -20.487  -6.013   2.629  0.00  0.00     0.066 A 
ATOM     23  C   UNK d   0     -20.241  -5.895   3.989  0.00  0.00     0.062 C 
ATOM     24  C   UNK d   0     -19.797  -6.490   1.447  0.00  0.00    -0.020 A 
ATOM     25  C   UNK d   0     -21.139  -5.510   4.996  0.00  0.00     0.041 A 
ATOM     26  N   UNK d   0     -22.091  -4.569   5.025  0.00  0.00    -0.355 N 
ATOM     27  C   UNK d   0     -21.111  -6.201   6.227  0.00  0.00    -0.022 A 
ATOM     28  C   UNK d   0     -22.674  -4.640   6.231  0.00  0.00     0.042 A 
ATOM     29  H   UNK d   0     -22.332  -3.843   4.209  0.00  0.00     0.166 HD
ATOM     30  C   UNK d   0     -23.725  -3.899   6.794  0.00  0.00     0.062 C 
ATOM     31  C   UNK d   0     -22.080  -5.658   7.014  0.00  0.00    -0.013 A 
ATOM     32  C   UNK d   0     -24.890  -3.466   6.180  0.00  0.00     0.066 A 
BRANCH   8  33
ATOM     33  C   UNK d   0     -28.204  -1.993   5.574  0.00  0.00     0.151 C 
BRANCH  33  34
ATOM     34  C   UNK d   0     -28.127  -0.536   5.367  0.00  0.00     0.143 C 
ATOM     35  O   UNK d   0     -28.217   0.248   6.323  0.00  0.00    -0.650 OA
BRANCH  34  36
ATOM     36  O   UNK d   0     -27.954  -0.042   4.095  0.00  0.00    -0.776 OA
ATOM     37  H   UNK d   0     -28.751   0.072   3.453  0.00  0.00     0.167 HD
ENDBRANCH  34  36
ENDBRANCH  33  34
ENDBRANCH   8  33
BRANCH  31  38
ATOM     38  C   UNK d   0     -22.430  -6.087   8.420  0.00  0.00     0.151 C 
BRANCH  38  39
ATOM     39  C   UNK d   0     -23.673  -6.825   8.488  0.00  0.00     0.143 C 
ATOM     40  O   UNK d   0     -23.968  -7.710   7.666  0.00  0.00    -0.650 OA
BRANCH  39  41
ATOM     41  O   UNK d   0     -24.583  -6.544   9.507  0.00  0.00    -0.776 OA
ATOM     42  H   UNK d   0     -25.577  -6.632   9.276  0.00  0.00     0.167 HD
ENDBRANCH  39  41
ENDBRANCH  38  39
ENDBRANCH  31  38
BRANCH  27  43
ATOM     43  C   UNK d   0     -20.216  -7.332   6.670  0.00  0.00     0.052 C 
BRANCH  43  44
ATOM     44  C   UNK d   0     -19.120  -6.893   7.585  0.00  0.00     0.115 C 
BRANCH  44  45
ATOM     45  C   UNK d   0     -17.942  -7.744   7.275  0.00  0.00     0.139 C 
ATOM     46  O   UNK d   0     -17.282  -7.486   6.238  0.00  0.00    -0.650 OA
BRANCH  45  47
ATOM     47  O   UNK d   0     -17.546  -8.792   8.077  0.00  0.00    -0.776 OA
ATOM     48  H   UNK d   0     -16.781  -8.713   8.767  0.00  0.00     0.167 HD
ENDBRANCH  45  47
ENDBRANCH  44  45
ENDBRANCH  43  44
ENDBRANCH  27  43
BRANCH  24  49
ATOM     49  C   UNK d   0     -18.434  -7.048   1.436  0.00  0.00     0.052 C 
BRANCH  49  50
ATOM     50  C   UNK d   0     -17.415  -5.941   1.342  0.00  0.00     0.115 C 
BRANCH  50  51
ATOM     51  C   UNK d   0     -16.692  -5.598   2.560  0.00  0.00     0.139 C 
ATOM     52  O   UNK d   0     -16.078  -4.514   2.699  0.00  0.00    -0.650 OA
BRANCH  51  53
ATOM     53  O   UNK d   0     -16.668  -6.493   3.618  0.00  0.00    -0.776 OA
ATOM     54  H   UNK d   0     -17.481  -6.557   4.206  0.00  0.00     0.167 HD
ENDBRANCH  51  53
ENDBRANCH  50  51
ENDBRANCH  49  50
ENDBRANCH  24  49
BRANCH  21  55
ATOM     55  C   UNK d   0     -20.317  -6.763  -0.997  0.00  0.00     0.151 C 
BRANCH  55  56
ATOM     56  C   UNK d   0     -20.322  -5.595  -1.890  0.00  0.00     0.143 C 
ATOM     57  O   UNK d   0     -19.571  -4.614  -1.723  0.00  0.00    -0.650 OA
BRANCH  56  58
ATOM     58  O   UNK d   0     -21.211  -5.603  -2.964  0.00  0.00    -0.776 OA
ATOM     59  H   UNK d   0     -21.669  -4.694  -3.157  0.00  0.00     0.167 HD
ENDBRANCH  56  58
ENDBRANCH  55  56
ENDBRANCH  21  55
BRANCH  18  60
ATOM     60  C   UNK d   0     -24.376  -3.267  -1.332  0.00  0.00     0.151 C 
BRANCH  60  61
ATOM     61  C   UNK d   0     -23.170  -2.433  -1.221  0.00  0.00     0.143 C 
ATOM     62  O   UNK d   0     -23.001  -1.468  -0.474  0.00  0.00    -0.650 OA
BRANCH  61  63
ATOM     63  O   UNK d   0     -22.102  -2.800  -2.074  0.00  0.00    -0.776 OA
ATOM     64  H   UNK d   0     -21.680  -2.131  -2.694  0.00  0.00     0.167 HD
ENDBRANCH  61  63
ENDBRANCH  60  61
ENDBRANCH  18  60
BRANCH  14  65
ATOM     65  C   UNK d   0     -26.638  -2.131   0.342  0.00  0.00     0.052 C 
BRANCH  65  66
ATOM     66  C   UNK d   0     -26.157  -0.743   0.578  0.00  0.00     0.115 C 
BRANCH  66  67
ATOM     67  C   UNK d   0     -27.103   0.334   0.659  0.00  0.00     0.139 C 
ATOM     68  O   UNK d   0     -27.020   1.150   1.649  0.00  0.00    -0.650 OA
BRANCH  67  69
ATOM     69  O   UNK d   0     -28.142   0.625  -0.225  0.00  0.00    -0.776 OA
ATOM     70  H   UNK d   0     -29.064   0.787   0.205  0.00  0.00     0.167 HD
ENDBRANCH  67  69
ENDBRANCH  66  67
ENDBRANCH  65  66
ENDBRANCH  14  65
ENDBRANCH   6   7
ENDBRANCH   5   6
ENDBRANCH   2   5
TORSDOF 28
ENDMDL
MODEL 7
REMARK VINA RESULT:      -9.2      5.181     11.857
REMARK  28 active torsions:
REMARK  status: ('A' for Active; 'I' for Inactive)
REMARK    1  A    between atoms: C_2  and  O_3 
REMARK    2  A    between atoms: C_2  and  C_4 
REMARK    3  A    between atoms: C_4  and  C_5 
REMARK    4  A    between atoms: C_5  and  C_6 
REMARK    5  A    between atoms: C_7  and  C_8 
REMARK    6  A    between atoms: C_8  and  C_9 
REMARK    7  A    between atoms: C_9  and  O_11 
REMARK    8  A    between atoms: C_28  and  C_29 
REMARK    9  A    between atoms: C_29  and  C_30 
REMARK   10  A    between atoms: C_30  and  O_32 
REMARK   11  A    between atoms: C_33  and  C_34 
REMARK   12  A    between atoms: C_34  and  C_35 
REMARK   13  A    between atoms: C_35  and  C_36 
REMARK   14  A    between atoms: C_36  and  O_38 
REMARK   15  A    between atoms: C_39  and  C_40 
REMARK   16  A    between atoms: C_40  and  C_41 
REMARK   17  A    between atoms: C_41  and  C_42 
REMARK   18  A    between atoms: C_42  and  O_44 
REMARK   19  A    between atoms: C_45  and  C_46 
REMARK   20  A    between atoms: C_46  and  C_47 
REMARK   21  A    between atoms: C_47  and  O_49 
REMARK   22  A    between atoms: C_50  and  C_51 
REMARK   23  A    between atoms: C_51  and  C_52 
REMARK   24  A    between atoms: C_52  and  O_54 
REMARK   25  A    between atoms: C_55  and  C_56 
REMARK   26  A    between atoms: C_56  and  C_57 
REMARK   27  A    between atoms: C_57  and  C_58 
REMARK   28  A    between atoms: C_58  and  O_60 
ROOT
ATOM      1  O   UNK d   0     -27.637   3.811   1.388  0.00  0.00    -0.650 OA
ATOM      2  C   UNK d   0     -26.454   3.537   1.690  0.00  0.00     0.139 C 
ENDROOT
BRANCH   2   3
ATOM      3  O   UNK d   0     -25.464   4.453   1.429  0.00  0.00    -0.776 OA
ATOM      4  H   UNK d   0     -25.515   5.068   0.614  0.00  0.00     0.167 HD
ENDBRANCH   2   3
BRANCH   2   5
ATOM      5  C   UNK d   0     -26.127   2.229   2.325  0.00  0.00     0.115 C 
BRANCH   5   6
ATOM      6  C   UNK d   0     -26.970   1.137   1.724  0.00  0.00     0.052 C 
BRANCH   6   7
ATOM      7  C   UNK d   0     -26.505  -0.243   2.124  0.00  0.00    -0.020 A 
ATOM      8  C   UNK d   0     -25.898  -1.129   1.377  0.00  0.00    -0.011 A 
ATOM      9  C   UNK d   0     -25.656  -2.308   2.192  0.00  0.00     0.067 A 
ATOM     10  C   UNK d   0     -25.047  -3.559   2.006  0.00  0.00     0.062 C 
ATOM     11  N   UNK d   0     -26.152  -2.054   3.421  0.00  0.00    -0.248 NA
ATOM     12  C   UNK d   0     -24.659  -4.467   2.997  0.00  0.00     0.041 A 
ATOM     13  N   UNK d   0     -25.281  -4.874   4.120  0.00  0.00    -0.355 N 
ATOM     14  C   UNK d   0     -23.389  -5.065   2.912  0.00  0.00    -0.022 A 
ATOM     15  C   UNK d   0     -24.435  -5.709   4.753  0.00  0.00     0.042 A 
ATOM     16  H   UNK d   0     -26.306  -4.592   4.449  0.00  0.00     0.166 HD
ATOM     17  C   UNK d   0     -24.584  -6.414   5.964  0.00  0.00     0.062 C 
ATOM     18  C   UNK d   0     -23.238  -5.853   4.026  0.00  0.00    -0.013 A 
ATOM     19  C   UNK d   0     -25.074  -5.971   7.166  0.00  0.00     0.067 A 
ATOM     20  N   UNK d   0     -25.679  -4.781   7.170  0.00  0.00    -0.248 NA
ATOM     21  C   UNK d   0     -25.105  -6.471   8.530  0.00  0.00    -0.011 A 
ATOM     22  C   UNK d   0     -26.102  -4.465   8.438  0.00  0.00     0.066 A 
ATOM     23  C   UNK d   0     -26.784  -3.266   8.580  0.00  0.00     0.062 C 
ATOM     24  C   UNK d   0     -25.704  -5.584   9.270  0.00  0.00    -0.020 A 
ATOM     25  C   UNK d   0     -27.175  -2.374   7.570  0.00  0.00     0.041 A 
ATOM     26  N   UNK d   0     -26.551  -1.958   6.462  0.00  0.00    -0.355 N 
ATOM     27  C   UNK d   0     -28.452  -1.777   7.654  0.00  0.00    -0.022 A 
ATOM     28  C   UNK d   0     -27.389  -1.118   5.833  0.00  0.00     0.042 A 
ATOM     29  H   UNK d   0     -25.517  -2.234   6.138  0.00  0.00     0.166 HD
ATOM     30  C   UNK d   0     -27.251  -0.403   4.633  0.00  0.00     0.062 C 
ATOM     31  C   UNK d   0     -28.596  -0.982   6.559  0.00  0.00    -0.013 A 
ATOM     32  C   UNK d   0     -26.677  -0.828   3.446  0.00  0.00     0.066 A 
BRANCH   8  33
ATOM     33  C   UNK d   0     -25.523  -0.982  -0.042  0.00  0.00     0.151 C 
BRANCH  33  34
ATOM     34  C   UNK d   0     -24.247  -1.645  -0.366  0.00  0.00     0.143 C 
ATOM     35  O   UNK d   0     -23.175  -1.216   0.083  0.00  0.00    -0.650 OA
BRANCH  34  36
ATOM     36  O   UNK d   0     -24.251  -2.754  -1.181  0.00  0.00    -0.776 OA
ATOM     37  H   UNK d   0     -24.760  -3.609  -0.917  0.00  0.00     0.167 HD
ENDBRANCH  34  36
ENDBRANCH  33  34
ENDBRANCH   8  33
BRANCH  31  38
ATOM     38  C   UNK d   0     -29.810  -0.152   6.213  0.00  0.00     0.151 C 
BRANCH  38  39
ATOM     39  C   UNK d   0     -29.840   1.116   6.911  0.00  0.00     0.143 C 
ATOM     40  O   UNK d   0     -28.914   1.942   6.830  0.00  0.00    -0.650 OA
BRANCH  39  41
ATOM     41  O   UNK d   0     -30.942   1.437   7.703  0.00  0.00    -0.776 OA
ATOM     42  H   UNK d   0     -30.980   1.011   8.634  0.00  0.00     0.167 HD
ENDBRANCH  39  41
ENDBRANCH  38  39
ENDBRANCH  31  38
BRANCH  27  43
ATOM     43  C   UNK d   0     -29.514  -1.931   8.714  0.00  0.00     0.052 C 
BRANCH  43  44
ATOM     44  C   UNK d   0     -29.363  -0.967   9.846  0.00  0.00     0.115 C 
BRANCH  44  45
ATOM     45  C   UNK d   0     -30.678  -0.913  10.536  0.00  0.00     0.139 C 
ATOM     46  O   UNK d   0     -31.018  -1.896  11.240  0.00  0.00    -0.650 OA
BRANCH  45  47
ATOM     47  O   UNK d   0     -31.530   0.166  10.438  0.00  0.00    -0.776 OA
ATOM     48  H   UNK d   0     -31.779   0.604   9.537  0.00  0.00     0.167 HD
ENDBRANCH  45  47
ENDBRANCH  44  45
ENDBRANCH  43  44
ENDBRANCH  27  43
BRANCH  24  49
ATOM     49  C   UNK d   0     -25.986  -5.702  10.711  0.00  0.00     0.052 C 
BRANCH  49  50
ATOM     50  C   UNK d   0     -27.458  -5.930  10.940  0.00  0.00     0.115 C 
BRANCH  50  51
ATOM     51  C   UNK d   0     -28.256  -4.777  11.333  0.00  0.00     0.139 C 
ATOM     52  O   UNK d   0     -27.901  -3.985  12.238  0.00  0.00    -0.650 OA
BRANCH  51  53
ATOM     53  O   UNK d   0     -29.462  -4.528  10.696  0.00  0.00    -0.776 OA
ATOM     54  H   UNK d   0     -29.440  -4.087   9.793  0.00  0.00     0.167 HD
ENDBRANCH  51  53
ENDBRANCH  50  51
ENDBRANCH  49  50
ENDBRANCH  24  49
BRANCH  21  55
ATOM     55  C   UNK d   0     -24.536  -7.786   8.950  0.00  0.00     0.151 C 
BRANCH  55  56
ATOM     56  C   UNK d   0     -25.526  -8.870   8.858  0.00  0.00     0.143 C 
ATOM     57  O   UNK d   0     -26.302  -8.995   7.890  0.00  0.00    -0.650 OA
BRANCH  56  58
ATOM     58  O   UNK d   0     -25.584  -9.786   9.907  0.00  0.00    -0.776 OA
ATOM     59  H   UNK d   0     -25.086 -10.678   9.735  0.00  0.00     0.167 HD
ENDBRANCH  56  58
ENDBRANCH  55  56
ENDBRANCH  21  55
BRANCH  18  60
ATOM     60  C   UNK d   0     -22.014  -6.675   4.344  0.00  0.00     0.151 C 
BRANCH  60  61
ATOM     61  C   UNK d   0     -21.104  -5.779   5.074  0.00  0.00     0.143 C 
ATOM     62  O   UNK d   0     -20.259  -5.025   4.591  0.00  0.00    -0.650 OA
BRANCH  61  63
ATOM     63  O   UNK d   0     -21.236  -5.804   6.483  0.00  0.00    -0.776 OA
ATOM     64  H   UNK d   0     -22.135  -5.712   6.922  0.00  0.00     0.167 HD
ENDBRANCH  61  63
ENDBRANCH  60  61
ENDBRANCH  18  60
BRANCH  14  65
ATOM     65  C   UNK d   0     -22.357  -5.026   1.820  0.00  0.00     0.052 C 
BRANCH  65  66
ATOM     66  C   UNK d   0     -22.746  -5.821   0.624  0.00  0.00     0.115 C 
BRANCH  66  67
ATOM     67  C   UNK d   0     -22.155  -5.525  -0.650  0.00  0.00     0.139 C 
ATOM     68  O   UNK d   0     -21.975  -6.489  -1.483  0.00  0.00    -0.650 OA
BRANCH  67  69
ATOM     69  O   UNK d   0     -21.732  -4.285  -1.127  0.00  0.00    -0.776 OA
ATOM     70  H   UNK d   0     -22.036  -3.467  -0.580  0.00  0.00     0.167 HD
ENDBRANCH  67  69
ENDBRANCH  66  67
ENDBRANCH  65  66
ENDBRANCH  14  65
ENDBRANCH   6   7
ENDBRANCH   5   6
ENDBRANCH   2   5
TORSDOF 28
ENDMDL
MODEL 8
REMARK VINA RESULT:      -9.2      5.191      8.576
REMARK  28 active torsions:
REMARK  status: ('A' for Active; 'I' for Inactive)
REMARK    1  A    between atoms: C_2  and  O_3 
REMARK    2  A    between atoms: C_2  and  C_4 
REMARK    3  A    between atoms: C_4  and  C_5 
REMARK    4  A    between atoms: C_5  and  C_6 
REMARK    5  A    between atoms: C_7  and  C_8 
REMARK    6  A    between atoms: C_8  and  C_9 
REMARK    7  A    between atoms: C_9  and  O_11 
REMARK    8  A    between atoms: C_28  and  C_29 
REMARK    9  A    between atoms: C_29  and  C_30 
REMARK   10  A    between atoms: C_30  and  O_32 
REMARK   11  A    between atoms: C_33  and  C_34 
REMARK   12  A    between atoms: C_34  and  C_35 
REMARK   13  A    between atoms: C_35  and  C_36 
REMARK   14  A    between atoms: C_36  and  O_38 
REMARK   15  A    between atoms: C_39  and  C_40 
REMARK   16  A    between atoms: C_40  and  C_41 
REMARK   17  A    between atoms: C_41  and  C_42 
REMARK   18  A    between atoms: C_42  and  O_44 
REMARK   19  A    between atoms: C_45  and  C_46 
REMARK   20  A    between atoms: C_46  and  C_47 
REMARK   21  A    between atoms: C_47  and  O_49 
REMARK   22  A    between atoms: C_50  and  C_51 
REMARK   23  A    between atoms: C_51  and  C_52 
REMARK   24  A    between atoms: C_52  and  O_54 
REMARK   25  A    between atoms: C_55  and  C_56 
REMARK   26  A    between atoms: C_56  and  C_57 
REMARK   27  A    between atoms: C_57  and  C_58 
REMARK   28  A    between atoms: C_58  and  O_60 
ROOT
ATOM      1  O   UNK d   0     -30.707   2.447   9.883  0.00  0.00    -0.650 OA
ATOM      2  C   UNK d   0     -30.822   1.256   9.515  0.00  0.00     0.139 C 
ENDROOT
BRANCH   2   3
ATOM      3  O   UNK d   0     -31.585   0.391  10.262  0.00  0.00    -0.776 OA
ATOM      4  H   UNK d   0     -31.349  -0.601  10.323  0.00  0.00     0.167 HD
ENDBRANCH   2   3
BRANCH   2   5
ATOM      5  C   UNK d   0     -30.135   0.786   8.279  0.00  0.00     0.115 C 
BRANCH   5   6
ATOM      6  C   UNK d   0     -30.369  -0.688   8.087  0.00  0.00     0.052 C 
BRANCH   6   7
ATOM      7  C   UNK d   0     -29.085  -1.483   8.072  0.00  0.00    -0.020 A 
ATOM      8  C   UNK d   0     -28.486  -2.051   9.088  0.00  0.00    -0.011 A 
ATOM      9  C   UNK d   0     -27.281  -2.693   8.591  0.00  0.00     0.067 A 
ATOM     10  C   UNK d   0     -26.244  -3.463   9.141  0.00  0.00     0.062 C 
ATOM     11  N   UNK d   0     -27.220  -2.460   7.263  0.00  0.00    -0.248 NA
ATOM     12  C   UNK d   0     -25.304  -4.235   8.450  0.00  0.00     0.041 A 
ATOM     13  N   UNK d   0     -24.597  -3.980   7.332  0.00  0.00    -0.355 N 
ATOM     14  C   UNK d   0     -25.029  -5.539   8.902  0.00  0.00    -0.022 A 
ATOM     15  C   UNK d   0     -23.886  -5.091   7.060  0.00  0.00     0.042 A 
ATOM     16  H   UNK d   0     -24.585  -3.027   6.759  0.00  0.00     0.166 HD
ATOM     17  C   UNK d   0     -22.986  -5.365   6.011  0.00  0.00     0.062 C 
ATOM     18  C   UNK d   0     -24.131  -6.090   8.022  0.00  0.00    -0.013 A 
ATOM     19  C   UNK d   0     -23.113  -5.096   4.672  0.00  0.00     0.067 A 
ATOM     20  N   UNK d   0     -24.121  -4.298   4.309  0.00  0.00    -0.248 NA
ATOM     21  C   UNK d   0     -22.413  -5.480   3.458  0.00  0.00    -0.011 A 
ATOM     22  C   UNK d   0     -24.130  -4.133   2.946  0.00  0.00     0.066 A 
ATOM     23  C   UNK d   0     -25.108  -3.292   2.433  0.00  0.00     0.062 C 
ATOM     24  C   UNK d   0     -23.015  -4.917   2.451  0.00  0.00    -0.020 A 
ATOM     25  C   UNK d   0     -26.034  -2.516   3.146  0.00  0.00     0.041 A 
ATOM     26  N   UNK d   0     -26.748  -2.775   4.248  0.00  0.00    -0.355 N 
ATOM     27  C   UNK d   0     -26.306  -1.206   2.694  0.00  0.00    -0.022 A 
ATOM     28  C   UNK d   0     -27.464  -1.671   4.517  0.00  0.00     0.042 A 
ATOM     29  H   UNK d   0     -26.767  -3.736   4.817  0.00  0.00     0.166 HD
ATOM     30  C   UNK d   0     -28.371  -1.389   5.551  0.00  0.00     0.062 C 
ATOM     31  C   UNK d   0     -27.209  -0.664   3.556  0.00  0.00    -0.013 A 
ATOM     32  C   UNK d   0     -28.277  -1.737   6.889  0.00  0.00     0.066 A 
BRANCH   8  33
ATOM     33  C   UNK d   0     -28.934  -2.049  10.493  0.00  0.00     0.151 C 
BRANCH  33  34
ATOM     34  C   UNK d   0     -30.065  -2.963  10.733  0.00  0.00     0.143 C 
ATOM     35  O   UNK d   0     -29.975  -4.171  10.472  0.00  0.00    -0.650 OA
BRANCH  34  36
ATOM     36  O   UNK d   0     -31.238  -2.464  11.252  0.00  0.00    -0.776 OA
ATOM     37  H   UNK d   0     -31.245  -1.910  12.119  0.00  0.00     0.167 HD
ENDBRANCH  34  36
ENDBRANCH  33  34
ENDBRANCH   8  33
BRANCH  31  38
ATOM     38  C   UNK d   0     -27.787   0.730   3.482  0.00  0.00     0.151 C 
BRANCH  38  39
ATOM     39  C   UNK d   0     -26.790   1.762   3.670  0.00  0.00     0.143 C 
ATOM     40  O   UNK d   0     -25.909   1.684   4.544  0.00  0.00    -0.650 OA
BRANCH  39  41
ATOM     41  O   UNK d   0     -26.805   2.888   2.848  0.00  0.00    -0.776 OA
ATOM     42  H   UNK d   0     -26.029   2.987   2.186  0.00  0.00     0.167 HD
ENDBRANCH  39  41
ENDBRANCH  38  39
ENDBRANCH  31  38
BRANCH  27  43
ATOM     43  C   UNK d   0     -25.753  -0.470   1.499  0.00  0.00     0.052 C 
BRANCH  43  44
ATOM     44  C   UNK d   0     -26.231  -1.019   0.194  0.00  0.00     0.115 C 
BRANCH  44  45
ATOM     45  C   UNK d   0     -27.338  -0.135  -0.258  0.00  0.00     0.139 C 
ATOM     46  O   UNK d   0     -28.094  -0.553  -1.169  0.00  0.00    -0.650 OA
BRANCH  45  47
ATOM     47  O   UNK d   0     -27.567   1.111   0.283  0.00  0.00    -0.776 OA
ATOM     48  H   UNK d   0     -26.957   1.924   0.097  0.00  0.00     0.167 HD
ENDBRANCH  45  47
ENDBRANCH  44  45
ENDBRANCH  43  44
ENDBRANCH  27  43
BRANCH  24  49
ATOM     49  C   UNK d   0     -22.613  -5.007   1.037  0.00  0.00     0.052 C 
BRANCH  49  50
ATOM     50  C   UNK d   0     -23.650  -5.760   0.244  0.00  0.00     0.115 C 
BRANCH  50  51
ATOM     51  C   UNK d   0     -23.408  -5.921  -1.184  0.00  0.00     0.139 C 
ATOM     52  O   UNK d   0     -22.311  -6.316  -1.643  0.00  0.00    -0.650 OA
BRANCH  51  53
ATOM     53  O   UNK d   0     -24.417  -5.628  -2.088  0.00  0.00    -0.776 OA
ATOM     54  H   UNK d   0     -24.836  -6.388  -2.596  0.00  0.00     0.167 HD
ENDBRANCH  51  53
ENDBRANCH  50  51
ENDBRANCH  49  50
ENDBRANCH  24  49
BRANCH  21  55
ATOM     55  C   UNK d   0     -21.212  -6.366   3.432  0.00  0.00     0.151 C 
BRANCH  55  56
ATOM     56  C   UNK d   0     -20.001  -5.668   3.890  0.00  0.00     0.143 C 
ATOM     57  O   UNK d   0     -19.495  -5.860   5.013  0.00  0.00    -0.650 OA
BRANCH  56  58
ATOM     58  O   UNK d   0     -19.408  -4.756   3.018  0.00  0.00    -0.776 OA
ATOM     59  H   UNK d   0     -18.445  -4.472   3.273  0.00  0.00     0.167 HD
ENDBRANCH  56  58
ENDBRANCH  55  56
ENDBRANCH  21  55
BRANCH  18  60
ATOM     60  C   UNK d   0     -23.568  -7.486   8.122  0.00  0.00     0.151 C 
BRANCH  60  61
ATOM     61  C   UNK d   0     -24.228  -8.265   7.064  0.00  0.00     0.143 C 
ATOM     62  O   UNK d   0     -25.419  -8.573   7.002  0.00  0.00    -0.650 OA
BRANCH  61  63
ATOM     63  O   UNK d   0     -23.380  -8.695   6.015  0.00  0.00    -0.776 OA
ATOM     64  H   UNK d   0     -22.381  -8.647   6.103  0.00  0.00     0.167 HD
ENDBRANCH  61  63
ENDBRANCH  60  61
ENDBRANCH  18  60
BRANCH  14  65
ATOM     65  C   UNK d   0     -25.470  -6.259  10.144  0.00  0.00     0.052 C 
BRANCH  65  66
ATOM     66  C   UNK d   0     -26.525  -7.274   9.884  0.00  0.00     0.115 C 
BRANCH  66  67
ATOM     67  C   UNK d   0     -26.391  -8.597  10.427  0.00  0.00     0.139 C 
ATOM     68  O   UNK d   0     -26.988  -8.870  11.532  0.00  0.00    -0.650 OA
BRANCH  67  69
ATOM     69  O   UNK d   0     -25.670  -9.667   9.897  0.00  0.00    -0.776 OA
ATOM     70  H   UNK d   0     -24.799  -9.421   9.407  0.00  0.00     0.167 HD
ENDBRANCH  67  69
ENDBRANCH  66  67
ENDBRANCH  65  66
ENDBRANCH  14  65
ENDBRANCH   6   7
ENDBRANCH   5   6
ENDBRANCH   2   5
TORSDOF 28
ENDMDL
MODEL 9
REMARK VINA RESULT:      -9.0      3.114      9.391
REMARK  28 active torsions:
REMARK  status: ('A' for Active; 'I' for Inactive)
REMARK    1  A    between atoms: C_2  and  O_3 
REMARK    2  A    between atoms: C_2  and  C_4 
REMARK    3  A    between atoms: C_4  and  C_5 
REMARK    4  A    between atoms: C_5  and  C_6 
REMARK    5  A    between atoms: C_7  and  C_8 
REMARK    6  A    between atoms: C_8  and  C_9 
REMARK    7  A    between atoms: C_9  and  O_11 
REMARK    8  A    between atoms: C_28  and  C_29 
REMARK    9  A    between atoms: C_29  and  C_30 
REMARK   10  A    between atoms: C_30  and  O_32 
REMARK   11  A    between atoms: C_33  and  C_34 
REMARK   12  A    between atoms: C_34  and  C_35 
REMARK   13  A    between atoms: C_35  and  C_36 
REMARK   14  A    between atoms: C_36  and  O_38 
REMARK   15  A    between atoms: C_39  and  C_40 
REMARK   16  A    between atoms: C_40  and  C_41 
REMARK   17  A    between atoms: C_41  and  C_42 
REMARK   18  A    between atoms: C_42  and  O_44 
REMARK   19  A    between atoms: C_45  and  C_46 
REMARK   20  A    between atoms: C_46  and  C_47 
REMARK   21  A    between atoms: C_47  and  O_49 
REMARK   22  A    between atoms: C_50  and  C_51 
REMARK   23  A    between atoms: C_51  and  C_52 
REMARK   24  A    between atoms: C_52  and  O_54 
REMARK   25  A    between atoms: C_55  and  C_56 
REMARK   26  A    between atoms: C_56  and  C_57 
REMARK   27  A    between atoms: C_57  and  C_58 
REMARK   28  A    between atoms: C_58  and  O_60 
ROOT
ATOM      1  O   UNK d   0     -22.905  -5.409  -2.218  0.00  0.00    -0.650 OA
ATOM      2  C   UNK d   0     -22.536  -4.345  -1.674  0.00  0.00     0.139 C 
ENDROOT
BRANCH   2   3
ATOM      3  O   UNK d   0     -21.970  -3.357  -2.443  0.00  0.00    -0.776 OA
ATOM      4  H   UNK d   0     -22.011  -2.377  -2.156  0.00  0.00     0.167 HD
ENDBRANCH   2   3
BRANCH   2   5
ATOM      5  C   UNK d   0     -22.710  -4.156  -0.206  0.00  0.00     0.115 C 
BRANCH   5   6
ATOM      6  C   UNK d   0     -22.873  -5.489   0.472  0.00  0.00     0.052 C 
BRANCH   6   7
ATOM      7  C   UNK d   0     -22.996  -5.366   1.972  0.00  0.00    -0.020 A 
ATOM      8  C   UNK d   0     -24.045  -4.994   2.659  0.00  0.00    -0.011 A 
ATOM      9  C   UNK d   0     -23.687  -5.021   4.068  0.00  0.00     0.067 A 
ATOM     10  C   UNK d   0     -24.339  -4.763   5.284  0.00  0.00     0.062 C 
ATOM     11  N   UNK d   0     -22.399  -5.415   4.146  0.00  0.00    -0.248 NA
ATOM     12  C   UNK d   0     -23.908  -5.113   6.568  0.00  0.00     0.041 A 
ATOM     13  N   UNK d   0     -22.692  -5.048   7.143  0.00  0.00    -0.355 N 
ATOM     14  C   UNK d   0     -24.829  -5.691   7.461  0.00  0.00    -0.022 A 
ATOM     15  C   UNK d   0     -22.816  -5.577   8.375  0.00  0.00     0.042 A 
ATOM     16  H   UNK d   0     -21.769  -4.619   6.694  0.00  0.00     0.166 HD
ATOM     17  C   UNK d   0     -21.858  -5.753   9.393  0.00  0.00     0.062 C 
ATOM     18  C   UNK d   0     -24.141  -5.991   8.610  0.00  0.00    -0.013 A 
ATOM     19  C   UNK d   0     -20.575  -6.229   9.298  0.00  0.00     0.067 A 
ATOM     20  N   UNK d   0     -20.071  -6.367   8.069  0.00  0.00    -0.248 NA
ATOM     21  C   UNK d   0     -19.551  -6.665  10.232  0.00  0.00    -0.011 A 
ATOM     22  C   UNK d   0     -18.793  -6.864   8.132  0.00  0.00     0.066 A 
ATOM     23  C   UNK d   0     -18.133  -7.023   6.922  0.00  0.00     0.062 C 
ATOM     24  C   UNK d   0     -18.512  -7.040   9.543  0.00  0.00    -0.020 A 
ATOM     25  C   UNK d   0     -18.579  -6.653   5.644  0.00  0.00     0.041 A 
ATOM     26  N   UNK d   0     -19.784  -6.731   5.067  0.00  0.00    -0.355 N 
ATOM     27  C   UNK d   0     -17.656  -6.069   4.750  0.00  0.00    -0.022 A 
ATOM     28  C   UNK d   0     -19.662  -6.212   3.835  0.00  0.00     0.042 A 
ATOM     29  H   UNK d   0     -20.708  -7.172   5.515  0.00  0.00     0.166 HD
ATOM     30  C   UNK d   0     -20.603  -6.039   2.808  0.00  0.00     0.062 C 
ATOM     31  C   UNK d   0     -18.332  -5.786   3.603  0.00  0.00    -0.013 A 
ATOM     32  C   UNK d   0     -21.925  -5.640   2.920  0.00  0.00     0.066 A 
BRANCH   8  33
ATOM     33  C   UNK d   0     -25.363  -4.607   2.123  0.00  0.00     0.151 C 
BRANCH  33  34
ATOM     34  C   UNK d   0     -25.657  -3.175   2.311  0.00  0.00     0.143 C 
ATOM     35  O   UNK d   0     -25.065  -2.311   1.650  0.00  0.00    -0.650 OA
BRANCH  34  36
ATOM     36  O   UNK d   0     -26.603  -2.796   3.236  0.00  0.00    -0.776 OA
ATOM     37  H   UNK d   0     -26.459  -1.977   3.842  0.00  0.00     0.167 HD
ENDBRANCH  34  36
ENDBRANCH  33  34
ENDBRANCH   8  33
BRANCH  31  38
ATOM     38  C   UNK d   0     -17.757  -5.139   2.365  0.00  0.00     0.151 C 
BRANCH  38  39
ATOM     39  C   UNK d   0     -17.224  -6.101   1.424  0.00  0.00     0.143 C 
ATOM     40  O   UNK d   0     -16.515  -5.766   0.459  0.00  0.00    -0.650 OA
BRANCH  39  41
ATOM     41  O   UNK d   0     -17.507  -7.456   1.594  0.00  0.00    -0.776 OA
ATOM     42  H   UNK d   0     -18.492  -7.711   1.714  0.00  0.00     0.167 HD
ENDBRANCH  39  41
ENDBRANCH  38  39
ENDBRANCH  31  38
BRANCH  27  43
ATOM     43  C   UNK d   0     -16.188  -5.779   4.942  0.00  0.00     0.052 C 
BRANCH  43  44
ATOM     44  C   UNK d   0     -15.300  -6.872   4.442  0.00  0.00     0.115 C 
BRANCH  44  45
ATOM     45  C   UNK d   0     -14.277  -6.227   3.579  0.00  0.00     0.139 C 
ATOM     46  O   UNK d   0     -13.368  -6.948   3.098  0.00  0.00    -0.650 OA
BRANCH  45  47
ATOM     47  O   UNK d   0     -14.290  -4.881   3.283  0.00  0.00    -0.776 OA
ATOM     48  H   UNK d   0     -14.668  -4.506   2.398  0.00  0.00     0.167 HD
ENDBRANCH  45  47
ENDBRANCH  44  45
ENDBRANCH  43  44
ENDBRANCH  27  43
BRANCH  24  49
ATOM     49  C   UNK d   0     -17.232  -7.519  10.093  0.00  0.00     0.052 C 
BRANCH  49  50
ATOM     50  C   UNK d   0     -17.360  -8.949  10.552  0.00  0.00     0.115 C 
BRANCH  50  51
ATOM     51  C   UNK d   0     -16.353  -9.890  10.081  0.00  0.00     0.139 C 
ATOM     52  O   UNK d   0     -15.408 -10.286  10.803  0.00  0.00    -0.650 OA
BRANCH  51  53
ATOM     53  O   UNK d   0     -16.423 -10.380   8.786  0.00  0.00    -0.776 OA
ATOM     54  H   UNK d   0     -15.848  -9.949   8.084  0.00  0.00     0.167 HD
ENDBRANCH  51  53
ENDBRANCH  50  51
ENDBRANCH  49  50
ENDBRANCH  24  49
BRANCH  21  55
ATOM     55  C   UNK d   0     -19.716  -6.658  11.716  0.00  0.00     0.151 C 
BRANCH  55  56
ATOM     56  C   UNK d   0     -20.717  -5.674  12.155  0.00  0.00     0.143 C 
ATOM     57  O   UNK d   0     -21.850  -5.999  12.561  0.00  0.00    -0.650 OA
BRANCH  56  58
ATOM     58  O   UNK d   0     -20.366  -4.326  12.108  0.00  0.00    -0.776 OA
ATOM     59  H   UNK d   0     -21.003  -3.729  11.549  0.00  0.00     0.167 HD
ENDBRANCH  56  58
ENDBRANCH  55  56
ENDBRANCH  21  55
BRANCH  18  60
ATOM     60  C   UNK d   0     -24.743  -6.636   9.834  0.00  0.00     0.151 C 
BRANCH  60  61
ATOM     61  C   UNK d   0     -24.440  -8.071   9.725  0.00  0.00     0.143 C 
ATOM     62  O   UNK d   0     -24.623  -8.796   8.747  0.00  0.00    -0.650 OA
BRANCH  61  63
ATOM     63  O   UNK d   0     -23.877  -8.658  10.884  0.00  0.00    -0.776 OA
ATOM     64  H   UNK d   0     -23.170  -9.368  10.814  0.00  0.00     0.167 HD
ENDBRANCH  61  63
ENDBRANCH  60  61
ENDBRANCH  18  60
BRANCH  14  65
ATOM     65  C   UNK d   0     -26.314  -5.888   7.348  0.00  0.00     0.052 C 
BRANCH  65  66
ATOM     66  C   UNK d   0     -27.095  -4.767   7.936  0.00  0.00     0.115 C 
BRANCH  66  67
ATOM     67  C   UNK d   0     -27.662  -3.766   7.077  0.00  0.00     0.139 C 
ATOM     68  O   UNK d   0     -28.225  -2.743   7.615  0.00  0.00    -0.650 OA
BRANCH  67  69
ATOM     69  O   UNK d   0     -27.685  -3.752   5.683  0.00  0.00    -0.776 OA
ATOM     70  H   UNK d   0     -28.130  -4.566   5.234  0.00  0.00     0.167 HD
ENDBRANCH  67  69
ENDBRANCH  66  67
ENDBRANCH  65  66
ENDBRANCH  14  65
ENDBRANCH   6   7
ENDBRANCH   5   6
ENDBRANCH   2   5
TORSDOF 28
ENDMDL
MODEL 10
REMARK VINA RESULT:      -9.0      1.930      4.576
REMARK  28 active torsions:
REMARK  status: ('A' for Active; 'I' for Inactive)
REMARK    1  A    between atoms: C_2  and  O_3 
REMARK    2  A    between atoms: C_2  and  C_4 
REMARK    3  A    between atoms: C_4  and  C_5 
REMARK    4  A    between atoms: C_5  and  C_6 
REMARK    5  A    between atoms: C_7  and  C_8 
REMARK    6  A    between atoms: C_8  and  C_9 
REMARK    7  A    between atoms: C_9  and  O_11 
REMARK    8  A    between atoms: C_28  and  C_29 
REMARK    9  A    between atoms: C_29  and  C_30 
REMARK   10  A    between atoms: C_30  and  O_32 
REMARK   11  A    between atoms: C_33  and  C_34 
REMARK   12  A    between atoms: C_34  and  C_35 
REMARK   13  A    between atoms: C_35  and  C_36 
REMARK   14  A    between atoms: C_36  and  O_38 
REMARK   15  A    between atoms: C_39  and  C_40 
REMARK   16  A    between atoms: C_40  and  C_41 
REMARK   17  A    between atoms: C_41  and  C_42 
REMARK   18  A    between atoms: C_42  and  O_44 
REMARK   19  A    between atoms: C_45  and  C_46 
REMARK   20  A    between atoms: C_46  and  C_47 
REMARK   21  A    between atoms: C_47  and  O_49 
REMARK   22  A    between atoms: C_50  and  C_51 
REMARK   23  A    between atoms: C_51  and  C_52 
REMARK   24  A    between atoms: C_52  and  O_54 
REMARK   25  A    between atoms: C_55  and  C_56 
REMARK   26  A    between atoms: C_56  and  C_57 
REMARK   27  A    between atoms: C_57  and  C_58 
REMARK   28  A    between atoms: C_58  and  O_60 
ROOT
ATOM      1  O   UNK d   0     -26.658  -5.380  -2.715  0.00  0.00    -0.650 OA
ATOM      2  C   UNK d   0     -25.540  -5.493  -2.165  0.00  0.00     0.139 C 
ENDROOT
BRANCH   2   3
ATOM      3  O   UNK d   0     -24.713  -6.529  -2.528  0.00  0.00    -0.776 OA
ATOM      4  H   UNK d   0     -24.282  -7.131  -1.824  0.00  0.00     0.167 HD
ENDBRANCH   2   3
BRANCH   2   5
ATOM      5  C   UNK d   0     -25.114  -4.513  -1.126  0.00  0.00     0.115 C 
BRANCH   5   6
ATOM      6  C   UNK d   0     -25.593  -4.954   0.230  0.00  0.00     0.052 C 
BRANCH   6   7
ATOM      7  C   UNK d   0     -24.473  -5.060   1.236  0.00  0.00    -0.020 A 
ATOM      8  C   UNK d   0     -24.545  -4.892   2.532  0.00  0.00    -0.011 A 
ATOM      9  C   UNK d   0     -23.213  -5.085   3.081  0.00  0.00     0.067 A 
ATOM     10  C   UNK d   0     -22.632  -5.067   4.358  0.00  0.00     0.062 C 
ATOM     11  N   UNK d   0     -22.390  -5.361   2.047  0.00  0.00    -0.248 NA
ATOM     12  C   UNK d   0     -21.372  -5.553   4.723  0.00  0.00     0.041 A 
ATOM     13  N   UNK d   0     -20.174  -5.455   4.116  0.00  0.00    -0.355 N 
ATOM     14  C   UNK d   0     -21.256  -6.339   5.884  0.00  0.00    -0.022 A 
ATOM     15  C   UNK d   0     -19.302  -6.163   4.858  0.00  0.00     0.042 A 
ATOM     16  H   UNK d   0     -19.945  -4.879   3.192  0.00  0.00     0.166 HD
ATOM     17  C   UNK d   0     -17.923  -6.390   4.679  0.00  0.00     0.062 C 
ATOM     18  C   UNK d   0     -19.944  -6.733   5.975  0.00  0.00    -0.013 A 
ATOM     19  C   UNK d   0     -17.245  -6.721   3.534  0.00  0.00     0.067 A 
ATOM     20  N   UNK d   0     -17.921  -6.634   2.385  0.00  0.00    -0.248 NA
ATOM     21  C   UNK d   0     -15.907  -7.186   3.209  0.00  0.00    -0.011 A 
ATOM     22  C   UNK d   0     -17.121  -7.010   1.333  0.00  0.00     0.066 A 
ATOM     23  C   UNK d   0     -17.688  -6.930   0.069  0.00  0.00     0.062 C 
ATOM     24  C   UNK d   0     -15.842  -7.357   1.920  0.00  0.00    -0.020 A 
ATOM     25  C   UNK d   0     -18.951  -6.426  -0.277  0.00  0.00     0.041 A 
ATOM     26  N   UNK d   0     -20.145  -6.537   0.318  0.00  0.00    -0.355 N 
ATOM     27  C   UNK d   0     -19.066  -5.634  -1.440  0.00  0.00    -0.022 A 
ATOM     28  C   UNK d   0     -21.018  -5.838  -0.425  0.00  0.00     0.042 A 
ATOM     29  H   UNK d   0     -20.375  -7.124   1.241  0.00  0.00     0.166 HD
ATOM     30  C   UNK d   0     -22.394  -5.612  -0.263  0.00  0.00     0.062 C 
ATOM     31  C   UNK d   0     -20.370  -5.257  -1.541  0.00  0.00    -0.013 A 
ATOM     32  C   UNK d   0     -23.087  -5.361   0.910  0.00  0.00     0.066 A 
BRANCH   8  33
ATOM     33  C   UNK d   0     -25.750  -4.561   3.315  0.00  0.00     0.151 C 
BRANCH  33  34
ATOM     34  C   UNK d   0     -25.806  -3.140   3.702  0.00  0.00     0.143 C 
ATOM     35  O   UNK d   0     -26.485  -2.330   3.054  0.00  0.00    -0.650 OA
BRANCH  34  36
ATOM     36  O   UNK d   0     -25.093  -2.708   4.796  0.00  0.00    -0.776 OA
ATOM     37  H   UNK d   0     -24.268  -2.102   4.691  0.00  0.00     0.167 HD
ENDBRANCH  34  36
ENDBRANCH  33  34
ENDBRANCH   8  33
BRANCH  31  38
ATOM     38  C   UNK d   0     -20.966  -4.388  -2.624  0.00  0.00     0.151 C 
BRANCH  38  39
ATOM     39  C   UNK d   0     -21.290  -5.129  -3.824  0.00  0.00     0.143 C 
ATOM     40  O   UNK d   0     -20.551  -5.133  -4.824  0.00  0.00    -0.650 OA
BRANCH  39  41
ATOM     41  O   UNK d   0     -22.471  -5.868  -3.875  0.00  0.00    -0.776 OA
ATOM     42  H   UNK d   0     -23.206  -5.523  -4.500  0.00  0.00     0.167 HD
ENDBRANCH  39  41
ENDBRANCH  38  39
ENDBRANCH  31  38
BRANCH  27  43
ATOM     43  C   UNK d   0     -18.006  -5.235  -2.436  0.00  0.00     0.052 C 
BRANCH  43  44
ATOM     44  C   UNK d   0     -17.591  -6.352  -3.337  0.00  0.00     0.115 C 
BRANCH  44  45
ATOM     45  C   UNK d   0     -16.110  -6.286  -3.441  0.00  0.00     0.139 C 
ATOM     46  O   UNK d   0     -15.460  -5.950  -2.420  0.00  0.00    -0.650 OA
BRANCH  45  47
ATOM     47  O   UNK d   0     -15.428  -6.583  -4.601  0.00  0.00    -0.776 OA
ATOM     48  H   UNK d   0     -14.397  -6.586  -4.659  0.00  0.00     0.167 HD
ENDBRANCH  45  47
ENDBRANCH  44  45
ENDBRANCH  43  44
ENDBRANCH  27  43
BRANCH  24  49
ATOM     49  C   UNK d   0     -14.656  -7.784   1.160  0.00  0.00     0.052 C 
BRANCH  49  50
ATOM     50  C   UNK d   0     -14.781  -9.232   0.761  0.00  0.00     0.115 C 
BRANCH  50  51
ATOM     51  C   UNK d   0     -15.025 -10.196   1.825  0.00  0.00     0.139 C 
ATOM     52  O   UNK d   0     -16.113 -10.806   1.949  0.00  0.00    -0.650 OA
BRANCH  51  53
ATOM     53  O   UNK d   0     -14.028 -10.463   2.751  0.00  0.00    -0.776 OA
ATOM     54  H   UNK d   0     -13.433 -11.258   2.593  0.00  0.00     0.167 HD
ENDBRANCH  51  53
ENDBRANCH  50  51
ENDBRANCH  49  50
ENDBRANCH  24  49
BRANCH  21  55
ATOM     55  C   UNK d   0     -14.832  -7.407   4.221  0.00  0.00     0.151 C 
BRANCH  55  56
ATOM     56  C   UNK d   0     -14.351  -6.143   4.800  0.00  0.00     0.143 C 
ATOM     57  O   UNK d   0     -13.602  -5.360   4.183  0.00  0.00    -0.650 OA
BRANCH  56  58
ATOM     58  O   UNK d   0     -14.761  -5.824   6.093  0.00  0.00    -0.776 OA
ATOM     59  H   UNK d   0     -15.737  -6.089   6.319  0.00  0.00     0.167 HD
ENDBRANCH  56  58
ENDBRANCH  55  56
ENDBRANCH  21  55
BRANCH  18  60
ATOM     60  C   UNK d   0     -19.376  -7.600   7.071  0.00  0.00     0.151 C 
BRANCH  60  61
ATOM     61  C   UNK d   0     -18.873  -6.676   8.098  0.00  0.00     0.143 C 
ATOM     62  O   UNK d   0     -19.469  -6.287   9.103  0.00  0.00    -0.650 OA
BRANCH  61  63
ATOM     63  O   UNK d   0     -17.558  -6.196   7.885  0.00  0.00    -0.776 OA
ATOM     64  H   UNK d   0     -16.789  -6.830   7.760  0.00  0.00     0.167 HD
ENDBRANCH  61  63
ENDBRANCH  60  61
ENDBRANCH  18  60
BRANCH  14  65
ATOM     65  C   UNK d   0     -22.259  -6.659   6.956  0.00  0.00     0.052 C 
BRANCH  65  66
ATOM     66  C   UNK d   0     -22.389  -5.581   7.973  0.00  0.00     0.115 C 
BRANCH  66  67
ATOM     67  C   UNK d   0     -23.205  -4.434   7.693  0.00  0.00     0.139 C 
ATOM     68  O   UNK d   0     -22.695  -3.264   7.853  0.00  0.00    -0.650 OA
BRANCH  67  69
ATOM     69  O   UNK d   0     -24.528  -4.414   7.255  0.00  0.00    -0.776 OA
ATOM     70  H   UNK d   0     -25.245  -4.398   7.995  0.00  0.00     0.167 HD
ENDBRANCH  67  69
ENDBRANCH  66  67
ENDBRANCH  65  66
ENDBRANCH  14  65
ENDBRANCH   6   7
ENDBRANCH   5   6
ENDBRANCH   2   5
TORSDOF 28
ENDMDL
MODEL 11
REMARK VINA RESULT:      -9.0      5.628     11.082
REMARK  28 active torsions:
REMARK  status: ('A' for Active; 'I' for Inactive)
REMARK    1  A    between atoms: C_2  and  O_3 
REMARK    2  A    between atoms: C_2  and  C_4 
REMARK    3  A    between atoms: C_4  and  C_5 
REMARK    4  A    between atoms: C_5  and  C_6 
REMARK    5  A    between atoms: C_7  and  C_8 
REMARK    6  A    between atoms: C_8  and  C_9 
REMARK    7  A    between atoms: C_9  and  O_11 
REMARK    8  A    between atoms: C_28  and  C_29 
REMARK    9  A    between atoms: C_29  and  C_30 
REMARK   10  A    between atoms: C_30  and  O_32 
REMARK   11  A    between atoms: C_33  and  C_34 
REMARK   12  A    between atoms: C_34  and  C_35 
REMARK   13  A    between atoms: C_35  and  C_36 
REMARK   14  A    between atoms: C_36  and  O_38 
REMARK   15  A    between atoms: C_39  and  C_40 
REMARK   16  A    between atoms: C_40  and  C_41 
REMARK   17  A    between atoms: C_41  and  C_42 
REMARK   18  A    between atoms: C_42  and  O_44 
REMARK   19  A    between atoms: C_45  and  C_46 
REMARK   20  A    between atoms: C_46  and  C_47 
REMARK   21  A    between atoms: C_47  and  O_49 
REMARK   22  A    between atoms: C_50  and  C_51 
REMARK   23  A    between atoms: C_51  and  C_52 
REMARK   24  A    between atoms: C_52  and  O_54 
REMARK   25  A    between atoms: C_55  and  C_56 
REMARK   26  A    between atoms: C_56  and  C_57 
REMARK   27  A    between atoms: C_57  and  C_58 
REMARK   28  A    between atoms: C_58  and  O_60 
ROOT
ATOM      1  O   UNK d   0     -20.967  -6.113   7.259  0.00  0.00    -0.650 OA
ATOM      2  C   UNK d   0     -20.739  -6.853   6.277  0.00  0.00     0.139 C 
ENDROOT
BRANCH   2   3
ATOM      3  O   UNK d   0     -19.446  -7.232   6.005  0.00  0.00    -0.776 OA
ATOM      4  H   UNK d   0     -19.205  -8.214   5.851  0.00  0.00     0.167 HD
ENDBRANCH   2   3
BRANCH   2   5
ATOM      5  C   UNK d   0     -21.861  -7.316   5.412  0.00  0.00     0.115 C 
BRANCH   5   6
ATOM      6  C   UNK d   0     -22.838  -8.125   6.221  0.00  0.00     0.052 C 
BRANCH   6   7
ATOM      7  C   UNK d   0     -24.046  -7.324   6.644  0.00  0.00    -0.020 A 
ATOM      8  C   UNK d   0     -24.829  -7.541   7.670  0.00  0.00    -0.011 A 
ATOM      9  C   UNK d   0     -25.860  -6.516   7.667  0.00  0.00     0.067 A 
ATOM     10  C   UNK d   0     -26.956  -6.180   8.478  0.00  0.00     0.062 C 
ATOM     11  N   UNK d   0     -25.632  -5.721   6.601  0.00  0.00    -0.248 NA
ATOM     12  C   UNK d   0     -27.678  -4.982   8.472  0.00  0.00     0.041 A 
ATOM     13  N   UNK d   0     -28.127  -4.223   7.455  0.00  0.00    -0.355 N 
ATOM     14  C   UNK d   0     -27.984  -4.366   9.699  0.00  0.00    -0.022 A 
ATOM     15  C   UNK d   0     -28.704  -3.137   8.005  0.00  0.00     0.042 A 
ATOM     16  H   UNK d   0     -28.056  -4.459   6.370  0.00  0.00     0.166 HD
ATOM     17  C   UNK d   0     -29.332  -2.031   7.399  0.00  0.00     0.062 C 
ATOM     18  C   UNK d   0     -28.633  -3.192   9.410  0.00  0.00    -0.013 A 
ATOM     19  C   UNK d   0     -28.919  -1.288   6.322  0.00  0.00     0.067 A 
ATOM     20  N   UNK d   0     -27.896  -1.770   5.611  0.00  0.00    -0.248 NA
ATOM     21  C   UNK d   0     -29.310  -0.029   5.710  0.00  0.00    -0.011 A 
ATOM     22  C   UNK d   0     -27.588  -0.916   4.580  0.00  0.00     0.066 A 
ATOM     23  C   UNK d   0     -26.563  -1.315   3.736  0.00  0.00     0.062 C 
ATOM     24  C   UNK d   0     -28.524   0.185   4.694  0.00  0.00    -0.020 A 
ATOM     25  C   UNK d   0     -25.858  -2.529   3.751  0.00  0.00     0.041 A 
ATOM     26  N   UNK d   0     -25.398  -3.276   4.761  0.00  0.00    -0.355 N 
ATOM     27  C   UNK d   0     -25.555  -3.148   2.519  0.00  0.00    -0.022 A 
ATOM     28  C   UNK d   0     -24.815  -4.355   4.215  0.00  0.00     0.042 A 
ATOM     29  H   UNK d   0     -25.462  -3.032   5.850  0.00  0.00     0.166 HD
ATOM     30  C   UNK d   0     -24.179  -5.458   4.805  0.00  0.00     0.062 C 
ATOM     31  C   UNK d   0     -24.896  -4.305   2.803  0.00  0.00    -0.013 A 
ATOM     32  C   UNK d   0     -24.554  -6.153   5.945  0.00  0.00     0.066 A 
BRANCH   8  33
ATOM     33  C   UNK d   0     -24.710  -8.627   8.660  0.00  0.00     0.151 C 
BRANCH  33  34
ATOM     34  C   UNK d   0     -24.260  -8.149   9.980  0.00  0.00     0.143 C 
ATOM     35  O   UNK d   0     -23.473  -7.197  10.078  0.00  0.00    -0.650 OA
BRANCH  34  36
ATOM     36  O   UNK d   0     -24.722  -8.771  11.117  0.00  0.00    -0.776 OA
ATOM     37  H   UNK d   0     -25.722  -8.768  11.359  0.00  0.00     0.167 HD
ENDBRANCH  34  36
ENDBRANCH  33  34
ENDBRANCH   8  33
BRANCH  31  38
ATOM     38  C   UNK d   0     -24.384  -5.310   1.798  0.00  0.00     0.151 C 
BRANCH  38  39
ATOM     39  C   UNK d   0     -22.946  -5.262   1.638  0.00  0.00     0.143 C 
ATOM     40  O   UNK d   0     -22.268  -6.278   1.406  0.00  0.00    -0.650 OA
BRANCH  39  41
ATOM     41  O   UNK d   0     -22.285  -4.038   1.744  0.00  0.00    -0.776 OA
ATOM     42  H   UNK d   0     -21.492  -3.887   1.113  0.00  0.00     0.167 HD
ENDBRANCH  39  41
ENDBRANCH  38  39
ENDBRANCH  31  38
BRANCH  27  43
ATOM     43  C   UNK d   0     -25.861  -2.690   1.115  0.00  0.00     0.052 C 
BRANCH  43  44
ATOM     44  C   UNK d   0     -25.076  -1.488   0.702  0.00  0.00     0.115 C 
BRANCH  44  45
ATOM     45  C   UNK d   0     -23.999  -1.973  -0.200  0.00  0.00     0.139 C 
ATOM     46  O   UNK d   0     -22.821  -1.604   0.032  0.00  0.00    -0.650 OA
BRANCH  45  47
ATOM     47  O   UNK d   0     -24.239  -2.809  -1.269  0.00  0.00    -0.776 OA
ATOM     48  H   UNK d   0     -24.115  -3.833  -1.218  0.00  0.00     0.167 HD
ENDBRANCH  45  47
ENDBRANCH  44  45
ENDBRANCH  43  44
ENDBRANCH  27  43
BRANCH  24  49
ATOM     49  C   UNK d   0     -28.594   1.328   3.768  0.00  0.00     0.052 C 
BRANCH  49  50
ATOM     50  C   UNK d   0     -27.514   1.222   2.722  0.00  0.00     0.115 C 
BRANCH  50  51
ATOM     51  C   UNK d   0     -26.534   2.298   2.667  0.00  0.00     0.139 C 
ATOM     52  O   UNK d   0     -25.309   2.108   2.856  0.00  0.00    -0.650 OA
BRANCH  51  53
ATOM     53  O   UNK d   0     -26.950   3.593   2.398  0.00  0.00    -0.776 OA
ATOM     54  H   UNK d   0     -26.251   4.310   2.317  0.00  0.00     0.167 HD
ENDBRANCH  51  53
ENDBRANCH  50  51
ENDBRANCH  49  50
ENDBRANCH  24  49
BRANCH  21  55
ATOM     55  C   UNK d   0     -30.430   0.826   6.201  0.00  0.00     0.151 C 
BRANCH  55  56
ATOM     56  C   UNK d   0     -30.190   1.319   7.566  0.00  0.00     0.143 C 
ATOM     57  O   UNK d   0     -31.075   1.332   8.444  0.00  0.00    -0.650 OA
BRANCH  56  58
ATOM     58  O   UNK d   0     -28.913   1.786   7.872  0.00  0.00    -0.776 OA
ATOM     59  H   UNK d   0     -28.168   1.066   7.852  0.00  0.00     0.167 HD
ENDBRANCH  56  58
ENDBRANCH  55  56
ENDBRANCH  21  55
BRANCH  18  60
ATOM     60  C   UNK d   0     -29.137  -2.207  10.436  0.00  0.00     0.151 C 
BRANCH  60  61
ATOM     61  C   UNK d   0     -28.060  -1.221  10.612  0.00  0.00     0.143 C 
ATOM     62  O   UNK d   0     -27.838  -0.232   9.914  0.00  0.00    -0.650 OA
BRANCH  61  63
ATOM     63  O   UNK d   0     -27.200  -1.458  11.712  0.00  0.00    -0.776 OA
ATOM     64  H   UNK d   0     -26.995  -2.392  12.018  0.00  0.00     0.167 HD
ENDBRANCH  61  63
ENDBRANCH  60  61
ENDBRANCH  18  60
BRANCH  14  65
ATOM     65  C   UNK d   0     -27.800  -4.847  11.111  0.00  0.00     0.052 C 
BRANCH  65  66
ATOM     66  C   UNK d   0     -26.408  -5.286  11.398  0.00  0.00     0.115 C 
BRANCH  66  67
ATOM     67  C   UNK d   0     -25.318  -4.373  11.200  0.00  0.00     0.139 C 
ATOM     68  O   UNK d   0     -25.130  -3.444  12.068  0.00  0.00    -0.650 OA
BRANCH  67  69
ATOM     69  O   UNK d   0     -24.399  -4.357  10.151  0.00  0.00    -0.776 OA
ATOM     70  H   UNK d   0     -23.706  -5.120  10.150  0.00  0.00     0.167 HD
ENDBRANCH  67  69
ENDBRANCH  66  67
ENDBRANCH  65  66
ENDBRANCH  14  65
ENDBRANCH   6   7
ENDBRANCH   5   6
ENDBRANCH   2   5
TORSDOF 28
ENDMDL
MODEL 12
REMARK VINA RESULT:      -8.9      6.808     12.883
REMARK  28 active torsions:
REMARK  status: ('A' for Active; 'I' for Inactive)
REMARK    1  A    between atoms: C_2  and  O_3 
REMARK    2  A    between atoms: C_2  and  C_4 
REMARK    3  A    between atoms: C_4  and  C_5 
REMARK    4  A    between atoms: C_5  and  C_6 
REMARK    5  A    between atoms: C_7  and  C_8 
REMARK    6  A    between atoms: C_8  and  C_9 
REMARK    7  A    between atoms: C_9  and  O_11 
REMARK    8  A    between atoms: C_28  and  C_29 
REMARK    9  A    between atoms: C_29  and  C_30 
REMARK   10  A    between atoms: C_30  and  O_32 
REMARK   11  A    between atoms: C_33  and  C_34 
REMARK   12  A    between atoms: C_34  and  C_35 
REMARK   13  A    between atoms: C_35  and  C_36 
REMARK   14  A    between atoms: C_36  and  O_38 
REMARK   15  A    between atoms: C_39  and  C_40 
REMARK   16  A    between atoms: C_40  and  C_41 
REMARK   17  A    between atoms: C_41  and  C_42 
REMARK   18  A    between atoms: C_42  and  O_44 
REMARK   19  A    between atoms: C_45  and  C_46 
REMARK   20  A    between atoms: C_46  and  C_47 
REMARK   21  A    between atoms: C_47  and  O_49 
REMARK   22  A    between atoms: C_50  and  C_51 
REMARK   23  A    between atoms: C_51  and  C_52 
REMARK   24  A    between atoms: C_52  and  O_54 
REMARK   25  A    between atoms: C_55  and  C_56 
REMARK   26  A    between atoms: C_56  and  C_57 
REMARK   27  A    between atoms: C_57  and  C_58 
REMARK   28  A    between atoms: C_58  and  O_60 
ROOT
ATOM      1  O   UNK d   0     -21.072  -5.582   9.065  0.00  0.00    -0.650 OA
ATOM      2  C   UNK d   0     -21.329  -5.711  10.282  0.00  0.00     0.139 C 
ENDROOT
BRANCH   2   3
ATOM      3  O   UNK d   0     -20.921  -4.738  11.163  0.00  0.00    -0.776 OA
ATOM      4  H   UNK d   0     -19.938  -4.641  11.424  0.00  0.00     0.167 HD
ENDBRANCH   2   3
BRANCH   2   5
ATOM      5  C   UNK d   0     -22.069  -6.909  10.768  0.00  0.00     0.115 C 
BRANCH   5   6
ATOM      6  C   UNK d   0     -23.057  -7.364   9.729  0.00  0.00     0.052 C 
BRANCH   6   7
ATOM      7  C   UNK d   0     -24.359  -6.601   9.792  0.00  0.00    -0.020 A 
ATOM      8  C   UNK d   0     -25.284  -6.675  10.714  0.00  0.00    -0.011 A 
ATOM      9  C   UNK d   0     -26.354  -5.764  10.345  0.00  0.00     0.067 A 
ATOM     10  C   UNK d   0     -27.582  -5.367  10.897  0.00  0.00     0.062 C 
ATOM     11  N   UNK d   0     -26.001  -5.181   9.180  0.00  0.00    -0.248 NA
ATOM     12  C   UNK d   0     -28.358  -4.261  10.533  0.00  0.00     0.041 A 
ATOM     13  N   UNK d   0     -28.677  -3.762   9.324  0.00  0.00    -0.355 N 
ATOM     14  C   UNK d   0     -28.890  -3.441  11.545  0.00  0.00    -0.022 A 
ATOM     15  C   UNK d   0     -29.392  -2.642   9.542  0.00  0.00     0.042 A 
ATOM     16  H   UNK d   0     -28.420  -4.204   8.336  0.00  0.00     0.166 HD
ATOM     17  C   UNK d   0     -29.973  -1.737   8.631  0.00  0.00     0.062 C 
ATOM     18  C   UNK d   0     -29.546  -2.408  10.922  0.00  0.00    -0.013 A 
ATOM     19  C   UNK d   0     -29.433  -1.193   7.494  0.00  0.00     0.067 A 
ATOM     20  N   UNK d   0     -28.285  -1.717   7.059  0.00  0.00    -0.248 NA
ATOM     21  C   UNK d   0     -29.787  -0.120   6.579  0.00  0.00    -0.011 A 
ATOM     22  C   UNK d   0     -27.861  -1.064   5.927  0.00  0.00     0.066 A 
ATOM     23  C   UNK d   0     -26.693  -1.535   5.345  0.00  0.00     0.062 C 
ATOM     24  C   UNK d   0     -28.861  -0.047   5.667  0.00  0.00    -0.020 A 
ATOM     25  C   UNK d   0     -25.936  -2.656   5.719  0.00  0.00     0.041 A 
ATOM     26  N   UNK d   0     -25.606  -3.143   6.920  0.00  0.00    -0.355 N 
ATOM     27  C   UNK d   0     -25.406  -3.481   4.703  0.00  0.00    -0.022 A 
ATOM     28  C   UNK d   0     -24.885  -4.256   6.705  0.00  0.00     0.042 A 
ATOM     29  H   UNK d   0     -25.856  -2.693   7.912  0.00  0.00     0.166 HD
ATOM     30  C   UNK d   0     -24.294  -5.160   7.602  0.00  0.00     0.062 C 
ATOM     31  C   UNK d   0     -24.741  -4.496   5.319  0.00  0.00    -0.013 A 
ATOM     32  C   UNK d   0     -24.810  -5.641   8.795  0.00  0.00     0.066 A 
BRANCH   8  33
ATOM     33  C   UNK d   0     -25.267  -7.526  11.918  0.00  0.00     0.151 C 
BRANCH  33  34
ATOM     34  C   UNK d   0     -26.118  -8.722  11.783  0.00  0.00     0.143 C 
ATOM     35  O   UNK d   0     -27.216  -8.789  12.354  0.00  0.00    -0.650 OA
BRANCH  34  36
ATOM     36  O   UNK d   0     -25.684  -9.776  11.013  0.00  0.00    -0.776 OA
ATOM     37  H   UNK d   0     -25.908 -10.749  11.265  0.00  0.00     0.167 HD
ENDBRANCH  34  36
ENDBRANCH  33  34
ENDBRANCH   8  33
BRANCH  31  38
ATOM     38  C   UNK d   0     -24.021  -5.635   4.634  0.00  0.00     0.151 C 
BRANCH  38  39
ATOM     39  C   UNK d   0     -22.690  -5.274   4.194  0.00  0.00     0.143 C 
ATOM     40  O   UNK d   0     -21.738  -5.149   4.985  0.00  0.00    -0.650 OA
BRANCH  39  41
ATOM     41  O   UNK d   0     -22.451  -5.056   2.837  0.00  0.00    -0.776 OA
ATOM     42  H   UNK d   0     -21.539  -5.351   2.476  0.00  0.00     0.167 HD
ENDBRANCH  39  41
ENDBRANCH  38  39
ENDBRANCH  31  38
BRANCH  27  43
ATOM     43  C   UNK d   0     -25.506  -3.341   3.204  0.00  0.00     0.052 C 
BRANCH  43  44
ATOM     44  C   UNK d   0     -26.709  -4.014   2.627  0.00  0.00     0.115 C 
BRANCH  44  45
ATOM     45  C   UNK d   0     -26.214  -5.189   1.865  0.00  0.00     0.139 C 
ATOM     46  O   UNK d   0     -25.088  -5.106   1.314  0.00  0.00    -0.650 OA
BRANCH  45  47
ATOM     47  O   UNK d   0     -26.932  -6.360   1.746  0.00  0.00    -0.776 OA
ATOM     48  H   UNK d   0     -27.035  -7.035   2.521  0.00  0.00     0.167 HD
ENDBRANCH  45  47
ENDBRANCH  44  45
ENDBRANCH  43  44
ENDBRANCH  27  43
BRANCH  24  49
ATOM     49  C   UNK d   0     -28.842   0.877   4.521  0.00  0.00     0.052 C 
BRANCH  49  50
ATOM     50  C   UNK d   0     -27.592   1.720   4.547  0.00  0.00     0.115 C 
BRANCH  50  51
ATOM     51  C   UNK d   0     -26.843   1.836   3.304  0.00  0.00     0.139 C 
ATOM     52  O   UNK d   0     -27.400   1.921   2.184  0.00  0.00    -0.650 OA
BRANCH  51  53
ATOM     53  O   UNK d   0     -25.457   1.854   3.337  0.00  0.00    -0.776 OA
ATOM     54  H   UNK d   0     -24.976   2.524   2.763  0.00  0.00     0.167 HD
ENDBRANCH  51  53
ENDBRANCH  50  51
ENDBRANCH  49  50
ENDBRANCH  24  49
BRANCH  21  55
ATOM     55  C   UNK d   0     -31.016   0.717   6.710  0.00  0.00     0.151 C 
BRANCH  55  56
ATOM     56  C   UNK d   0     -31.177   1.252   8.071  0.00  0.00     0.143 C 
ATOM     57  O   UNK d   0     -30.260   1.842   8.676  0.00  0.00    -0.650 OA
BRANCH  56  58
ATOM     58  O   UNK d   0     -32.412   1.083   8.693  0.00  0.00    -0.776 OA
ATOM     59  H   UNK d   0     -32.620   0.114   8.995  0.00  0.00     0.167 HD
ENDBRANCH  56  58
ENDBRANCH  55  56
ENDBRANCH  21  55
BRANCH  18  60
ATOM     60  C   UNK d   0     -30.260  -1.284  11.633  0.00  0.00     0.151 C 
BRANCH  60  61
ATOM     61  C   UNK d   0     -31.695  -1.593  11.536  0.00  0.00     0.143 C 
ATOM     62  O   UNK d   0     -32.229  -2.693  11.682  0.00  0.00    -0.650 OA
BRANCH  61  63
ATOM     63  O   UNK d   0     -32.530  -0.488  11.243  0.00  0.00    -0.776 OA
ATOM     64  H   UNK d   0     -32.151   0.437  11.144  0.00  0.00     0.167 HD
ENDBRANCH  61  63
ENDBRANCH  60  61
ENDBRANCH  18  60
BRANCH  14  65
ATOM     65  C   UNK d   0     -28.909  -3.611  13.037  0.00  0.00     0.052 C 
BRANCH  65  66
ATOM     66  C   UNK d   0     -29.912  -4.609  13.496  0.00  0.00     0.115 C 
BRANCH  66  67
ATOM     67  C   UNK d   0     -30.834  -4.263  14.541  0.00  0.00     0.139 C 
ATOM     68  O   UNK d   0     -31.001  -3.020  14.825  0.00  0.00    -0.650 OA
BRANCH  67  69
ATOM     69  O   UNK d   0     -31.602  -5.126  15.321  0.00  0.00    -0.776 OA
ATOM     70  H   UNK d   0     -32.353  -5.629  14.827  0.00  0.00     0.167 HD
ENDBRANCH  67  69
ENDBRANCH  66  67
ENDBRANCH  65  66
ENDBRANCH  14  65
ENDBRANCH   6   7
ENDBRANCH   5   6
ENDBRANCH   2   5
TORSDOF 28
ENDMDL
MODEL 13
REMARK VINA RESULT:      -8.9      6.815     12.737
REMARK  28 active torsions:
REMARK  status: ('A' for Active; 'I' for Inactive)
REMARK    1  A    between atoms: C_2  and  O_3 
REMARK    2  A    between atoms: C_2  and  C_4 
REMARK    3  A    between atoms: C_4  and  C_5 
REMARK    4  A    between atoms: C_5  and  C_6 
REMARK    5  A    between atoms: C_7  and  C_8 
REMARK    6  A    between atoms: C_8  and  C_9 
REMARK    7  A    between atoms: C_9  and  O_11 
REMARK    8  A    between atoms: C_28  and  C_29 
REMARK    9  A    between atoms: C_29  and  C_30 
REMARK   10  A    between atoms: C_30  and  O_32 
REMARK   11  A    between atoms: C_33  and  C_34 
REMARK   12  A    between atoms: C_34  and  C_35 
REMARK   13  A    between atoms: C_35  and  C_36 
REMARK   14  A    between atoms: C_36  and  O_38 
REMARK   15  A    between atoms: C_39  and  C_40 
REMARK   16  A    between atoms: C_40  and  C_41 
REMARK   17  A    between atoms: C_41  and  C_42 
REMARK   18  A    between atoms: C_42  and  O_44 
REMARK   19  A    between atoms: C_45  and  C_46 
REMARK   20  A    between atoms: C_46  and  C_47 
REMARK   21  A    between atoms: C_47  and  O_49 
REMARK   22  A    between atoms: C_50  and  C_51 
REMARK   23  A    between atoms: C_51  and  C_52 
REMARK   24  A    between atoms: C_52  and  O_54 
REMARK   25  A    between atoms: C_55  and  C_56 
REMARK   26  A    between atoms: C_56  and  C_57 
REMARK   27  A    between atoms: C_57  and  C_58 
REMARK   28  A    between atoms: C_58  and  O_60 
ROOT
ATOM      1  O   UNK d   0     -31.545  -3.758  15.632  0.00  0.00    -0.650 OA
ATOM      2  C   UNK d   0     -31.398  -4.558  14.681  0.00  0.00     0.139 C 
ENDROOT
BRANCH   2   3
ATOM      3  O   UNK d   0     -32.498  -5.198  14.163  0.00  0.00    -0.776 OA
ATOM      4  H   UNK d   0     -33.444  -4.860  14.354  0.00  0.00     0.167 HD
ENDBRANCH   2   3
BRANCH   2   5
ATOM      5  C   UNK d   0     -30.041  -4.812  14.121  0.00  0.00     0.115 C 
BRANCH   5   6
ATOM      6  C   UNK d   0     -29.382  -3.511  13.748  0.00  0.00     0.052 C 
BRANCH   6   7
ATOM      7  C   UNK d   0     -29.404  -3.254  12.261  0.00  0.00    -0.020 A 
ATOM      8  C   UNK d   0     -30.315  -2.611  11.575  0.00  0.00    -0.011 A 
ATOM      9  C   UNK d   0     -29.913  -2.625  10.179  0.00  0.00     0.067 A 
ATOM     10  C   UNK d   0     -30.420  -2.113   8.974  0.00  0.00     0.062 C 
ATOM     11  N   UNK d   0     -28.749  -3.304  10.104  0.00  0.00    -0.248 NA
ATOM     12  C   UNK d   0     -29.744  -1.990   7.755  0.00  0.00     0.041 A 
ATOM     13  N   UNK d   0     -28.915  -2.835   7.112  0.00  0.00    -0.355 N 
ATOM     14  C   UNK d   0     -29.851  -0.786   7.036  0.00  0.00    -0.022 A 
ATOM     15  C   UNK d   0     -28.488  -2.194   6.007  0.00  0.00     0.042 A 
ATOM     16  H   UNK d   0     -28.653  -3.870   7.422  0.00  0.00     0.166 HD
ATOM     17  C   UNK d   0     -27.612  -2.617   4.987  0.00  0.00     0.062 C 
ATOM     18  C   UNK d   0     -29.052  -0.907   5.926  0.00  0.00    -0.013 A 
ATOM     19  C   UNK d   0     -26.409  -3.267   5.098  0.00  0.00     0.067 A 
ATOM     20  N   UNK d   0     -26.092  -3.750   6.302  0.00  0.00    -0.248 NA
ATOM     21  C   UNK d   0     -25.306  -3.582   4.206  0.00  0.00    -0.011 A 
ATOM     22  C   UNK d   0     -24.860  -4.357   6.262  0.00  0.00     0.066 A 
ATOM     23  C   UNK d   0     -24.421  -4.939   7.442  0.00  0.00     0.062 C 
ATOM     24  C   UNK d   0     -24.401  -4.217   4.894  0.00  0.00    -0.020 A 
ATOM     25  C   UNK d   0     -25.121  -5.063   8.652  0.00  0.00     0.041 A 
ATOM     26  N   UNK d   0     -25.933  -4.218   9.299  0.00  0.00    -0.355 N 
ATOM     27  C   UNK d   0     -25.017  -6.274   9.371  0.00  0.00    -0.022 A 
ATOM     28  C   UNK d   0     -26.354  -4.852  10.406  0.00  0.00     0.042 A 
ATOM     29  H   UNK d   0     -26.186  -3.174   8.992  0.00  0.00     0.166 HD
ATOM     30  C   UNK d   0     -27.217  -4.440  11.433  0.00  0.00     0.062 C 
ATOM     31  C   UNK d   0     -25.794  -6.149  10.481  0.00  0.00    -0.013 A 
ATOM     32  C   UNK d   0     -28.389  -3.708  11.322  0.00  0.00     0.066 A 
BRANCH   8  33
ATOM     33  C   UNK d   0     -31.539  -1.981  12.103  0.00  0.00     0.151 C 
BRANCH  33  34
ATOM     34  C   UNK d   0     -31.588  -0.529  11.852  0.00  0.00     0.143 C 
ATOM     35  O   UNK d   0     -30.638   0.203  12.163  0.00  0.00    -0.650 OA
BRANCH  34  36
ATOM     36  O   UNK d   0     -32.706   0.017  11.265  0.00  0.00    -0.776 OA
ATOM     37  H   UNK d   0     -33.482   0.384  11.833  0.00  0.00     0.167 HD
ENDBRANCH  34  36
ENDBRANCH  33  34
ENDBRANCH   8  33
BRANCH  31  38
ATOM     38  C   UNK d   0     -26.005  -7.201  11.545  0.00  0.00     0.151 C 
BRANCH  38  39
ATOM     39  C   UNK d   0     -24.764  -7.672  12.123  0.00  0.00     0.143 C 
ATOM     40  O   UNK d   0     -23.904  -6.895  12.575  0.00  0.00    -0.650 OA
BRANCH  39  41
ATOM     41  O   UNK d   0     -24.512  -9.042  12.185  0.00  0.00    -0.776 OA
ATOM     42  H   UNK d   0     -23.606  -9.361  11.826  0.00  0.00     0.167 HD
ENDBRANCH  39  41
ENDBRANCH  38  39
ENDBRANCH  31  38
BRANCH  27  43
ATOM     43  C   UNK d   0     -24.222  -7.515   9.048  0.00  0.00     0.052 C 
BRANCH  43  44
ATOM     44  C   UNK d   0     -24.752  -8.267   7.871  0.00  0.00     0.115 C 
BRANCH  44  45
ATOM     45  C   UNK d   0     -25.843  -9.138   8.380  0.00  0.00     0.139 C 
ATOM     46  O   UNK d   0     -26.946  -9.116   7.781  0.00  0.00    -0.650 OA
BRANCH  45  47
ATOM     47  O   UNK d   0     -25.690  -9.966   9.471  0.00  0.00    -0.776 OA
ATOM     48  H   UNK d   0     -25.395  -9.622  10.399  0.00  0.00     0.167 HD
ENDBRANCH  45  47
ENDBRANCH  44  45
ENDBRANCH  43  44
ENDBRANCH  27  43
BRANCH  24  49
ATOM     49  C   UNK d   0     -23.134  -4.757   4.373  0.00  0.00     0.052 C 
BRANCH  49  50
ATOM     50  C   UNK d   0     -22.714  -5.968   5.165  0.00  0.00     0.115 C 
BRANCH  50  51
ATOM     51  C   UNK d   0     -21.305  -6.336   5.120  0.00  0.00     0.139 C 
ATOM     52  O   UNK d   0     -20.764  -6.812   4.095  0.00  0.00    -0.650 OA
BRANCH  51  53
ATOM     53  O   UNK d   0     -20.514  -6.165   6.246  0.00  0.00    -0.776 OA
ATOM     54  H   UNK d   0     -20.838  -6.546   7.117  0.00  0.00     0.167 HD
ENDBRANCH  51  53
ENDBRANCH  50  51
ENDBRANCH  49  50
ENDBRANCH  24  49
BRANCH  21  55
ATOM     55  C   UNK d   0     -25.274  -3.221   2.758  0.00  0.00     0.151 C 
BRANCH  55  56
ATOM     56  C   UNK d   0     -26.176  -4.064   1.958  0.00  0.00     0.143 C 
ATOM     57  O   UNK d   0     -26.315  -5.286   2.163  0.00  0.00    -0.650 OA
BRANCH  56  58
ATOM     58  O   UNK d   0     -26.896  -3.454   0.933  0.00  0.00    -0.776 OA
ATOM     59  H   UNK d   0     -26.328  -2.887   0.278  0.00  0.00     0.167 HD
ENDBRANCH  56  58
ENDBRANCH  55  56
ENDBRANCH  21  55
BRANCH  18  60
ATOM     60  C   UNK d   0     -28.863   0.161   4.877  0.00  0.00     0.151 C 
BRANCH  60  61
ATOM     61  C   UNK d   0     -27.709   0.960   5.318  0.00  0.00     0.143 C 
ATOM     62  O   UNK d   0     -26.528   0.615   5.329  0.00  0.00    -0.650 OA
BRANCH  61  63
ATOM     63  O   UNK d   0     -28.019   2.264   5.775  0.00  0.00    -0.776 OA
ATOM     64  H   UNK d   0     -28.735   2.812   5.331  0.00  0.00     0.167 HD
ENDBRANCH  61  63
ENDBRANCH  60  61
ENDBRANCH  18  60
BRANCH  14  65
ATOM     65  C   UNK d   0     -30.717   0.420   7.265  0.00  0.00     0.052 C 
BRANCH  65  66
ATOM     66  C   UNK d   0     -30.534   1.021   8.613  0.00  0.00     0.115 C 
BRANCH  66  67
ATOM     67  C   UNK d   0     -29.217   1.380   9.059  0.00  0.00     0.139 C 
ATOM     68  O   UNK d   0     -28.655   2.415   8.541  0.00  0.00    -0.650 OA
BRANCH  67  69
ATOM     69  O   UNK d   0     -28.433   0.735  10.014  0.00  0.00    -0.776 OA
ATOM     70  H   UNK d   0     -27.703   0.108   9.646  0.00  0.00     0.167 HD
ENDBRANCH  67  69
ENDBRANCH  66  67
ENDBRANCH  65  66
ENDBRANCH  14  65
ENDBRANCH   6   7
ENDBRANCH   5   6
ENDBRANCH   2   5
TORSDOF 28
ENDMDL
MODEL 14
REMARK VINA RESULT:      -8.8      2.427      8.778
REMARK  28 active torsions:
REMARK  status: ('A' for Active; 'I' for Inactive)
REMARK    1  A    between atoms: C_2  and  O_3 
REMARK    2  A    between atoms: C_2  and  C_4 
REMARK    3  A    between atoms: C_4  and  C_5 
REMARK    4  A    between atoms: C_5  and  C_6 
REMARK    5  A    between atoms: C_7  and  C_8 
REMARK    6  A    between atoms: C_8  and  C_9 
REMARK    7  A    between atoms: C_9  and  O_11 
REMARK    8  A    between atoms: C_28  and  C_29 
REMARK    9  A    between atoms: C_29  and  C_30 
REMARK   10  A    between atoms: C_30  and  O_32 
REMARK   11  A    between atoms: C_33  and  C_34 
REMARK   12  A    between atoms: C_34  and  C_35 
REMARK   13  A    between atoms: C_35  and  C_36 
REMARK   14  A    between atoms: C_36  and  O_38 
REMARK   15  A    between atoms: C_39  and  C_40 
REMARK   16  A    between atoms: C_40  and  C_41 
REMARK   17  A    between atoms: C_41  and  C_42 
REMARK   18  A    between atoms: C_42  and  O_44 
REMARK   19  A    between atoms: C_45  and  C_46 
REMARK   20  A    between atoms: C_46  and  C_47 
REMARK   21  A    between atoms: C_47  and  O_49 
REMARK   22  A    between atoms: C_50  and  C_51 
REMARK   23  A    between atoms: C_51  and  C_52 
REMARK   24  A    between atoms: C_52  and  O_54 
REMARK   25  A    between atoms: C_55  and  C_56 
REMARK   26  A    between atoms: C_56  and  C_57 
REMARK   27  A    between atoms: C_57  and  C_58 
REMARK   28  A    between atoms: C_58  and  O_60 
ROOT
ATOM      1  O   UNK d   0     -19.461  -4.875  -5.581  0.00  0.00    -0.650 OA
ATOM      2  C   UNK d   0     -20.349  -4.231  -4.980  0.00  0.00     0.139 C 
ENDROOT
BRANCH   2   3
ATOM      3  O   UNK d   0     -20.929  -3.147  -5.595  0.00  0.00    -0.776 OA
ATOM      4  H   UNK d   0     -21.791  -2.734  -5.233  0.00  0.00     0.167 HD
ENDBRANCH   2   3
BRANCH   2   5
ATOM      5  C   UNK d   0     -20.771  -4.638  -3.609  0.00  0.00     0.115 C 
BRANCH   5   6
ATOM      6  C   UNK d   0     -20.286  -6.031  -3.311  0.00  0.00     0.052 C 
BRANCH   6   7
ATOM      7  C   UNK d   0     -19.988  -6.242  -1.846  0.00  0.00    -0.020 A 
ATOM      8  C   UNK d   0     -18.870  -6.660  -1.311  0.00  0.00    -0.011 A 
ATOM      9  C   UNK d   0     -19.058  -6.714   0.129  0.00  0.00     0.067 A 
ATOM     10  C   UNK d   0     -18.270  -7.047   1.242  0.00  0.00     0.062 C 
ATOM     11  N   UNK d   0     -20.323  -6.317   0.383  0.00  0.00    -0.248 NA
ATOM     12  C   UNK d   0     -18.542  -6.770   2.586  0.00  0.00     0.041 A 
ATOM     13  N   UNK d   0     -19.682  -6.861   3.297  0.00  0.00    -0.355 N 
ATOM     14  C   UNK d   0     -17.515  -6.251   3.395  0.00  0.00    -0.022 A 
ATOM     15  C   UNK d   0     -19.406  -6.406   4.534  0.00  0.00     0.042 A 
ATOM     16  H   UNK d   0     -20.657  -7.257   2.937  0.00  0.00     0.166 HD
ATOM     17  C   UNK d   0     -20.234  -6.284   5.667  0.00  0.00     0.062 C 
ATOM     18  C   UNK d   0     -18.057  -6.014   4.633  0.00  0.00    -0.013 A 
ATOM     19  C   UNK d   0     -21.513  -5.796   5.753  0.00  0.00     0.067 A 
ATOM     20  N   UNK d   0     -22.157  -5.582   4.603  0.00  0.00    -0.248 NA
ATOM     21  C   UNK d   0     -22.414  -5.408   6.826  0.00  0.00    -0.011 A 
ATOM     22  C   UNK d   0     -23.413  -5.081   4.845  0.00  0.00     0.066 A 
ATOM     23  C   UNK d   0     -24.209  -4.848   3.734  0.00  0.00     0.062 C 
ATOM     24  C   UNK d   0     -23.522  -4.987   6.288  0.00  0.00    -0.020 A 
ATOM     25  C   UNK d   0     -23.922  -5.145   2.392  0.00  0.00     0.041 A 
ATOM     26  N   UNK d   0     -22.793  -5.041   1.682  0.00  0.00    -0.355 N 
ATOM     27  C   UNK d   0     -24.952  -5.670   1.582  0.00  0.00    -0.022 A 
ATOM     28  C   UNK d   0     -23.067  -5.486   0.445  0.00  0.00     0.042 A 
ATOM     29  H   UNK d   0     -21.816  -4.633   2.042  0.00  0.00     0.166 HD
ATOM     30  C   UNK d   0     -22.256  -5.604  -0.694  0.00  0.00     0.062 C 
ATOM     31  C   UNK d   0     -24.420  -5.889   0.349  0.00  0.00    -0.013 A 
ATOM     32  C   UNK d   0     -20.935  -6.018  -0.764  0.00  0.00     0.066 A 
BRANCH   8  33
ATOM     33  C   UNK d   0     -17.630  -7.024  -2.022  0.00  0.00     0.151 C 
BRANCH  33  34
ATOM     34  C   UNK d   0     -17.596  -8.442  -2.421  0.00  0.00     0.143 C 
ATOM     35  O   UNK d   0     -17.216  -9.317  -1.630  0.00  0.00    -0.650 OA
BRANCH  34  36
ATOM     36  O   UNK d   0     -17.990  -8.796  -3.691  0.00  0.00    -0.776 OA
ATOM     37  H   UNK d   0     -17.596  -8.334  -4.521  0.00  0.00     0.167 HD
ENDBRANCH  34  36
ENDBRANCH  33  34
ENDBRANCH   8  33
BRANCH  31  38
ATOM     38  C   UNK d   0     -25.146  -6.459  -0.847  0.00  0.00     0.151 C 
BRANCH  38  39
ATOM     39  C   UNK d   0     -25.467  -5.456  -1.840  0.00  0.00     0.143 C 
ATOM     40  O   UNK d   0     -25.737  -4.281  -1.535  0.00  0.00    -0.650 OA
BRANCH  39  41
ATOM     41  O   UNK d   0     -25.478  -5.805  -3.190  0.00  0.00    -0.776 OA
ATOM     42  H   UNK d   0     -24.880  -6.589  -3.468  0.00  0.00     0.167 HD
ENDBRANCH  39  41
ENDBRANCH  38  39
ENDBRANCH  31  38
BRANCH  27  43
ATOM     43  C   UNK d   0     -26.391  -5.961   1.930  0.00  0.00     0.052 C 
BRANCH  43  44
ATOM     44  C   UNK d   0     -27.351  -4.973   1.351  0.00  0.00     0.115 C 
BRANCH  44  45
ATOM     45  C   UNK d   0     -26.928  -3.635   1.839  0.00  0.00     0.139 C 
ATOM     46  O   UNK d   0     -27.021  -3.397   3.069  0.00  0.00    -0.650 OA
BRANCH  45  47
ATOM     47  O   UNK d   0     -26.438  -2.655   1.003  0.00  0.00    -0.776 OA
ATOM     48  H   UNK d   0     -26.854  -1.711   0.942  0.00  0.00     0.167 HD
ENDBRANCH  45  47
ENDBRANCH  44  45
ENDBRANCH  43  44
ENDBRANCH  27  43
BRANCH  24  49
ATOM     49  C   UNK d   0     -24.721  -4.533   7.013  0.00  0.00     0.052 C 
BRANCH  49  50
ATOM     50  C   UNK d   0     -25.757  -5.628   7.050  0.00  0.00     0.115 C 
BRANCH  50  51
ATOM     51  C   UNK d   0     -26.627  -5.681   8.217  0.00  0.00     0.139 C 
ATOM     52  O   UNK d   0     -27.835  -6.006   8.146  0.00  0.00    -0.650 OA
BRANCH  51  53
ATOM     53  O   UNK d   0     -26.118  -5.361   9.467  0.00  0.00    -0.776 OA
ATOM     54  H   UNK d   0     -25.224  -4.905   9.514  0.00  0.00     0.167 HD
ENDBRANCH  51  53
ENDBRANCH  50  51
ENDBRANCH  49  50
ENDBRANCH  24  49
BRANCH  21  55
ATOM     55  C   UNK d   0     -22.074  -5.503   8.276  0.00  0.00     0.151 C 
BRANCH  55  56
ATOM     56  C   UNK d   0     -22.947  -6.450   8.986  0.00  0.00     0.143 C 
ATOM     57  O   UNK d   0     -23.342  -7.517   8.476  0.00  0.00    -0.650 OA
BRANCH  56  58
ATOM     58  O   UNK d   0     -23.339  -6.125  10.284  0.00  0.00    -0.776 OA
ATOM     59  H   UNK d   0     -23.554  -6.936  10.891  0.00  0.00     0.167 HD
ENDBRANCH  56  58
ENDBRANCH  55  56
ENDBRANCH  21  55
BRANCH  18  60
ATOM     60  C   UNK d   0     -17.306  -5.446   5.812  0.00  0.00     0.151 C 
BRANCH  60  61
ATOM     61  C   UNK d   0     -17.194  -6.543   6.786  0.00  0.00     0.143 C 
ATOM     62  O   UNK d   0     -17.172  -7.750   6.544  0.00  0.00    -0.650 OA
BRANCH  61  63
ATOM     63  O   UNK d   0     -17.102  -6.139   8.139  0.00  0.00    -0.776 OA
ATOM     64  H   UNK d   0     -16.227  -5.839   8.532  0.00  0.00     0.167 HD
ENDBRANCH  61  63
ENDBRANCH  60  61
ENDBRANCH  18  60
BRANCH  14  65
ATOM     65  C   UNK d   0     -16.051  -6.057   3.117  0.00  0.00     0.052 C 
BRANCH  65  66
ATOM     66  C   UNK d   0     -15.415  -7.248   2.491  0.00  0.00     0.115 C 
BRANCH  66  67
ATOM     67  C   UNK d   0     -14.825  -8.259   3.322  0.00  0.00     0.139 C 
ATOM     68  O   UNK d   0     -14.730  -8.037   4.585  0.00  0.00    -0.650 OA
BRANCH  67  69
ATOM     69  O   UNK d   0     -14.322  -9.499   2.930  0.00  0.00    -0.776 OA
ATOM     70  H   UNK d   0     -14.075 -10.145   3.694  0.00  0.00     0.167 HD
ENDBRANCH  67  69
ENDBRANCH  66  67
ENDBRANCH  65  66
ENDBRANCH  14  65
ENDBRANCH   6   7
ENDBRANCH   5   6
ENDBRANCH   2   5
TORSDOF 28
ENDMDL
MODEL 15
REMARK VINA RESULT:      -8.8      5.358     11.230
REMARK  28 active torsions:
REMARK  status: ('A' for Active; 'I' for Inactive)
REMARK    1  A    between atoms: C_2  and  O_3 
REMARK    2  A    between atoms: C_2  and  C_4 
REMARK    3  A    between atoms: C_4  and  C_5 
REMARK    4  A    between atoms: C_5  and  C_6 
REMARK    5  A    between atoms: C_7  and  C_8 
REMARK    6  A    between atoms: C_8  and  C_9 
REMARK    7  A    between atoms: C_9  and  O_11 
REMARK    8  A    between atoms: C_28  and  C_29 
REMARK    9  A    between atoms: C_29  and  C_30 
REMARK   10  A    between atoms: C_30  and  O_32 
REMARK   11  A    between atoms: C_33  and  C_34 
REMARK   12  A    between atoms: C_34  and  C_35 
REMARK   13  A    between atoms: C_35  and  C_36 
REMARK   14  A    between atoms: C_36  and  O_38 
REMARK   15  A    between atoms: C_39  and  C_40 
REMARK   16  A    between atoms: C_40  and  C_41 
REMARK   17  A    between atoms: C_41  and  C_42 
REMARK   18  A    between atoms: C_42  and  O_44 
REMARK   19  A    between atoms: C_45  and  C_46 
REMARK   20  A    between atoms: C_46  and  C_47 
REMARK   21  A    between atoms: C_47  and  O_49 
REMARK   22  A    between atoms: C_50  and  C_51 
REMARK   23  A    between atoms: C_51  and  C_52 
REMARK   24  A    between atoms: C_52  and  O_54 
REMARK   25  A    between atoms: C_55  and  C_56 
REMARK   26  A    between atoms: C_56  and  C_57 
REMARK   27  A    between atoms: C_57  and  C_58 
REMARK   28  A    between atoms: C_58  and  O_60 
ROOT
ATOM      1  O   UNK d   0     -23.336  -2.109   0.340  0.00  0.00    -0.650 OA
ATOM      2  C   UNK d   0     -24.570  -2.043   0.146  0.00  0.00     0.139 C 
ENDROOT
BRANCH   2   3
ATOM      3  O   UNK d   0     -25.218  -3.108  -0.432  0.00  0.00    -0.776 OA
ATOM      4  H   UNK d   0     -26.234  -3.206  -0.367  0.00  0.00     0.167 HD
ENDBRANCH   2   3
BRANCH   2   5
ATOM      5  C   UNK d   0     -25.325  -0.820   0.538  0.00  0.00     0.115 C 
BRANCH   5   6
ATOM      6  C   UNK d   0     -26.595  -1.201   1.248  0.00  0.00     0.052 C 
BRANCH   6   7
ATOM      7  C   UNK d   0     -26.454  -1.166   2.751  0.00  0.00    -0.020 A 
ATOM      8  C   UNK d   0     -26.819  -0.209   3.565  0.00  0.00    -0.011 A 
ATOM      9  C   UNK d   0     -26.475  -0.618   4.917  0.00  0.00     0.067 A 
ATOM     10  C   UNK d   0     -26.612  -0.078   6.205  0.00  0.00     0.062 C 
ATOM     11  N   UNK d   0     -25.899  -1.836   4.832  0.00  0.00    -0.248 NA
ATOM     12  C   UNK d   0     -26.469  -0.748   7.424  0.00  0.00     0.041 A 
ATOM     13  N   UNK d   0     -25.558  -1.648   7.840  0.00  0.00    -0.355 N 
ATOM     14  C   UNK d   0     -27.432  -0.544   8.430  0.00  0.00    -0.022 A 
ATOM     15  C   UNK d   0     -25.923  -2.027   9.079  0.00  0.00     0.042 A 
ATOM     16  H   UNK d   0     -24.664  -1.994   7.275  0.00  0.00     0.166 HD
ATOM     17  C   UNK d   0     -25.323  -2.941   9.968  0.00  0.00     0.062 C 
ATOM     18  C   UNK d   0     -27.093  -1.356   9.483  0.00  0.00    -0.013 A 
ATOM     19  C   UNK d   0     -24.826  -4.193   9.712  0.00  0.00     0.067 A 
ATOM     20  N   UNK d   0     -24.700  -4.543   8.430  0.00  0.00    -0.248 NA
ATOM     21  C   UNK d   0     -24.381  -5.324  10.510  0.00  0.00    -0.011 A 
ATOM     22  C   UNK d   0     -24.208  -5.822   8.331  0.00  0.00     0.066 A 
ATOM     23  C   UNK d   0     -23.991  -6.301   7.047  0.00  0.00     0.062 C 
ATOM     24  C   UNK d   0     -24.025  -6.275   9.695  0.00  0.00    -0.020 A 
ATOM     25  C   UNK d   0     -24.129  -5.607   5.835  0.00  0.00     0.041 A 
ATOM     26  N   UNK d   0     -25.043  -4.724   5.417  0.00  0.00    -0.355 N 
ATOM     27  C   UNK d   0     -23.160  -5.809   4.828  0.00  0.00    -0.022 A 
ATOM     28  C   UNK d   0     -24.687  -4.351   4.177  0.00  0.00     0.042 A 
ATOM     29  H   UNK d   0     -25.947  -4.385   5.981  0.00  0.00     0.166 HD
ATOM     30  C   UNK d   0     -25.279  -3.450   3.278  0.00  0.00     0.062 C 
ATOM     31  C   UNK d   0     -23.505  -5.018   3.776  0.00  0.00    -0.013 A 
ATOM     32  C   UNK d   0     -25.857  -2.222   3.556  0.00  0.00     0.066 A 
BRANCH   8  33
ATOM     33  C   UNK d   0     -27.461   1.068   3.199  0.00  0.00     0.151 C 
BRANCH  33  34
ATOM     34  C   UNK d   0     -26.499   2.070   2.707  0.00  0.00     0.143 C 
ATOM     35  O   UNK d   0     -25.329   2.083   3.116  0.00  0.00    -0.650 OA
BRANCH  34  36
ATOM     36  O   UNK d   0     -26.908   3.003   1.783  0.00  0.00    -0.776 OA
ATOM     37  H   UNK d   0     -27.354   2.720   0.900  0.00  0.00     0.167 HD
ENDBRANCH  34  36
ENDBRANCH  33  34
ENDBRANCH   8  33
BRANCH  31  38
ATOM     38  C   UNK d   0     -22.752  -4.890   2.472  0.00  0.00     0.151 C 
BRANCH  38  39
ATOM     39  C   UNK d   0     -23.246  -5.785   1.448  0.00  0.00     0.143 C 
ATOM     40  O   UNK d   0     -24.382  -5.670   0.955  0.00  0.00    -0.650 OA
BRANCH  39  41
ATOM     41  O   UNK d   0     -22.430  -6.818   0.987  0.00  0.00    -0.776 OA
ATOM     42  H   UNK d   0     -22.278  -7.605   1.625  0.00  0.00     0.167 HD
ENDBRANCH  39  41
ENDBRANCH  38  39
ENDBRANCH  31  38
BRANCH  27  43
ATOM     43  C   UNK d   0     -21.948  -6.707   4.830  0.00  0.00     0.052 C 
BRANCH  43  44
ATOM     44  C   UNK d   0     -20.865  -6.236   5.744  0.00  0.00     0.115 C 
BRANCH  44  45
ATOM     45  C   UNK d   0     -19.586  -6.389   5.002  0.00  0.00     0.139 C 
ATOM     46  O   UNK d   0     -18.547  -6.645   5.659  0.00  0.00    -0.650 OA
BRANCH  45  47
ATOM     47  O   UNK d   0     -19.499  -6.268   3.632  0.00  0.00    -0.776 OA
ATOM     48  H   UNK d   0     -20.196  -5.755   3.069  0.00  0.00     0.167 HD
ENDBRANCH  45  47
ENDBRANCH  44  45
ENDBRANCH  43  44
ENDBRANCH  27  43
BRANCH  24  49
ATOM     49  C   UNK d   0     -23.475  -7.587  10.079  0.00  0.00     0.052 C 
BRANCH  49  50
ATOM     50  C   UNK d   0     -24.565  -8.473  10.626  0.00  0.00     0.115 C 
BRANCH  50  51
ATOM     51  C   UNK d   0     -25.667  -8.800   9.731  0.00  0.00     0.139 C 
ATOM     52  O   UNK d   0     -25.505  -9.439   8.665  0.00  0.00    -0.650 OA
BRANCH  51  53
ATOM     53  O   UNK d   0     -26.954  -8.396  10.052  0.00  0.00    -0.776 OA
ATOM     54  H   UNK d   0     -27.102  -7.934  10.932  0.00  0.00     0.167 HD
ENDBRANCH  51  53
ENDBRANCH  50  51
ENDBRANCH  49  50
ENDBRANCH  24  49
BRANCH  21  55
ATOM     55  C   UNK d   0     -24.355  -5.334  12.002  0.00  0.00     0.151 C 
BRANCH  55  56
ATOM     56  C   UNK d   0     -23.218  -4.572  12.539  0.00  0.00     0.143 C 
ATOM     57  O   UNK d   0     -23.265  -3.966  13.628  0.00  0.00    -0.650 OA
BRANCH  56  58
ATOM     58  O   UNK d   0     -22.046  -4.536  11.785  0.00  0.00    -0.776 OA
ATOM     59  H   UNK d   0     -21.214  -4.178  12.288  0.00  0.00     0.167 HD
ENDBRANCH  56  58
ENDBRANCH  55  56
ENDBRANCH  21  55
BRANCH  18  60
ATOM     60  C   UNK d   0     -27.863  -1.461  10.776  0.00  0.00     0.151 C 
BRANCH  60  61
ATOM     61  C   UNK d   0     -28.381  -2.837  10.827  0.00  0.00     0.143 C 
ATOM     62  O   UNK d   0     -28.965  -3.444   9.929  0.00  0.00    -0.650 OA
BRANCH  61  63
ATOM     63  O   UNK d   0     -28.172  -3.515  12.052  0.00  0.00    -0.776 OA
ATOM     64  H   UNK d   0     -28.870  -4.130  12.430  0.00  0.00     0.167 HD
ENDBRANCH  61  63
ENDBRANCH  60  61
ENDBRANCH  18  60
BRANCH  14  65
ATOM     65  C   UNK d   0     -28.580   0.422   8.508  0.00  0.00     0.052 C 
BRANCH  65  66
ATOM     66  C   UNK d   0     -29.721   0.042   7.633  0.00  0.00     0.115 C 
BRANCH  66  67
ATOM     67  C   UNK d   0     -30.075  -1.342   7.486  0.00  0.00     0.139 C 
ATOM     68  O   UNK d   0     -29.612  -1.990   6.476  0.00  0.00    -0.650 OA
BRANCH  67  69
ATOM     69  O   UNK d   0     -30.884  -2.109   8.323  0.00  0.00    -0.776 OA
ATOM     70  H   UNK d   0     -31.886  -1.867   8.323  0.00  0.00     0.167 HD
ENDBRANCH  67  69
ENDBRANCH  66  67
ENDBRANCH  65  66
ENDBRANCH  14  65
ENDBRANCH   6   7
ENDBRANCH   5   6
ENDBRANCH   2   5
TORSDOF 28
ENDMDL
MODEL 16
REMARK VINA RESULT:      -8.8      1.446      7.372
REMARK  28 active torsions:
REMARK  status: ('A' for Active; 'I' for Inactive)
REMARK    1  A    between atoms: C_2  and  O_3 
REMARK    2  A    between atoms: C_2  and  C_4 
REMARK    3  A    between atoms: C_4  and  C_5 
REMARK    4  A    between atoms: C_5  and  C_6 
REMARK    5  A    between atoms: C_7  and  C_8 
REMARK    6  A    between atoms: C_8  and  C_9 
REMARK    7  A    between atoms: C_9  and  O_11 
REMARK    8  A    between atoms: C_28  and  C_29 
REMARK    9  A    between atoms: C_29  and  C_30 
REMARK   10  A    between atoms: C_30  and  O_32 
REMARK   11  A    between atoms: C_33  and  C_34 
REMARK   12  A    between atoms: C_34  and  C_35 
REMARK   13  A    between atoms: C_35  and  C_36 
REMARK   14  A    between atoms: C_36  and  O_38 
REMARK   15  A    between atoms: C_39  and  C_40 
REMARK   16  A    between atoms: C_40  and  C_41 
REMARK   17  A    between atoms: C_41  and  C_42 
REMARK   18  A    between atoms: C_42  and  O_44 
REMARK   19  A    between atoms: C_45  and  C_46 
REMARK   20  A    between atoms: C_46  and  C_47 
REMARK   21  A    between atoms: C_47  and  O_49 
REMARK   22  A    between atoms: C_50  and  C_51 
REMARK   23  A    between atoms: C_51  and  C_52 
REMARK   24  A    between atoms: C_52  and  O_54 
REMARK   25  A    between atoms: C_55  and  C_56 
REMARK   26  A    between atoms: C_56  and  C_57 
REMARK   27  A    between atoms: C_57  and  C_58 
REMARK   28  A    between atoms: C_58  and  O_60 
ROOT
ATOM      1  O   UNK d   0     -25.350  -6.643   7.174  0.00  0.00    -0.650 OA
ATOM      2  C   UNK d   0     -24.343  -7.307   6.843  0.00  0.00     0.139 C 
ENDROOT
BRANCH   2   3
ATOM      3  O   UNK d   0     -24.468  -8.658   6.628  0.00  0.00    -0.776 OA
ATOM      4  H   UNK d   0     -25.331  -9.152   6.862  0.00  0.00     0.167 HD
ENDBRANCH   2   3
BRANCH   2   5
ATOM      5  C   UNK d   0     -23.022  -6.635   6.684  0.00  0.00     0.115 C 
BRANCH   5   6
ATOM      6  C   UNK d   0     -23.193  -5.317   5.979  0.00  0.00     0.052 C 
BRANCH   6   7
ATOM      7  C   UNK d   0     -22.881  -5.402   4.504  0.00  0.00    -0.020 A 
ATOM      8  C   UNK d   0     -23.730  -5.432   3.509  0.00  0.00    -0.011 A 
ATOM      9  C   UNK d   0     -22.966  -5.525   2.276  0.00  0.00     0.067 A 
ATOM     10  C   UNK d   0     -23.260  -5.572   0.904  0.00  0.00     0.062 C 
ATOM     11  N   UNK d   0     -21.660  -5.552   2.614  0.00  0.00    -0.248 NA
ATOM     12  C   UNK d   0     -22.372  -5.380  -0.160  0.00  0.00     0.041 A 
ATOM     13  N   UNK d   0     -21.116  -5.824  -0.357  0.00  0.00    -0.355 N 
ATOM     14  C   UNK d   0     -22.758  -4.549  -1.227  0.00  0.00    -0.022 A 
ATOM     15  C   UNK d   0     -20.693  -5.288  -1.518  0.00  0.00     0.042 A 
ATOM     16  H   UNK d   0     -20.547  -6.517   0.301  0.00  0.00     0.166 HD
ATOM     17  C   UNK d   0     -19.462  -5.424  -2.191  0.00  0.00     0.062 C 
ATOM     18  C   UNK d   0     -21.695  -4.483  -2.092  0.00  0.00    -0.013 A 
ATOM     19  C   UNK d   0     -18.190  -5.372  -1.682  0.00  0.00     0.067 A 
ATOM     20  N   UNK d   0     -18.070  -5.391  -0.352  0.00  0.00    -0.248 NA
ATOM     21  C   UNK d   0     -16.848  -5.280  -2.231  0.00  0.00    -0.011 A 
ATOM     22  C   UNK d   0     -16.746  -5.318   0.008  0.00  0.00     0.066 A 
ATOM     23  C   UNK d   0     -16.474  -5.367   1.367  0.00  0.00     0.062 C 
ATOM     24  C   UNK d   0     -16.008  -5.245  -1.237  0.00  0.00    -0.020 A 
ATOM     25  C   UNK d   0     -17.379  -5.573   2.419  0.00  0.00     0.041 A 
ATOM     26  N   UNK d   0     -18.622  -5.120   2.623  0.00  0.00    -0.355 N 
ATOM     27  C   UNK d   0     -16.993  -6.412   3.488  0.00  0.00    -0.022 A 
ATOM     28  C   UNK d   0     -19.044  -5.646   3.784  0.00  0.00     0.042 A 
ATOM     29  H   UNK d   0     -19.189  -4.416   1.966  0.00  0.00     0.166 HD
ATOM     30  C   UNK d   0     -20.261  -5.512   4.470  0.00  0.00     0.062 C 
ATOM     31  C   UNK d   0     -18.040  -6.464   4.355  0.00  0.00    -0.013 A 
ATOM     32  C   UNK d   0     -21.541  -5.480   3.941  0.00  0.00     0.066 A 
BRANCH   8  33
ATOM     33  C   UNK d   0     -25.201  -5.386   3.599  0.00  0.00     0.151 C 
BRANCH  33  34
ATOM     34  C   UNK d   0     -25.752  -4.061   3.265  0.00  0.00     0.143 C 
ATOM     35  O   UNK d   0     -26.777  -3.952   2.576  0.00  0.00    -0.650 OA
BRANCH  34  36
ATOM     36  O   UNK d   0     -25.118  -2.930   3.725  0.00  0.00    -0.776 OA
ATOM     37  H   UNK d   0     -24.713  -2.242   3.075  0.00  0.00     0.167 HD
ENDBRANCH  34  36
ENDBRANCH  33  34
ENDBRANCH   8  33
BRANCH  31  38
ATOM     38  C   UNK d   0     -18.092  -7.252   5.643  0.00  0.00     0.151 C 
BRANCH  38  39
ATOM     39  C   UNK d   0     -18.083  -6.408   6.819  0.00  0.00     0.143 C 
ATOM     40  O   UNK d   0     -19.023  -6.391   7.633  0.00  0.00    -0.650 OA
BRANCH  39  41
ATOM     41  O   UNK d   0     -16.987  -5.580   7.061  0.00  0.00    -0.776 OA
ATOM     42  H   UNK d   0     -16.833  -5.290   8.031  0.00  0.00     0.167 HD
ENDBRANCH  39  41
ENDBRANCH  38  39
ENDBRANCH  31  38
BRANCH  27  43
ATOM     43  C   UNK d   0     -15.693  -7.145   3.708  0.00  0.00     0.052 C 
BRANCH  43  44
ATOM     44  C   UNK d   0     -14.510  -6.237   3.802  0.00  0.00     0.115 C 
BRANCH  44  45
ATOM     45  C   UNK d   0     -14.711  -5.404   5.016  0.00  0.00     0.139 C 
ATOM     46  O   UNK d   0     -14.372  -5.884   6.126  0.00  0.00    -0.650 OA
BRANCH  45  47
ATOM     47  O   UNK d   0     -15.243  -4.134   4.972  0.00  0.00    -0.776 OA
ATOM     48  H   UNK d   0     -16.253  -3.953   4.855  0.00  0.00     0.167 HD
ENDBRANCH  45  47
ENDBRANCH  44  45
ENDBRANCH  43  44
ENDBRANCH  27  43
BRANCH  24  49
ATOM     49  C   UNK d   0     -14.540  -5.191  -1.342  0.00  0.00     0.052 C 
BRANCH  49  50
ATOM     50  C   UNK d   0     -13.945  -6.549  -1.069  0.00  0.00     0.115 C 
BRANCH  50  51
ATOM     51  C   UNK d   0     -13.470  -6.807   0.284  0.00  0.00     0.139 C 
ATOM     52  O   UNK d   0     -13.753  -7.855   0.911  0.00  0.00    -0.650 OA
BRANCH  51  53
ATOM     53  O   UNK d   0     -12.676  -5.868   0.923  0.00  0.00    -0.776 OA
ATOM     54  H   UNK d   0     -11.732  -5.745   0.600  0.00  0.00     0.167 HD
ENDBRANCH  51  53
ENDBRANCH  50  51
ENDBRANCH  49  50
ENDBRANCH  24  49
BRANCH  21  55
ATOM     55  C   UNK d   0     -16.544  -5.242  -3.693  0.00  0.00     0.151 C 
BRANCH  55  56
ATOM     56  C   UNK d   0     -16.068  -6.542  -4.191  0.00  0.00     0.143 C 
ATOM     57  O   UNK d   0     -16.545  -7.628  -3.807  0.00  0.00    -0.650 OA
BRANCH  56  58
ATOM     58  O   UNK d   0     -15.039  -6.539  -5.131  0.00  0.00    -0.776 OA
ATOM     59  H   UNK d   0     -15.350  -6.480  -6.118  0.00  0.00     0.167 HD
ENDBRANCH  56  58
ENDBRANCH  55  56
ENDBRANCH  21  55
BRANCH  18  60
ATOM     60  C   UNK d   0     -21.672  -3.688  -3.375  0.00  0.00     0.151 C 
BRANCH  60  61
ATOM     61  C   UNK d   0     -21.445  -4.665  -4.451  0.00  0.00     0.143 C 
ATOM     62  O   UNK d   0     -22.204  -5.568  -4.805  0.00  0.00    -0.650 OA
BRANCH  61  63
ATOM     63  O   UNK d   0     -20.215  -4.530  -5.138  0.00  0.00    -0.776 OA
ATOM     64  H   UNK d   0     -19.400  -5.041  -4.847  0.00  0.00     0.167 HD
ENDBRANCH  61  63
ENDBRANCH  60  61
ENDBRANCH  18  60
BRANCH  14  65
ATOM     65  C   UNK d   0     -24.077  -3.898  -1.536  0.00  0.00     0.052 C 
BRANCH  65  66
ATOM     66  C   UNK d   0     -24.134  -2.472  -1.117  0.00  0.00     0.115 C 
BRANCH  66  67
ATOM     67  C   UNK d   0     -24.993  -2.082  -0.035  0.00  0.00     0.139 C 
ATOM     68  O   UNK d   0     -24.485  -1.971   1.142  0.00  0.00    -0.650 OA
BRANCH  67  69
ATOM     69  O   UNK d   0     -26.357  -1.796  -0.088  0.00  0.00    -0.776 OA
ATOM     70  H   UNK d   0     -26.637  -0.879   0.289  0.00  0.00     0.167 HD
ENDBRANCH  67  69
ENDBRANCH  66  67
ENDBRANCH  65  66
ENDBRANCH  14  65
ENDBRANCH   6   7
ENDBRANCH   5   6
ENDBRANCH   2   5
TORSDOF 28
ENDMDL
MODEL 17
REMARK VINA RESULT:      -8.7      2.101      6.066
REMARK  28 active torsions:
REMARK  status: ('A' for Active; 'I' for Inactive)
REMARK    1  A    between atoms: C_2  and  O_3 
REMARK    2  A    between atoms: C_2  and  C_4 
REMARK    3  A    between atoms: C_4  and  C_5 
REMARK    4  A    between atoms: C_5  and  C_6 
REMARK    5  A    between atoms: C_7  and  C_8 
REMARK    6  A    between atoms: C_8  and  C_9 
REMARK    7  A    between atoms: C_9  and  O_11 
REMARK    8  A    between atoms: C_28  and  C_29 
REMARK    9  A    between atoms: C_29  and  C_30 
REMARK   10  A    between atoms: C_30  and  O_32 
REMARK   11  A    between atoms: C_33  and  C_34 
REMARK   12  A    between atoms: C_34  and  C_35 
REMARK   13  A    between atoms: C_35  and  C_36 
REMARK   14  A    between atoms: C_36  and  O_38 
REMARK   15  A    between atoms: C_39  and  C_40 
REMARK   16  A    between atoms: C_40  and  C_41 
REMARK   17  A    between atoms: C_41  and  C_42 
REMARK   18  A    between atoms: C_42  and  O_44 
REMARK   19  A    between atoms: C_45  and  C_46 
REMARK   20  A    between atoms: C_46  and  C_47 
REMARK   21  A    between atoms: C_47  and  O_49 
REMARK   22  A    between atoms: C_50  and  C_51 
REMARK   23  A    between atoms: C_51  and  C_52 
REMARK   24  A    between atoms: C_52  and  O_54 
REMARK   25  A    between atoms: C_55  and  C_56 
REMARK   26  A    between atoms: C_56  and  C_57 
REMARK   27  A    between atoms: C_57  and  C_58 
REMARK   28  A    between atoms: C_58  and  O_60 
ROOT
ATOM      1  O   UNK d   0     -22.715  -4.004   7.888  0.00  0.00    -0.650 OA
ATOM      2  C   UNK d   0     -22.491  -5.106   8.437  0.00  0.00     0.139 C 
ENDROOT
BRANCH   2   3
ATOM      3  O   UNK d   0     -23.515  -6.013   8.570  0.00  0.00    -0.776 OA
ATOM      4  H   UNK d   0     -24.189  -5.939   9.335  0.00  0.00     0.167 HD
ENDBRANCH   2   3
BRANCH   2   5
ATOM      5  C   UNK d   0     -21.126  -5.427   8.941  0.00  0.00     0.115 C 
BRANCH   5   6
ATOM      6  C   UNK d   0     -20.669  -6.751   8.391  0.00  0.00     0.052 C 
BRANCH   6   7
ATOM      7  C   UNK d   0     -19.826  -6.603   7.147  0.00  0.00    -0.020 A 
ATOM      8  C   UNK d   0     -18.521  -6.626   7.060  0.00  0.00    -0.011 A 
ATOM      9  C   UNK d   0     -18.164  -6.435   5.664  0.00  0.00     0.067 A 
ATOM     10  C   UNK d   0     -16.974  -6.382   4.921  0.00  0.00     0.062 C 
ATOM     11  N   UNK d   0     -19.314  -6.299   4.972  0.00  0.00    -0.248 NA
ATOM     12  C   UNK d   0     -16.839  -6.468   3.531  0.00  0.00     0.041 A 
ATOM     13  N   UNK d   0     -17.552  -5.909   2.535  0.00  0.00    -0.355 N 
ATOM     14  C   UNK d   0     -15.844  -7.306   2.995  0.00  0.00    -0.022 A 
ATOM     15  C   UNK d   0     -17.039  -6.377   1.381  0.00  0.00     0.042 A 
ATOM     16  H   UNK d   0     -18.387  -5.184   2.644  0.00  0.00     0.166 HD
ATOM     17  C   UNK d   0     -17.407  -6.115   0.046  0.00  0.00     0.062 C 
ATOM     18  C   UNK d   0     -15.967  -7.255   1.629  0.00  0.00    -0.013 A 
ATOM     19  C   UNK d   0     -18.660  -6.065  -0.510  0.00  0.00     0.067 A 
ATOM     20  N   UNK d   0     -19.696  -6.066   0.334  0.00  0.00    -0.248 NA
ATOM     21  C   UNK d   0     -19.205  -6.022  -1.856  0.00  0.00    -0.011 A 
ATOM     22  C   UNK d   0     -20.878  -6.029  -0.364  0.00  0.00     0.066 A 
ATOM     23  C   UNK d   0     -22.040  -5.988   0.393  0.00  0.00     0.062 C 
ATOM     24  C   UNK d   0     -20.503  -6.005  -1.764  0.00  0.00    -0.020 A 
ATOM     25  C   UNK d   0     -22.154  -5.888   1.789  0.00  0.00     0.041 A 
ATOM     26  N   UNK d   0     -21.455  -6.456   2.779  0.00  0.00    -0.355 N 
ATOM     27  C   UNK d   0     -23.150  -5.044   2.326  0.00  0.00    -0.022 A 
ATOM     28  C   UNK d   0     -21.970  -5.998   3.931  0.00  0.00     0.042 A 
ATOM     29  H   UNK d   0     -20.623  -7.193   2.668  0.00  0.00     0.166 HD
ATOM     30  C   UNK d   0     -21.620  -6.257   5.266  0.00  0.00     0.062 C 
ATOM     31  C   UNK d   0     -23.040  -5.107   3.681  0.00  0.00    -0.013 A 
ATOM     32  C   UNK d   0     -20.351  -6.391   5.806  0.00  0.00     0.066 A 
BRANCH   8  33
ATOM     33  C   UNK d   0     -17.563  -6.805   8.167  0.00  0.00     0.151 C 
BRANCH  33  34
ATOM     34  C   UNK d   0     -17.664  -8.133   8.799  0.00  0.00     0.143 C 
ATOM     35  O   UNK d   0     -17.421  -9.164   8.156  0.00  0.00    -0.650 OA
BRANCH  34  36
ATOM     36  O   UNK d   0     -18.034  -8.226  10.121  0.00  0.00    -0.776 OA
ATOM     37  H   UNK d   0     -17.574  -8.889  10.760  0.00  0.00     0.167 HD
ENDBRANCH  34  36
ENDBRANCH  33  34
ENDBRANCH   8  33
BRANCH  31  38
ATOM     38  C   UNK d   0     -23.890  -4.357   4.680  0.00  0.00     0.151 C 
BRANCH  38  39
ATOM     39  C   UNK d   0     -25.050  -5.110   5.108  0.00  0.00     0.143 C 
ATOM     40  O   UNK d   0     -26.167  -4.585   5.256  0.00  0.00    -0.650 OA
BRANCH  39  41
ATOM     41  O   UNK d   0     -24.924  -6.475   5.366  0.00  0.00    -0.776 OA
ATOM     42  H   UNK d   0     -24.129  -6.764   5.943  0.00  0.00     0.167 HD
ENDBRANCH  39  41
ENDBRANCH  38  39
ENDBRANCH  31  38
BRANCH  27  43
ATOM     43  C   UNK d   0     -24.179  -4.202   1.613  0.00  0.00     0.052 C 
BRANCH  43  44
ATOM     44  C   UNK d   0     -25.377  -4.980   1.173  0.00  0.00     0.115 C 
BRANCH  44  45
ATOM     45  C   UNK d   0     -26.553  -4.358   1.836  0.00  0.00     0.139 C 
ATOM     46  O   UNK d   0     -27.655  -4.957   1.769  0.00  0.00    -0.650 OA
BRANCH  45  47
ATOM     47  O   UNK d   0     -26.481  -3.164   2.519  0.00  0.00    -0.776 OA
ATOM     48  H   UNK d   0     -27.003  -2.321   2.230  0.00  0.00     0.167 HD
ENDBRANCH  45  47
ENDBRANCH  44  45
ENDBRANCH  43  44
ENDBRANCH  27  43
BRANCH  24  49
ATOM     49  C   UNK d   0     -21.453  -5.924  -2.888  0.00  0.00     0.052 C 
BRANCH  49  50
ATOM     50  C   UNK d   0     -21.369  -4.572  -3.548  0.00  0.00     0.115 C 
BRANCH  50  51
ATOM     51  C   UNK d   0     -21.044  -4.544  -4.968  0.00  0.00     0.139 C 
ATOM     52  O   UNK d   0     -19.864  -4.539  -5.392  0.00  0.00    -0.650 OA
BRANCH  51  53
ATOM     53  O   UNK d   0     -22.066  -4.520  -5.905  0.00  0.00    -0.776 OA
ATOM     54  H   UNK d   0     -22.029  -3.824  -6.629  0.00  0.00     0.167 HD
ENDBRANCH  51  53
ENDBRANCH  50  51
ENDBRANCH  49  50
ENDBRANCH  24  49
BRANCH  21  55
ATOM     55  C   UNK d   0     -18.371  -5.998  -3.094  0.00  0.00     0.151 C 
BRANCH  55  56
ATOM     56  C   UNK d   0     -17.593  -7.235  -3.259  0.00  0.00     0.143 C 
ATOM     57  O   UNK d   0     -16.347  -7.261  -3.211  0.00  0.00    -0.650 OA
BRANCH  56  58
ATOM     58  O   UNK d   0     -18.295  -8.419  -3.478  0.00  0.00    -0.776 OA
ATOM     59  H   UNK d   0     -18.769  -8.806  -2.642  0.00  0.00     0.167 HD
ENDBRANCH  56  58
ENDBRANCH  55  56
ENDBRANCH  21  55
BRANCH  18  60
ATOM     60  C   UNK d   0     -15.101  -8.014   0.654  0.00  0.00     0.151 C 
BRANCH  60  61
ATOM     61  C   UNK d   0     -14.062  -7.068   0.217  0.00  0.00     0.143 C 
ATOM     62  O   UNK d   0     -13.043  -6.749   0.829  0.00  0.00    -0.650 OA
BRANCH  61  63
ATOM     63  O   UNK d   0     -14.283  -6.475  -1.050  0.00  0.00    -0.776 OA
ATOM     64  H   UNK d   0     -14.422  -7.039  -1.869  0.00  0.00     0.167 HD
ENDBRANCH  61  63
ENDBRANCH  60  61
ENDBRANCH  18  60
BRANCH  14  65
ATOM     65  C   UNK d   0     -14.734  -8.064   3.666  0.00  0.00     0.052 C 
BRANCH  65  66
ATOM     66  C   UNK d   0     -15.100  -9.471   3.983  0.00  0.00     0.115 C 
BRANCH  66  67
ATOM     67  C   UNK d   0     -14.924 -10.493   2.989  0.00  0.00     0.139 C 
ATOM     68  O   UNK d   0     -15.962 -10.933   2.371  0.00  0.00    -0.650 OA
BRANCH  67  69
ATOM     69  O   UNK d   0     -13.733 -11.097   2.589  0.00  0.00    -0.776 OA
ATOM     70  H   UNK d   0     -13.209 -11.587   3.328  0.00  0.00     0.167 HD
ENDBRANCH  67  69
ENDBRANCH  66  67
ENDBRANCH  65  66
ENDBRANCH  14  65
ENDBRANCH   6   7
ENDBRANCH   5   6
ENDBRANCH   2   5
TORSDOF 28
ENDMDL
MODEL 18
REMARK VINA RESULT:      -8.7      3.739     10.324
REMARK  28 active torsions:
REMARK  status: ('A' for Active; 'I' for Inactive)
REMARK    1  A    between atoms: C_2  and  O_3 
REMARK    2  A    between atoms: C_2  and  C_4 
REMARK    3  A    between atoms: C_4  and  C_5 
REMARK    4  A    between atoms: C_5  and  C_6 
REMARK    5  A    between atoms: C_7  and  C_8 
REMARK    6  A    between atoms: C_8  and  C_9 
REMARK    7  A    between atoms: C_9  and  O_11 
REMARK    8  A    between atoms: C_28  and  C_29 
REMARK    9  A    between atoms: C_29  and  C_30 
REMARK   10  A    between atoms: C_30  and  O_32 
REMARK   11  A    between atoms: C_33  and  C_34 
REMARK   12  A    between atoms: C_34  and  C_35 
REMARK   13  A    between atoms: C_35  and  C_36 
REMARK   14  A    between atoms: C_36  and  O_38 
REMARK   15  A    between atoms: C_39  and  C_40 
REMARK   16  A    between atoms: C_40  and  C_41 
REMARK   17  A    between atoms: C_41  and  C_42 
REMARK   18  A    between atoms: C_42  and  O_44 
REMARK   19  A    between atoms: C_45  and  C_46 
REMARK   20  A    between atoms: C_46  and  C_47 
REMARK   21  A    between atoms: C_47  and  O_49 
REMARK   22  A    between atoms: C_50  and  C_51 
REMARK   23  A    between atoms: C_51  and  C_52 
REMARK   24  A    between atoms: C_52  and  O_54 
REMARK   25  A    between atoms: C_55  and  C_56 
REMARK   26  A    between atoms: C_56  and  C_57 
REMARK   27  A    between atoms: C_57  and  C_58 
REMARK   28  A    between atoms: C_58  and  O_60 
ROOT
ATOM      1  O   UNK d   0     -15.455  -5.287   2.686  0.00  0.00    -0.650 OA
ATOM      2  C   UNK d   0     -16.517  -4.766   2.279  0.00  0.00     0.139 C 
ENDROOT
BRANCH   2   3
ATOM      3  O   UNK d   0     -16.574  -4.261   1.002  0.00  0.00    -0.776 OA
ATOM      4  H   UNK d   0     -17.332  -4.517   0.367  0.00  0.00     0.167 HD
ENDBRANCH   2   3
BRANCH   2   5
ATOM      5  C   UNK d   0     -17.707  -4.696   3.174  0.00  0.00     0.115 C 
BRANCH   5   6
ATOM      6  C   UNK d   0     -18.271  -6.073   3.394  0.00  0.00     0.052 C 
BRANCH   6   7
ATOM      7  C   UNK d   0     -19.265  -6.119   4.530  0.00  0.00    -0.020 A 
ATOM      8  C   UNK d   0     -19.066  -6.553   5.748  0.00  0.00    -0.011 A 
ATOM      9  C   UNK d   0     -20.312  -6.409   6.481  0.00  0.00     0.067 A 
ATOM     10  C   UNK d   0     -20.751  -6.660   7.791  0.00  0.00     0.062 C 
ATOM     11  N   UNK d   0     -21.219  -5.884   5.631  0.00  0.00    -0.248 NA
ATOM     12  C   UNK d   0     -21.924  -6.194   8.395  0.00  0.00     0.041 A 
ATOM     13  N   UNK d   0     -23.185  -6.104   7.930  0.00  0.00    -0.355 N 
ATOM     14  C   UNK d   0     -21.854  -5.659   9.694  0.00  0.00    -0.022 A 
ATOM     15  C   UNK d   0     -23.915  -5.519   8.898  0.00  0.00     0.042 A 
ATOM     16  H   UNK d   0     -23.555  -6.464   6.945  0.00  0.00     0.166 HD
ATOM     17  C   UNK d   0     -25.285  -5.189   8.936  0.00  0.00     0.062 C 
ATOM     18  C   UNK d   0     -23.115  -5.225  10.020  0.00  0.00    -0.013 A 
ATOM     19  C   UNK d   0     -26.056  -4.594   7.970  0.00  0.00     0.067 A 
ATOM     20  N   UNK d   0     -25.517  -4.478   6.754  0.00  0.00    -0.248 NA
ATOM     21  C   UNK d   0     -27.382  -4.004   7.909  0.00  0.00    -0.011 A 
ATOM     22  C   UNK d   0     -26.395  -3.853   5.902  0.00  0.00     0.066 A 
ATOM     23  C   UNK d   0     -25.976  -3.701   4.588  0.00  0.00     0.062 C 
ATOM     24  C   UNK d   0     -27.573  -3.568   6.697  0.00  0.00    -0.020 A 
ATOM     25  C   UNK d   0     -24.800  -4.187   3.998  0.00  0.00     0.041 A 
ATOM     26  N   UNK d   0     -23.544  -4.263   4.454  0.00  0.00    -0.355 N 
ATOM     27  C   UNK d   0     -24.871  -4.728   2.696  0.00  0.00    -0.022 A 
ATOM     28  C   UNK d   0     -22.811  -4.838   3.487  0.00  0.00     0.042 A 
ATOM     29  H   UNK d   0     -23.171  -3.891   5.440  0.00  0.00     0.166 HD
ATOM     30  C   UNK d   0     -21.447  -5.163   3.433  0.00  0.00     0.062 C 
ATOM     31  C   UNK d   0     -23.618  -5.142   2.365  0.00  0.00    -0.013 A 
ATOM     32  C   UNK d   0     -20.652  -5.686   4.440  0.00  0.00     0.066 A 
BRANCH   8  33
ATOM     33  C   UNK d   0     -17.812  -7.100   6.298  0.00  0.00     0.151 C 
BRANCH  33  34
ATOM     34  C   UNK d   0     -16.956  -6.066   6.906  0.00  0.00     0.143 C 
ATOM     35  O   UNK d   0     -16.189  -5.385   6.210  0.00  0.00    -0.650 OA
BRANCH  34  36
ATOM     36  O   UNK d   0     -17.011  -5.856   8.264  0.00  0.00    -0.776 OA
ATOM     37  H   UNK d   0     -17.563  -5.085   8.664  0.00  0.00     0.167 HD
ENDBRANCH  34  36
ENDBRANCH  33  34
ENDBRANCH   8  33
BRANCH  31  38
ATOM     38  C   UNK d   0     -23.210  -5.800   1.067  0.00  0.00     0.151 C 
BRANCH  38  39
ATOM     39  C   UNK d   0     -22.267  -5.007   0.307  0.00  0.00     0.143 C 
ATOM     40  O   UNK d   0     -22.422  -3.787   0.121  0.00  0.00    -0.650 OA
BRANCH  39  41
ATOM     41  O   UNK d   0     -21.141  -5.620  -0.241  0.00  0.00    -0.776 OA
ATOM     42  H   UNK d   0     -20.574  -6.193   0.391  0.00  0.00     0.167 HD
ENDBRANCH  39  41
ENDBRANCH  38  39
ENDBRANCH  31  38
BRANCH  27  43
ATOM     43  C   UNK d   0     -26.060  -4.858   1.776  0.00  0.00     0.052 C 
BRANCH  43  44
ATOM     44  C   UNK d   0     -26.600  -3.542   1.319  0.00  0.00     0.115 C 
BRANCH  44  45
ATOM     45  C   UNK d   0     -25.649  -3.023   0.302  0.00  0.00     0.139 C 
ATOM     46  O   UNK d   0     -25.677  -3.529  -0.847  0.00  0.00    -0.650 OA
BRANCH  45  47
ATOM     47  O   UNK d   0     -24.748  -2.014   0.567  0.00  0.00    -0.776 OA
ATOM     48  H   UNK d   0     -23.886  -2.162   1.115  0.00  0.00     0.167 HD
ENDBRANCH  45  47
ENDBRANCH  44  45
ENDBRANCH  43  44
ENDBRANCH  27  43
BRANCH  24  49
ATOM     49  C   UNK d   0     -28.800  -2.933   6.186  0.00  0.00     0.052 C 
BRANCH  49  50
ATOM     50  C   UNK d   0     -28.718  -1.436   6.337  0.00  0.00     0.115 C 
BRANCH  50  51
ATOM     51  C   UNK d   0     -29.899  -0.754   6.849  0.00  0.00     0.139 C 
ATOM     52  O   UNK d   0     -30.348   0.298   6.335  0.00  0.00    -0.650 OA
BRANCH  51  53
ATOM     53  O   UNK d   0     -30.567  -1.269   7.948  0.00  0.00    -0.776 OA
ATOM     54  H   UNK d   0     -31.433  -1.756   7.794  0.00  0.00     0.167 HD
ENDBRANCH  51  53
ENDBRANCH  50  51
ENDBRANCH  49  50
ENDBRANCH  24  49
BRANCH  21  55
ATOM     55  C   UNK d   0     -28.322  -3.941   9.067  0.00  0.00     0.151 C 
BRANCH  55  56
ATOM     56  C   UNK d   0     -27.956  -2.878  10.017  0.00  0.00     0.143 C 
ATOM     57  O   UNK d   0     -28.148  -1.669   9.784  0.00  0.00    -0.650 OA
BRANCH  56  58
ATOM     58  O   UNK d   0     -27.372  -3.260  11.224  0.00  0.00    -0.776 OA
ATOM     59  H   UNK d   0     -26.424  -2.876  11.390  0.00  0.00     0.167 HD
ENDBRANCH  56  58
ENDBRANCH  55  56
ENDBRANCH  21  55
BRANCH  18  60
ATOM     60  C   UNK d   0     -23.495  -4.573  11.326  0.00  0.00     0.151 C 
BRANCH  60  61
ATOM     61  C   UNK d   0     -23.765  -5.674  12.263  0.00  0.00     0.143 C 
ATOM     62  O   UNK d   0     -24.385  -6.712  12.030  0.00  0.00    -0.650 OA
BRANCH  61  63
ATOM     63  O   UNK d   0     -23.245  -5.497  13.568  0.00  0.00    -0.776 OA
ATOM     64  H   UNK d   0     -22.459  -4.894  13.735  0.00  0.00     0.167 HD
ENDBRANCH  61  63
ENDBRANCH  60  61
ENDBRANCH  18  60
BRANCH  14  65
ATOM     65  C   UNK d   0     -20.720  -5.618  10.678  0.00  0.00     0.052 C 
BRANCH  65  66
ATOM     66  C   UNK d   0     -20.151  -6.962  10.966  0.00  0.00     0.115 C 
BRANCH  66  67
ATOM     67  C   UNK d   0     -18.730  -7.159  10.912  0.00  0.00     0.139 C 
ATOM     68  O   UNK d   0     -18.255  -7.960  10.025  0.00  0.00    -0.650 OA
BRANCH  67  69
ATOM     69  O   UNK d   0     -17.756  -6.579  11.724  0.00  0.00    -0.776 OA
ATOM     70  H   UNK d   0     -17.921  -5.597  11.988  0.00  0.00     0.167 HD
ENDBRANCH  67  69
ENDBRANCH  66  67
ENDBRANCH  65  66
ENDBRANCH  14  65
ENDBRANCH   6   7
ENDBRANCH   5   6
ENDBRANCH   2   5
TORSDOF 28
ENDMDL
MODEL 19
REMARK VINA RESULT:      -8.6      3.470     10.066
REMARK  28 active torsions:
REMARK  status: ('A' for Active; 'I' for Inactive)
REMARK    1  A    between atoms: C_2  and  O_3 
REMARK    2  A    between atoms: C_2  and  C_4 
REMARK    3  A    between atoms: C_4  and  C_5 
REMARK    4  A    between atoms: C_5  and  C_6 
REMARK    5  A    between atoms: C_7  and  C_8 
REMARK    6  A    between atoms: C_8  and  C_9 
REMARK    7  A    between atoms: C_9  and  O_11 
REMARK    8  A    between atoms: C_28  and  C_29 
REMARK    9  A    between atoms: C_29  and  C_30 
REMARK   10  A    between atoms: C_30  and  O_32 
REMARK   11  A    between atoms: C_33  and  C_34 
REMARK   12  A    between atoms: C_34  and  C_35 
REMARK   13  A    between atoms: C_35  and  C_36 
REMARK   14  A    between atoms: C_36  and  O_38 
REMARK   15  A    between atoms: C_39  and  C_40 
REMARK   16  A    between atoms: C_40  and  C_41 
REMARK   17  A    between atoms: C_41  and  C_42 
REMARK   18  A    between atoms: C_42  and  O_44 
REMARK   19  A    between atoms: C_45  and  C_46 
REMARK   20  A    between atoms: C_46  and  C_47 
REMARK   21  A    between atoms: C_47  and  O_49 
REMARK   22  A    between atoms: C_50  and  C_51 
REMARK   23  A    between atoms: C_51  and  C_52 
REMARK   24  A    between atoms: C_52  and  O_54 
REMARK   25  A    between atoms: C_55  and  C_56 
REMARK   26  A    between atoms: C_56  and  C_57 
REMARK   27  A    between atoms: C_57  and  C_58 
REMARK   28  A    between atoms: C_58  and  O_60 
ROOT
ATOM      1  O   UNK d   0     -22.314  -5.963  -2.311  0.00  0.00    -0.650 OA
ATOM      2  C   UNK d   0     -22.258  -4.746  -2.030  0.00  0.00     0.139 C 
ENDROOT
BRANCH   2   3
ATOM      3  O   UNK d   0     -21.696  -3.871  -2.929  0.00  0.00    -0.776 OA
ATOM      4  H   UNK d   0     -22.240  -3.105  -3.331  0.00  0.00     0.167 HD
ENDBRANCH   2   3
BRANCH   2   5
ATOM      5  C   UNK d   0     -22.797  -4.252  -0.731  0.00  0.00     0.115 C 
BRANCH   5   6
ATOM      6  C   UNK d   0     -23.376  -5.396   0.057  0.00  0.00     0.052 C 
BRANCH   6   7
ATOM      7  C   UNK d   0     -23.600  -5.047   1.509  0.00  0.00    -0.020 A 
ATOM      8  C   UNK d   0     -24.607  -4.389   2.025  0.00  0.00    -0.011 A 
ATOM      9  C   UNK d   0     -24.385  -4.290   3.458  0.00  0.00     0.067 A 
ATOM     10  C   UNK d   0     -25.073  -3.746   4.554  0.00  0.00     0.062 C 
ATOM     11  N   UNK d   0     -23.216  -4.909   3.727  0.00  0.00    -0.248 NA
ATOM     12  C   UNK d   0     -24.835  -3.992   5.911  0.00  0.00     0.041 A 
ATOM     13  N   UNK d   0     -23.686  -4.083   6.607  0.00  0.00    -0.355 N 
ATOM     14  C   UNK d   0     -25.928  -4.254   6.757  0.00  0.00    -0.022 A 
ATOM     15  C   UNK d   0     -24.022  -4.403   7.871  0.00  0.00     0.042 A 
ATOM     16  H   UNK d   0     -22.660  -3.905   6.217  0.00  0.00     0.166 HD
ATOM     17  C   UNK d   0     -23.212  -4.617   9.004  0.00  0.00     0.062 C 
ATOM     18  C   UNK d   0     -25.419  -4.520   8.003  0.00  0.00    -0.013 A 
ATOM     19  C   UNK d   0     -22.051  -5.339   9.111  0.00  0.00     0.067 A 
ATOM     20  N   UNK d   0     -21.481  -5.740   7.971  0.00  0.00    -0.248 NA
ATOM     21  C   UNK d   0     -21.222  -5.831  10.199  0.00  0.00    -0.011 A 
ATOM     22  C   UNK d   0     -20.342  -6.459   8.235  0.00  0.00     0.066 A 
ATOM     23  C   UNK d   0     -19.626  -6.906   7.134  0.00  0.00     0.062 C 
ATOM     24  C   UNK d   0     -20.226  -6.489   9.680  0.00  0.00    -0.020 A 
ATOM     25  C   UNK d   0     -19.875  -6.637   5.779  0.00  0.00     0.041 A 
ATOM     26  N   UNK d   0     -21.016  -6.562   5.084  0.00  0.00    -0.355 N 
ATOM     27  C   UNK d   0     -18.778  -6.370   4.932  0.00  0.00    -0.022 A 
ATOM     28  C   UNK d   0     -20.684  -6.251   3.821  0.00  0.00     0.042 A 
ATOM     29  H   UNK d   0     -22.046  -6.752   5.474  0.00  0.00     0.166 HD
ATOM     30  C   UNK d   0     -21.478  -6.044   2.682  0.00  0.00     0.062 C 
ATOM     31  C   UNK d   0     -19.280  -6.124   3.691  0.00  0.00    -0.013 A 
ATOM     32  C   UNK d   0     -22.695  -5.387   2.596  0.00  0.00     0.066 A 
BRANCH   8  33
ATOM     33  C   UNK d   0     -25.766  -3.835   1.302  0.00  0.00     0.151 C 
BRANCH  33  34
ATOM     34  C   UNK d   0     -26.830  -4.831   1.079  0.00  0.00     0.143 C 
ATOM     35  O   UNK d   0     -26.746  -5.656   0.159  0.00  0.00    -0.650 OA
BRANCH  34  36
ATOM     36  O   UNK d   0     -27.929  -4.840   1.906  0.00  0.00    -0.776 OA
ATOM     37  H   UNK d   0     -27.865  -5.173   2.877  0.00  0.00     0.167 HD
ENDBRANCH  34  36
ENDBRANCH  33  34
ENDBRANCH   8  33
BRANCH  31  38
ATOM     38  C   UNK d   0     -18.480  -5.776   2.458  0.00  0.00     0.151 C 
BRANCH  38  39
ATOM     39  C   UNK d   0     -17.907  -6.939   1.814  0.00  0.00     0.143 C 
ATOM     40  O   UNK d   0     -16.693  -7.027   1.559  0.00  0.00    -0.650 OA
BRANCH  39  41
ATOM     41  O   UNK d   0     -18.733  -8.006   1.462  0.00  0.00    -0.776 OA
ATOM     42  H   UNK d   0     -18.413  -8.603   0.693  0.00  0.00     0.167 HD
ENDBRANCH  39  41
ENDBRANCH  38  39
ENDBRANCH  31  38
BRANCH  27  43
ATOM     43  C   UNK d   0     -17.304  -6.344   5.251  0.00  0.00     0.052 C 
BRANCH  43  44
ATOM     44  C   UNK d   0     -16.773  -4.965   5.477  0.00  0.00     0.115 C 
BRANCH  44  45
ATOM     45  C   UNK d   0     -15.620  -5.101   6.405  0.00  0.00     0.139 C 
ATOM     46  O   UNK d   0     -14.642  -5.797   6.036  0.00  0.00    -0.650 OA
BRANCH  45  47
ATOM     47  O   UNK d   0     -15.581  -4.493   7.641  0.00  0.00    -0.776 OA
ATOM     48  H   UNK d   0     -15.224  -4.967   8.487  0.00  0.00     0.167 HD
ENDBRANCH  45  47
ENDBRANCH  44  45
ENDBRANCH  43  44
ENDBRANCH  27  43
BRANCH  24  49
ATOM     49  C   UNK d   0     -19.124  -7.124  10.422  0.00  0.00     0.052 C 
BRANCH  49  50
ATOM     50  C   UNK d   0     -18.057  -7.601   9.470  0.00  0.00     0.115 C 
BRANCH  50  51
ATOM     51  C   UNK d   0     -17.256  -8.744   9.889  0.00  0.00     0.139 C 
ATOM     52  O   UNK d   0     -16.839  -8.884  11.063  0.00  0.00    -0.650 OA
BRANCH  51  53
ATOM     53  O   UNK d   0     -16.929  -9.727   8.967  0.00  0.00    -0.776 OA
ATOM     54  H   UNK d   0     -16.800 -10.666   9.300  0.00  0.00     0.167 HD
ENDBRANCH  51  53
ENDBRANCH  50  51
ENDBRANCH  49  50
ENDBRANCH  24  49
BRANCH  21  55
ATOM     55  C   UNK d   0     -21.510  -5.588  11.643  0.00  0.00     0.151 C 
BRANCH  55  56
ATOM     56  C   UNK d   0     -22.822  -6.120  12.041  0.00  0.00     0.143 C 
ATOM     57  O   UNK d   0     -23.562  -5.546  12.865  0.00  0.00    -0.650 OA
BRANCH  56  58
ATOM     58  O   UNK d   0     -23.240  -7.317  11.462  0.00  0.00    -0.776 OA
ATOM     59  H   UNK d   0     -22.603  -7.698  10.739  0.00  0.00     0.167 HD
ENDBRANCH  56  58
ENDBRANCH  55  56
ENDBRANCH  21  55
BRANCH  18  60
ATOM     60  C   UNK d   0     -26.244  -4.862   9.219  0.00  0.00     0.151 C 
BRANCH  60  61
ATOM     61  C   UNK d   0     -26.390  -6.325   9.209  0.00  0.00     0.143 C 
ATOM     62  O   UNK d   0     -25.494  -7.161   9.335  0.00  0.00    -0.650 OA
BRANCH  61  63
ATOM     63  O   UNK d   0     -27.713  -6.798   9.036  0.00  0.00    -0.776 OA
ATOM     64  H   UNK d   0     -28.048  -7.081   8.133  0.00  0.00     0.167 HD
ENDBRANCH  61  63
ENDBRANCH  60  61
ENDBRANCH  18  60
BRANCH  14  65
ATOM     65  C   UNK d   0     -27.407  -4.176   6.502  0.00  0.00     0.052 C 
BRANCH  65  66
ATOM     66  C   UNK d   0     -27.957  -2.806   6.681  0.00  0.00     0.115 C 
BRANCH  66  67
ATOM     67  C   UNK d   0     -29.143  -2.612   7.467  0.00  0.00     0.139 C 
ATOM     68  O   UNK d   0     -29.983  -1.711   7.098  0.00  0.00    -0.650 OA
BRANCH  67  69
ATOM     69  O   UNK d   0     -29.522  -3.295   8.622  0.00  0.00    -0.776 OA
ATOM     70  H   UNK d   0     -29.829  -4.269   8.486  0.00  0.00     0.167 HD
ENDBRANCH  67  69
ENDBRANCH  66  67
ENDBRANCH  65  66
ENDBRANCH  14  65
ENDBRANCH   6   7
ENDBRANCH   5   6
ENDBRANCH   2   5
TORSDOF 28
ENDMDL
MODEL 20
REMARK VINA RESULT:      -8.6      4.566     11.009
REMARK  28 active torsions:
REMARK  status: ('A' for Active; 'I' for Inactive)
REMARK    1  A    between atoms: C_2  and  O_3 
REMARK    2  A    between atoms: C_2  and  C_4 
REMARK    3  A    between atoms: C_4  and  C_5 
REMARK    4  A    between atoms: C_5  and  C_6 
REMARK    5  A    between atoms: C_7  and  C_8 
REMARK    6  A    between atoms: C_8  and  C_9 
REMARK    7  A    between atoms: C_9  and  O_11 
REMARK    8  A    between atoms: C_28  and  C_29 
REMARK    9  A    between atoms: C_29  and  C_30 
REMARK   10  A    between atoms: C_30  and  O_32 
REMARK   11  A    between atoms: C_33  and  C_34 
REMARK   12  A    between atoms: C_34  and  C_35 
REMARK   13  A    between atoms: C_35  and  C_36 
REMARK   14  A    between atoms: C_36  and  O_38 
REMARK   15  A    between atoms: C_39  and  C_40 
REMARK   16  A    between atoms: C_40  and  C_41 
REMARK   17  A    between atoms: C_41  and  C_42 
REMARK   18  A    between atoms: C_42  and  O_44 
REMARK   19  A    between atoms: C_45  and  C_46 
REMARK   20  A    between atoms: C_46  and  C_47 
REMARK   21  A    between atoms: C_47  and  O_49 
REMARK   22  A    between atoms: C_50  and  C_51 
REMARK   23  A    between atoms: C_51  and  C_52 
REMARK   24  A    between atoms: C_52  and  O_54 
REMARK   25  A    between atoms: C_55  and  C_56 
REMARK   26  A    between atoms: C_56  and  C_57 
REMARK   27  A    between atoms: C_57  and  C_58 
REMARK   28  A    between atoms: C_58  and  O_60 
ROOT
ATOM      1  O   UNK d   0     -24.893  -7.266  -0.851  0.00  0.00    -0.650 OA
ATOM      2  C   UNK d   0     -25.829  -6.603  -0.352  0.00  0.00     0.139 C 
ENDROOT
BRANCH   2   3
ATOM      3  O   UNK d   0     -26.611  -7.170   0.625  0.00  0.00    -0.776 OA
ATOM      4  H   UNK d   0     -26.238  -7.354   1.559  0.00  0.00     0.167 HD
ENDBRANCH   2   3
BRANCH   2   5
ATOM      5  C   UNK d   0     -26.090  -5.211  -0.817  0.00  0.00     0.115 C 
BRANCH   5   6
ATOM      6  C   UNK d   0     -24.969  -4.303  -0.388  0.00  0.00     0.052 C 
BRANCH   6   7
ATOM      7  C   UNK d   0     -25.173  -3.743   0.999  0.00  0.00    -0.020 A 
ATOM      8  C   UNK d   0     -25.977  -2.777   1.360  0.00  0.00    -0.011 A 
ATOM      9  C   UNK d   0     -25.824  -2.582   2.792  0.00  0.00     0.067 A 
ATOM     10  C   UNK d   0     -26.393  -1.747   3.767  0.00  0.00     0.062 C 
ATOM     11  N   UNK d   0     -24.902  -3.469   3.221  0.00  0.00    -0.248 NA
ATOM     12  C   UNK d   0     -26.320  -1.895   5.156  0.00  0.00     0.041 A 
ATOM     13  N   UNK d   0     -25.290  -2.224   5.959  0.00  0.00    -0.355 N 
ATOM     14  C   UNK d   0     -27.491  -1.743   5.920  0.00  0.00    -0.022 A 
ATOM     15  C   UNK d   0     -25.780  -2.293   7.212  0.00  0.00     0.042 A 
ATOM     16  H   UNK d   0     -24.234  -2.385   5.650  0.00  0.00     0.166 HD
ATOM     17  C   UNK d   0     -25.138  -2.595   8.429  0.00  0.00     0.062 C 
ATOM     18  C   UNK d   0     -27.157  -1.998   7.226  0.00  0.00    -0.013 A 
ATOM     19  C   UNK d   0     -24.241  -3.596   8.705  0.00  0.00     0.067 A 
ATOM     20  N   UNK d   0     -23.742  -4.266   7.663  0.00  0.00    -0.248 NA
ATOM     21  C   UNK d   0     -23.657  -4.173   9.904  0.00  0.00    -0.011 A 
ATOM     22  C   UNK d   0     -22.876  -5.241   8.094  0.00  0.00     0.066 A 
ATOM     23  C   UNK d   0     -22.253  -5.991   7.108  0.00  0.00     0.062 C 
ATOM     24  C   UNK d   0     -22.863  -5.138   9.540  0.00  0.00    -0.020 A 
ATOM     25  C   UNK d   0     -22.331  -5.819   5.717  0.00  0.00     0.041 A 
ATOM     26  N   UNK d   0     -23.357  -5.506   4.917  0.00  0.00    -0.355 N 
ATOM     27  C   UNK d   0     -21.153  -5.966   4.952  0.00  0.00    -0.022 A 
ATOM     28  C   UNK d   0     -22.873  -5.446   3.667  0.00  0.00     0.042 A 
ATOM     29  H   UNK d   0     -24.420  -5.355   5.228  0.00  0.00     0.166 HD
ATOM     30  C   UNK d   0     -23.502  -5.155   2.446  0.00  0.00     0.062 C 
ATOM     31  C   UNK d   0     -21.487  -5.731   3.654  0.00  0.00    -0.013 A 
ATOM     32  C   UNK d   0     -24.471  -4.198   2.191  0.00  0.00     0.066 A 
BRANCH   8  33
ATOM     33  C   UNK d   0     -26.881  -2.005   0.487  0.00  0.00     0.151 C 
BRANCH  33  34
ATOM     34  C   UNK d   0     -26.502  -0.585   0.385  0.00  0.00     0.143 C 
ATOM     35  O   UNK d   0     -25.374  -0.201   0.727  0.00  0.00    -0.650 OA
BRANCH  34  36
ATOM     36  O   UNK d   0     -27.414   0.326  -0.095  0.00  0.00    -0.776 OA
ATOM     37  H   UNK d   0     -27.754   0.280  -1.066  0.00  0.00     0.167 HD
ENDBRANCH  34  36
ENDBRANCH  33  34
ENDBRANCH   8  33
BRANCH  31  38
ATOM     38  C   UNK d   0     -20.546  -5.763   2.472  0.00  0.00     0.151 C 
BRANCH  38  39
ATOM     39  C   UNK d   0     -20.519  -7.049   1.810  0.00  0.00     0.143 C 
ATOM     40  O   UNK d   0     -21.506  -7.511   1.212  0.00  0.00    -0.650 OA
BRANCH  39  41
ATOM     41  O   UNK d   0     -19.349  -7.809   1.834  0.00  0.00    -0.776 OA
ATOM     42  H   UNK d   0     -19.448  -8.800   2.077  0.00  0.00     0.167 HD
ENDBRANCH  39  41
ENDBRANCH  38  39
ENDBRANCH  31  38
BRANCH  27  43
ATOM     43  C   UNK d   0     -19.756  -6.317   5.401  0.00  0.00     0.052 C 
BRANCH  43  44
ATOM     44  C   UNK d   0     -18.696  -5.534   4.697  0.00  0.00     0.115 C 
BRANCH  44  45
ATOM     45  C   UNK d   0     -17.512  -6.426   4.588  0.00  0.00     0.139 C 
ATOM     46  O   UNK d   0     -16.998  -6.592   3.454  0.00  0.00    -0.650 OA
BRANCH  45  47
ATOM     47  O   UNK d   0     -16.958  -7.068   5.674  0.00  0.00    -0.776 OA
ATOM     48  H   UNK d   0     -16.004  -7.464   5.664  0.00  0.00     0.167 HD
ENDBRANCH  45  47
ENDBRANCH  44  45
ENDBRANCH  43  44
ENDBRANCH  27  43
BRANCH  24  49
ATOM     49  C   UNK d   0     -22.037  -5.968  10.434  0.00  0.00     0.052 C 
BRANCH  49  50
ATOM     50  C   UNK d   0     -22.675  -7.318  10.634  0.00  0.00     0.115 C 
BRANCH  50  51
ATOM     51  C   UNK d   0     -23.841  -7.381  11.505  0.00  0.00     0.139 C 
ATOM     52  O   UNK d   0     -23.761  -7.269  12.751  0.00  0.00    -0.650 OA
BRANCH  51  53
ATOM     53  O   UNK d   0     -25.099  -7.574  10.955  0.00  0.00    -0.776 OA
ATOM     54  H   UNK d   0     -25.764  -8.121  11.471  0.00  0.00     0.167 HD
ENDBRANCH  51  53
ENDBRANCH  50  51
ENDBRANCH  49  50
ENDBRANCH  24  49
BRANCH  21  55
ATOM     55  C   UNK d   0     -23.951  -3.698  11.289  0.00  0.00     0.151 C 
BRANCH  55  56
ATOM     56  C   UNK d   0     -25.380  -3.813  11.619  0.00  0.00     0.143 C 
ATOM     57  O   UNK d   0     -26.031  -4.861  11.444  0.00  0.00    -0.650 OA
BRANCH  56  58
ATOM     58  O   UNK d   0     -26.015  -2.691  12.151  0.00  0.00    -0.776 OA
ATOM     59  H   UNK d   0     -25.393  -2.037  12.658  0.00  0.00     0.167 HD
ENDBRANCH  56  58
ENDBRANCH  55  56
ENDBRANCH  21  55
BRANCH  18  60
ATOM     60  C   UNK d   0     -28.119  -1.957   8.388  0.00  0.00     0.151 C 
BRANCH  60  61
ATOM     61  C   UNK d   0     -28.495  -3.354   8.652  0.00  0.00     0.143 C 
ATOM     62  O   UNK d   0     -28.835  -3.840   9.730  0.00  0.00    -0.650 OA
BRANCH  61  63
ATOM     63  O   UNK d   0     -28.454  -4.211   7.526  0.00  0.00    -0.776 OA
ATOM     64  H   UNK d   0     -29.058  -4.061   6.737  0.00  0.00     0.167 HD
ENDBRANCH  61  63
ENDBRANCH  60  61
ENDBRANCH  18  60
BRANCH  14  65
ATOM     65  C   UNK d   0     -28.867  -1.285   5.525  0.00  0.00     0.052 C 
BRANCH  65  66
ATOM     66  C   UNK d   0     -28.926   0.166   5.203  0.00  0.00     0.115 C 
BRANCH  66  67
ATOM     67  C   UNK d   0     -28.931   1.132   6.266  0.00  0.00     0.139 C 
ATOM     68  O   UNK d   0     -27.890   1.868   6.431  0.00  0.00    -0.650 OA
BRANCH  67  69
ATOM     69  O   UNK d   0     -29.952   1.389   7.180  0.00  0.00    -0.776 OA
ATOM     70  H   UNK d   0     -30.306   0.571   7.698  0.00  0.00     0.167 HD
ENDBRANCH  67  69
ENDBRANCH  66  67
ENDBRANCH  65  66
ENDBRANCH  14  65
ENDBRANCH   6   7
ENDBRANCH   5   6
ENDBRANCH   2   5
TORSDOF 28
ENDMDL
