MODEL 1
REMARK VINA RESULT:      -7.3      0.000      0.000
REMARK  28 active torsions:
REMARK  status: ('A' for Active; 'I' for Inactive)
REMARK    1  A    between atoms: C1_2  and  O2_3 
REMARK    2  A    between atoms: C1_2  and  C2_4 
REMARK    3  A    between atoms: C2_4  and  C3_5 
REMARK    4  A    between atoms: C3_5  and  C4_6 
REMARK    5  A    between atoms: C5_7  and  C6_8 
REMARK    6  A    between atoms: C6_8  and  C7_9 
REMARK    7  A    between atoms: C7_9  and  O4_11 
REMARK    8  A    between atoms: C20_28  and  C21_29 
REMARK    9  A    between atoms: C21_29  and  C22_30 
REMARK   10  A    between atoms: C22_30  and  O6_32 
REMARK   11  A    between atoms: C23_33  and  C24_34 
REMARK   12  A    between atoms: C24_34  and  C25_35 
REMARK   13  A    between atoms: C25_35  and  C26_36 
REMARK   14  A    between atoms: C26_36  and  O8_38 
REMARK   15  A    between atoms: C27_39  and  C28_40 
REMARK   16  A    between atoms: C28_40  and  C29_41 
REMARK   17  A    between atoms: C29_41  and  O10_43 
REMARK   18  A    between atoms: C30_44  and  C31_45 
REMARK   19  A    between atoms: C31_45  and  C32_46 
REMARK   20  A    between atoms: C32_46  and  C33_47 
REMARK   21  A    between atoms: C33_47  and  O12_49 
REMARK   22  A    between atoms: C34_50  and  C35_51 
REMARK   23  A    between atoms: C35_51  and  C36_52 
REMARK   24  A    between atoms: C36_52  and  O14_54 
REMARK   25  A    between atoms: C37_55  and  C38_56 
REMARK   26  A    between atoms: C38_56  and  C39_57 
REMARK   27  A    between atoms: C39_57  and  C40_58 
REMARK   28  A    between atoms: C40_58  and  O16_60 
ROOT
HETATM    1  O1  UNL     1     -37.944 -17.791   1.954  1.00  0.00    -0.650 OA
HETATM    2  C1  UNL     1     -38.602 -16.768   1.729  1.00  0.00     0.139 C 
ENDROOT
BRANCH   2   3
HETATM    3  O2  UNL     1     -38.702 -16.348   0.400  1.00  0.00    -0.776 OA
HETATM    4  H1  UNL     1     -38.067 -16.668  -0.323  1.00  0.00     0.167 HD
ENDBRANCH   2   3
BRANCH   2   5
HETATM    5  C2  UNL     1     -39.274 -15.990   2.788  1.00  0.00     0.115 C 
BRANCH   5   6
HETATM    6  C3  UNL     1     -38.529 -15.930   4.071  1.00  0.00     0.052 C 
BRANCH   6   7
HETATM    7  C4  UNL     1     -37.731 -14.679   4.161  1.00  0.00    -0.020 A 
HETATM    8  C5  UNL     1     -38.062 -13.540   4.775  1.00  0.00    -0.011 A 
HETATM    9  C8  UNL     1     -36.994 -12.583   4.617  1.00  0.00     0.067 A 
HETATM   10  C9  UNL     1     -36.813 -11.244   5.028  1.00  0.00     0.062 C 
HETATM   11  N4  UNL     1     -36.038 -13.174   3.907  1.00  0.00    -0.248 NA
HETATM   12  C10 UNL     1     -35.747 -10.428   4.655  1.00  0.00     0.041 A 
HETATM   13  N1  UNL     1     -35.070 -10.278   3.501  1.00  0.00    -0.355 N 
HETATM   14  C37 UNL     1     -35.176  -9.596   5.645  1.00  0.00    -0.022 A 
HETATM   15  C11 UNL     1     -34.087  -9.387   3.725  1.00  0.00     0.042 A 
HETATM   16  H10 UNL     1     -35.303 -10.776   2.529  1.00  0.00     0.166 HD
HETATM   17  C12 UNL     1     -33.060  -8.878   2.927  1.00  0.00     0.062 C 
HETATM   18  C34 UNL     1     -34.147  -8.951   5.067  1.00  0.00    -0.013 A 
HETATM   19  C13 UNL     1     -32.277  -9.636   2.037  1.00  0.00     0.066 A 
HETATM   20  N2  UNL     1     -32.509 -10.952   1.934  1.00  0.00    -0.248 NA
HETATM   21  C30 UNL     1     -31.206  -9.311   1.127  1.00  0.00    -0.020 A 
HETATM   22  C14 UNL     1     -31.670 -11.488   1.029  1.00  0.00     0.067 A 
HETATM   23  C15 UNL     1     -31.751 -12.862   0.762  1.00  0.00     0.062 C 
HETATM   24  C27 UNL     1     -30.817 -10.432   0.498  1.00  0.00    -0.011 A 
HETATM   25  C16 UNL     1     -32.807 -13.736   1.098  1.00  0.00     0.041 A 
HETATM   26  N3  UNL     1     -33.567 -13.790   2.198  1.00  0.00    -0.355 N 
HETATM   27  C23 UNL     1     -33.222 -14.708   0.155  1.00  0.00    -0.022 A 
HETATM   28  C17 UNL     1     -34.474 -14.758   2.019  1.00  0.00     0.042 A 
HETATM   29  H13 UNL     1     -33.452 -13.161   3.121  1.00  0.00     0.166 HD
HETATM   30  C18 UNL     1     -35.513 -15.218   2.850  1.00  0.00     0.062 C 
HETATM   31  C20 UNL     1     -34.286 -15.349   0.752  1.00  0.00    -0.013 A 
HETATM   32  C19 UNL     1     -36.408 -14.440   3.595  1.00  0.00     0.066 A 
BRANCH   8  33
HETATM   33  C6  UNL     1     -39.343 -13.330   5.506  1.00  0.00     0.151 C 
BRANCH  33  34
HETATM   34  C7  UNL     1     -39.176 -13.312   6.978  1.00  0.00     0.143 C 
HETATM   35  O3  UNL     1     -39.309 -12.237   7.594  1.00  0.00    -0.650 OA
BRANCH  34  36
HETATM   36  O4  UNL     1     -38.878 -14.495   7.617  1.00  0.00    -0.776 OA
HETATM   37  H8  UNL     1     -38.145 -15.088   7.228  1.00  0.00     0.167 HD
ENDBRANCH  34  36
ENDBRANCH  33  34
ENDBRANCH   8  33
BRANCH  31  38
HETATM   38  C21 UNL     1     -35.102 -16.460   0.121  1.00  0.00     0.151 C 
BRANCH  38  39
HETATM   39  C22 UNL     1     -34.519 -17.740   0.585  1.00  0.00     0.143 C 
HETATM   40  O5  UNL     1     -33.574 -18.249  -0.057  1.00  0.00    -0.650 OA
BRANCH  39  41
HETATM   41  O6  UNL     1     -34.970 -18.414   1.710  1.00  0.00    -0.776 OA
HETATM   42  H17 UNL     1     -35.795 -18.092   2.231  1.00  0.00     0.167 HD
ENDBRANCH  39  41
ENDBRANCH  38  39
ENDBRANCH  31  38
BRANCH  27  43
HETATM   43  C24 UNL     1     -32.682 -15.023  -1.195  1.00  0.00     0.052 C 
BRANCH  43  44
HETATM   44  C25 UNL     1     -33.374 -14.280  -2.259  1.00  0.00     0.115 C 
BRANCH  44  45
HETATM   45  C26 UNL     1     -33.032 -14.539  -3.654  1.00  0.00     0.139 C 
HETATM   46  O7  UNL     1     -32.364 -15.431  -4.165  1.00  0.00    -0.650 OA
BRANCH  45  47
HETATM   47  O8  UNL     1     -33.565 -13.590  -4.572  1.00  0.00    -0.776 OA
HETATM   48  H22 UNL     1     -33.561 -13.730  -5.552  1.00  0.00     0.167 HD
ENDBRANCH  45  47
ENDBRANCH  44  45
ENDBRANCH  43  44
ENDBRANCH  27  43
BRANCH  24  49
HETATM   49  C28 UNL     1     -29.745 -10.583  -0.536  1.00  0.00     0.151 C 
BRANCH  49  50
HETATM   50  C29 UNL     1     -30.190 -10.041  -1.843  1.00  0.00     0.143 C 
HETATM   51  O9  UNL     1     -31.340 -10.324  -2.250  1.00  0.00    -0.650 OA
BRANCH  50  52
HETATM   52  O10 UNL     1     -29.396  -9.235  -2.639  1.00  0.00    -0.776 OA
HETATM   53  H25 UNL     1     -28.888  -8.427  -2.255  1.00  0.00     0.167 HD
ENDBRANCH  50  52
ENDBRANCH  49  50
ENDBRANCH  24  49
BRANCH  21  54
HETATM   54  C31 UNL     1     -30.618  -7.964   0.882  1.00  0.00     0.052 C 
BRANCH  54  55
HETATM   55  C32 UNL     1     -29.317  -7.723   1.561  1.00  0.00     0.115 C 
BRANCH  55  56
HETATM   56  C33 UNL     1     -28.288  -7.593   0.466  1.00  0.00     0.139 C 
HETATM   57  O11 UNL     1     -28.574  -7.048  -0.629  1.00  0.00    -0.650 OA
BRANCH  56  58
HETATM   58  O12 UNL     1     -26.992  -8.068   0.621  1.00  0.00    -0.776 OA
HETATM   59  H30 UNL     1     -26.838  -9.033   0.317  1.00  0.00     0.167 HD
ENDBRANCH  56  58
ENDBRANCH  55  56
ENDBRANCH  54  55
ENDBRANCH  21  54
BRANCH  18  60
HETATM   60  C35 UNL     1     -33.293  -7.954   5.793  1.00  0.00     0.151 C 
BRANCH  60  61
HETATM   61  C36 UNL     1     -33.973  -6.658   5.727  1.00  0.00     0.143 C 
HETATM   62  O13 UNL     1     -34.861  -6.462   4.851  1.00  0.00    -0.650 OA
BRANCH  61  63
HETATM   63  O14 UNL     1     -33.687  -5.614   6.597  1.00  0.00    -0.776 OA
HETATM   64  H33 UNL     1     -34.113  -5.618   7.508  1.00  0.00     0.167 HD
ENDBRANCH  61  63
ENDBRANCH  60  61
ENDBRANCH  18  60
BRANCH  14  65
HETATM   65  C38 UNL     1     -35.583  -9.389   7.075  1.00  0.00     0.052 C 
BRANCH  65  66
HETATM   66  C39 UNL     1     -36.772  -8.474   7.129  1.00  0.00     0.115 C 
BRANCH  66  67
HETATM   67  C40 UNL     1     -37.821  -9.115   8.006  1.00  0.00     0.139 C 
HETATM   68  O15 UNL     1     -38.953  -8.580   8.138  1.00  0.00    -0.650 OA
BRANCH  67  69
HETATM   69  O16 UNL     1     -37.557 -10.282   8.668  1.00  0.00    -0.776 OA
HETATM   70  H38 UNL     1     -38.064 -11.129   8.470  1.00  0.00     0.167 HD
ENDBRANCH  67  69
ENDBRANCH  66  67
ENDBRANCH  65  66
ENDBRANCH  14  65
ENDBRANCH   6   7
ENDBRANCH   5   6
ENDBRANCH   2   5
TORSDOF 28
ENDMDL
MODEL 2
REMARK VINA RESULT:      -7.0     28.542     35.086
REMARK  28 active torsions:
REMARK  status: ('A' for Active; 'I' for Inactive)
REMARK    1  A    between atoms: C1_2  and  O2_3 
REMARK    2  A    between atoms: C1_2  and  C2_4 
REMARK    3  A    between atoms: C2_4  and  C3_5 
REMARK    4  A    between atoms: C3_5  and  C4_6 
REMARK    5  A    between atoms: C5_7  and  C6_8 
REMARK    6  A    between atoms: C6_8  and  C7_9 
REMARK    7  A    between atoms: C7_9  and  O4_11 
REMARK    8  A    between atoms: C20_28  and  C21_29 
REMARK    9  A    between atoms: C21_29  and  C22_30 
REMARK   10  A    between atoms: C22_30  and  O6_32 
REMARK   11  A    between atoms: C23_33  and  C24_34 
REMARK   12  A    between atoms: C24_34  and  C25_35 
REMARK   13  A    between atoms: C25_35  and  C26_36 
REMARK   14  A    between atoms: C26_36  and  O8_38 
REMARK   15  A    between atoms: C27_39  and  C28_40 
REMARK   16  A    between atoms: C28_40  and  C29_41 
REMARK   17  A    between atoms: C29_41  and  O10_43 
REMARK   18  A    between atoms: C30_44  and  C31_45 
REMARK   19  A    between atoms: C31_45  and  C32_46 
REMARK   20  A    between atoms: C32_46  and  C33_47 
REMARK   21  A    between atoms: C33_47  and  O12_49 
REMARK   22  A    between atoms: C34_50  and  C35_51 
REMARK   23  A    between atoms: C35_51  and  C36_52 
REMARK   24  A    between atoms: C36_52  and  O14_54 
REMARK   25  A    between atoms: C37_55  and  C38_56 
REMARK   26  A    between atoms: C38_56  and  C39_57 
REMARK   27  A    between atoms: C39_57  and  C40_58 
REMARK   28  A    between atoms: C40_58  and  O16_60 
ROOT
HETATM    1  O1  UNL     1       0.530   1.772   9.818  1.00  0.00    -0.650 OA
HETATM    2  C1  UNL     1      -0.248   1.802  10.779  1.00  0.00     0.139 C 
ENDROOT
BRANCH   2   3
HETATM    3  O2  UNL     1      -1.127   0.727  10.928  1.00  0.00    -0.776 OA
HETATM    4  H1  UNL     1      -1.789   0.666  11.694  1.00  0.00     0.167 HD
ENDBRANCH   2   3
BRANCH   2   5
HETATM    5  C2  UNL     1      -0.281   2.908  11.757  1.00  0.00     0.115 C 
BRANCH   5   6
HETATM    6  C3  UNL     1      -1.546   3.684  11.763  1.00  0.00     0.052 C 
BRANCH   6   7
HETATM    7  C4  UNL     1      -1.904   4.124  10.388  1.00  0.00    -0.020 A 
HETATM    8  C5  UNL     1      -1.317   5.076   9.657  1.00  0.00    -0.011 A 
HETATM    9  C8  UNL     1      -1.982   5.174   8.379  1.00  0.00     0.067 A 
HETATM   10  C9  UNL     1      -1.806   6.000   7.248  1.00  0.00     0.062 C 
HETATM   11  N4  UNL     1      -2.958   4.272   8.373  1.00  0.00    -0.248 NA
HETATM   12  C10 UNL     1      -2.651   6.034   6.140  1.00  0.00     0.041 A 
HETATM   13  N1  UNL     1      -3.989   5.956   6.009  1.00  0.00    -0.355 N 
HETATM   14  C37 UNL     1      -2.058   6.120   4.860  1.00  0.00    -0.022 A 
HETATM   15  C11 UNL     1      -4.265   5.982   4.692  1.00  0.00     0.042 A 
HETATM   16  H10 UNL     1      -4.733   5.911   6.839  1.00  0.00     0.166 HD
HETATM   17  C12 UNL     1      -5.452   5.890   3.963  1.00  0.00     0.062 C 
HETATM   18  C34 UNL     1      -3.059   6.088   3.963  1.00  0.00    -0.013 A 
HETATM   19  C13 UNL     1      -6.508   5.004   4.247  1.00  0.00     0.066 A 
HETATM   20  N2  UNL     1      -6.384   4.166   5.286  1.00  0.00    -0.248 NA
HETATM   21  C30 UNL     1      -7.798   4.767   3.648  1.00  0.00    -0.020 A 
HETATM   22  C14 UNL     1      -7.497   3.416   5.394  1.00  0.00     0.067 A 
HETATM   23  C15 UNL     1      -7.579   2.473   6.428  1.00  0.00     0.062 C 
HETATM   24  C27 UNL     1      -8.423   3.796   4.334  1.00  0.00    -0.011 A 
HETATM   25  C16 UNL     1      -6.766   2.396   7.579  1.00  0.00     0.041 A 
HETATM   26  N3  UNL     1      -5.452   2.609   7.726  1.00  0.00    -0.355 N 
HETATM   27  C23 UNL     1      -7.366   2.098   8.827  1.00  0.00    -0.022 A 
HETATM   28  C17 UNL     1      -5.160   2.469   9.024  1.00  0.00     0.042 A 
HETATM   29  H13 UNL     1      -4.718   2.836   6.907  1.00  0.00     0.166 HD
HETATM   30  C18 UNL     1      -3.941   2.599   9.717  1.00  0.00     0.062 C 
HETATM   31  C20 UNL     1      -6.334   2.152   9.738  1.00  0.00    -0.013 A 
HETATM   32  C19 UNL     1      -2.975   3.599   9.549  1.00  0.00     0.066 A 
BRANCH   8  33
HETATM   33  C6  UNL     1      -0.156   5.884  10.119  1.00  0.00     0.151 C 
BRANCH  33  34
HETATM   34  C7  UNL     1       1.139   5.399   9.588  1.00  0.00     0.143 C 
HETATM   35  O3  UNL     1       2.197   5.737  10.154  1.00  0.00    -0.650 OA
BRANCH  34  36
HETATM   36  O4  UNL     1       1.126   4.583   8.478  1.00  0.00    -0.776 OA
HETATM   37  H8  UNL     1       1.998   4.142   8.187  1.00  0.00     0.167 HD
ENDBRANCH  34  36
ENDBRANCH  33  34
ENDBRANCH   8  33
BRANCH  31  38
HETATM   38  C21 UNL     1      -6.475   1.935  11.232  1.00  0.00     0.151 C 
BRANCH  38  39
HETATM   39  C22 UNL     1      -6.903   3.226  11.818  1.00  0.00     0.143 C 
HETATM   40  O5  UNL     1      -6.049   4.117  12.020  1.00  0.00    -0.650 OA
BRANCH  39  41
HETATM   41  O6  UNL     1      -8.218   3.505  12.157  1.00  0.00    -0.776 OA
HETATM   42  H17 UNL     1      -9.002   3.165  11.585  1.00  0.00     0.167 HD
ENDBRANCH  39  41
ENDBRANCH  38  39
ENDBRANCH  31  38
BRANCH  27  43
HETATM   43  C24 UNL     1      -8.783   1.789   9.158  1.00  0.00     0.052 C 
BRANCH  43  44
HETATM   44  C25 UNL     1      -9.716   2.763   8.574  1.00  0.00     0.115 C 
BRANCH  44  45
HETATM   45  C26 UNL     1     -10.988   2.301   8.025  1.00  0.00     0.139 C 
HETATM   46  O7  UNL     1     -12.139   2.654   8.259  1.00  0.00    -0.650 OA
BRANCH  45  47
HETATM   47  O8  UNL     1     -10.865   1.265   7.057  1.00  0.00    -0.776 OA
HETATM   48  H22 UNL     1     -11.627   0.945   6.512  1.00  0.00     0.167 HD
ENDBRANCH  45  47
ENDBRANCH  44  45
ENDBRANCH  43  44
ENDBRANCH  27  43
BRANCH  24  49
HETATM   49  C28 UNL     1      -9.782   3.221   4.085  1.00  0.00     0.151 C 
BRANCH  49  50
HETATM   50  C29 UNL     1      -9.687   1.806   3.651  1.00  0.00     0.143 C 
HETATM   51  O9  UNL     1      -9.225   1.557   2.514  1.00  0.00    -0.650 OA
BRANCH  50  52
HETATM   52  O10 UNL     1     -10.084   0.742   4.441  1.00  0.00    -0.776 OA
HETATM   53  H25 UNL     1     -10.962   0.765   4.978  1.00  0.00     0.167 HD
ENDBRANCH  50  52
ENDBRANCH  49  50
ENDBRANCH  24  49
BRANCH  21  54
HETATM   54  C31 UNL     1      -8.385   5.476   2.475  1.00  0.00     0.052 C 
BRANCH  54  55
HETATM   55  C32 UNL     1      -7.966   4.938   1.154  1.00  0.00     0.115 C 
BRANCH  55  56
HETATM   56  C33 UNL     1      -9.187   4.279   0.561  1.00  0.00     0.139 C 
HETATM   57  O11 UNL     1     -10.316   4.825   0.636  1.00  0.00    -0.650 OA
BRANCH  56  58
HETATM   58  O12 UNL     1      -9.115   3.053  -0.086  1.00  0.00    -0.776 OA
HETATM   59  H30 UNL     1      -8.685   3.070  -1.015  1.00  0.00     0.167 HD
ENDBRANCH  56  58
ENDBRANCH  55  56
ENDBRANCH  54  55
ENDBRANCH  21  54
BRANCH  18  60
HETATM   60  C35 UNL     1      -2.836   6.176   2.482  1.00  0.00     0.151 C 
BRANCH  60  61
HETATM   61  C36 UNL     1      -2.891   4.814   1.945  1.00  0.00     0.143 C 
HETATM   62  O13 UNL     1      -2.182   3.907   2.466  1.00  0.00    -0.650 OA
BRANCH  61  63
HETATM   63  O14 UNL     1      -3.699   4.461   0.873  1.00  0.00    -0.776 OA
HETATM   64  H33 UNL     1      -3.832   5.128   0.131  1.00  0.00     0.167 HD
ENDBRANCH  61  63
ENDBRANCH  60  61
ENDBRANCH  18  60
BRANCH  14  65
HETATM   65  C38 UNL     1      -0.611   6.249   4.480  1.00  0.00     0.052 C 
BRANCH  65  66
HETATM   66  C39 UNL     1      -0.197   7.688   4.575  1.00  0.00     0.115 C 
BRANCH  66  67
HETATM   67  C40 UNL     1       0.927   7.791   5.580  1.00  0.00     0.139 C 
HETATM   68  O15 UNL     1       1.360   6.760   6.157  1.00  0.00    -0.650 OA
BRANCH  67  69
HETATM   69  O16 UNL     1       1.486   9.003   5.877  1.00  0.00    -0.776 OA
HETATM   70  H38 UNL     1       1.379   9.799   5.270  1.00  0.00     0.167 HD
ENDBRANCH  67  69
ENDBRANCH  66  67
ENDBRANCH  65  66
ENDBRANCH  14  65
ENDBRANCH   6   7
ENDBRANCH   5   6
ENDBRANCH   2   5
TORSDOF 28
ENDMDL
MODEL 3
REMARK VINA RESULT:      -6.9     20.265     24.782
REMARK  28 active torsions:
REMARK  status: ('A' for Active; 'I' for Inactive)
REMARK    1  A    between atoms: C1_2  and  O2_3 
REMARK    2  A    between atoms: C1_2  and  C2_4 
REMARK    3  A    between atoms: C2_4  and  C3_5 
REMARK    4  A    between atoms: C3_5  and  C4_6 
REMARK    5  A    between atoms: C5_7  and  C6_8 
REMARK    6  A    between atoms: C6_8  and  C7_9 
REMARK    7  A    between atoms: C7_9  and  O4_11 
REMARK    8  A    between atoms: C20_28  and  C21_29 
REMARK    9  A    between atoms: C21_29  and  C22_30 
REMARK   10  A    between atoms: C22_30  and  O6_32 
REMARK   11  A    between atoms: C23_33  and  C24_34 
REMARK   12  A    between atoms: C24_34  and  C25_35 
REMARK   13  A    between atoms: C25_35  and  C26_36 
REMARK   14  A    between atoms: C26_36  and  O8_38 
REMARK   15  A    between atoms: C27_39  and  C28_40 
REMARK   16  A    between atoms: C28_40  and  C29_41 
REMARK   17  A    between atoms: C29_41  and  O10_43 
REMARK   18  A    between atoms: C30_44  and  C31_45 
REMARK   19  A    between atoms: C31_45  and  C32_46 
REMARK   20  A    between atoms: C32_46  and  C33_47 
REMARK   21  A    between atoms: C33_47  and  O12_49 
REMARK   22  A    between atoms: C34_50  and  C35_51 
REMARK   23  A    between atoms: C35_51  and  C36_52 
REMARK   24  A    between atoms: C36_52  and  O14_54 
REMARK   25  A    between atoms: C37_55  and  C38_56 
REMARK   26  A    between atoms: C38_56  and  C39_57 
REMARK   27  A    between atoms: C39_57  and  C40_58 
REMARK   28  A    between atoms: C40_58  and  O16_60 
ROOT
HETATM    1  O1  UNL     1     -32.550   5.519   0.688  1.00  0.00    -0.650 OA
HETATM    2  C1  UNL     1     -32.663   6.374   1.575  1.00  0.00     0.139 C 
ENDROOT
BRANCH   2   3
HETATM    3  O2  UNL     1     -31.499   6.772   2.237  1.00  0.00    -0.776 OA
HETATM    4  H1  UNL     1     -31.218   7.743   2.311  1.00  0.00     0.167 HD
ENDBRANCH   2   3
BRANCH   2   5
HETATM    5  C2  UNL     1     -33.955   6.980   1.952  1.00  0.00     0.115 C 
BRANCH   5   6
HETATM    6  C3  UNL     1     -34.589   7.789   0.881  1.00  0.00     0.052 C 
BRANCH   6   7
HETATM    7  C4  UNL     1     -34.017   9.162   0.846  1.00  0.00    -0.020 A 
HETATM    8  C5  UNL     1     -34.433  10.238   1.518  1.00  0.00    -0.011 A 
HETATM    9  C8  UNL     1     -33.589  11.362   1.190  1.00  0.00     0.067 A 
HETATM   10  C9  UNL     1     -33.577  12.720   1.576  1.00  0.00     0.062 C 
HETATM   11  N4  UNL     1     -32.679  10.931   0.323  1.00  0.00    -0.248 NA
HETATM   12  C10 UNL     1     -32.748  13.701   1.036  1.00  0.00     0.041 A 
HETATM   13  N1  UNL     1     -32.312  13.942  -0.215  1.00  0.00    -0.355 N 
HETATM   14  C37 UNL     1     -32.172  14.639   1.923  1.00  0.00    -0.022 A 
HETATM   15  C11 UNL     1     -31.476  14.994  -0.152  1.00  0.00     0.042 A 
HETATM   16  H10 UNL     1     -32.615  13.392  -1.137  1.00  0.00     0.166 HD
HETATM   17  C12 UNL     1     -30.702  15.657  -1.108  1.00  0.00     0.062 C 
HETATM   18  C34 UNL     1     -31.383  15.440   1.185  1.00  0.00    -0.013 A 
HETATM   19  C13 UNL     1     -29.960  15.028  -2.125  1.00  0.00     0.066 A 
HETATM   20  N2  UNL     1     -29.974  13.689  -2.199  1.00  0.00    -0.248 NA
HETATM   21  C30 UNL     1     -29.132  15.515  -3.200  1.00  0.00    -0.020 A 
HETATM   22  C14 UNL     1     -29.220  13.288  -3.238  1.00  0.00     0.067 A 
HETATM   23  C15 UNL     1     -29.104  11.917  -3.500  1.00  0.00     0.062 C 
HETATM   24  C27 UNL     1     -28.665  14.465  -3.896  1.00  0.00    -0.011 A 
HETATM   25  C16 UNL     1     -29.920  10.880  -2.999  1.00  0.00     0.041 A 
HETATM   26  N3  UNL     1     -30.463  10.717  -1.786  1.00  0.00    -0.355 N 
HETATM   27  C23 UNL     1     -30.312   9.832  -3.867  1.00  0.00    -0.022 A 
HETATM   28  C17 UNL     1     -31.205   9.603  -1.818  1.00  0.00     0.042 A 
HETATM   29  H13 UNL     1     -30.305  11.375  -0.890  1.00  0.00     0.166 HD
HETATM   30  C18 UNL     1     -31.993   8.988  -0.827  1.00  0.00     0.062 C 
HETATM   31  C20 UNL     1     -31.133   9.029  -3.104  1.00  0.00    -0.013 A 
HETATM   32  C19 UNL     1     -32.870   9.614   0.066  1.00  0.00     0.066 A 
BRANCH   8  33
HETATM   33  C6  UNL     1     -35.589  10.238   2.457  1.00  0.00     0.151 C 
BRANCH  33  34
HETATM   34  C7  UNL     1     -35.181  10.267   3.881  1.00  0.00     0.143 C 
HETATM   35  O3  UNL     1     -35.039   9.193   4.496  1.00  0.00    -0.650 OA
BRANCH  34  36
HETATM   36  O4  UNL     1     -34.972  11.491   4.476  1.00  0.00    -0.776 OA
HETATM   37  H8  UNL     1     -35.696  12.204   4.392  1.00  0.00     0.167 HD
ENDBRANCH  34  36
ENDBRANCH  33  34
ENDBRANCH   8  33
BRANCH  31  38
HETATM   38  C21 UNL     1     -31.837   7.780  -3.598  1.00  0.00     0.151 C 
BRANCH  38  39
HETATM   39  C22 UNL     1     -30.918   6.643  -3.362  1.00  0.00     0.143 C 
HETATM   40  O5  UNL     1     -31.349   5.619  -2.789  1.00  0.00    -0.650 OA
BRANCH  39  41
HETATM   41  O6  UNL     1     -29.586   6.654  -3.747  1.00  0.00    -0.776 OA
HETATM   42  H17 UNL     1     -28.996   7.484  -3.609  1.00  0.00     0.167 HD
ENDBRANCH  39  41
ENDBRANCH  38  39
ENDBRANCH  31  38
BRANCH  27  43
HETATM   43  C24 UNL     1     -29.961   9.587  -5.292  1.00  0.00     0.052 C 
BRANCH  43  44
HETATM   44  C25 UNL     1     -31.143   9.597  -6.166  1.00  0.00     0.115 C 
BRANCH  44  45
HETATM   45  C26 UNL     1     -32.156  10.634  -5.994  1.00  0.00     0.139 C 
HETATM   46  O7  UNL     1     -33.375  10.595  -6.125  1.00  0.00    -0.650 OA
BRANCH  45  47
HETATM   47  O8  UNL     1     -31.636  11.902  -5.611  1.00  0.00    -0.776 OA
HETATM   48  H22 UNL     1     -31.197  12.062  -4.738  1.00  0.00     0.167 HD
ENDBRANCH  45  47
ENDBRANCH  44  45
ENDBRANCH  43  44
ENDBRANCH  27  43
BRANCH  24  49
HETATM   49  C28 UNL     1     -27.773  14.481  -5.098  1.00  0.00     0.151 C 
BRANCH  49  50
HETATM   50  C29 UNL     1     -26.378  14.138  -4.727  1.00  0.00     0.143 C 
HETATM   51  O9  UNL     1     -25.602  15.062  -4.391  1.00  0.00    -0.650 OA
BRANCH  50  52
HETATM   52  O10 UNL     1     -25.889  12.844  -4.734  1.00  0.00    -0.776 OA
HETATM   53  H25 UNL     1     -26.484  12.042  -4.981  1.00  0.00     0.167 HD
ENDBRANCH  50  52
ENDBRANCH  49  50
ENDBRANCH  24  49
BRANCH  21  54
HETATM   54  C31 UNL     1     -28.836  16.938  -3.529  1.00  0.00     0.052 C 
BRANCH  54  55
HETATM   55  C32 UNL     1     -27.904  17.611  -2.585  1.00  0.00     0.115 C 
BRANCH  55  56
HETATM   56  C33 UNL     1     -26.794  18.187  -3.430  1.00  0.00     0.139 C 
HETATM   57  O11 UNL     1     -25.968  18.999  -2.945  1.00  0.00    -0.650 OA
BRANCH  56  58
HETATM   58  O12 UNL     1     -26.641  17.845  -4.767  1.00  0.00    -0.776 OA
HETATM   59  H30 UNL     1     -25.684  17.902  -5.128  1.00  0.00     0.167 HD
ENDBRANCH  56  58
ENDBRANCH  55  56
ENDBRANCH  54  55
ENDBRANCH  21  54
BRANCH  18  60
HETATM   60  C35 UNL     1     -30.606  16.585   1.765  1.00  0.00     0.151 C 
BRANCH  60  61
HETATM   61  C36 UNL     1     -31.417  17.794   1.610  1.00  0.00     0.143 C 
HETATM   62  O13 UNL     1     -30.958  18.908   1.988  1.00  0.00    -0.650 OA
BRANCH  61  63
HETATM   63  O14 UNL     1     -32.690  17.779   1.056  1.00  0.00    -0.776 OA
HETATM   64  H33 UNL     1     -32.780  17.850   0.056  1.00  0.00     0.167 HD
ENDBRANCH  61  63
ENDBRANCH  60  61
ENDBRANCH  18  60
BRANCH  14  65
HETATM   65  C38 UNL     1     -32.362  14.802   3.403  1.00  0.00     0.052 C 
BRANCH  65  66
HETATM   66  C39 UNL     1     -31.199  14.187   4.126  1.00  0.00     0.115 C 
BRANCH  66  67
HETATM   67  C40 UNL     1     -31.131  12.725   3.755  1.00  0.00     0.139 C 
HETATM   68  O15 UNL     1     -32.041  11.933   4.117  1.00  0.00    -0.650 OA
BRANCH  67  69
HETATM   69  O16 UNL     1     -30.083  12.241   3.021  1.00  0.00    -0.776 OA
HETATM   70  H38 UNL     1     -29.422  12.854   2.575  1.00  0.00     0.167 HD
ENDBRANCH  67  69
ENDBRANCH  66  67
ENDBRANCH  65  66
ENDBRANCH  14  65
ENDBRANCH   6   7
ENDBRANCH   5   6
ENDBRANCH   2   5
TORSDOF 28
ENDMDL
MODEL 4
REMARK VINA RESULT:      -6.8     23.441     28.946
REMARK  28 active torsions:
REMARK  status: ('A' for Active; 'I' for Inactive)
REMARK    1  A    between atoms: C1_2  and  O2_3 
REMARK    2  A    between atoms: C1_2  and  C2_4 
REMARK    3  A    between atoms: C2_4  and  C3_5 
REMARK    4  A    between atoms: C3_5  and  C4_6 
REMARK    5  A    between atoms: C5_7  and  C6_8 
REMARK    6  A    between atoms: C6_8  and  C7_9 
REMARK    7  A    between atoms: C7_9  and  O4_11 
REMARK    8  A    between atoms: C20_28  and  C21_29 
REMARK    9  A    between atoms: C21_29  and  C22_30 
REMARK   10  A    between atoms: C22_30  and  O6_32 
REMARK   11  A    between atoms: C23_33  and  C24_34 
REMARK   12  A    between atoms: C24_34  and  C25_35 
REMARK   13  A    between atoms: C25_35  and  C26_36 
REMARK   14  A    between atoms: C26_36  and  O8_38 
REMARK   15  A    between atoms: C27_39  and  C28_40 
REMARK   16  A    between atoms: C28_40  and  C29_41 
REMARK   17  A    between atoms: C29_41  and  O10_43 
REMARK   18  A    between atoms: C30_44  and  C31_45 
REMARK   19  A    between atoms: C31_45  and  C32_46 
REMARK   20  A    between atoms: C32_46  and  C33_47 
REMARK   21  A    between atoms: C33_47  and  O12_49 
REMARK   22  A    between atoms: C34_50  and  C35_51 
REMARK   23  A    between atoms: C35_51  and  C36_52 
REMARK   24  A    between atoms: C36_52  and  O14_54 
REMARK   25  A    between atoms: C37_55  and  C38_56 
REMARK   26  A    between atoms: C38_56  and  C39_57 
REMARK   27  A    between atoms: C39_57  and  C40_58 
REMARK   28  A    between atoms: C40_58  and  O16_60 
ROOT
HETATM    1  O1  UNL     1     -19.260  11.869   1.151  1.00  0.00    -0.650 OA
HETATM    2  C1  UNL     1     -19.649  10.708   0.972  1.00  0.00     0.139 C 
ENDROOT
BRANCH   2   3
HETATM    3  O2  UNL     1     -20.517  10.479  -0.098  1.00  0.00    -0.776 OA
HETATM    4  H1  UNL     1     -20.832   9.550  -0.356  1.00  0.00     0.167 HD
ENDBRANCH   2   3
BRANCH   2   5
HETATM    5  C2  UNL     1     -19.239   9.579   1.829  1.00  0.00     0.115 C 
BRANCH   5   6
HETATM    6  C3  UNL     1     -18.762   8.386   1.084  1.00  0.00     0.052 C 
BRANCH   6   7
HETATM    7  C4  UNL     1     -17.298   8.198   1.267  1.00  0.00    -0.020 A 
HETATM    8  C5  UNL     1     -16.341   8.285   0.339  1.00  0.00    -0.011 A 
HETATM    9  C8  UNL     1     -15.058   8.034   0.950  1.00  0.00     0.067 A 
HETATM   10  C9  UNL     1     -13.736   7.975   0.458  1.00  0.00     0.062 C 
HETATM   11  N4  UNL     1     -15.276   7.802   2.241  1.00  0.00    -0.248 NA
HETATM   12  C10 UNL     1     -12.623   7.578   1.195  1.00  0.00     0.041 A 
HETATM   13  N1  UNL     1     -12.434   6.620   2.122  1.00  0.00    -0.355 N 
HETATM   14  C37 UNL     1     -11.424   8.309   1.025  1.00  0.00    -0.022 A 
HETATM   15  C11 UNL     1     -11.163   6.721   2.551  1.00  0.00     0.042 A 
HETATM   16  H10 UNL     1     -13.184   5.860   2.449  1.00  0.00     0.166 HD
HETATM   17  C12 UNL     1     -10.424   6.036   3.518  1.00  0.00     0.062 C 
HETATM   18  C34 UNL     1     -10.520   7.777   1.867  1.00  0.00    -0.013 A 
HETATM   19  C13 UNL     1     -10.906   5.662   4.787  1.00  0.00     0.066 A 
HETATM   20  N2  UNL     1     -12.164   5.982   5.119  1.00  0.00    -0.248 NA
HETATM   21  C30 UNL     1     -10.329   4.949   5.900  1.00  0.00    -0.020 A 
HETATM   22  C14 UNL     1     -12.432   5.527   6.357  1.00  0.00     0.067 A 
HETATM   23  C15 UNL     1     -13.705   5.751   6.899  1.00  0.00     0.062 C 
HETATM   24  C27 UNL     1     -11.247   4.855   6.876  1.00  0.00    -0.011 A 
HETATM   25  C16 UNL     1     -14.872   6.137   6.204  1.00  0.00     0.041 A 
HETATM   26  N3  UNL     1     -15.030   6.995   5.189  1.00  0.00    -0.355 N 
HETATM   27  C23 UNL     1     -16.107   5.531   6.544  1.00  0.00    -0.022 A 
HETATM   28  C17 UNL     1     -16.322   6.977   4.838  1.00  0.00     0.042 A 
HETATM   29  H13 UNL     1     -14.233   7.638   4.729  1.00  0.00     0.166 HD
HETATM   30  C18 UNL     1     -17.016   7.672   3.830  1.00  0.00     0.062 C 
HETATM   31  C20 UNL     1     -17.020   6.072   5.664  1.00  0.00    -0.013 A 
HETATM   32  C19 UNL     1     -16.602   7.884   2.509  1.00  0.00     0.066 A 
BRANCH   8  33
HETATM   33  C6  UNL     1     -16.597   8.600  -1.094  1.00  0.00     0.151 C 
BRANCH  33  34
HETATM   34  C7  UNL     1     -17.172   9.950  -1.299  1.00  0.00     0.143 C 
HETATM   35  O3  UNL     1     -18.142  10.089  -2.070  1.00  0.00    -0.650 OA
BRANCH  34  36
HETATM   36  O4  UNL     1     -16.610  11.010  -0.623  1.00  0.00    -0.776 OA
HETATM   37  H8  UNL     1     -17.198  11.552   0.010  1.00  0.00     0.167 HD
ENDBRANCH  34  36
ENDBRANCH  33  34
ENDBRANCH   8  33
BRANCH  31  38
HETATM   38  C21 UNL     1     -18.492   5.713   5.603  1.00  0.00     0.151 C 
BRANCH  38  39
HETATM   39  C22 UNL     1     -18.610   4.522   4.730  1.00  0.00     0.143 C 
HETATM   40  O5  UNL     1     -19.504   3.681   4.964  1.00  0.00    -0.650 OA
BRANCH  39  41
HETATM   41  O6  UNL     1     -17.771   4.288   3.651  1.00  0.00    -0.776 OA
HETATM   42  H17 UNL     1     -18.084   4.449   2.685  1.00  0.00     0.167 HD
ENDBRANCH  39  41
ENDBRANCH  38  39
ENDBRANCH  31  38
BRANCH  27  43
HETATM   43  C24 UNL     1     -16.424   4.529   7.597  1.00  0.00     0.052 C 
BRANCH  43  44
HETATM   44  C25 UNL     1     -16.166   3.153   7.151  1.00  0.00     0.115 C 
BRANCH  44  45
HETATM   45  C26 UNL     1     -17.264   2.191   7.117  1.00  0.00     0.139 C 
HETATM   46  O7  UNL     1     -18.349   2.191   7.689  1.00  0.00    -0.650 OA
BRANCH  45  47
HETATM   47  O8  UNL     1     -17.030   1.064   6.280  1.00  0.00    -0.776 OA
HETATM   48  H22 UNL     1     -16.772   0.176   6.633  1.00  0.00     0.167 HD
ENDBRANCH  45  47
ENDBRANCH  44  45
ENDBRANCH  43  44
ENDBRANCH  27  43
BRANCH  24  49
HETATM   49  C28 UNL     1     -11.105   4.198   8.214  1.00  0.00     0.151 C 
BRANCH  49  50
HETATM   50  C29 UNL     1     -11.811   2.893   8.240  1.00  0.00     0.143 C 
HETATM   51  O9  UNL     1     -12.923   2.823   8.811  1.00  0.00    -0.650 OA
BRANCH  50  52
HETATM   52  O10 UNL     1     -11.300   1.744   7.662  1.00  0.00    -0.776 OA
HETATM   53  H25 UNL     1     -10.308   1.663   7.404  1.00  0.00     0.167 HD
ENDBRANCH  50  52
ENDBRANCH  49  50
ENDBRANCH  24  49
BRANCH  21  54
HETATM   54  C31 UNL     1      -8.955   4.378   5.983  1.00  0.00     0.052 C 
BRANCH  54  55
HETATM   55  C32 UNL     1      -8.837   2.977   5.500  1.00  0.00     0.115 C 
BRANCH  55  56
HETATM   56  C33 UNL     1      -8.017   2.243   6.533  1.00  0.00     0.139 C 
HETATM   57  O11 UNL     1      -8.445   2.084   7.703  1.00  0.00    -0.650 OA
BRANCH  56  58
HETATM   58  O12 UNL     1      -6.766   1.719   6.236  1.00  0.00    -0.776 OA
HETATM   59  H30 UNL     1      -6.274   2.169   5.459  1.00  0.00     0.167 HD
ENDBRANCH  56  58
ENDBRANCH  55  56
ENDBRANCH  54  55
ENDBRANCH  21  54
BRANCH  18  60
HETATM   60  C35 UNL     1      -9.108   8.271   1.971  1.00  0.00     0.151 C 
BRANCH  60  61
HETATM   61  C36 UNL     1      -8.323   7.584   0.943  1.00  0.00     0.143 C 
HETATM   62  O13 UNL     1      -7.242   8.094   0.536  1.00  0.00    -0.650 OA
BRANCH  61  63
HETATM   63  O14 UNL     1      -8.712   6.374   0.384  1.00  0.00    -0.776 OA
HETATM   64  H33 UNL     1      -9.628   6.018   0.598  1.00  0.00     0.167 HD
ENDBRANCH  61  63
ENDBRANCH  60  61
ENDBRANCH  18  60
BRANCH  14  65
HETATM   65  C38 UNL     1     -11.121   9.451   0.099  1.00  0.00     0.052 C 
BRANCH  65  66
HETATM   66  C39 UNL     1     -11.033   8.941  -1.309  1.00  0.00     0.115 C 
BRANCH  66  67
HETATM   67  C40 UNL     1      -9.657   9.265  -1.844  1.00  0.00     0.139 C 
HETATM   68  O15 UNL     1      -9.298  10.462  -1.992  1.00  0.00    -0.650 OA
BRANCH  67  69
HETATM   69  O16 UNL     1      -8.785   8.264  -2.172  1.00  0.00    -0.776 OA
HETATM   70  H38 UNL     1      -7.994   8.427  -2.772  1.00  0.00     0.167 HD
ENDBRANCH  67  69
ENDBRANCH  66  67
ENDBRANCH  65  66
ENDBRANCH  14  65
ENDBRANCH   6   7
ENDBRANCH   5   6
ENDBRANCH   2   5
TORSDOF 28
ENDMDL
MODEL 5
REMARK VINA RESULT:      -6.8     22.964     28.243
REMARK  28 active torsions:
REMARK  status: ('A' for Active; 'I' for Inactive)
REMARK    1  A    between atoms: C1_2  and  O2_3 
REMARK    2  A    between atoms: C1_2  and  C2_4 
REMARK    3  A    between atoms: C2_4  and  C3_5 
REMARK    4  A    between atoms: C3_5  and  C4_6 
REMARK    5  A    between atoms: C5_7  and  C6_8 
REMARK    6  A    between atoms: C6_8  and  C7_9 
REMARK    7  A    between atoms: C7_9  and  O4_11 
REMARK    8  A    between atoms: C20_28  and  C21_29 
REMARK    9  A    between atoms: C21_29  and  C22_30 
REMARK   10  A    between atoms: C22_30  and  O6_32 
REMARK   11  A    between atoms: C23_33  and  C24_34 
REMARK   12  A    between atoms: C24_34  and  C25_35 
REMARK   13  A    between atoms: C25_35  and  C26_36 
REMARK   14  A    between atoms: C26_36  and  O8_38 
REMARK   15  A    between atoms: C27_39  and  C28_40 
REMARK   16  A    between atoms: C28_40  and  C29_41 
REMARK   17  A    between atoms: C29_41  and  O10_43 
REMARK   18  A    between atoms: C30_44  and  C31_45 
REMARK   19  A    between atoms: C31_45  and  C32_46 
REMARK   20  A    between atoms: C32_46  and  C33_47 
REMARK   21  A    between atoms: C33_47  and  O12_49 
REMARK   22  A    between atoms: C34_50  and  C35_51 
REMARK   23  A    between atoms: C35_51  and  C36_52 
REMARK   24  A    between atoms: C36_52  and  O14_54 
REMARK   25  A    between atoms: C37_55  and  C38_56 
REMARK   26  A    between atoms: C38_56  and  C39_57 
REMARK   27  A    between atoms: C39_57  and  C40_58 
REMARK   28  A    between atoms: C40_58  and  O16_60 
ROOT
HETATM    1  O1  UNL     1     -18.949   2.113   8.920  1.00  0.00    -0.650 OA
HETATM    2  C1  UNL     1     -18.705   2.611   7.814  1.00  0.00     0.139 C 
ENDROOT
BRANCH   2   3
HETATM    3  O2  UNL     1     -17.873   1.890   6.955  1.00  0.00    -0.776 OA
HETATM    4  H1  UNL     1     -16.863   1.884   7.050  1.00  0.00     0.167 HD
ENDBRANCH   2   3
BRANCH   2   5
HETATM    5  C2  UNL     1     -19.248   3.911   7.377  1.00  0.00     0.115 C 
BRANCH   5   6
HETATM    6  C3  UNL     1     -18.520   5.091   7.909  1.00  0.00     0.052 C 
BRANCH   6   7
HETATM    7  C4  UNL     1     -17.083   5.042   7.529  1.00  0.00    -0.020 A 
HETATM    8  C5  UNL     1     -16.032   4.851   8.330  1.00  0.00    -0.011 A 
HETATM    9  C8  UNL     1     -14.822   4.873   7.545  1.00  0.00     0.067 A 
HETATM   10  C9  UNL     1     -13.451   4.749   7.859  1.00  0.00     0.062 C 
HETATM   11  N4  UNL     1     -15.177   5.077   6.280  1.00  0.00    -0.248 NA
HETATM   12  C10 UNL     1     -12.402   4.936   6.961  1.00  0.00     0.041 A 
HETATM   13  N1  UNL     1     -12.203   5.811   5.957  1.00  0.00    -0.355 N 
HETATM   14  C37 UNL     1     -11.312   4.037   7.023  1.00  0.00    -0.022 A 
HETATM   15  C11 UNL     1     -11.030   5.495   5.376  1.00  0.00     0.042 A 
HETATM   16  H10 UNL     1     -12.870   6.661   5.680  1.00  0.00     0.166 HD
HETATM   17  C12 UNL     1     -10.339   6.013   4.279  1.00  0.00     0.062 C 
HETATM   18  C34 UNL     1     -10.463   4.384   6.040  1.00  0.00    -0.013 A 
HETATM   19  C13 UNL     1     -10.928   6.399   3.061  1.00  0.00     0.066 A 
HETATM   20  N2  UNL     1     -12.253   6.262   2.914  1.00  0.00    -0.248 NA
HETATM   21  C30 UNL     1     -10.410   6.963   1.839  1.00  0.00    -0.020 A 
HETATM   22  C14 UNL     1     -12.618   6.696   1.694  1.00  0.00     0.067 A 
HETATM   23  C15 UNL     1     -13.972   6.647   1.335  1.00  0.00     0.062 C 
HETATM   24  C27 UNL     1     -11.429   7.153   0.984  1.00  0.00    -0.011 A 
HETATM   25  C16 UNL     1     -15.077   6.478   2.197  1.00  0.00     0.041 A 
HETATM   26  N3  UNL     1     -15.220   5.702   3.278  1.00  0.00    -0.355 N 
HETATM   27  C23 UNL     1     -16.244   7.251   1.979  1.00  0.00    -0.022 A 
HETATM   28  C17 UNL     1     -16.434   5.934   3.789  1.00  0.00     0.042 A 
HETATM   29  H13 UNL     1     -14.471   4.964   3.674  1.00  0.00     0.166 HD
HETATM   30  C18 UNL     1     -17.079   5.401   4.921  1.00  0.00     0.062 C 
HETATM   31  C20 UNL     1     -17.098   6.898   3.002  1.00  0.00    -0.013 A 
HETATM   32  C19 UNL     1     -16.525   5.188   6.190  1.00  0.00     0.066 A 
BRANCH   8  33
HETATM   33  C6  UNL     1     -16.133   4.644   9.801  1.00  0.00     0.151 C 
BRANCH  33  34
HETATM   34  C7  UNL     1     -15.788   5.853  10.584  1.00  0.00     0.143 C 
HETATM   35  O3  UNL     1     -14.767   5.846  11.300  1.00  0.00    -0.650 OA
BRANCH  34  36
HETATM   36  O4  UNL     1     -16.614   6.951  10.490  1.00  0.00    -0.776 OA
HETATM   37  H8  UNL     1     -16.504   7.703  11.170  1.00  0.00     0.167 HD
ENDBRANCH  34  36
ENDBRANCH  33  34
ENDBRANCH   8  33
BRANCH  31  38
HETATM   38  C21 UNL     1     -18.479   7.482   3.227  1.00  0.00     0.151 C 
BRANCH  38  39
HETATM   39  C22 UNL     1     -18.290   8.800   3.877  1.00  0.00     0.143 C 
HETATM   40  O5  UNL     1     -17.279   8.990   4.587  1.00  0.00    -0.650 OA
BRANCH  39  41
HETATM   41  O6  UNL     1     -19.186   9.848   3.737  1.00  0.00    -0.776 OA
HETATM   42  H17 UNL     1     -20.165   9.759   4.039  1.00  0.00     0.167 HD
ENDBRANCH  39  41
ENDBRANCH  38  39
ENDBRANCH  31  38
BRANCH  27  43
HETATM   43  C24 UNL     1     -16.551   8.241   0.912  1.00  0.00     0.052 C 
BRANCH  43  44
HETATM   44  C25 UNL     1     -16.014   9.574   1.219  1.00  0.00     0.115 C 
BRANCH  44  45
HETATM   45  C26 UNL     1     -16.750  10.761   0.793  1.00  0.00     0.139 C 
HETATM   46  O7  UNL     1     -16.367  11.791   0.248  1.00  0.00    -0.650 OA
BRANCH  45  47
HETATM   47  O8  UNL     1     -18.147  10.709   1.059  1.00  0.00    -0.776 OA
HETATM   48  H22 UNL     1     -18.554  10.044   1.669  1.00  0.00     0.167 HD
ENDBRANCH  45  47
ENDBRANCH  44  45
ENDBRANCH  43  44
ENDBRANCH  27  43
BRANCH  24  49
HETATM   49  C28 UNL     1     -11.376   7.719  -0.400  1.00  0.00     0.151 C 
BRANCH  49  50
HETATM   50  C29 UNL     1     -11.338   9.202  -0.365  1.00  0.00     0.143 C 
HETATM   51  O9  UNL     1     -12.288   9.814   0.175  1.00  0.00    -0.650 OA
BRANCH  50  52
HETATM   52  O10 UNL     1     -10.302   9.946  -0.900  1.00  0.00    -0.776 OA
HETATM   53  H25 UNL     1      -9.318   9.740  -0.682  1.00  0.00     0.167 HD
ENDBRANCH  50  52
ENDBRANCH  49  50
ENDBRANCH  24  49
BRANCH  21  54
HETATM   54  C31 UNL     1      -8.992   7.311   1.544  1.00  0.00     0.052 C 
BRANCH  54  55
HETATM   55  C32 UNL     1      -8.214   6.231   0.880  1.00  0.00     0.115 C 
BRANCH  55  56
HETATM   56  C33 UNL     1      -7.493   6.882  -0.275  1.00  0.00     0.139 C 
HETATM   57  O11 UNL     1      -6.579   7.720  -0.077  1.00  0.00    -0.650 OA
BRANCH  56  58
HETATM   58  O12 UNL     1      -7.808   6.583  -1.595  1.00  0.00    -0.776 OA
HETATM   59  H30 UNL     1      -7.846   5.586  -1.822  1.00  0.00     0.167 HD
ENDBRANCH  56  58
ENDBRANCH  55  56
ENDBRANCH  54  55
ENDBRANCH  21  54
BRANCH  18  60
HETATM   60  C35 UNL     1      -9.166   3.674   5.789  1.00  0.00     0.151 C 
BRANCH  60  61
HETATM   61  C36 UNL     1      -9.455   2.508   4.952  1.00  0.00     0.143 C 
HETATM   62  O13 UNL     1      -9.597   2.651   3.706  1.00  0.00    -0.650 OA
BRANCH  61  63
HETATM   63  O14 UNL     1      -9.583   1.225   5.469  1.00  0.00    -0.776 OA
HETATM   64  H33 UNL     1     -10.239   0.596   5.038  1.00  0.00     0.167 HD
ENDBRANCH  61  63
ENDBRANCH  60  61
ENDBRANCH  18  60
BRANCH  14  65
HETATM   65  C38 UNL     1     -11.056   2.905   7.976  1.00  0.00     0.052 C 
BRANCH  65  66
HETATM   66  C39 UNL     1     -10.100   3.355   9.041  1.00  0.00     0.115 C 
BRANCH  66  67
HETATM   67  C40 UNL     1      -9.138   2.224   9.320  1.00  0.00     0.139 C 
HETATM   68  O15 UNL     1      -8.627   2.091  10.463  1.00  0.00    -0.650 OA
BRANCH  67  69
HETATM   69  O16 UNL     1      -8.809   1.332   8.338  1.00  0.00    -0.776 OA
HETATM   70  H38 UNL     1      -8.946   0.342   8.455  1.00  0.00     0.167 HD
ENDBRANCH  67  69
ENDBRANCH  66  67
ENDBRANCH  65  66
ENDBRANCH  14  65
ENDBRANCH   6   7
ENDBRANCH   5   6
ENDBRANCH   2   5
TORSDOF 28
ENDMDL
MODEL 6
REMARK VINA RESULT:      -6.8     23.936     28.830
REMARK  28 active torsions:
REMARK  status: ('A' for Active; 'I' for Inactive)
REMARK    1  A    between atoms: C1_2  and  O2_3 
REMARK    2  A    between atoms: C1_2  and  C2_4 
REMARK    3  A    between atoms: C2_4  and  C3_5 
REMARK    4  A    between atoms: C3_5  and  C4_6 
REMARK    5  A    between atoms: C5_7  and  C6_8 
REMARK    6  A    between atoms: C6_8  and  C7_9 
REMARK    7  A    between atoms: C7_9  and  O4_11 
REMARK    8  A    between atoms: C20_28  and  C21_29 
REMARK    9  A    between atoms: C21_29  and  C22_30 
REMARK   10  A    between atoms: C22_30  and  O6_32 
REMARK   11  A    between atoms: C23_33  and  C24_34 
REMARK   12  A    between atoms: C24_34  and  C25_35 
REMARK   13  A    between atoms: C25_35  and  C26_36 
REMARK   14  A    between atoms: C26_36  and  O8_38 
REMARK   15  A    between atoms: C27_39  and  C28_40 
REMARK   16  A    between atoms: C28_40  and  C29_41 
REMARK   17  A    between atoms: C29_41  and  O10_43 
REMARK   18  A    between atoms: C30_44  and  C31_45 
REMARK   19  A    between atoms: C31_45  and  C32_46 
REMARK   20  A    between atoms: C32_46  and  C33_47 
REMARK   21  A    between atoms: C33_47  and  O12_49 
REMARK   22  A    between atoms: C34_50  and  C35_51 
REMARK   23  A    between atoms: C35_51  and  C36_52 
REMARK   24  A    between atoms: C36_52  and  O14_54 
REMARK   25  A    between atoms: C37_55  and  C38_56 
REMARK   26  A    between atoms: C38_56  and  C39_57 
REMARK   27  A    between atoms: C39_57  and  C40_58 
REMARK   28  A    between atoms: C40_58  and  O16_60 
ROOT
HETATM    1  O1  UNL     1     -16.971   2.543   6.613  1.00  0.00    -0.650 OA
HETATM    2  C1  UNL     1     -17.676   3.479   7.009  1.00  0.00     0.139 C 
ENDROOT
BRANCH   2   3
HETATM    3  O2  UNL     1     -17.616   3.797   8.368  1.00  0.00    -0.776 OA
HETATM    4  H1  UNL     1     -17.342   4.715   8.702  1.00  0.00     0.167 HD
ENDBRANCH   2   3
BRANCH   2   5
HETATM    5  C2  UNL     1     -18.558   4.258   6.119  1.00  0.00     0.115 C 
BRANCH   5   6
HETATM    6  C3  UNL     1     -18.244   5.708   6.059  1.00  0.00     0.052 C 
BRANCH   6   7
HETATM    7  C4  UNL     1     -17.134   5.970   5.104  1.00  0.00    -0.020 A 
HETATM    8  C5  UNL     1     -17.224   6.208   3.793  1.00  0.00    -0.011 A 
HETATM    9  C8  UNL     1     -15.900   6.411   3.253  1.00  0.00     0.067 A 
HETATM   10  C9  UNL     1     -15.404   6.670   1.957  1.00  0.00     0.062 C 
HETATM   11  N4  UNL     1     -15.042   6.291   4.261  1.00  0.00    -0.248 NA
HETATM   12  C10 UNL     1     -14.055   6.702   1.607  1.00  0.00     0.041 A 
HETATM   13  N1  UNL     1     -12.995   5.962   1.982  1.00  0.00    -0.355 N 
HETATM   14  C37 UNL     1     -13.628   7.717   0.720  1.00  0.00    -0.022 A 
HETATM   15  C11 UNL     1     -11.911   6.474   1.371  1.00  0.00     0.042 A 
HETATM   16  H10 UNL     1     -13.017   5.068   2.650  1.00  0.00     0.166 HD
HETATM   17  C12 UNL     1     -10.552   6.156   1.412  1.00  0.00     0.062 C 
HETATM   18  C34 UNL     1     -12.299   7.575   0.575  1.00  0.00    -0.013 A 
HETATM   19  C13 UNL     1      -9.835   5.822   2.576  1.00  0.00     0.066 A 
HETATM   20  N2  UNL     1     -10.482   5.810   3.751  1.00  0.00    -0.248 NA
HETATM   21  C30 UNL     1      -8.466   5.449   2.830  1.00  0.00    -0.020 A 
HETATM   22  C14 UNL     1      -9.630   5.457   4.730  1.00  0.00     0.067 A 
HETATM   23  C15 UNL     1     -10.107   5.375   6.045  1.00  0.00     0.062 C 
HETATM   24  C27 UNL     1      -8.315   5.221   4.145  1.00  0.00    -0.011 A 
HETATM   25  C16 UNL     1     -11.455   5.323   6.462  1.00  0.00     0.041 A 
HETATM   26  N3  UNL     1     -12.531   5.965   5.991  1.00  0.00    -0.355 N 
HETATM   27  C23 UNL     1     -11.818   4.438   7.507  1.00  0.00    -0.022 A 
HETATM   28  C17 UNL     1     -13.595   5.536   6.681  1.00  0.00     0.042 A 
HETATM   29  H13 UNL     1     -12.543   6.746   5.184  1.00  0.00     0.166 HD
HETATM   30  C18 UNL     1     -14.959   5.873   6.582  1.00  0.00     0.062 C 
HETATM   31  C20 UNL     1     -13.183   4.581   7.634  1.00  0.00    -0.013 A 
HETATM   32  C19 UNL     1     -15.709   6.025   5.410  1.00  0.00     0.066 A 
BRANCH   8  33
HETATM   33  C6  UNL     1     -18.507   6.255   3.040  1.00  0.00     0.151 C 
BRANCH  33  34
HETATM   34  C7  UNL     1     -18.916   7.630   2.672  1.00  0.00     0.143 C 
HETATM   35  O3  UNL     1     -18.856   7.986   1.479  1.00  0.00    -0.650 OA
BRANCH  34  36
HETATM   36  O4  UNL     1     -19.350   8.473   3.671  1.00  0.00    -0.776 OA
HETATM   37  H8  UNL     1     -20.275   8.318   4.072  1.00  0.00     0.167 HD
ENDBRANCH  34  36
ENDBRANCH  33  34
ENDBRANCH   8  33
BRANCH  31  38
HETATM   38  C21 UNL     1     -14.055   3.813   8.608  1.00  0.00     0.151 C 
BRANCH  38  39
HETATM   39  C22 UNL     1     -14.301   4.707   9.763  1.00  0.00     0.143 C 
HETATM   40  O5  UNL     1     -15.474   5.047  10.032  1.00  0.00    -0.650 OA
BRANCH  39  41
HETATM   41  O6  UNL     1     -13.287   5.192  10.575  1.00  0.00    -0.776 OA
HETATM   42  H17 UNL     1     -13.013   4.704  11.437  1.00  0.00     0.167 HD
ENDBRANCH  39  41
ENDBRANCH  38  39
ENDBRANCH  31  38
BRANCH  27  43
HETATM   43  C24 UNL     1     -10.974   3.528   8.327  1.00  0.00     0.052 C 
BRANCH  43  44
HETATM   44  C25 UNL     1     -10.742   2.236   7.665  1.00  0.00     0.115 C 
BRANCH  44  45
HETATM   45  C26 UNL     1      -9.443   1.583   7.799  1.00  0.00     0.139 C 
HETATM   46  O7  UNL     1      -8.553   1.730   8.629  1.00  0.00    -0.650 OA
BRANCH  45  47
HETATM   47  O8  UNL     1      -9.169   0.614   6.794  1.00  0.00    -0.776 OA
HETATM   48  H22 UNL     1      -8.255   0.288   6.596  1.00  0.00     0.167 HD
ENDBRANCH  45  47
ENDBRANCH  44  45
ENDBRANCH  43  44
ENDBRANCH  27  43
BRANCH  24  49
HETATM   49  C28 UNL     1      -7.075   4.805   4.872  1.00  0.00     0.151 C 
BRANCH  49  50
HETATM   50  C29 UNL     1      -7.188   3.407   5.356  1.00  0.00     0.143 C 
HETATM   51  O9  UNL     1      -6.461   3.040   6.306  1.00  0.00    -0.650 OA
BRANCH  50  52
HETATM   52  O10 UNL     1      -8.060   2.484   4.807  1.00  0.00    -0.776 OA
HETATM   53  H25 UNL     1      -8.216   2.424   3.792  1.00  0.00     0.167 HD
ENDBRANCH  50  52
ENDBRANCH  49  50
ENDBRANCH  24  49
BRANCH  21  54
HETATM   54  C31 UNL     1      -7.375   5.308   1.824  1.00  0.00     0.052 C 
BRANCH  54  55
HETATM   55  C32 UNL     1      -7.263   6.441   0.869  1.00  0.00     0.115 C 
BRANCH  55  56
HETATM   56  C33 UNL     1      -7.384   5.842  -0.511  1.00  0.00     0.139 C 
HETATM   57  O11 UNL     1      -7.135   4.627  -0.712  1.00  0.00    -0.650 OA
BRANCH  56  58
HETATM   58  O12 UNL     1      -7.772   6.602  -1.606  1.00  0.00    -0.776 OA
HETATM   59  H30 UNL     1      -7.437   7.569  -1.611  1.00  0.00     0.167 HD
ENDBRANCH  56  58
ENDBRANCH  55  56
ENDBRANCH  54  55
ENDBRANCH  21  54
BRANCH  18  60
HETATM   60  C35 UNL     1     -11.472   8.459  -0.311  1.00  0.00     0.151 C 
BRANCH  60  61
HETATM   61  C36 UNL     1     -11.022   9.596   0.496  1.00  0.00     0.143 C 
HETATM   62  O13 UNL     1      -9.998   9.479   1.226  1.00  0.00    -0.650 OA
BRANCH  61  63
HETATM   63  O14 UNL     1     -11.676  10.821   0.499  1.00  0.00    -0.776 OA
HETATM   64  H33 UNL     1     -12.459  10.949  -0.119  1.00  0.00     0.167 HD
ENDBRANCH  61  63
ENDBRANCH  60  61
ENDBRANCH  18  60
BRANCH  14  65
HETATM   65  C38 UNL     1     -14.429   8.773   0.013  1.00  0.00     0.052 C 
BRANCH  65  66
HETATM   66  C39 UNL     1     -15.017   9.713   1.024  1.00  0.00     0.115 C 
BRANCH  66  67
HETATM   67  C40 UNL     1     -16.334  10.221   0.486  1.00  0.00     0.139 C 
HETATM   68  O15 UNL     1     -16.518  10.324  -0.755  1.00  0.00    -0.650 OA
BRANCH  67  69
HETATM   69  O16 UNL     1     -17.343  10.575   1.339  1.00  0.00    -0.776 OA
HETATM   70  H38 UNL     1     -17.306  10.361   2.321  1.00  0.00     0.167 HD
ENDBRANCH  67  69
ENDBRANCH  66  67
ENDBRANCH  65  66
ENDBRANCH  14  65
ENDBRANCH   6   7
ENDBRANCH   5   6
ENDBRANCH   2   5
TORSDOF 28
ENDMDL
MODEL 7
REMARK VINA RESULT:      -6.8     22.156     27.809
REMARK  28 active torsions:
REMARK  status: ('A' for Active; 'I' for Inactive)
REMARK    1  A    between atoms: C1_2  and  O2_3 
REMARK    2  A    between atoms: C1_2  and  C2_4 
REMARK    3  A    between atoms: C2_4  and  C3_5 
REMARK    4  A    between atoms: C3_5  and  C4_6 
REMARK    5  A    between atoms: C5_7  and  C6_8 
REMARK    6  A    between atoms: C6_8  and  C7_9 
REMARK    7  A    between atoms: C7_9  and  O4_11 
REMARK    8  A    between atoms: C20_28  and  C21_29 
REMARK    9  A    between atoms: C21_29  and  C22_30 
REMARK   10  A    between atoms: C22_30  and  O6_32 
REMARK   11  A    between atoms: C23_33  and  C24_34 
REMARK   12  A    between atoms: C24_34  and  C25_35 
REMARK   13  A    between atoms: C25_35  and  C26_36 
REMARK   14  A    between atoms: C26_36  and  O8_38 
REMARK   15  A    between atoms: C27_39  and  C28_40 
REMARK   16  A    between atoms: C28_40  and  C29_41 
REMARK   17  A    between atoms: C29_41  and  O10_43 
REMARK   18  A    between atoms: C30_44  and  C31_45 
REMARK   19  A    between atoms: C31_45  and  C32_46 
REMARK   20  A    between atoms: C32_46  and  C33_47 
REMARK   21  A    between atoms: C33_47  and  O12_49 
REMARK   22  A    between atoms: C34_50  and  C35_51 
REMARK   23  A    between atoms: C35_51  and  C36_52 
REMARK   24  A    between atoms: C36_52  and  O14_54 
REMARK   25  A    between atoms: C37_55  and  C38_56 
REMARK   26  A    between atoms: C38_56  and  C39_57 
REMARK   27  A    between atoms: C39_57  and  C40_58 
REMARK   28  A    between atoms: C40_58  and  O16_60 
ROOT
HETATM    1  O1  UNL     1     -16.446   5.266  11.619  1.00  0.00    -0.650 OA
HETATM    2  C1  UNL     1     -17.237   5.876  10.890  1.00  0.00     0.139 C 
ENDROOT
BRANCH   2   3
HETATM    3  O2  UNL     1     -17.086   7.262  10.797  1.00  0.00    -0.776 OA
HETATM    4  H1  UNL     1     -17.597   7.822  10.123  1.00  0.00     0.167 HD
ENDBRANCH   2   3
BRANCH   2   5
HETATM    5  C2  UNL     1     -18.312   5.210  10.129  1.00  0.00     0.115 C 
BRANCH   5   6
HETATM    6  C3  UNL     1     -17.842   4.148   9.204  1.00  0.00     0.052 C 
BRANCH   6   7
HETATM    7  C4  UNL     1     -17.443   4.727   7.893  1.00  0.00    -0.020 A 
HETATM    8  C5  UNL     1     -18.228   4.998   6.847  1.00  0.00    -0.011 A 
HETATM    9  C8  UNL     1     -17.429   5.554   5.781  1.00  0.00     0.067 A 
HETATM   10  C9  UNL     1     -17.718   5.992   4.471  1.00  0.00     0.062 C 
HETATM   11  N4  UNL     1     -16.174   5.605   6.216  1.00  0.00    -0.248 NA
HETATM   12  C10 UNL     1     -16.769   6.380   3.527  1.00  0.00     0.041 A 
HETATM   13  N1  UNL     1     -15.544   5.912   3.217  1.00  0.00    -0.355 N 
HETATM   14  C37 UNL     1     -17.055   7.511   2.729  1.00  0.00    -0.022 A 
HETATM   15  C11 UNL     1     -15.042   6.710   2.256  1.00  0.00     0.042 A 
HETATM   16  H10 UNL     1     -15.052   5.010   3.652  1.00  0.00     0.166 HD
HETATM   17  C12 UNL     1     -13.818   6.742   1.586  1.00  0.00     0.062 C 
HETATM   18  C34 UNL     1     -15.984   7.715   1.942  1.00  0.00    -0.013 A 
HETATM   19  C13 UNL     1     -12.561   6.543   2.187  1.00  0.00     0.066 A 
HETATM   20  N2  UNL     1     -12.508   6.311   3.507  1.00  0.00    -0.248 NA
HETATM   21  C30 UNL     1     -11.210   6.514   1.685  1.00  0.00    -0.020 A 
HETATM   22  C14 UNL     1     -11.227   6.137   3.881  1.00  0.00     0.067 A 
HETATM   23  C15 UNL     1     -10.947   5.874   5.229  1.00  0.00     0.062 C 
HETATM   24  C27 UNL     1     -10.373   6.268   2.707  1.00  0.00    -0.011 A 
HETATM   25  C16 UNL     1     -11.858   5.464   6.226  1.00  0.00     0.041 A 
HETATM   26  N3  UNL     1     -13.125   5.837   6.446  1.00  0.00    -0.355 N 
HETATM   27  C23 UNL     1     -11.463   4.466   7.151  1.00  0.00    -0.022 A 
HETATM   28  C17 UNL     1     -13.586   5.121   7.478  1.00  0.00     0.042 A 
HETATM   29  H13 UNL     1     -13.694   6.628   5.888  1.00  0.00     0.166 HD
HETATM   30  C18 UNL     1     -14.848   5.108   8.104  1.00  0.00     0.062 C 
HETATM   31  C20 UNL     1     -12.573   4.255   7.940  1.00  0.00    -0.013 A 
HETATM   32  C19 UNL     1     -16.102   5.124   7.481  1.00  0.00     0.066 A 
BRANCH   8  33
HETATM   33  C6  UNL     1     -19.697   4.757   6.824  1.00  0.00     0.151 C 
BRANCH  33  34
HETATM   34  C7  UNL     1     -20.050   3.333   6.620  1.00  0.00     0.143 C 
HETATM   35  O3  UNL     1     -19.236   2.578   6.053  1.00  0.00    -0.650 OA
BRANCH  34  36
HETATM   36  O4  UNL     1     -21.275   2.892   7.068  1.00  0.00    -0.776 OA
HETATM   37  H8  UNL     1     -21.905   3.565   7.504  1.00  0.00     0.167 HD
ENDBRANCH  34  36
ENDBRANCH  33  34
ENDBRANCH   8  33
BRANCH  31  38
HETATM   38  C21 UNL     1     -12.664   3.247   9.068  1.00  0.00     0.151 C 
BRANCH  38  39
HETATM   39  C22 UNL     1     -11.943   3.826  10.225  1.00  0.00     0.143 C 
HETATM   40  O5  UNL     1     -12.314   4.927  10.686  1.00  0.00    -0.650 OA
BRANCH  39  41
HETATM   41  O6  UNL     1     -10.864   3.203  10.833  1.00  0.00    -0.776 OA
HETATM   42  H17 UNL     1     -10.975   2.671  11.705  1.00  0.00     0.167 HD
ENDBRANCH  39  41
ENDBRANCH  38  39
ENDBRANCH  31  38
BRANCH  27  43
HETATM   43  C24 UNL     1     -10.162   3.759   7.299  1.00  0.00     0.052 C 
BRANCH  43  44
HETATM   44  C25 UNL     1     -10.028   2.639   6.357  1.00  0.00     0.115 C 
BRANCH  44  45
HETATM   45  C26 UNL     1      -8.854   1.774   6.431  1.00  0.00     0.139 C 
HETATM   46  O7  UNL     1      -7.661   2.030   6.307  1.00  0.00    -0.650 OA
BRANCH  45  47
HETATM   47  O8  UNL     1      -9.150   0.406   6.688  1.00  0.00    -0.776 OA
HETATM   48  H22 UNL     1      -8.762  -0.094   7.449  1.00  0.00     0.167 HD
ENDBRANCH  45  47
ENDBRANCH  44  45
ENDBRANCH  43  44
ENDBRANCH  27  43
BRANCH  24  49
HETATM   49  C28 UNL     1      -8.882   6.142   2.666  1.00  0.00     0.151 C 
BRANCH  49  50
HETATM   50  C29 UNL     1      -8.476   4.745   2.376  1.00  0.00     0.143 C 
HETATM   51  O9  UNL     1      -8.562   3.894   3.290  1.00  0.00    -0.650 OA
BRANCH  50  52
HETATM   52  O10 UNL     1      -8.006   4.334   1.142  1.00  0.00    -0.776 OA
HETATM   53  H25 UNL     1      -7.303   3.588   1.053  1.00  0.00     0.167 HD
ENDBRANCH  50  52
ENDBRANCH  49  50
ENDBRANCH  24  49
BRANCH  21  54
HETATM   54  C31 UNL     1     -10.775   6.701   0.272  1.00  0.00     0.052 C 
BRANCH  54  55
HETATM   55  C32 UNL     1     -10.599   8.119  -0.139  1.00  0.00     0.115 C 
BRANCH  55  56
HETATM   56  C33 UNL     1     -11.422   8.299  -1.391  1.00  0.00     0.139 C 
HETATM   57  O11 UNL     1     -12.677   8.289  -1.346  1.00  0.00    -0.650 OA
BRANCH  56  58
HETATM   58  O12 UNL     1     -10.831   8.483  -2.634  1.00  0.00    -0.776 OA
HETATM   59  H30 UNL     1      -9.807   8.478  -2.639  1.00  0.00     0.167 HD
ENDBRANCH  56  58
ENDBRANCH  55  56
ENDBRANCH  54  55
ENDBRANCH  21  54
BRANCH  18  60
HETATM   60  C35 UNL     1     -15.908   8.821   0.932  1.00  0.00     0.151 C 
BRANCH  60  61
HETATM   61  C36 UNL     1     -14.952   9.812   1.431  1.00  0.00     0.143 C 
HETATM   62  O13 UNL     1     -15.237  10.495   2.455  1.00  0.00    -0.650 OA
BRANCH  61  63
HETATM   63  O14 UNL     1     -13.724  10.042   0.827  1.00  0.00    -0.776 OA
HETATM   64  H33 UNL     1     -13.537  10.957   0.451  1.00  0.00     0.167 HD
ENDBRANCH  61  63
ENDBRANCH  60  61
ENDBRANCH  18  60
BRANCH  14  65
HETATM   65  C38 UNL     1     -18.290   8.364   2.683  1.00  0.00     0.052 C 
BRANCH  65  66
HETATM   66  C39 UNL     1     -18.247   9.364   3.801  1.00  0.00     0.115 C 
BRANCH  66  67
HETATM   67  C40 UNL     1     -18.486  10.737   3.216  1.00  0.00     0.139 C 
HETATM   68  O15 UNL     1     -19.380  10.912   2.347  1.00  0.00    -0.650 OA
BRANCH  67  69
HETATM   69  O16 UNL     1     -17.735  11.805   3.621  1.00  0.00    -0.776 OA
HETATM   70  H38 UNL     1     -16.855  11.686   4.095  1.00  0.00     0.167 HD
ENDBRANCH  67  69
ENDBRANCH  66  67
ENDBRANCH  65  66
ENDBRANCH  14  65
ENDBRANCH   6   7
ENDBRANCH   5   6
ENDBRANCH   2   5
TORSDOF 28
ENDMDL
MODEL 8
REMARK VINA RESULT:      -6.8     24.221     29.200
REMARK  28 active torsions:
REMARK  status: ('A' for Active; 'I' for Inactive)
REMARK    1  A    between atoms: C1_2  and  O2_3 
REMARK    2  A    between atoms: C1_2  and  C2_4 
REMARK    3  A    between atoms: C2_4  and  C3_5 
REMARK    4  A    between atoms: C3_5  and  C4_6 
REMARK    5  A    between atoms: C5_7  and  C6_8 
REMARK    6  A    between atoms: C6_8  and  C7_9 
REMARK    7  A    between atoms: C7_9  and  O4_11 
REMARK    8  A    between atoms: C20_28  and  C21_29 
REMARK    9  A    between atoms: C21_29  and  C22_30 
REMARK   10  A    between atoms: C22_30  and  O6_32 
REMARK   11  A    between atoms: C23_33  and  C24_34 
REMARK   12  A    between atoms: C24_34  and  C25_35 
REMARK   13  A    between atoms: C25_35  and  C26_36 
REMARK   14  A    between atoms: C26_36  and  O8_38 
REMARK   15  A    between atoms: C27_39  and  C28_40 
REMARK   16  A    between atoms: C28_40  and  C29_41 
REMARK   17  A    between atoms: C29_41  and  O10_43 
REMARK   18  A    between atoms: C30_44  and  C31_45 
REMARK   19  A    between atoms: C31_45  and  C32_46 
REMARK   20  A    between atoms: C32_46  and  C33_47 
REMARK   21  A    between atoms: C33_47  and  O12_49 
REMARK   22  A    between atoms: C34_50  and  C35_51 
REMARK   23  A    between atoms: C35_51  and  C36_52 
REMARK   24  A    between atoms: C36_52  and  O14_54 
REMARK   25  A    between atoms: C37_55  and  C38_56 
REMARK   26  A    between atoms: C38_56  and  C39_57 
REMARK   27  A    between atoms: C39_57  and  C40_58 
REMARK   28  A    between atoms: C40_58  and  O16_60 
ROOT
HETATM    1  O1  UNL     1     -18.638  11.614   1.572  1.00  0.00    -0.650 OA
HETATM    2  C1  UNL     1     -19.215  10.520   1.548  1.00  0.00     0.139 C 
ENDROOT
BRANCH   2   3
HETATM    3  O2  UNL     1     -20.126  10.297   0.513  1.00  0.00    -0.776 OA
HETATM    4  H1  UNL     1     -20.342   9.369   0.166  1.00  0.00     0.167 HD
ENDBRANCH   2   3
BRANCH   2   5
HETATM    5  C2  UNL     1     -18.981   9.462   2.549  1.00  0.00     0.115 C 
BRANCH   5   6
HETATM    6  C3  UNL     1     -18.693   8.124   1.973  1.00  0.00     0.052 C 
BRANCH   6   7
HETATM    7  C4  UNL     1     -17.227   7.895   1.872  1.00  0.00    -0.020 A 
HETATM    8  C5  UNL     1     -16.468   7.930   0.774  1.00  0.00    -0.011 A 
HETATM    9  C8  UNL     1     -15.097   7.653   1.132  1.00  0.00     0.067 A 
HETATM   10  C9  UNL     1     -13.899   7.541   0.393  1.00  0.00     0.062 C 
HETATM   11  N4  UNL     1     -15.065   7.458   2.446  1.00  0.00    -0.248 NA
HETATM   12  C10 UNL     1     -12.673   7.127   0.911  1.00  0.00     0.041 A 
HETATM   13  N1  UNL     1     -12.333   6.185   1.812  1.00  0.00    -0.355 N 
HETATM   14  C37 UNL     1     -11.513   7.816   0.491  1.00  0.00    -0.022 A 
HETATM   15  C11 UNL     1     -11.000   6.256   1.982  1.00  0.00     0.042 A 
HETATM   16  H10 UNL     1     -13.024   5.457   2.300  1.00  0.00     0.166 HD
HETATM   17  C12 UNL     1     -10.105   5.572   2.807  1.00  0.00     0.062 C 
HETATM   18  C34 UNL     1     -10.476   7.276   1.156  1.00  0.00    -0.013 A 
HETATM   19  C13 UNL     1     -10.340   5.242   4.155  1.00  0.00     0.066 A 
HETATM   20  N2  UNL     1     -11.500   5.610   4.717  1.00  0.00    -0.248 NA
HETATM   21  C30 UNL     1      -9.576   4.538   5.156  1.00  0.00    -0.020 A 
HETATM   22  C14 UNL     1     -11.534   5.193   5.995  1.00  0.00     0.067 A 
HETATM   23  C15 UNL     1     -12.670   5.469   6.768  1.00  0.00     0.062 C 
HETATM   24  C27 UNL     1     -10.288   4.496   6.294  1.00  0.00    -0.011 A 
HETATM   25  C16 UNL     1     -13.940   5.875   6.302  1.00  0.00     0.041 A 
HETATM   26  N3  UNL     1     -14.270   6.713   5.312  1.00  0.00    -0.355 N 
HETATM   27  C23 UNL     1     -15.100   5.316   6.893  1.00  0.00    -0.022 A 
HETATM   28  C17 UNL     1     -15.605   6.728   5.220  1.00  0.00     0.042 A 
HETATM   29  H13 UNL     1     -13.562   7.320   4.688  1.00  0.00     0.166 HD
HETATM   30  C18 UNL     1     -16.465   7.421   4.346  1.00  0.00     0.062 C 
HETATM   31  C20 UNL     1     -16.152   5.864   6.192  1.00  0.00    -0.013 A 
HETATM   32  C19 UNL     1     -16.311   7.588   2.964  1.00  0.00     0.066 A 
BRANCH   8  33
HETATM   33  C6  UNL     1     -16.989   8.220  -0.590  1.00  0.00     0.151 C 
BRANCH  33  34
HETATM   34  C7  UNL     1     -17.080   9.669  -0.882  1.00  0.00     0.143 C 
HETATM   35  O3  UNL     1     -17.915  10.072  -1.716  1.00  0.00    -0.650 OA
BRANCH  34  36
HETATM   36  O4  UNL     1     -16.232  10.525  -0.216  1.00  0.00    -0.776 OA
HETATM   37  H8  UNL     1     -16.521  11.494  -0.086  1.00  0.00     0.167 HD
ENDBRANCH  34  36
ENDBRANCH  33  34
ENDBRANCH   8  33
BRANCH  31  38
HETATM   38  C21 UNL     1     -17.617   5.551   6.428  1.00  0.00     0.151 C 
BRANCH  38  39
HETATM   39  C22 UNL     1     -17.979   4.457   5.498  1.00  0.00     0.143 C 
HETATM   40  O5  UNL     1     -17.729   3.275   5.819  1.00  0.00    -0.650 OA
BRANCH  39  41
HETATM   41  O6  UNL     1     -18.592   4.676   4.274  1.00  0.00    -0.776 OA
HETATM   42  H17 UNL     1     -18.221   5.364   3.605  1.00  0.00     0.167 HD
ENDBRANCH  39  41
ENDBRANCH  38  39
ENDBRANCH  31  38
BRANCH  27  43
HETATM   43  C24 UNL     1     -15.231   4.350   8.016  1.00  0.00     0.052 C 
BRANCH  43  44
HETATM   44  C25 UNL     1     -14.973   4.975   9.321  1.00  0.00     0.115 C 
BRANCH  44  45
HETATM   45  C26 UNL     1     -15.558   6.279   9.622  1.00  0.00     0.139 C 
HETATM   46  O7  UNL     1     -16.716   6.604   9.857  1.00  0.00    -0.650 OA
BRANCH  45  47
HETATM   47  O8  UNL     1     -14.620   7.349   9.642  1.00  0.00    -0.776 OA
HETATM   48  H22 UNL     1     -13.720   7.268  10.047  1.00  0.00     0.167 HD
ENDBRANCH  45  47
ENDBRANCH  44  45
ENDBRANCH  43  44
ENDBRANCH  27  43
BRANCH  24  49
HETATM   49  C28 UNL     1      -9.905   3.866   7.597  1.00  0.00     0.151 C 
BRANCH  49  50
HETATM   50  C29 UNL     1     -10.821   2.748   7.933  1.00  0.00     0.143 C 
HETATM   51  O9  UNL     1     -11.491   2.818   8.988  1.00  0.00    -0.650 OA
BRANCH  50  52
HETATM   52  O10 UNL     1     -10.972   1.627   7.137  1.00  0.00    -0.776 OA
HETATM   53  H25 UNL     1     -10.302   1.400   6.390  1.00  0.00     0.167 HD
ENDBRANCH  50  52
ENDBRANCH  49  50
ENDBRANCH  24  49
BRANCH  21  54
HETATM   54  C31 UNL     1      -8.228   3.926   4.987  1.00  0.00     0.052 C 
BRANCH  54  55
HETATM   55  C32 UNL     1      -8.188   2.453   5.180  1.00  0.00     0.115 C 
BRANCH  55  56
HETATM   56  C33 UNL     1      -9.128   1.868   4.155  1.00  0.00     0.139 C 
HETATM   57  O11 UNL     1      -9.035   2.178   2.942  1.00  0.00    -0.650 OA
BRANCH  56  58
HETATM   58  O12 UNL     1     -10.128   0.971   4.508  1.00  0.00    -0.776 OA
HETATM   59  H30 UNL     1     -11.084   1.278   4.311  1.00  0.00     0.167 HD
ENDBRANCH  56  58
ENDBRANCH  55  56
ENDBRANCH  54  55
ENDBRANCH  21  54
BRANCH  18  60
HETATM   60  C35 UNL     1      -9.058   7.727   0.969  1.00  0.00     0.151 C 
BRANCH  60  61
HETATM   61  C36 UNL     1      -8.531   7.049  -0.217  1.00  0.00     0.143 C 
HETATM   62  O13 UNL     1      -8.800   5.830  -0.412  1.00  0.00    -0.650 OA
BRANCH  61  63
HETATM   63  O14 UNL     1      -7.736   7.689  -1.158  1.00  0.00    -0.776 OA
HETATM   64  H33 UNL     1      -6.844   7.284  -1.389  1.00  0.00     0.167 HD
ENDBRANCH  61  63
ENDBRANCH  60  61
ENDBRANCH  18  60
BRANCH  14  65
HETATM   65  C38 UNL     1     -11.366   8.926  -0.509  1.00  0.00     0.052 C 
BRANCH  65  66
HETATM   66  C39 UNL     1     -11.447   8.361  -1.897  1.00  0.00     0.115 C 
BRANCH  66  67
HETATM   67  C40 UNL     1     -10.617   9.232  -2.811  1.00  0.00     0.139 C 
HETATM   68  O15 UNL     1     -10.954   9.396  -4.012  1.00  0.00    -0.650 OA
BRANCH  67  69
HETATM   69  O16 UNL     1      -9.490   9.852  -2.347  1.00  0.00    -0.776 OA
HETATM   70  H38 UNL     1      -9.373  10.078  -1.373  1.00  0.00     0.167 HD
ENDBRANCH  67  69
ENDBRANCH  66  67
ENDBRANCH  65  66
ENDBRANCH  14  65
ENDBRANCH   6   7
ENDBRANCH   5   6
ENDBRANCH   2   5
TORSDOF 28
ENDMDL
MODEL 9
REMARK VINA RESULT:      -6.7     24.477     28.858
REMARK  28 active torsions:
REMARK  status: ('A' for Active; 'I' for Inactive)
REMARK    1  A    between atoms: C1_2  and  O2_3 
REMARK    2  A    between atoms: C1_2  and  C2_4 
REMARK    3  A    between atoms: C2_4  and  C3_5 
REMARK    4  A    between atoms: C3_5  and  C4_6 
REMARK    5  A    between atoms: C5_7  and  C6_8 
REMARK    6  A    between atoms: C6_8  and  C7_9 
REMARK    7  A    between atoms: C7_9  and  O4_11 
REMARK    8  A    between atoms: C20_28  and  C21_29 
REMARK    9  A    between atoms: C21_29  and  C22_30 
REMARK   10  A    between atoms: C22_30  and  O6_32 
REMARK   11  A    between atoms: C23_33  and  C24_34 
REMARK   12  A    between atoms: C24_34  and  C25_35 
REMARK   13  A    between atoms: C25_35  and  C26_36 
REMARK   14  A    between atoms: C26_36  and  O8_38 
REMARK   15  A    between atoms: C27_39  and  C28_40 
REMARK   16  A    between atoms: C28_40  and  C29_41 
REMARK   17  A    between atoms: C29_41  and  O10_43 
REMARK   18  A    between atoms: C30_44  and  C31_45 
REMARK   19  A    between atoms: C31_45  and  C32_46 
REMARK   20  A    between atoms: C32_46  and  C33_47 
REMARK   21  A    between atoms: C33_47  and  O12_49 
REMARK   22  A    between atoms: C34_50  and  C35_51 
REMARK   23  A    between atoms: C35_51  and  C36_52 
REMARK   24  A    between atoms: C36_52  and  O14_54 
REMARK   25  A    between atoms: C37_55  and  C38_56 
REMARK   26  A    between atoms: C38_56  and  C39_57 
REMARK   27  A    between atoms: C39_57  and  C40_58 
REMARK   28  A    between atoms: C40_58  and  O16_60 
ROOT
HETATM    1  O1  UNL     1     -19.055  10.654  -0.261  1.00  0.00    -0.650 OA
HETATM    2  C1  UNL     1     -18.438  10.047  -1.144  1.00  0.00     0.139 C 
ENDROOT
BRANCH   2   3
HETATM    3  O2  UNL     1     -18.927  10.139  -2.449  1.00  0.00    -0.776 OA
HETATM    4  H1  UNL     1     -19.204   9.325  -2.986  1.00  0.00     0.167 HD
ENDBRANCH   2   3
BRANCH   2   5
HETATM    5  C2  UNL     1     -17.227   9.246  -0.877  1.00  0.00     0.115 C 
BRANCH   5   6
HETATM    6  C3  UNL     1     -16.191   9.947  -0.077  1.00  0.00     0.052 C 
BRANCH   6   7
HETATM    7  C4  UNL     1     -15.883   9.192   1.167  1.00  0.00    -0.020 A 
HETATM    8  C5  UNL     1     -16.547   9.221   2.326  1.00  0.00    -0.011 A 
HETATM    9  C8  UNL     1     -15.906   8.333   3.266  1.00  0.00     0.067 A 
HETATM   10  C9  UNL     1     -16.156   7.992   4.613  1.00  0.00     0.062 C 
HETATM   11  N4  UNL     1     -14.865   7.787   2.645  1.00  0.00    -0.248 NA
HETATM   12  C10 UNL     1     -15.328   7.201   5.407  1.00  0.00     0.041 A 
HETATM   13  N1  UNL     1     -13.989   7.103   5.518  1.00  0.00    -0.355 N 
HETATM   14  C37 UNL     1     -15.940   6.253   6.259  1.00  0.00    -0.022 A 
HETATM   15  C11 UNL     1     -13.731   6.123   6.404  1.00  0.00     0.042 A 
HETATM   16  H10 UNL     1     -13.235   7.739   4.997  1.00  0.00     0.166 HD
HETATM   17  C12 UNL     1     -12.548   5.554   6.880  1.00  0.00     0.062 C 
HETATM   18  C34 UNL     1     -14.949   5.586   6.877  1.00  0.00    -0.013 A 
HETATM   19  C13 UNL     1     -11.426   5.242   6.089  1.00  0.00     0.066 A 
HETATM   20  N2  UNL     1     -11.475   5.494   4.773  1.00  0.00    -0.248 NA
HETATM   21  C30 UNL     1     -10.128   4.683   6.377  1.00  0.00    -0.020 A 
HETATM   22  C14 UNL     1     -10.309   5.139   4.203  1.00  0.00     0.067 A 
HETATM   23  C15 UNL     1     -10.145   5.326   2.824  1.00  0.00     0.062 C 
HETATM   24  C27 UNL     1      -9.425   4.609   5.235  1.00  0.00    -0.011 A 
HETATM   25  C16 UNL     1     -10.937   6.125   1.971  1.00  0.00     0.041 A 
HETATM   26  N3  UNL     1     -12.261   6.322   1.955  1.00  0.00    -0.355 N 
HETATM   27  C23 UNL     1     -10.302   6.912   0.979  1.00  0.00    -0.022 A 
HETATM   28  C17 UNL     1     -12.528   7.214   0.993  1.00  0.00     0.042 A 
HETATM   29  H13 UNL     1     -13.020   5.813   2.608  1.00  0.00     0.166 HD
HETATM   30  C18 UNL     1     -13.745   7.779   0.568  1.00  0.00     0.062 C 
HETATM   31  C20 UNL     1     -11.326   7.602   0.366  1.00  0.00    -0.013 A 
HETATM   32  C19 UNL     1     -14.785   8.255   1.376  1.00  0.00     0.066 A 
BRANCH   8  33
HETATM   33  C6  UNL     1     -17.760  10.049   2.570  1.00  0.00     0.151 C 
BRANCH  33  34
HETATM   34  C7  UNL     1     -18.976   9.239   2.819  1.00  0.00     0.143 C 
HETATM   35  O3  UNL     1     -19.649   9.449   3.847  1.00  0.00    -0.650 OA
BRANCH  34  36
HETATM   36  O4  UNL     1     -19.320   8.276   1.897  1.00  0.00    -0.776 OA
HETATM   37  H8  UNL     1     -19.460   8.557   0.927  1.00  0.00     0.167 HD
ENDBRANCH  34  36
ENDBRANCH  33  34
ENDBRANCH   8  33
BRANCH  31  38
HETATM   38  C21 UNL     1     -11.152   8.611  -0.752  1.00  0.00     0.151 C 
BRANCH  38  39
HETATM   39  C22 UNL     1     -10.847   9.913  -0.116  1.00  0.00     0.143 C 
HETATM   40  O5  UNL     1      -9.683  10.365  -0.180  1.00  0.00    -0.650 OA
BRANCH  39  41
HETATM   41  O6  UNL     1     -11.796  10.668   0.556  1.00  0.00    -0.776 OA
HETATM   42  H17 UNL     1     -12.507  11.209   0.048  1.00  0.00     0.167 HD
ENDBRANCH  39  41
ENDBRANCH  38  39
ENDBRANCH  31  38
BRANCH  27  43
HETATM   43  C24 UNL     1      -8.863   7.021   0.621  1.00  0.00     0.052 C 
BRANCH  43  44
HETATM   44  C25 UNL     1      -8.505   6.166  -0.520  1.00  0.00     0.115 C 
BRANCH  44  45
HETATM   45  C26 UNL     1      -7.765   4.930  -0.287  1.00  0.00     0.139 C 
HETATM   46  O7  UNL     1      -6.559   4.709  -0.264  1.00  0.00    -0.650 OA
BRANCH  45  47
HETATM   47  O8  UNL     1      -8.586   3.792  -0.049  1.00  0.00    -0.776 OA
HETATM   48  H22 UNL     1      -9.567   3.799  -0.185  1.00  0.00     0.167 HD
ENDBRANCH  45  47
ENDBRANCH  44  45
ENDBRANCH  43  44
ENDBRANCH  27  43
BRANCH  24  49
HETATM   49  C28 UNL     1      -8.030   4.103   5.044  1.00  0.00     0.151 C 
BRANCH  49  50
HETATM   50  C29 UNL     1      -7.992   2.620   5.098  1.00  0.00     0.143 C 
HETATM   51  O9  UNL     1      -7.230   2.069   5.925  1.00  0.00    -0.650 OA
BRANCH  50  52
HETATM   52  O10 UNL     1      -8.759   1.813   4.278  1.00  0.00    -0.776 OA
HETATM   53  H25 UNL     1      -9.213   2.179   3.430  1.00  0.00     0.167 HD
ENDBRANCH  50  52
ENDBRANCH  49  50
ENDBRANCH  24  49
BRANCH  21  54
HETATM   54  C31 UNL     1      -9.609   4.265   7.710  1.00  0.00     0.052 C 
BRANCH  54  55
HETATM   55  C32 UNL     1      -9.888   2.849   8.067  1.00  0.00     0.115 C 
BRANCH  55  56
HETATM   56  C33 UNL     1     -11.136   2.867   8.915  1.00  0.00     0.139 C 
HETATM   57  O11 UNL     1     -12.238   2.483   8.451  1.00  0.00    -0.650 OA
BRANCH  56  58
HETATM   58  O12 UNL     1     -11.118   3.305  10.233  1.00  0.00    -0.776 OA
HETATM   59  H30 UNL     1     -10.194   3.543  10.604  1.00  0.00     0.167 HD
ENDBRANCH  56  58
ENDBRANCH  55  56
ENDBRANCH  54  55
ENDBRANCH  21  54
BRANCH  18  60
HETATM   60  C35 UNL     1     -15.194   4.501   7.883  1.00  0.00     0.151 C 
BRANCH  60  61
HETATM   61  C36 UNL     1     -15.071   5.098   9.215  1.00  0.00     0.143 C 
HETATM   62  O13 UNL     1     -14.641   4.400  10.176  1.00  0.00    -0.650 OA
BRANCH  61  63
HETATM   63  O14 UNL     1     -15.408   6.418   9.481  1.00  0.00    -0.776 OA
HETATM   64  H33 UNL     1     -14.874   6.921  10.170  1.00  0.00     0.167 HD
ENDBRANCH  61  63
ENDBRANCH  60  61
ENDBRANCH  18  60
BRANCH  14  65
HETATM   65  C38 UNL     1     -17.396   5.989   6.509  1.00  0.00     0.052 C 
BRANCH  65  66
HETATM   66  C39 UNL     1     -17.843   4.826   5.673  1.00  0.00     0.115 C 
BRANCH  66  67
HETATM   67  C40 UNL     1     -18.514   5.367   4.432  1.00  0.00     0.139 C 
HETATM   68  O15 UNL     1     -19.324   6.327   4.514  1.00  0.00    -0.650 OA
BRANCH  67  69
HETATM   69  O16 UNL     1     -18.250   4.823   3.205  1.00  0.00    -0.776 OA
HETATM   70  H38 UNL     1     -18.769   4.037   2.852  1.00  0.00     0.167 HD
ENDBRANCH  67  69
ENDBRANCH  66  67
ENDBRANCH  65  66
ENDBRANCH  14  65
ENDBRANCH   6   7
ENDBRANCH   5   6
ENDBRANCH   2   5
TORSDOF 28
ENDMDL
MODEL 10
REMARK VINA RESULT:      -6.6     24.708     29.700
REMARK  28 active torsions:
REMARK  status: ('A' for Active; 'I' for Inactive)
REMARK    1  A    between atoms: C1_2  and  O2_3 
REMARK    2  A    between atoms: C1_2  and  C2_4 
REMARK    3  A    between atoms: C2_4  and  C3_5 
REMARK    4  A    between atoms: C3_5  and  C4_6 
REMARK    5  A    between atoms: C5_7  and  C6_8 
REMARK    6  A    between atoms: C6_8  and  C7_9 
REMARK    7  A    between atoms: C7_9  and  O4_11 
REMARK    8  A    between atoms: C20_28  and  C21_29 
REMARK    9  A    between atoms: C21_29  and  C22_30 
REMARK   10  A    between atoms: C22_30  and  O6_32 
REMARK   11  A    between atoms: C23_33  and  C24_34 
REMARK   12  A    between atoms: C24_34  and  C25_35 
REMARK   13  A    between atoms: C25_35  and  C26_36 
REMARK   14  A    between atoms: C26_36  and  O8_38 
REMARK   15  A    between atoms: C27_39  and  C28_40 
REMARK   16  A    between atoms: C28_40  and  C29_41 
REMARK   17  A    between atoms: C29_41  and  O10_43 
REMARK   18  A    between atoms: C30_44  and  C31_45 
REMARK   19  A    between atoms: C31_45  and  C32_46 
REMARK   20  A    between atoms: C32_46  and  C33_47 
REMARK   21  A    between atoms: C33_47  and  O12_49 
REMARK   22  A    between atoms: C34_50  and  C35_51 
REMARK   23  A    between atoms: C35_51  and  C36_52 
REMARK   24  A    between atoms: C36_52  and  O14_54 
REMARK   25  A    between atoms: C37_55  and  C38_56 
REMARK   26  A    between atoms: C38_56  and  C39_57 
REMARK   27  A    between atoms: C39_57  and  C40_58 
REMARK   28  A    between atoms: C40_58  and  O16_60 
ROOT
HETATM    1  O1  UNL     1     -19.407  11.452   2.315  1.00  0.00    -0.650 OA
HETATM    2  C1  UNL     1     -19.084  10.328   1.914  1.00  0.00     0.139 C 
ENDROOT
BRANCH   2   3
HETATM    3  O2  UNL     1     -19.722   9.845   0.769  1.00  0.00    -0.776 OA
HETATM    4  H1  UNL     1     -20.710   9.991   0.593  1.00  0.00     0.167 HD
ENDBRANCH   2   3
BRANCH   2   5
HETATM    5  C2  UNL     1     -18.067   9.493   2.584  1.00  0.00     0.115 C 
BRANCH   5   6
HETATM    6  C3  UNL     1     -17.904   8.138   2.001  1.00  0.00     0.052 C 
BRANCH   6   7
HETATM    7  C4  UNL     1     -16.464   7.780   1.891  1.00  0.00    -0.020 A 
HETATM    8  C5  UNL     1     -15.727   7.693   0.781  1.00  0.00    -0.011 A 
HETATM    9  C8  UNL     1     -14.378   7.318   1.132  1.00  0.00     0.067 A 
HETATM   10  C9  UNL     1     -13.208   7.067   0.382  1.00  0.00     0.062 C 
HETATM   11  N4  UNL     1     -14.336   7.188   2.454  1.00  0.00    -0.248 NA
HETATM   12  C10 UNL     1     -12.012   6.576   0.903  1.00  0.00     0.041 A 
HETATM   13  N1  UNL     1     -11.735   5.655   1.846  1.00  0.00    -0.355 N 
HETATM   14  C37 UNL     1     -10.805   7.141   0.430  1.00  0.00    -0.022 A 
HETATM   15  C11 UNL     1     -10.398   5.621   1.992  1.00  0.00     0.042 A 
HETATM   16  H10 UNL     1     -12.476   5.015   2.382  1.00  0.00     0.166 HD
HETATM   17  C12 UNL     1      -9.549   4.905   2.839  1.00  0.00     0.062 C 
HETATM   18  C34 UNL     1      -9.806   6.548   1.106  1.00  0.00    -0.013 A 
HETATM   19  C13 UNL     1      -9.784   4.666   4.206  1.00  0.00     0.066 A 
HETATM   20  N2  UNL     1     -10.898   5.159   4.764  1.00  0.00    -0.248 NA
HETATM   21  C30 UNL     1      -9.063   3.951   5.230  1.00  0.00    -0.020 A 
HETATM   22  C14 UNL     1     -10.942   4.812   6.064  1.00  0.00     0.067 A 
HETATM   23  C15 UNL     1     -12.035   5.224   6.837  1.00  0.00     0.062 C 
HETATM   24  C27 UNL     1      -9.754   4.028   6.379  1.00  0.00    -0.011 A 
HETATM   25  C16 UNL     1     -13.275   5.713   6.371  1.00  0.00     0.041 A 
HETATM   26  N3  UNL     1     -13.552   6.525   5.343  1.00  0.00    -0.355 N 
HETATM   27  C23 UNL     1     -14.466   5.287   7.007  1.00  0.00    -0.022 A 
HETATM   28  C17 UNL     1     -14.882   6.649   5.270  1.00  0.00     0.042 A 
HETATM   29  H13 UNL     1     -12.807   7.037   4.677  1.00  0.00     0.166 HD
HETATM   30  C18 UNL     1     -15.697   7.368   4.374  1.00  0.00     0.062 C 
HETATM   31  C20 UNL     1     -15.482   5.887   6.294  1.00  0.00    -0.013 A 
HETATM   32  C19 UNL     1     -15.556   7.451   2.984  1.00  0.00     0.066 A 
BRANCH   8  33
HETATM   33  C6  UNL     1     -16.248   7.957  -0.589  1.00  0.00     0.151 C 
BRANCH  33  34
HETATM   34  C7  UNL     1     -16.634   9.371  -0.802  1.00  0.00     0.143 C 
HETATM   35  O3  UNL     1     -17.624   9.633  -1.512  1.00  0.00    -0.650 OA
BRANCH  34  36
HETATM   36  O4  UNL     1     -15.877  10.353  -0.202  1.00  0.00    -0.776 OA
HETATM   37  H8  UNL     1     -15.105  10.762  -0.727  1.00  0.00     0.167 HD
ENDBRANCH  34  36
ENDBRANCH  33  34
ENDBRANCH   8  33
BRANCH  31  38
HETATM   38  C21 UNL     1     -16.963   5.712   6.569  1.00  0.00     0.151 C 
BRANCH  38  39
HETATM   39  C22 UNL     1     -17.442   4.631   5.677  1.00  0.00     0.143 C 
HETATM   40  O5  UNL     1     -17.241   3.440   6.000  1.00  0.00    -0.650 OA
BRANCH  39  41
HETATM   41  O6  UNL     1     -18.113   4.872   4.488  1.00  0.00    -0.776 OA
HETATM   42  H17 UNL     1     -17.632   4.817   3.582  1.00  0.00     0.167 HD
ENDBRANCH  39  41
ENDBRANCH  38  39
ENDBRANCH  31  38
BRANCH  27  43
HETATM   43  C24 UNL     1     -14.657   4.393   8.181  1.00  0.00     0.052 C 
BRANCH  43  44
HETATM   44  C25 UNL     1     -14.167   5.000   9.427  1.00  0.00     0.115 C 
BRANCH  44  45
HETATM   45  C26 UNL     1     -13.414   4.184  10.376  1.00  0.00     0.139 C 
HETATM   46  O7  UNL     1     -13.431   4.157  11.602  1.00  0.00    -0.650 OA
BRANCH  45  47
HETATM   47  O8  UNL     1     -12.509   3.267   9.770  1.00  0.00    -0.776 OA
HETATM   48  H22 UNL     1     -11.839   2.753  10.286  1.00  0.00     0.167 HD
ENDBRANCH  45  47
ENDBRANCH  44  45
ENDBRANCH  43  44
ENDBRANCH  27  43
BRANCH  24  49
HETATM   49  C28 UNL     1      -9.401   3.434   7.707  1.00  0.00     0.151 C 
BRANCH  49  50
HETATM   50  C29 UNL     1      -9.812   2.010   7.777  1.00  0.00     0.143 C 
HETATM   51  O9  UNL     1     -11.029   1.732   7.691  1.00  0.00    -0.650 OA
BRANCH  50  52
HETATM   52  O10 UNL     1      -8.914   0.970   7.935  1.00  0.00    -0.776 OA
HETATM   53  H25 UNL     1      -8.556   0.700   8.860  1.00  0.00     0.167 HD
ENDBRANCH  50  52
ENDBRANCH  49  50
ENDBRANCH  24  49
BRANCH  21  54
HETATM   54  C31 UNL     1      -7.775   3.218   5.073  1.00  0.00     0.052 C 
BRANCH  54  55
HETATM   55  C32 UNL     1      -6.566   4.006   5.431  1.00  0.00     0.115 C 
BRANCH  55  56
HETATM   56  C33 UNL     1      -5.801   3.172   6.430  1.00  0.00     0.139 C 
HETATM   57  O11 UNL     1      -4.666   3.527   6.833  1.00  0.00    -0.650 OA
BRANCH  56  58
HETATM   58  O12 UNL     1      -6.316   1.987   6.939  1.00  0.00    -0.776 OA
HETATM   59  H30 UNL     1      -6.645   2.031   7.907  1.00  0.00     0.167 HD
ENDBRANCH  56  58
ENDBRANCH  55  56
ENDBRANCH  54  55
ENDBRANCH  21  54
BRANCH  18  60
HETATM   60  C35 UNL     1      -8.358   6.866   0.875  1.00  0.00     0.151 C 
BRANCH  60  61
HETATM   61  C36 UNL     1      -7.906   6.064  -0.264  1.00  0.00     0.143 C 
HETATM   62  O13 UNL     1      -7.675   4.832  -0.109  1.00  0.00    -0.650 OA
BRANCH  61  63
HETATM   63  O14 UNL     1      -7.717   6.598  -1.532  1.00  0.00    -0.776 OA
HETATM   64  H33 UNL     1      -6.895   7.154  -1.701  1.00  0.00     0.167 HD
ENDBRANCH  61  63
ENDBRANCH  60  61
ENDBRANCH  18  60
BRANCH  14  65
HETATM   65  C38 UNL     1     -10.584   8.181  -0.629  1.00  0.00     0.052 C 
BRANCH  65  66
HETATM   66  C39 UNL     1     -10.385   9.520   0.020  1.00  0.00     0.115 C 
BRANCH  66  67
HETATM   67  C40 UNL     1      -9.256  10.227  -0.694  1.00  0.00     0.139 C 
HETATM   68  O15 UNL     1      -9.425  11.385  -1.159  1.00  0.00    -0.650 OA
BRANCH  67  69
HETATM   69  O16 UNL     1      -8.040   9.621  -0.844  1.00  0.00    -0.776 OA
HETATM   70  H38 UNL     1      -7.773   9.175  -1.705  1.00  0.00     0.167 HD
ENDBRANCH  67  69
ENDBRANCH  66  67
ENDBRANCH  65  66
ENDBRANCH  14  65
ENDBRANCH   6   7
ENDBRANCH   5   6
ENDBRANCH   2   5
TORSDOF 28
ENDMDL
MODEL 11
REMARK VINA RESULT:      -6.6     24.961     29.434
REMARK  28 active torsions:
REMARK  status: ('A' for Active; 'I' for Inactive)
REMARK    1  A    between atoms: C1_2  and  O2_3 
REMARK    2  A    between atoms: C1_2  and  C2_4 
REMARK    3  A    between atoms: C2_4  and  C3_5 
REMARK    4  A    between atoms: C3_5  and  C4_6 
REMARK    5  A    between atoms: C5_7  and  C6_8 
REMARK    6  A    between atoms: C6_8  and  C7_9 
REMARK    7  A    between atoms: C7_9  and  O4_11 
REMARK    8  A    between atoms: C20_28  and  C21_29 
REMARK    9  A    between atoms: C21_29  and  C22_30 
REMARK   10  A    between atoms: C22_30  and  O6_32 
REMARK   11  A    between atoms: C23_33  and  C24_34 
REMARK   12  A    between atoms: C24_34  and  C25_35 
REMARK   13  A    between atoms: C25_35  and  C26_36 
REMARK   14  A    between atoms: C26_36  and  O8_38 
REMARK   15  A    between atoms: C27_39  and  C28_40 
REMARK   16  A    between atoms: C28_40  and  C29_41 
REMARK   17  A    between atoms: C29_41  and  O10_43 
REMARK   18  A    between atoms: C30_44  and  C31_45 
REMARK   19  A    between atoms: C31_45  and  C32_46 
REMARK   20  A    between atoms: C32_46  and  C33_47 
REMARK   21  A    between atoms: C33_47  and  O12_49 
REMARK   22  A    between atoms: C34_50  and  C35_51 
REMARK   23  A    between atoms: C35_51  and  C36_52 
REMARK   24  A    between atoms: C36_52  and  O14_54 
REMARK   25  A    between atoms: C37_55  and  C38_56 
REMARK   26  A    between atoms: C38_56  and  C39_57 
REMARK   27  A    between atoms: C39_57  and  C40_58 
REMARK   28  A    between atoms: C40_58  and  O16_60 
ROOT
HETATM    1  O1  UNL     1     -19.501   7.295   3.360  1.00  0.00    -0.650 OA
HETATM    2  C1  UNL     1     -18.664   6.413   3.586  1.00  0.00     0.139 C 
ENDROOT
BRANCH   2   3
HETATM    3  O2  UNL     1     -18.168   5.702   2.491  1.00  0.00    -0.776 OA
HETATM    4  H1  UNL     1     -17.205   5.386   2.436  1.00  0.00     0.167 HD
ENDBRANCH   2   3
BRANCH   2   5
HETATM    5  C2  UNL     1     -18.177   6.090   4.942  1.00  0.00     0.115 C 
BRANCH   5   6
HETATM    6  C3  UNL     1     -17.315   7.135   5.549  1.00  0.00     0.052 C 
BRANCH   6   7
HETATM    7  C4  UNL     1     -15.932   6.627   5.754  1.00  0.00    -0.020 A 
HETATM    8  C5  UNL     1     -15.382   6.188   6.889  1.00  0.00    -0.011 A 
HETATM    9  C8  UNL     1     -14.019   5.787   6.636  1.00  0.00     0.067 A 
HETATM   10  C9  UNL     1     -12.984   5.279   7.450  1.00  0.00     0.062 C 
HETATM   11  N4  UNL     1     -13.781   5.994   5.345  1.00  0.00    -0.248 NA
HETATM   12  C10 UNL     1     -11.668   5.074   7.040  1.00  0.00     0.041 A 
HETATM   13  N1  UNL     1     -10.842   5.772   6.237  1.00  0.00    -0.355 N 
HETATM   14  C37 UNL     1     -11.018   3.896   7.473  1.00  0.00    -0.022 A 
HETATM   15  C11 UNL     1      -9.694   5.075   6.140  1.00  0.00     0.042 A 
HETATM   16  H10 UNL     1     -11.057   6.761   5.766  1.00  0.00     0.166 HD
HETATM   17  C12 UNL     1      -8.512   5.278   5.425  1.00  0.00     0.062 C 
HETATM   18  C34 UNL     1      -9.794   3.898   6.914  1.00  0.00    -0.013 A 
HETATM   19  C13 UNL     1      -8.440   5.732   4.095  1.00  0.00     0.066 A 
HETATM   20  N2  UNL     1      -9.580   5.991   3.439  1.00  0.00    -0.248 NA
HETATM   21  C30 UNL     1      -7.348   6.022   3.199  1.00  0.00    -0.020 A 
HETATM   22  C14 UNL     1      -9.297   6.422   2.197  1.00  0.00     0.067 A 
HETATM   23  C15 UNL     1     -10.354   6.757   1.340  1.00  0.00     0.062 C 
HETATM   24  C27 UNL     1      -7.849   6.446   2.027  1.00  0.00    -0.011 A 
HETATM   25  C16 UNL     1     -11.700   6.993   1.696  1.00  0.00     0.041 A 
HETATM   26  N3  UNL     1     -12.476   6.378   2.597  1.00  0.00    -0.355 N 
HETATM   27  C23 UNL     1     -12.396   8.063   1.083  1.00  0.00    -0.022 A 
HETATM   28  C17 UNL     1     -13.659   7.003   2.608  1.00  0.00     0.042 A 
HETATM   29  H13 UNL     1     -12.201   5.481   3.213  1.00  0.00     0.166 HD
HETATM   30  C18 UNL     1     -14.819   6.774   3.373  1.00  0.00     0.062 C 
HETATM   31  C20 UNL     1     -13.641   8.061   1.675  1.00  0.00    -0.013 A 
HETATM   32  C19 UNL     1     -14.887   6.499   4.745  1.00  0.00     0.066 A 
BRANCH   8  33
HETATM   33  C6  UNL     1     -16.098   6.131   8.193  1.00  0.00     0.151 C 
BRANCH  33  34
HETATM   34  C7  UNL     1     -16.448   4.752   8.605  1.00  0.00     0.143 C 
HETATM   35  O3  UNL     1     -15.993   4.299   9.673  1.00  0.00    -0.650 OA
BRANCH  34  36
HETATM   36  O4  UNL     1     -17.271   4.014   7.784  1.00  0.00    -0.776 OA
HETATM   37  H8  UNL     1     -17.061   3.026   7.644  1.00  0.00     0.167 HD
ENDBRANCH  34  36
ENDBRANCH  33  34
ENDBRANCH   8  33
BRANCH  31  38
HETATM   38  C21 UNL     1     -14.752   9.049   1.378  1.00  0.00     0.151 C 
BRANCH  38  39
HETATM   39  C22 UNL     1     -15.671   8.389   0.422  1.00  0.00     0.143 C 
HETATM   40  O5  UNL     1     -15.476   8.525  -0.805  1.00  0.00    -0.650 OA
BRANCH  39  41
HETATM   41  O6  UNL     1     -16.751   7.617   0.821  1.00  0.00    -0.776 OA
HETATM   42  H17 UNL     1     -17.183   6.933   0.187  1.00  0.00     0.167 HD
ENDBRANCH  39  41
ENDBRANCH  38  39
ENDBRANCH  31  38
BRANCH  27  43
HETATM   43  C24 UNL     1     -11.951   9.018   0.032  1.00  0.00     0.052 C 
BRANCH  43  44
HETATM   44  C25 UNL     1     -12.057   8.448  -1.319  1.00  0.00     0.115 C 
BRANCH  44  45
HETATM   45  C26 UNL     1     -10.990   8.687  -2.285  1.00  0.00     0.139 C 
HETATM   46  O7  UNL     1     -11.018   9.183  -3.406  1.00  0.00    -0.650 OA
BRANCH  45  47
HETATM   47  O8  UNL     1      -9.701   8.269  -1.849  1.00  0.00    -0.776 OA
HETATM   48  H22 UNL     1      -9.311   7.390  -2.086  1.00  0.00     0.167 HD
ENDBRANCH  45  47
ENDBRANCH  44  45
ENDBRANCH  43  44
ENDBRANCH  27  43
BRANCH  24  49
HETATM   49  C28 UNL     1      -7.098   6.866   0.802  1.00  0.00     0.151 C 
BRANCH  49  50
HETATM   50  C29 UNL     1      -7.319   5.908  -0.309  1.00  0.00     0.143 C 
HETATM   51  O9  UNL     1      -7.138   4.688  -0.094  1.00  0.00    -0.650 OA
BRANCH  50  52
HETATM   52  O10 UNL     1      -7.718   6.296  -1.575  1.00  0.00    -0.776 OA
HETATM   53  H25 UNL     1      -7.141   6.919  -2.157  1.00  0.00     0.167 HD
ENDBRANCH  50  52
ENDBRANCH  49  50
ENDBRANCH  24  49
BRANCH  21  54
HETATM   54  C31 UNL     1      -5.892   5.904   3.495  1.00  0.00     0.052 C 
BRANCH  54  55
HETATM   55  C32 UNL     1      -5.340   6.997   4.338  1.00  0.00     0.115 C 
BRANCH  55  56
HETATM   56  C33 UNL     1      -3.844   6.968   4.139  1.00  0.00     0.139 C 
HETATM   57  O11 UNL     1      -3.200   8.024   3.923  1.00  0.00    -0.650 OA
BRANCH  56  58
HETATM   58  O12 UNL     1      -3.124   5.781   4.185  1.00  0.00    -0.776 OA
HETATM   59  H30 UNL     1      -2.710   5.483   3.298  1.00  0.00     0.167 HD
ENDBRANCH  56  58
ENDBRANCH  55  56
ENDBRANCH  54  55
ENDBRANCH  21  54
BRANCH  18  60
HETATM   60  C35 UNL     1      -8.785   2.814   7.149  1.00  0.00     0.151 C 
BRANCH  60  61
HETATM   61  C36 UNL     1      -9.118   1.699   6.260  1.00  0.00     0.143 C 
HETATM   62  O13 UNL     1      -9.452   1.931   5.064  1.00  0.00    -0.650 OA
BRANCH  61  63
HETATM   63  O14 UNL     1      -9.084   0.373   6.671  1.00  0.00    -0.776 OA
HETATM   64  H33 UNL     1      -9.872  -0.216   6.460  1.00  0.00     0.167 HD
ENDBRANCH  61  63
ENDBRANCH  60  61
ENDBRANCH  18  60
BRANCH  14  65
HETATM   65  C38 UNL     1     -11.506   2.814   8.391  1.00  0.00     0.052 C 
BRANCH  65  66
HETATM   66  C39 UNL     1     -10.930   3.023   9.761  1.00  0.00     0.115 C 
BRANCH  66  67
HETATM   67  C40 UNL     1     -12.074   3.193  10.733  1.00  0.00     0.139 C 
HETATM   68  O15 UNL     1     -11.899   2.989  11.963  1.00  0.00    -0.650 OA
BRANCH  67  69
HETATM   69  O16 UNL     1     -13.313   3.569  10.292  1.00  0.00    -0.776 OA
HETATM   70  H38 UNL     1     -14.145   3.071  10.562  1.00  0.00     0.167 HD
ENDBRANCH  67  69
ENDBRANCH  66  67
ENDBRANCH  65  66
ENDBRANCH  14  65
ENDBRANCH   6   7
ENDBRANCH   5   6
ENDBRANCH   2   5
TORSDOF 28
ENDMDL
MODEL 12
REMARK VINA RESULT:      -6.5     26.564     31.427
REMARK  28 active torsions:
REMARK  status: ('A' for Active; 'I' for Inactive)
REMARK    1  A    between atoms: C1_2  and  O2_3 
REMARK    2  A    between atoms: C1_2  and  C2_4 
REMARK    3  A    between atoms: C2_4  and  C3_5 
REMARK    4  A    between atoms: C3_5  and  C4_6 
REMARK    5  A    between atoms: C5_7  and  C6_8 
REMARK    6  A    between atoms: C6_8  and  C7_9 
REMARK    7  A    between atoms: C7_9  and  O4_11 
REMARK    8  A    between atoms: C20_28  and  C21_29 
REMARK    9  A    between atoms: C21_29  and  C22_30 
REMARK   10  A    between atoms: C22_30  and  O6_32 
REMARK   11  A    between atoms: C23_33  and  C24_34 
REMARK   12  A    between atoms: C24_34  and  C25_35 
REMARK   13  A    between atoms: C25_35  and  C26_36 
REMARK   14  A    between atoms: C26_36  and  O8_38 
REMARK   15  A    between atoms: C27_39  and  C28_40 
REMARK   16  A    between atoms: C28_40  and  C29_41 
REMARK   17  A    between atoms: C29_41  and  O10_43 
REMARK   18  A    between atoms: C30_44  and  C31_45 
REMARK   19  A    between atoms: C31_45  and  C32_46 
REMARK   20  A    between atoms: C32_46  and  C33_47 
REMARK   21  A    between atoms: C33_47  and  O12_49 
REMARK   22  A    between atoms: C34_50  and  C35_51 
REMARK   23  A    between atoms: C35_51  and  C36_52 
REMARK   24  A    between atoms: C36_52  and  O14_54 
REMARK   25  A    between atoms: C37_55  and  C38_56 
REMARK   26  A    between atoms: C38_56  and  C39_57 
REMARK   27  A    between atoms: C39_57  and  C40_58 
REMARK   28  A    between atoms: C40_58  and  O16_60 
ROOT
HETATM    1  O1  UNL     1     -27.916  18.904 -10.093  1.00  0.00    -0.650 OA
HETATM    2  C1  UNL     1     -27.297  17.917 -10.509  1.00  0.00     0.139 C 
ENDROOT
BRANCH   2   3
HETATM    3  O2  UNL     1     -27.622  16.675  -9.957  1.00  0.00    -0.776 OA
HETATM    4  H1  UNL     1     -28.577  16.343  -9.885  1.00  0.00     0.167 HD
ENDBRANCH   2   3
BRANCH   2   5
HETATM    5  C2  UNL     1     -26.250  17.999 -11.546  1.00  0.00     0.115 C 
BRANCH   5   6
HETATM    6  C3  UNL     1     -24.912  18.394 -11.038  1.00  0.00     0.052 C 
BRANCH   6   7
HETATM    7  C4  UNL     1     -24.205  17.226 -10.447  1.00  0.00    -0.020 A 
HETATM    8  C5  UNL     1     -23.497  16.291 -11.085  1.00  0.00    -0.011 A 
HETATM    9  C8  UNL     1     -22.982  15.344 -10.125  1.00  0.00     0.067 A 
HETATM   10  C9  UNL     1     -22.206  14.170 -10.231  1.00  0.00     0.062 C 
HETATM   11  N4  UNL     1     -23.395  15.737  -8.924  1.00  0.00    -0.248 NA
HETATM   12  C10 UNL     1     -21.917  13.300  -9.181  1.00  0.00     0.041 A 
HETATM   13  N1  UNL     1     -22.643  12.855  -8.138  1.00  0.00    -0.355 N 
HETATM   14  C37 UNL     1     -20.607  12.776  -9.099  1.00  0.00    -0.022 A 
HETATM   15  C11 UNL     1     -21.838  12.073  -7.394  1.00  0.00     0.042 A 
HETATM   16  H10 UNL     1     -23.721  13.068  -7.944  1.00  0.00     0.166 HD
HETATM   17  C12 UNL     1     -22.021  11.384  -6.194  1.00  0.00     0.062 C 
HETATM   18  C34 UNL     1     -20.559  12.016  -7.991  1.00  0.00    -0.013 A 
HETATM   19  C13 UNL     1     -22.703  11.886  -5.070  1.00  0.00     0.066 A 
HETATM   20  N2  UNL     1     -23.220  13.122  -5.128  1.00  0.00    -0.248 NA
HETATM   21  C30 UNL     1     -23.016  11.345  -3.770  1.00  0.00    -0.020 A 
HETATM   22  C14 UNL     1     -23.838  13.406  -3.967  1.00  0.00     0.067 A 
HETATM   23  C15 UNL     1     -24.456  14.655  -3.818  1.00  0.00     0.062 C 
HETATM   24  C27 UNL     1     -23.711  12.260  -3.075  1.00  0.00    -0.011 A 
HETATM   25  C16 UNL     1     -24.788  15.570  -4.841  1.00  0.00     0.041 A 
HETATM   26  N3  UNL     1     -24.119  15.908  -5.949  1.00  0.00    -0.355 N 
HETATM   27  C23 UNL     1     -26.033  16.244  -4.783  1.00  0.00    -0.022 A 
HETATM   28  C17 UNL     1     -24.874  16.776  -6.632  1.00  0.00     0.042 A 
HETATM   29  H13 UNL     1     -23.095  15.554  -6.244  1.00  0.00     0.166 HD
HETATM   30  C18 UNL     1     -24.654  17.427  -7.861  1.00  0.00     0.062 C 
HETATM   31  C20 UNL     1     -26.076  17.005  -5.931  1.00  0.00    -0.013 A 
HETATM   32  C19 UNL     1     -24.138  16.865  -9.036  1.00  0.00     0.066 A 
BRANCH   8  33
HETATM   33  C6  UNL     1     -23.288  16.265 -12.559  1.00  0.00     0.151 C 
BRANCH  33  34
HETATM   34  C7  UNL     1     -24.122  15.254 -13.247  1.00  0.00     0.143 C 
HETATM   35  O3  UNL     1     -25.275  15.558 -13.611  1.00  0.00    -0.650 OA
BRANCH  34  36
HETATM   36  O4  UNL     1     -23.589  14.002 -13.462  1.00  0.00    -0.776 OA
HETATM   37  H8  UNL     1     -23.020  13.851 -14.295  1.00  0.00     0.167 HD
ENDBRANCH  34  36
ENDBRANCH  33  34
ENDBRANCH   8  33
BRANCH  31  38
HETATM   38  C21 UNL     1     -27.234  17.891  -6.349  1.00  0.00     0.151 C 
BRANCH  38  39
HETATM   39  C22 UNL     1     -28.197  17.030  -7.073  1.00  0.00     0.143 C 
HETATM   40  O5  UNL     1     -27.910  15.830  -7.277  1.00  0.00    -0.650 OA
BRANCH  39  41
HETATM   41  O6  UNL     1     -29.417  17.489  -7.544  1.00  0.00    -0.776 OA
HETATM   42  H17 UNL     1     -30.298  17.249  -7.071  1.00  0.00     0.167 HD
ENDBRANCH  39  41
ENDBRANCH  38  39
ENDBRANCH  31  38
BRANCH  27  43
HETATM   43  C24 UNL     1     -27.103  16.191  -3.751  1.00  0.00     0.052 C 
BRANCH  43  44
HETATM   44  C25 UNL     1     -27.954  15.001  -3.893  1.00  0.00     0.115 C 
BRANCH  44  45
HETATM   45  C26 UNL     1     -29.392  15.164  -4.088  1.00  0.00     0.139 C 
HETATM   46  O7  UNL     1     -30.137  14.737  -4.963  1.00  0.00    -0.650 OA
BRANCH  45  47
HETATM   47  O8  UNL     1     -30.031  15.955  -3.092  1.00  0.00    -0.776 OA
HETATM   48  H22 UNL     1     -29.704  16.013  -2.159  1.00  0.00     0.167 HD
ENDBRANCH  45  47
ENDBRANCH  44  45
ENDBRANCH  43  44
ENDBRANCH  27  43
BRANCH  24  49
HETATM   49  C28 UNL     1     -24.254  12.143  -1.685  1.00  0.00     0.151 C 
BRANCH  49  50
HETATM   50  C29 UNL     1     -23.478  12.984  -0.740  1.00  0.00     0.143 C 
HETATM   51  O9  UNL     1     -22.446  12.504  -0.219  1.00  0.00    -0.650 OA
BRANCH  50  52
HETATM   52  O10 UNL     1     -23.839  14.276  -0.404  1.00  0.00    -0.776 OA
HETATM   53  H25 UNL     1     -24.664  14.473   0.178  1.00  0.00     0.167 HD
ENDBRANCH  50  52
ENDBRANCH  49  50
ENDBRANCH  24  49
BRANCH  21  54
HETATM   54  C31 UNL     1     -22.662   9.991  -3.256  1.00  0.00     0.052 C 
BRANCH  54  55
HETATM   55  C32 UNL     1     -21.207   9.687  -3.261  1.00  0.00     0.115 C 
BRANCH  55  56
HETATM   56  C33 UNL     1     -20.608  10.478  -2.124  1.00  0.00     0.139 C 
HETATM   57  O11 UNL     1     -19.801  11.415  -2.343  1.00  0.00    -0.650 OA
BRANCH  56  58
HETATM   58  O12 UNL     1     -20.922  10.205  -0.799  1.00  0.00    -0.776 OA
HETATM   59  H30 UNL     1     -21.922  10.178  -0.580  1.00  0.00     0.167 HD
ENDBRANCH  56  58
ENDBRANCH  55  56
ENDBRANCH  54  55
ENDBRANCH  21  54
BRANCH  18  60
HETATM   60  C35 UNL     1     -19.332  11.266  -7.564  1.00  0.00     0.151 C 
BRANCH  60  61
HETATM   61  C36 UNL     1     -18.898  11.825  -6.281  1.00  0.00     0.143 C 
HETATM   62  O13 UNL     1     -18.518  11.050  -5.358  1.00  0.00    -0.650 OA
BRANCH  61  63
HETATM   63  O14 UNL     1     -18.879  13.189  -6.023  1.00  0.00    -0.776 OA
HETATM   64  H33 UNL     1     -19.184  13.511  -5.119  1.00  0.00     0.167 HD
ENDBRANCH  61  63
ENDBRANCH  60  61
ENDBRANCH  18  60
BRANCH  14  65
HETATM   65  C38 UNL     1     -19.442  12.957 -10.029  1.00  0.00     0.052 C 
BRANCH  65  66
HETATM   66  C39 UNL     1     -19.023  14.398 -10.029  1.00  0.00     0.115 C 
BRANCH  66  67
HETATM   67  C40 UNL     1     -18.267  14.671  -8.750  1.00  0.00     0.139 C 
HETATM   68  O15 UNL     1     -18.696  15.520  -7.926  1.00  0.00    -0.650 OA
BRANCH  67  69
HETATM   69  O16 UNL     1     -17.108  14.001  -8.471  1.00  0.00    -0.776 OA
HETATM   70  H38 UNL     1     -16.246  14.486  -8.288  1.00  0.00     0.167 HD
ENDBRANCH  67  69
ENDBRANCH  66  67
ENDBRANCH  65  66
ENDBRANCH  14  65
ENDBRANCH   6   7
ENDBRANCH   5   6
ENDBRANCH   2   5
TORSDOF 28
ENDMDL
MODEL 13
REMARK VINA RESULT:      -6.5     24.073     29.818
REMARK  28 active torsions:
REMARK  status: ('A' for Active; 'I' for Inactive)
REMARK    1  A    between atoms: C1_2  and  O2_3 
REMARK    2  A    between atoms: C1_2  and  C2_4 
REMARK    3  A    between atoms: C2_4  and  C3_5 
REMARK    4  A    between atoms: C3_5  and  C4_6 
REMARK    5  A    between atoms: C5_7  and  C6_8 
REMARK    6  A    between atoms: C6_8  and  C7_9 
REMARK    7  A    between atoms: C7_9  and  O4_11 
REMARK    8  A    between atoms: C20_28  and  C21_29 
REMARK    9  A    between atoms: C21_29  and  C22_30 
REMARK   10  A    between atoms: C22_30  and  O6_32 
REMARK   11  A    between atoms: C23_33  and  C24_34 
REMARK   12  A    between atoms: C24_34  and  C25_35 
REMARK   13  A    between atoms: C25_35  and  C26_36 
REMARK   14  A    between atoms: C26_36  and  O8_38 
REMARK   15  A    between atoms: C27_39  and  C28_40 
REMARK   16  A    between atoms: C28_40  and  C29_41 
REMARK   17  A    between atoms: C29_41  and  O10_43 
REMARK   18  A    between atoms: C30_44  and  C31_45 
REMARK   19  A    between atoms: C31_45  and  C32_46 
REMARK   20  A    between atoms: C32_46  and  C33_47 
REMARK   21  A    between atoms: C33_47  and  O12_49 
REMARK   22  A    between atoms: C34_50  and  C35_51 
REMARK   23  A    between atoms: C35_51  and  C36_52 
REMARK   24  A    between atoms: C36_52  and  O14_54 
REMARK   25  A    between atoms: C37_55  and  C38_56 
REMARK   26  A    between atoms: C38_56  and  C39_57 
REMARK   27  A    between atoms: C39_57  and  C40_58 
REMARK   28  A    between atoms: C40_58  and  O16_60 
ROOT
HETATM    1  O1  UNL     1     -11.159   9.083  -3.034  1.00  0.00    -0.650 OA
HETATM    2  C1  UNL     1     -10.803   8.632  -1.938  1.00  0.00     0.139 C 
ENDROOT
BRANCH   2   3
HETATM    3  O2  UNL     1      -9.537   8.047  -1.864  1.00  0.00    -0.776 OA
HETATM    4  H1  UNL     1      -8.924   7.970  -2.668  1.00  0.00     0.167 HD
ENDBRANCH   2   3
BRANCH   2   5
HETATM    5  C2  UNL     1     -11.648   8.690  -0.729  1.00  0.00     0.115 C 
BRANCH   5   6
HETATM    6  C3  UNL     1     -12.702   7.646  -0.666  1.00  0.00     0.052 C 
BRANCH   6   7
HETATM    7  C4  UNL     1     -12.976   7.255   0.742  1.00  0.00    -0.020 A 
HETATM    8  C5  UNL     1     -14.032   7.584   1.491  1.00  0.00    -0.011 A 
HETATM    9  C8  UNL     1     -13.895   6.988   2.798  1.00  0.00     0.067 A 
HETATM   10  C9  UNL     1     -14.680   7.016   3.972  1.00  0.00     0.062 C 
HETATM   11  N4  UNL     1     -12.753   6.308   2.803  1.00  0.00    -0.248 NA
HETATM   12  C10 UNL     1     -14.306   6.475   5.200  1.00  0.00     0.041 A 
HETATM   13  N1  UNL     1     -13.132   6.426   5.858  1.00  0.00    -0.355 N 
HETATM   14  C37 UNL     1     -15.290   5.782   5.943  1.00  0.00    -0.022 A 
HETATM   15  C11 UNL     1     -13.334   5.722   6.987  1.00  0.00     0.042 A 
HETATM   16  H10 UNL     1     -12.177   6.909   5.541  1.00  0.00     0.166 HD
HETATM   17  C12 UNL     1     -12.490   5.314   8.021  1.00  0.00     0.062 C 
HETATM   18  C34 UNL     1     -14.686   5.315   7.050  1.00  0.00    -0.013 A 
HETATM   19  C13 UNL     1     -11.185   4.816   7.851  1.00  0.00     0.066 A 
HETATM   20  N2  UNL     1     -10.694   4.706   6.608  1.00  0.00    -0.248 NA
HETATM   21  C30 UNL     1     -10.161   4.369   8.763  1.00  0.00    -0.020 A 
HETATM   22  C14 UNL     1      -9.438   4.226   6.660  1.00  0.00     0.067 A 
HETATM   23  C15 UNL     1      -8.734   4.040   5.463  1.00  0.00     0.062 C 
HETATM   24  C27 UNL     1      -9.080   4.001   8.056  1.00  0.00    -0.011 A 
HETATM   25  C16 UNL     1      -9.052   4.573   4.195  1.00  0.00     0.041 A 
HETATM   26  N3  UNL     1     -10.240   4.743   3.602  1.00  0.00    -0.355 N 
HETATM   27  C23 UNL     1      -8.009   5.073   3.377  1.00  0.00    -0.022 A 
HETATM   28  C17 UNL     1     -10.025   5.342   2.424  1.00  0.00     0.042 A 
HETATM   29  H13 UNL     1     -11.238   4.417   4.000  1.00  0.00     0.166 HD
HETATM   30  C18 UNL     1     -10.920   5.759   1.421  1.00  0.00     0.062 C 
HETATM   31  C20 UNL     1      -8.642   5.563   2.256  1.00  0.00    -0.013 A 
HETATM   32  C19 UNL     1     -12.141   6.421   1.599  1.00  0.00     0.066 A 
BRANCH   8  33
HETATM   33  C6  UNL     1     -15.159   8.433   1.015  1.00  0.00     0.151 C 
BRANCH  33  34
HETATM   34  C7  UNL     1     -16.438   7.693   0.906  1.00  0.00     0.143 C 
HETATM   35  O3  UNL     1     -17.488   8.226   1.314  1.00  0.00    -0.650 OA
BRANCH  34  36
HETATM   36  O4  UNL     1     -16.419   6.432   0.352  1.00  0.00    -0.776 OA
HETATM   37  H8  UNL     1     -16.304   5.630   0.971  1.00  0.00     0.167 HD
ENDBRANCH  34  36
ENDBRANCH  33  34
ENDBRANCH   8  33
BRANCH  31  38
HETATM   38  C21 UNL     1      -7.951   6.239   1.088  1.00  0.00     0.151 C 
BRANCH  38  39
HETATM   39  C22 UNL     1      -7.471   5.163   0.190  1.00  0.00     0.143 C 
HETATM   40  O5  UNL     1      -6.250   5.085  -0.071  1.00  0.00    -0.650 OA
BRANCH  39  41
HETATM   41  O6  UNL     1      -8.313   4.224  -0.385  1.00  0.00    -0.776 OA
HETATM   42  H17 UNL     1      -9.171   4.505  -0.878  1.00  0.00     0.167 HD
ENDBRANCH  39  41
ENDBRANCH  38  39
ENDBRANCH  31  38
BRANCH  27  43
HETATM   43  C24 UNL     1      -6.540   5.101   3.611  1.00  0.00     0.052 C 
BRANCH  43  44
HETATM   44  C25 UNL     1      -6.130   6.238   4.448  1.00  0.00     0.115 C 
BRANCH  44  45
HETATM   45  C26 UNL     1      -5.677   7.472   3.812  1.00  0.00     0.139 C 
HETATM   46  O7  UNL     1      -6.306   8.442   3.405  1.00  0.00    -0.650 OA
BRANCH  45  47
HETATM   47  O8  UNL     1      -4.267   7.556   3.638  1.00  0.00    -0.776 OA
HETATM   48  H22 UNL     1      -3.762   8.401   3.742  1.00  0.00     0.167 HD
ENDBRANCH  45  47
ENDBRANCH  44  45
ENDBRANCH  43  44
ENDBRANCH  27  43
BRANCH  24  49
HETATM   49  C28 UNL     1      -7.776   3.479   8.572  1.00  0.00     0.151 C 
BRANCH  49  50
HETATM   50  C29 UNL     1      -7.904   2.064   9.000  1.00  0.00     0.143 C 
HETATM   51  O9  UNL     1      -7.260   1.679  10.002  1.00  0.00    -0.650 OA
BRANCH  50  52
HETATM   52  O10 UNL     1      -8.702   1.144   8.344  1.00  0.00    -0.776 OA
HETATM   53  H25 UNL     1      -9.499   1.436   7.763  1.00  0.00     0.167 HD
ENDBRANCH  50  52
ENDBRANCH  49  50
ENDBRANCH  24  49
BRANCH  21  54
HETATM   54  C31 UNL     1     -10.244   4.329  10.251  1.00  0.00     0.052 C 
BRANCH  54  55
HETATM   55  C32 UNL     1     -11.026   3.188  10.797  1.00  0.00     0.115 C 
BRANCH  55  56
HETATM   56  C33 UNL     1     -12.295   3.779  11.360  1.00  0.00     0.139 C 
HETATM   57  O11 UNL     1     -12.430   5.022  11.483  1.00  0.00    -0.650 OA
BRANCH  56  58
HETATM   58  O12 UNL     1     -13.358   2.981  11.762  1.00  0.00    -0.776 OA
HETATM   59  H30 UNL     1     -13.413   2.064  11.311  1.00  0.00     0.167 HD
ENDBRANCH  56  58
ENDBRANCH  55  56
ENDBRANCH  54  55
ENDBRANCH  21  54
BRANCH  18  60
HETATM   60  C35 UNL     1     -15.406   4.536   8.110  1.00  0.00     0.151 C 
BRANCH  60  61
HETATM   61  C36 UNL     1     -15.586   5.420   9.264  1.00  0.00     0.143 C 
HETATM   62  O13 UNL     1     -16.018   6.594   9.091  1.00  0.00    -0.650 OA
BRANCH  61  63
HETATM   63  O14 UNL     1     -15.302   5.025  10.564  1.00  0.00    -0.776 OA
HETATM   64  H33 UNL     1     -15.653   4.138  10.885  1.00  0.00     0.167 HD
ENDBRANCH  61  63
ENDBRANCH  60  61
ENDBRANCH  18  60
BRANCH  14  65
HETATM   65  C38 UNL     1     -16.747   5.576   5.647  1.00  0.00     0.052 C 
BRANCH  65  66
HETATM   66  C39 UNL     1     -16.924   4.304   4.871  1.00  0.00     0.115 C 
BRANCH  66  67
HETATM   67  C40 UNL     1     -17.938   4.554   3.779  1.00  0.00     0.139 C 
HETATM   68  O15 UNL     1     -18.911   3.771   3.623  1.00  0.00    -0.650 OA
BRANCH  67  69
HETATM   69  O16 UNL     1     -17.812   5.631   2.946  1.00  0.00    -0.776 OA
HETATM   70  H38 UNL     1     -18.615   6.094   2.554  1.00  0.00     0.167 HD
ENDBRANCH  67  69
ENDBRANCH  66  67
ENDBRANCH  65  66
ENDBRANCH  14  65
ENDBRANCH   6   7
ENDBRANCH   5   6
ENDBRANCH   2   5
TORSDOF 28
ENDMDL
MODEL 14
REMARK VINA RESULT:      -6.5     23.698     28.653
REMARK  28 active torsions:
REMARK  status: ('A' for Active; 'I' for Inactive)
REMARK    1  A    between atoms: C1_2  and  O2_3 
REMARK    2  A    between atoms: C1_2  and  C2_4 
REMARK    3  A    between atoms: C2_4  and  C3_5 
REMARK    4  A    between atoms: C3_5  and  C4_6 
REMARK    5  A    between atoms: C5_7  and  C6_8 
REMARK    6  A    between atoms: C6_8  and  C7_9 
REMARK    7  A    between atoms: C7_9  and  O4_11 
REMARK    8  A    between atoms: C20_28  and  C21_29 
REMARK    9  A    between atoms: C21_29  and  C22_30 
REMARK   10  A    between atoms: C22_30  and  O6_32 
REMARK   11  A    between atoms: C23_33  and  C24_34 
REMARK   12  A    between atoms: C24_34  and  C25_35 
REMARK   13  A    between atoms: C25_35  and  C26_36 
REMARK   14  A    between atoms: C26_36  and  O8_38 
REMARK   15  A    between atoms: C27_39  and  C28_40 
REMARK   16  A    between atoms: C28_40  and  C29_41 
REMARK   17  A    between atoms: C29_41  and  O10_43 
REMARK   18  A    between atoms: C30_44  and  C31_45 
REMARK   19  A    between atoms: C31_45  and  C32_46 
REMARK   20  A    between atoms: C32_46  and  C33_47 
REMARK   21  A    between atoms: C33_47  and  O12_49 
REMARK   22  A    between atoms: C34_50  and  C35_51 
REMARK   23  A    between atoms: C35_51  and  C36_52 
REMARK   24  A    between atoms: C36_52  and  O14_54 
REMARK   25  A    between atoms: C37_55  and  C38_56 
REMARK   26  A    between atoms: C38_56  and  C39_57 
REMARK   27  A    between atoms: C39_57  and  C40_58 
REMARK   28  A    between atoms: C40_58  and  O16_60 
ROOT
HETATM    1  O1  UNL     1     -17.250   7.318  10.924  1.00  0.00    -0.650 OA
HETATM    2  C1  UNL     1     -17.103   6.235  10.346  1.00  0.00     0.139 C 
ENDROOT
BRANCH   2   3
HETATM    3  O2  UNL     1     -18.254   5.491  10.072  1.00  0.00    -0.776 OA
HETATM    4  H1  UNL     1     -19.161   5.921   9.930  1.00  0.00     0.167 HD
ENDBRANCH   2   3
BRANCH   2   5
HETATM    5  C2  UNL     1     -15.785   5.709   9.939  1.00  0.00     0.115 C 
BRANCH   5   6
HETATM    6  C3  UNL     1     -15.844   4.609   8.943  1.00  0.00     0.052 C 
BRANCH   6   7
HETATM    7  C4  UNL     1     -15.549   5.118   7.576  1.00  0.00    -0.020 A 
HETATM    8  C5  UNL     1     -16.411   5.314   6.574  1.00  0.00    -0.011 A 
HETATM    9  C8  UNL     1     -15.699   5.820   5.425  1.00  0.00     0.067 A 
HETATM   10  C9  UNL     1     -16.087   6.176   4.115  1.00  0.00     0.062 C 
HETATM   11  N4  UNL     1     -14.418   5.919   5.767  1.00  0.00    -0.248 NA
HETATM   12  C10 UNL     1     -15.215   6.524   3.086  1.00  0.00     0.041 A 
HETATM   13  N1  UNL     1     -14.005   6.061   2.718  1.00  0.00    -0.355 N 
HETATM   14  C37 UNL     1     -15.580   7.602   2.247  1.00  0.00    -0.022 A 
HETATM   15  C11 UNL     1     -13.588   6.810   1.680  1.00  0.00     0.042 A 
HETATM   16  H10 UNL     1     -13.464   5.195   3.168  1.00  0.00     0.166 HD
HETATM   17  C12 UNL     1     -12.414   6.825   0.925  1.00  0.00     0.062 C 
HETATM   18  C34 UNL     1     -14.571   7.778   1.376  1.00  0.00    -0.013 A 
HETATM   19  C13 UNL     1     -11.115   6.684   1.447  1.00  0.00     0.066 A 
HETATM   20  N2  UNL     1     -10.965   6.530   2.770  1.00  0.00    -0.248 NA
HETATM   21  C30 UNL     1      -9.800   6.650   0.854  1.00  0.00    -0.020 A 
HETATM   22  C14 UNL     1      -9.658   6.401   3.063  1.00  0.00     0.067 A 
HETATM   23  C15 UNL     1      -9.279   6.222   4.401  1.00  0.00     0.062 C 
HETATM   24  C27 UNL     1      -8.890   6.479   1.826  1.00  0.00    -0.011 A 
HETATM   25  C16 UNL     1     -10.111   5.855   5.481  1.00  0.00     0.041 A 
HETATM   26  N3  UNL     1     -11.367   6.218   5.768  1.00  0.00    -0.355 N 
HETATM   27  C23 UNL     1      -9.630   4.921   6.432  1.00  0.00    -0.022 A 
HETATM   28  C17 UNL     1     -11.740   5.556   6.869  1.00  0.00     0.042 A 
HETATM   29  H13 UNL     1     -11.990   6.965   5.207  1.00  0.00     0.166 HD
HETATM   30  C18 UNL     1     -12.954   5.557   7.582  1.00  0.00     0.062 C 
HETATM   31  C20 UNL     1     -10.679   4.736   7.307  1.00  0.00    -0.013 A 
HETATM   32  C19 UNL     1     -14.249   5.514   7.049  1.00  0.00     0.066 A 
BRANCH   8  33
HETATM   33  C6  UNL     1     -17.872   5.046   6.668  1.00  0.00     0.151 C 
BRANCH  33  34
HETATM   34  C7  UNL     1     -18.333   4.000   5.725  1.00  0.00     0.143 C 
HETATM   35  O3  UNL     1     -18.162   2.800   6.013  1.00  0.00    -0.650 OA
BRANCH  34  36
HETATM   36  O4  UNL     1     -18.939   4.398   4.553  1.00  0.00    -0.776 OA
HETATM   37  H8  UNL     1     -19.958   4.410   4.512  1.00  0.00     0.167 HD
ENDBRANCH  34  36
ENDBRANCH  33  34
ENDBRANCH   8  33
BRANCH  31  38
HETATM   38  C21 UNL     1     -10.670   3.794   8.494  1.00  0.00     0.151 C 
BRANCH  38  39
HETATM   39  C22 UNL     1     -11.524   2.638   8.135  1.00  0.00     0.143 C 
HETATM   40  O5  UNL     1     -11.051   1.729   7.419  1.00  0.00    -0.650 OA
BRANCH  39  41
HETATM   41  O6  UNL     1     -12.838   2.508   8.557  1.00  0.00    -0.776 OA
HETATM   42  H17 UNL     1     -13.382   3.321   8.871  1.00  0.00     0.167 HD
ENDBRANCH  39  41
ENDBRANCH  38  39
ENDBRANCH  31  38
BRANCH  27  43
HETATM   43  C24 UNL     1      -8.308   4.246   6.528  1.00  0.00     0.052 C 
BRANCH  43  44
HETATM   44  C25 UNL     1      -8.043   3.374   5.374  1.00  0.00     0.115 C 
BRANCH  44  45
HETATM   45  C26 UNL     1      -8.772   2.116   5.243  1.00  0.00     0.139 C 
HETATM   46  O7  UNL     1      -9.590   1.746   4.408  1.00  0.00    -0.650 OA
BRANCH  45  47
HETATM   47  O8  UNL     1      -8.481   1.163   6.259  1.00  0.00    -0.776 OA
HETATM   48  H22 UNL     1      -7.657   0.614   6.262  1.00  0.00     0.167 HD
ENDBRANCH  45  47
ENDBRANCH  44  45
ENDBRANCH  43  44
ENDBRANCH  27  43
BRANCH  24  49
HETATM   49  C28 UNL     1      -7.403   6.377   1.688  1.00  0.00     0.151 C 
BRANCH  49  50
HETATM   50  C29 UNL     1      -6.743   7.627   2.140  1.00  0.00     0.143 C 
HETATM   51  O9  UNL     1      -5.681   7.540   2.797  1.00  0.00    -0.650 OA
BRANCH  50  52
HETATM   52  O10 UNL     1      -7.244   8.888   1.872  1.00  0.00    -0.776 OA
HETATM   53  H25 UNL     1      -7.144   9.323   0.945  1.00  0.00     0.167 HD
ENDBRANCH  50  52
ENDBRANCH  49  50
ENDBRANCH  24  49
BRANCH  21  54
HETATM   54  C31 UNL     1      -9.469   6.761  -0.595  1.00  0.00     0.052 C 
BRANCH  54  55
HETATM   55  C32 UNL     1      -9.113   8.133  -1.045  1.00  0.00     0.115 C 
BRANCH  55  56
HETATM   56  C33 UNL     1     -10.403   8.776  -1.494  1.00  0.00     0.139 C 
HETATM   57  O11 UNL     1     -10.956   9.666  -0.801  1.00  0.00    -0.650 OA
BRANCH  56  58
HETATM   58  O12 UNL     1     -11.026   8.415  -2.681  1.00  0.00    -0.776 OA
HETATM   59  H30 UNL     1     -10.750   8.956  -3.505  1.00  0.00     0.167 HD
ENDBRANCH  56  58
ENDBRANCH  55  56
ENDBRANCH  54  55
ENDBRANCH  21  54
BRANCH  18  60
HETATM   60  C35 UNL     1     -14.589   8.825   0.302  1.00  0.00     0.151 C 
BRANCH  60  61
HETATM   61  C36 UNL     1     -14.112  10.076   0.894  1.00  0.00     0.143 C 
HETATM   62  O13 UNL     1     -14.936  10.990   1.174  1.00  0.00    -0.650 OA
BRANCH  61  63
HETATM   63  O14 UNL     1     -12.772  10.313   1.172  1.00  0.00    -0.776 OA
HETATM   64  H33 UNL     1     -12.539  10.859   1.985  1.00  0.00     0.167 HD
ENDBRANCH  61  63
ENDBRANCH  60  61
ENDBRANCH  18  60
BRANCH  14  65
HETATM   65  C38 UNL     1     -16.833   8.429   2.239  1.00  0.00     0.052 C 
BRANCH  65  66
HETATM   66  C39 UNL     1     -17.826   7.822   1.292  1.00  0.00     0.115 C 
BRANCH  66  67
HETATM   67  C40 UNL     1     -18.738   6.913   2.082  1.00  0.00     0.139 C 
HETATM   68  O15 UNL     1     -18.941   5.729   1.703  1.00  0.00    -0.650 OA
BRANCH  67  69
HETATM   69  O16 UNL     1     -19.355   7.362   3.216  1.00  0.00    -0.776 OA
HETATM   70  H38 UNL     1     -19.158   8.270   3.602  1.00  0.00     0.167 HD
ENDBRANCH  67  69
ENDBRANCH  66  67
ENDBRANCH  65  66
ENDBRANCH  14  65
ENDBRANCH   6   7
ENDBRANCH   5   6
ENDBRANCH   2   5
TORSDOF 28
ENDMDL
MODEL 15
REMARK VINA RESULT:      -6.5     24.995     30.951
REMARK  28 active torsions:
REMARK  status: ('A' for Active; 'I' for Inactive)
REMARK    1  A    between atoms: C1_2  and  O2_3 
REMARK    2  A    between atoms: C1_2  and  C2_4 
REMARK    3  A    between atoms: C2_4  and  C3_5 
REMARK    4  A    between atoms: C3_5  and  C4_6 
REMARK    5  A    between atoms: C5_7  and  C6_8 
REMARK    6  A    between atoms: C6_8  and  C7_9 
REMARK    7  A    between atoms: C7_9  and  O4_11 
REMARK    8  A    between atoms: C20_28  and  C21_29 
REMARK    9  A    between atoms: C21_29  and  C22_30 
REMARK   10  A    between atoms: C22_30  and  O6_32 
REMARK   11  A    between atoms: C23_33  and  C24_34 
REMARK   12  A    between atoms: C24_34  and  C25_35 
REMARK   13  A    between atoms: C25_35  and  C26_36 
REMARK   14  A    between atoms: C26_36  and  O8_38 
REMARK   15  A    between atoms: C27_39  and  C28_40 
REMARK   16  A    between atoms: C28_40  and  C29_41 
REMARK   17  A    between atoms: C29_41  and  O10_43 
REMARK   18  A    between atoms: C30_44  and  C31_45 
REMARK   19  A    between atoms: C31_45  and  C32_46 
REMARK   20  A    between atoms: C32_46  and  C33_47 
REMARK   21  A    between atoms: C33_47  and  O12_49 
REMARK   22  A    between atoms: C34_50  and  C35_51 
REMARK   23  A    between atoms: C35_51  and  C36_52 
REMARK   24  A    between atoms: C36_52  and  O14_54 
REMARK   25  A    between atoms: C37_55  and  C38_56 
REMARK   26  A    between atoms: C38_56  and  C39_57 
REMARK   27  A    between atoms: C39_57  and  C40_58 
REMARK   28  A    between atoms: C40_58  and  O16_60 
ROOT
HETATM    1  O1  UNL     1      -7.544   9.729  -1.146  1.00  0.00    -0.650 OA
HETATM    2  C1  UNL     1      -8.457   9.116  -1.711  1.00  0.00     0.139 C 
ENDROOT
BRANCH   2   3
HETATM    3  O2  UNL     1      -8.141   8.433  -2.888  1.00  0.00    -0.776 OA
HETATM    4  H1  UNL     1      -8.826   8.248  -3.613  1.00  0.00     0.167 HD
ENDBRANCH   2   3
BRANCH   2   5
HETATM    5  C2  UNL     1      -9.841   9.077  -1.200  1.00  0.00     0.115 C 
BRANCH   5   6
HETATM    6  C3  UNL     1     -10.439   7.719  -1.149  1.00  0.00     0.052 C 
BRANCH   6   7
HETATM    7  C4  UNL     1     -10.126   7.051   0.143  1.00  0.00    -0.020 A 
HETATM    8  C5  UNL     1      -9.120   6.214   0.406  1.00  0.00    -0.011 A 
HETATM    9  C8  UNL     1      -9.189   5.803   1.789  1.00  0.00     0.067 A 
HETATM   10  C9  UNL     1      -8.417   4.933   2.589  1.00  0.00     0.062 C 
HETATM   11  N4  UNL     1     -10.242   6.410   2.327  1.00  0.00    -0.248 NA
HETATM   12  C10 UNL     1      -8.729   4.555   3.893  1.00  0.00     0.041 A 
HETATM   13  N1  UNL     1      -9.891   4.263   4.508  1.00  0.00    -0.355 N 
HETATM   14  C37 UNL     1      -7.672   4.488   4.831  1.00  0.00    -0.022 A 
HETATM   15  C11 UNL     1      -9.611   4.020   5.801  1.00  0.00     0.042 A 
HETATM   16  H10 UNL     1     -10.895   4.201   4.026  1.00  0.00     0.166 HD
HETATM   17  C12 UNL     1     -10.405   3.714   6.909  1.00  0.00     0.062 C 
HETATM   18  C34 UNL     1      -8.221   4.156   6.013  1.00  0.00    -0.013 A 
HETATM   19  C13 UNL     1     -11.640   4.317   7.208  1.00  0.00     0.066 A 
HETATM   20  N2  UNL     1     -12.110   5.267   6.387  1.00  0.00    -0.248 NA
HETATM   21  C30 UNL     1     -12.607   4.138   8.263  1.00  0.00    -0.020 A 
HETATM   22  C14 UNL     1     -13.300   5.704   6.838  1.00  0.00     0.067 A 
HETATM   23  C15 UNL     1     -13.973   6.700   6.117  1.00  0.00     0.062 C 
HETATM   24  C27 UNL     1     -13.634   4.979   8.058  1.00  0.00    -0.011 A 
HETATM   25  C16 UNL     1     -13.716   7.115   4.793  1.00  0.00     0.041 A 
HETATM   26  N3  UNL     1     -12.555   7.274   4.146  1.00  0.00    -0.355 N 
HETATM   27  C23 UNL     1     -14.808   7.381   3.931  1.00  0.00    -0.022 A 
HETATM   28  C17 UNL     1     -12.835   7.628   2.887  1.00  0.00     0.042 A 
HETATM   29  H13 UNL     1     -11.526   7.160   4.583  1.00  0.00     0.166 HD
HETATM   30  C18 UNL     1     -11.991   7.902   1.793  1.00  0.00     0.062 C 
HETATM   31  C20 UNL     1     -14.234   7.702   2.720  1.00  0.00    -0.013 A 
HETATM   32  C19 UNL     1     -10.859   7.180   1.397  1.00  0.00     0.066 A 
BRANCH   8  33
HETATM   33  C6  UNL     1      -8.100   5.796  -0.594  1.00  0.00     0.151 C 
BRANCH  33  34
HETATM   34  C7  UNL     1      -6.709   5.991  -0.123  1.00  0.00     0.143 C 
HETATM   35  O3  UNL     1      -5.942   5.010  -0.063  1.00  0.00    -0.650 OA
BRANCH  34  36
HETATM   36  O4  UNL     1      -6.311   7.260   0.234  1.00  0.00    -0.776 OA
HETATM   37  H8  UNL     1      -6.692   8.053  -0.282  1.00  0.00     0.167 HD
ENDBRANCH  34  36
ENDBRANCH  33  34
ENDBRANCH   8  33
BRANCH  31  38
HETATM   38  C21 UNL     1     -14.996   8.038   1.453  1.00  0.00     0.151 C 
BRANCH  38  39
HETATM   39  C22 UNL     1     -15.288   9.489   1.497  1.00  0.00     0.143 C 
HETATM   40  O5  UNL     1     -16.450   9.871   1.754  1.00  0.00    -0.650 OA
BRANCH  39  41
HETATM   41  O6  UNL     1     -14.327  10.462   1.265  1.00  0.00    -0.776 OA
HETATM   42  H17 UNL     1     -13.376  10.213   0.963  1.00  0.00     0.167 HD
ENDBRANCH  39  41
ENDBRANCH  38  39
ENDBRANCH  31  38
BRANCH  27  43
HETATM   43  C24 UNL     1     -16.271   7.340   4.199  1.00  0.00     0.052 C 
BRANCH  43  44
HETATM   44  C25 UNL     1     -16.909   6.147   3.625  1.00  0.00     0.115 C 
BRANCH  44  45
HETATM   45  C26 UNL     1     -17.276   5.037   4.499  1.00  0.00     0.139 C 
HETATM   46  O7  UNL     1     -17.977   5.005   5.505  1.00  0.00    -0.650 OA
BRANCH  45  47
HETATM   47  O8  UNL     1     -16.723   3.782   4.116  1.00  0.00    -0.776 OA
HETATM   48  H22 UNL     1     -17.001   3.300   3.298  1.00  0.00     0.167 HD
ENDBRANCH  45  47
ENDBRANCH  44  45
ENDBRANCH  43  44
ENDBRANCH  27  43
BRANCH  24  49
HETATM   49  C28 UNL     1     -14.868   5.144   8.888  1.00  0.00     0.151 C 
BRANCH  49  50
HETATM   50  C29 UNL     1     -15.990   4.346   8.335  1.00  0.00     0.143 C 
HETATM   51  O9  UNL     1     -17.086   4.352   8.939  1.00  0.00    -0.650 OA
BRANCH  50  52
HETATM   52  O10 UNL     1     -15.885   3.592   7.180  1.00  0.00    -0.776 OA
HETATM   53  H25 UNL     1     -16.132   2.593   7.161  1.00  0.00     0.167 HD
ENDBRANCH  50  52
ENDBRANCH  49  50
ENDBRANCH  24  49
BRANCH  21  54
HETATM   54  C31 UNL     1     -12.525   3.174   9.398  1.00  0.00     0.052 C 
BRANCH  54  55
HETATM   55  C32 UNL     1     -12.107   3.775  10.692  1.00  0.00     0.115 C 
BRANCH  55  56
HETATM   56  C33 UNL     1     -10.665   3.380  10.893  1.00  0.00     0.139 C 
HETATM   57  O11 UNL     1      -9.739   3.992  10.304  1.00  0.00    -0.650 OA
BRANCH  56  58
HETATM   58  O12 UNL     1     -10.304   2.333  11.730  1.00  0.00    -0.776 OA
HETATM   59  H30 UNL     1      -9.306   2.108  11.748  1.00  0.00     0.167 HD
ENDBRANCH  56  58
ENDBRANCH  55  56
ENDBRANCH  54  55
ENDBRANCH  21  54
BRANCH  18  60
HETATM   60  C35 UNL     1      -7.416   3.967   7.265  1.00  0.00     0.151 C 
BRANCH  60  61
HETATM   61  C36 UNL     1      -6.854   2.616   7.230  1.00  0.00     0.143 C 
HETATM   62  O13 UNL     1      -5.729   2.392   7.759  1.00  0.00    -0.650 OA
BRANCH  61  63
HETATM   63  O14 UNL     1      -7.508   1.545   6.634  1.00  0.00    -0.776 OA
HETATM   64  H33 UNL     1      -8.272   1.115   7.127  1.00  0.00     0.167 HD
ENDBRANCH  61  63
ENDBRANCH  60  61
ENDBRANCH  18  60
BRANCH  14  65
HETATM   65  C38 UNL     1      -6.200   4.704   4.633  1.00  0.00     0.052 C 
BRANCH  65  66
HETATM   66  C39 UNL     1      -5.873   6.151   4.861  1.00  0.00     0.115 C 
BRANCH  66  67
HETATM   67  C40 UNL     1      -5.498   6.764   3.532  1.00  0.00     0.139 C 
HETATM   68  O15 UNL     1      -4.690   6.177   2.765  1.00  0.00    -0.650 OA
BRANCH  67  69
HETATM   69  O16 UNL     1      -6.029   7.963   3.145  1.00  0.00    -0.776 OA
HETATM   70  H38 UNL     1      -6.067   8.752   3.768  1.00  0.00     0.167 HD
ENDBRANCH  67  69
ENDBRANCH  66  67
ENDBRANCH  65  66
ENDBRANCH  14  65
ENDBRANCH   6   7
ENDBRANCH   5   6
ENDBRANCH   2   5
TORSDOF 28
ENDMDL
MODEL 16
REMARK VINA RESULT:      -6.5     24.570     29.573
REMARK  28 active torsions:
REMARK  status: ('A' for Active; 'I' for Inactive)
REMARK    1  A    between atoms: C1_2  and  O2_3 
REMARK    2  A    between atoms: C1_2  and  C2_4 
REMARK    3  A    between atoms: C2_4  and  C3_5 
REMARK    4  A    between atoms: C3_5  and  C4_6 
REMARK    5  A    between atoms: C5_7  and  C6_8 
REMARK    6  A    between atoms: C6_8  and  C7_9 
REMARK    7  A    between atoms: C7_9  and  O4_11 
REMARK    8  A    between atoms: C20_28  and  C21_29 
REMARK    9  A    between atoms: C21_29  and  C22_30 
REMARK   10  A    between atoms: C22_30  and  O6_32 
REMARK   11  A    between atoms: C23_33  and  C24_34 
REMARK   12  A    between atoms: C24_34  and  C25_35 
REMARK   13  A    between atoms: C25_35  and  C26_36 
REMARK   14  A    between atoms: C26_36  and  O8_38 
REMARK   15  A    between atoms: C27_39  and  C28_40 
REMARK   16  A    between atoms: C28_40  and  C29_41 
REMARK   17  A    between atoms: C29_41  and  O10_43 
REMARK   18  A    between atoms: C30_44  and  C31_45 
REMARK   19  A    between atoms: C31_45  and  C32_46 
REMARK   20  A    between atoms: C32_46  and  C33_47 
REMARK   21  A    between atoms: C33_47  and  O12_49 
REMARK   22  A    between atoms: C34_50  and  C35_51 
REMARK   23  A    between atoms: C35_51  and  C36_52 
REMARK   24  A    between atoms: C36_52  and  O14_54 
REMARK   25  A    between atoms: C37_55  and  C38_56 
REMARK   26  A    between atoms: C38_56  and  C39_57 
REMARK   27  A    between atoms: C39_57  and  C40_58 
REMARK   28  A    between atoms: C40_58  and  O16_60 
ROOT
HETATM    1  O1  UNL     1     -19.016   6.096   1.141  1.00  0.00    -0.650 OA
HETATM    2  C1  UNL     1     -18.719   6.084   2.341  1.00  0.00     0.139 C 
ENDROOT
BRANCH   2   3
HETATM    3  O2  UNL     1     -18.184   4.902   2.859  1.00  0.00    -0.776 OA
HETATM    4  H1  UNL     1     -17.345   4.886   3.428  1.00  0.00     0.167 HD
ENDBRANCH   2   3
BRANCH   2   5
HETATM    5  C2  UNL     1     -18.904   7.247   3.231  1.00  0.00     0.115 C 
BRANCH   5   6
HETATM    6  C3  UNL     1     -18.182   8.471   2.799  1.00  0.00     0.052 C 
BRANCH   6   7
HETATM    7  C4  UNL     1     -16.751   8.172   2.526  1.00  0.00    -0.020 A 
HETATM    8  C5  UNL     1     -16.117   8.213   1.351  1.00  0.00    -0.011 A 
HETATM    9  C8  UNL     1     -14.733   7.852   1.541  1.00  0.00     0.067 A 
HETATM   10  C9  UNL     1     -13.632   7.709   0.670  1.00  0.00     0.062 C 
HETATM   11  N4  UNL     1     -14.566   7.602   2.836  1.00  0.00    -0.248 NA
HETATM   12  C10 UNL     1     -12.381   7.212   1.031  1.00  0.00     0.041 A 
HETATM   13  N1  UNL     1     -11.996   6.217   1.854  1.00  0.00    -0.355 N 
HETATM   14  C37 UNL     1     -11.238   7.857   0.507  1.00  0.00    -0.022 A 
HETATM   15  C11 UNL     1     -10.650   6.214   1.875  1.00  0.00     0.042 A 
HETATM   16  H10 UNL     1     -12.668   5.507   2.391  1.00  0.00     0.166 HD
HETATM   17  C12 UNL     1      -9.709   5.451   2.570  1.00  0.00     0.062 C 
HETATM   18  C34 UNL     1     -10.166   7.238   1.032  1.00  0.00    -0.013 A 
HETATM   19  C13 UNL     1      -9.811   5.079   3.923  1.00  0.00     0.066 A 
HETATM   20  N2  UNL     1     -10.880   5.481   4.624  1.00  0.00    -0.248 NA
HETATM   21  C30 UNL     1      -8.981   4.296   4.806  1.00  0.00    -0.020 A 
HETATM   22  C14 UNL     1     -10.795   5.015   5.883  1.00  0.00     0.067 A 
HETATM   23  C15 UNL     1     -11.821   5.317   6.788  1.00  0.00     0.062 C 
HETATM   24  C27 UNL     1      -9.564   4.243   6.015  1.00  0.00    -0.011 A 
HETATM   25  C16 UNL     1     -13.110   5.806   6.483  1.00  0.00     0.041 A 
HETATM   26  N3  UNL     1     -13.501   6.700   5.567  1.00  0.00    -0.355 N 
HETATM   27  C23 UNL     1     -14.227   5.284   7.181  1.00  0.00    -0.022 A 
HETATM   28  C17 UNL     1     -14.836   6.786   5.626  1.00  0.00     0.042 A 
HETATM   29  H13 UNL     1     -12.834   7.295   4.888  1.00  0.00     0.166 HD
HETATM   30  C18 UNL     1     -15.747   7.558   4.880  1.00  0.00     0.062 C 
HETATM   31  C20 UNL     1     -15.319   5.913   6.623  1.00  0.00    -0.013 A 
HETATM   32  C19 UNL     1     -15.738   7.774   3.496  1.00  0.00     0.066 A 
BRANCH   8  33
HETATM   33  C6  UNL     1     -16.770   8.585   0.065  1.00  0.00     0.151 C 
BRANCH  33  34
HETATM   34  C7  UNL     1     -16.676  10.032  -0.237  1.00  0.00     0.143 C 
HETATM   35  O3  UNL     1     -17.338  10.501  -1.183  1.00  0.00    -0.650 OA
BRANCH  34  36
HETATM   36  O4  UNL     1     -15.854  10.812   0.545  1.00  0.00    -0.776 OA
HETATM   37  H8  UNL     1     -15.895  11.825   0.436  1.00  0.00     0.167 HD
ENDBRANCH  34  36
ENDBRANCH  33  34
ENDBRANCH   8  33
BRANCH  31  38
HETATM   38  C21 UNL     1     -16.763   5.665   7.012  1.00  0.00     0.151 C 
BRANCH  38  39
HETATM   39  C22 UNL     1     -17.186   4.419   6.331  1.00  0.00     0.143 C 
HETATM   40  O5  UNL     1     -18.029   3.679   6.882  1.00  0.00    -0.650 OA
BRANCH  39  41
HETATM   41  O6  UNL     1     -16.690   4.025   5.098  1.00  0.00    -0.776 OA
HETATM   42  H17 UNL     1     -16.023   3.248   5.013  1.00  0.00     0.167 HD
ENDBRANCH  39  41
ENDBRANCH  38  39
ENDBRANCH  31  38
BRANCH  27  43
HETATM   43  C24 UNL     1     -14.287   4.280   8.277  1.00  0.00     0.052 C 
BRANCH  43  44
HETATM   44  C25 UNL     1     -14.079   4.887   9.600  1.00  0.00     0.115 C 
BRANCH  44  45
HETATM   45  C26 UNL     1     -12.913   4.505  10.391  1.00  0.00     0.139 C 
HETATM   46  O7  UNL     1     -12.465   4.968  11.434  1.00  0.00    -0.650 OA
BRANCH  45  47
HETATM   47  O8  UNL     1     -12.175   3.412   9.855  1.00  0.00    -0.776 OA
HETATM   48  H22 UNL     1     -12.563   2.764   9.214  1.00  0.00     0.167 HD
ENDBRANCH  45  47
ENDBRANCH  44  45
ENDBRANCH  43  44
ENDBRANCH  27  43
BRANCH  24  49
HETATM   49  C28 UNL     1      -9.075   3.542   7.243  1.00  0.00     0.151 C 
BRANCH  49  50
HETATM   50  C29 UNL     1      -9.542   2.134   7.270  1.00  0.00     0.143 C 
HETATM   51  O9  UNL     1     -10.667   1.884   7.759  1.00  0.00    -0.650 OA
BRANCH  50  52
HETATM   52  O10 UNL     1      -8.794   1.078   6.780  1.00  0.00    -0.776 OA
HETATM   53  H25 UNL     1      -9.237   0.216   6.434  1.00  0.00     0.167 HD
ENDBRANCH  50  52
ENDBRANCH  49  50
ENDBRANCH  24  49
BRANCH  21  54
HETATM   54  C31 UNL     1      -7.696   3.623   4.464  1.00  0.00     0.052 C 
BRANCH  54  55
HETATM   55  C32 UNL     1      -6.480   4.332   4.944  1.00  0.00     0.115 C 
BRANCH  55  56
HETATM   56  C33 UNL     1      -6.337   5.557   4.075  1.00  0.00     0.139 C 
HETATM   57  O11 UNL     1      -6.339   6.709   4.577  1.00  0.00    -0.650 OA
BRANCH  56  58
HETATM   58  O12 UNL     1      -6.199   5.464   2.696  1.00  0.00    -0.776 OA
HETATM   59  H30 UNL     1      -6.741   4.719   2.250  1.00  0.00     0.167 HD
ENDBRANCH  56  58
ENDBRANCH  55  56
ENDBRANCH  54  55
ENDBRANCH  21  54
BRANCH  18  60
HETATM   60  C35 UNL     1      -8.754   7.623   0.702  1.00  0.00     0.151 C 
BRANCH  60  61
HETATM   61  C36 UNL     1      -8.243   8.424   1.816  1.00  0.00     0.143 C 
HETATM   62  O13 UNL     1      -9.042   9.114   2.509  1.00  0.00    -0.650 OA
BRANCH  61  63
HETATM   63  O14 UNL     1      -6.898   8.463   2.159  1.00  0.00    -0.776 OA
HETATM   64  H33 UNL     1      -6.574   9.209   2.753  1.00  0.00     0.167 HD
ENDBRANCH  61  63
ENDBRANCH  60  61
ENDBRANCH  18  60
BRANCH  14  65
HETATM   65  C38 UNL     1     -11.141   8.998  -0.464  1.00  0.00     0.052 C 
BRANCH  65  66
HETATM   66  C39 UNL     1     -11.426   8.499  -1.850  1.00  0.00     0.115 C 
BRANCH  66  67
HETATM   67  C40 UNL     1     -10.432   9.134  -2.794  1.00  0.00     0.139 C 
HETATM   68  O15 UNL     1      -9.565   9.937  -2.359  1.00  0.00    -0.650 OA
BRANCH  67  69
HETATM   69  O16 UNL     1     -10.459   8.846  -4.130  1.00  0.00    -0.776 OA
HETATM   70  H38 UNL     1      -9.625   8.862  -4.693  1.00  0.00     0.167 HD
ENDBRANCH  67  69
ENDBRANCH  66  67
ENDBRANCH  65  66
ENDBRANCH  14  65
ENDBRANCH   6   7
ENDBRANCH   5   6
ENDBRANCH   2   5
TORSDOF 28
ENDMDL
MODEL 17
REMARK VINA RESULT:      -6.4     26.037     31.611
REMARK  28 active torsions:
REMARK  status: ('A' for Active; 'I' for Inactive)
REMARK    1  A    between atoms: C1_2  and  O2_3 
REMARK    2  A    between atoms: C1_2  and  C2_4 
REMARK    3  A    between atoms: C2_4  and  C3_5 
REMARK    4  A    between atoms: C3_5  and  C4_6 
REMARK    5  A    between atoms: C5_7  and  C6_8 
REMARK    6  A    between atoms: C6_8  and  C7_9 
REMARK    7  A    between atoms: C7_9  and  O4_11 
REMARK    8  A    between atoms: C20_28  and  C21_29 
REMARK    9  A    between atoms: C21_29  and  C22_30 
REMARK   10  A    between atoms: C22_30  and  O6_32 
REMARK   11  A    between atoms: C23_33  and  C24_34 
REMARK   12  A    between atoms: C24_34  and  C25_35 
REMARK   13  A    between atoms: C25_35  and  C26_36 
REMARK   14  A    between atoms: C26_36  and  O8_38 
REMARK   15  A    between atoms: C27_39  and  C28_40 
REMARK   16  A    between atoms: C28_40  and  C29_41 
REMARK   17  A    between atoms: C29_41  and  O10_43 
REMARK   18  A    between atoms: C30_44  and  C31_45 
REMARK   19  A    between atoms: C31_45  and  C32_46 
REMARK   20  A    between atoms: C32_46  and  C33_47 
REMARK   21  A    between atoms: C33_47  and  O12_49 
REMARK   22  A    between atoms: C34_50  and  C35_51 
REMARK   23  A    between atoms: C35_51  and  C36_52 
REMARK   24  A    between atoms: C36_52  and  O14_54 
REMARK   25  A    between atoms: C37_55  and  C38_56 
REMARK   26  A    between atoms: C38_56  and  C39_57 
REMARK   27  A    between atoms: C39_57  and  C40_58 
REMARK   28  A    between atoms: C40_58  and  O16_60 
ROOT
HETATM    1  O1  UNL     1     -14.118  12.274  -8.509  1.00  0.00    -0.650 OA
HETATM    2  C1  UNL     1     -14.473  11.965  -7.366  1.00  0.00     0.139 C 
ENDROOT
BRANCH   2   3
HETATM    3  O2  UNL     1     -13.476  11.588  -6.463  1.00  0.00    -0.776 OA
HETATM    4  H1  UNL     1     -12.496  11.544  -6.720  1.00  0.00     0.167 HD
ENDBRANCH   2   3
BRANCH   2   5
HETATM    5  C2  UNL     1     -15.882  11.981  -6.926  1.00  0.00     0.115 C 
BRANCH   5   6
HETATM    6  C3  UNL     1     -16.775  11.079  -7.696  1.00  0.00     0.052 C 
BRANCH   6   7
HETATM    7  C4  UNL     1     -17.958  11.820  -8.212  1.00  0.00    -0.020 A 
HETATM    8  C5  UNL     1     -18.045  12.539  -9.334  1.00  0.00    -0.011 A 
HETATM    9  C8  UNL     1     -19.376  13.085  -9.449  1.00  0.00     0.067 A 
HETATM   10  C9  UNL     1     -20.012  13.918 -10.395  1.00  0.00     0.062 C 
HETATM   11  N4  UNL     1     -20.062  12.676  -8.387  1.00  0.00    -0.248 NA
HETATM   12  C10 UNL     1     -21.290  14.456 -10.260  1.00  0.00     0.041 A 
HETATM   13  N1  UNL     1     -21.965  14.955  -9.207  1.00  0.00    -0.355 N 
HETATM   14  C37 UNL     1     -22.123  14.473 -11.402  1.00  0.00    -0.022 A 
HETATM   15  C11 UNL     1     -23.197  15.282  -9.639  1.00  0.00     0.042 A 
HETATM   16  H10 UNL     1     -21.565  15.103  -8.176  1.00  0.00     0.166 HD
HETATM   17  C12 UNL     1     -24.328  15.793  -8.999  1.00  0.00     0.062 C 
HETATM   18  C34 UNL     1     -23.305  14.985 -11.015  1.00  0.00    -0.013 A 
HETATM   19  C13 UNL     1     -24.793  15.389  -7.734  1.00  0.00     0.066 A 
HETATM   20  N2  UNL     1     -24.120  14.435  -7.074  1.00  0.00    -0.248 NA
HETATM   21  C30 UNL     1     -25.900  15.794  -6.903  1.00  0.00    -0.020 A 
HETATM   22  C14 UNL     1     -24.713  14.203  -5.889  1.00  0.00     0.067 A 
HETATM   23  C15 UNL     1     -24.162  13.240  -5.033  1.00  0.00     0.062 C 
HETATM   24  C27 UNL     1     -25.873  15.079  -5.766  1.00  0.00    -0.011 A 
HETATM   25  C16 UNL     1     -22.872  12.671  -5.108  1.00  0.00     0.041 A 
HETATM   26  N3  UNL     1     -22.151  12.300  -6.173  1.00  0.00    -0.355 N 
HETATM   27  C23 UNL     1     -22.138  12.470  -3.913  1.00  0.00    -0.022 A 
HETATM   28  C17 UNL     1     -20.965  11.867  -5.731  1.00  0.00     0.042 A 
HETATM   29  H13 UNL     1     -22.486  12.319  -7.245  1.00  0.00     0.166 HD
HETATM   30  C18 UNL     1     -19.839  11.383  -6.425  1.00  0.00     0.062 C 
HETATM   31  C20 UNL     1     -20.925  11.963  -4.324  1.00  0.00    -0.013 A 
HETATM   32  C19 UNL     1     -19.275  11.908  -7.594  1.00  0.00     0.066 A 
BRANCH   8  33
HETATM   33  C6  UNL     1     -16.923  12.722 -10.296  1.00  0.00     0.151 C 
BRANCH  33  34
HETATM   34  C7  UNL     1     -16.380  14.101 -10.301  1.00  0.00     0.143 C 
HETATM   35  O3  UNL     1     -16.306  14.731  -9.228  1.00  0.00    -0.650 OA
BRANCH  34  36
HETATM   36  O4  UNL     1     -15.974  14.639 -11.502  1.00  0.00    -0.776 OA
HETATM   37  H8  UNL     1     -15.901  15.653 -11.581  1.00  0.00     0.167 HD
ENDBRANCH  34  36
ENDBRANCH  33  34
ENDBRANCH   8  33
BRANCH  31  38
HETATM   38  C21 UNL     1     -19.769  11.611  -3.408  1.00  0.00     0.151 C 
BRANCH  38  39
HETATM   39  C22 UNL     1     -19.991  10.220  -2.948  1.00  0.00     0.143 C 
HETATM   40  O5  UNL     1     -19.362   9.800  -1.953  1.00  0.00    -0.650 OA
BRANCH  39  41
HETATM   41  O6  UNL     1     -20.871   9.348  -3.571  1.00  0.00    -0.776 OA
HETATM   42  H17 UNL     1     -20.619   8.366  -3.743  1.00  0.00     0.167 HD
ENDBRANCH  39  41
ENDBRANCH  38  39
ENDBRANCH  31  38
BRANCH  27  43
HETATM   43  C24 UNL     1     -22.522  12.728  -2.499  1.00  0.00     0.052 C 
BRANCH  43  44
HETATM   44  C25 UNL     1     -23.016  11.518  -1.827  1.00  0.00     0.115 C 
BRANCH  44  45
HETATM   45  C26 UNL     1     -24.053  10.713  -2.467  1.00  0.00     0.139 C 
HETATM   46  O7  UNL     1     -25.205  10.992  -2.782  1.00  0.00    -0.650 OA
BRANCH  45  47
HETATM   47  O8  UNL     1     -23.655   9.382  -2.772  1.00  0.00    -0.776 OA
HETATM   48  H22 UNL     1     -23.173   9.142  -3.603  1.00  0.00     0.167 HD
ENDBRANCH  45  47
ENDBRANCH  44  45
ENDBRANCH  43  44
ENDBRANCH  27  43
BRANCH  24  49
HETATM   49  C28 UNL     1     -26.816  15.157  -4.607  1.00  0.00     0.151 C 
BRANCH  49  50
HETATM   50  C29 UNL     1     -27.505  13.860  -4.396  1.00  0.00     0.143 C 
HETATM   51  O9  UNL     1     -28.256  13.426  -5.298  1.00  0.00    -0.650 OA
BRANCH  50  52
HETATM   52  O10 UNL     1     -27.359  13.102  -3.248  1.00  0.00    -0.776 OA
HETATM   53  H25 UNL     1     -27.478  12.081  -3.255  1.00  0.00     0.167 HD
ENDBRANCH  50  52
ENDBRANCH  49  50
ENDBRANCH  24  49
BRANCH  21  54
HETATM   54  C31 UNL     1     -26.914  16.841  -7.211  1.00  0.00     0.052 C 
BRANCH  54  55
HETATM   55  C32 UNL     1     -27.964  16.422  -8.177  1.00  0.00     0.115 C 
BRANCH  55  56
HETATM   56  C33 UNL     1     -27.805  17.314  -9.384  1.00  0.00     0.139 C 
HETATM   57  O11 UNL     1     -28.184  18.512  -9.357  1.00  0.00    -0.650 OA
BRANCH  56  58
HETATM   58  O12 UNL     1     -27.238  16.852 -10.564  1.00  0.00    -0.776 OA
HETATM   59  H30 UNL     1     -26.220  16.942 -10.627  1.00  0.00     0.167 HD
ENDBRANCH  56  58
ENDBRANCH  55  56
ENDBRANCH  54  55
ENDBRANCH  21  54
BRANCH  18  60
HETATM   60  C35 UNL     1     -24.458  15.185 -11.954  1.00  0.00     0.151 C 
BRANCH  60  61
HETATM   61  C36 UNL     1     -24.308  16.508 -12.563  1.00  0.00     0.143 C 
HETATM   62  O13 UNL     1     -24.606  17.540 -11.899  1.00  0.00    -0.650 OA
BRANCH  61  63
HETATM   63  O14 UNL     1     -23.843  16.691 -13.859  1.00  0.00    -0.776 OA
HETATM   64  H33 UNL     1     -23.954  17.596 -14.286  1.00  0.00     0.167 HD
ENDBRANCH  61  63
ENDBRANCH  60  61
ENDBRANCH  18  60
BRANCH  14  65
HETATM   65  C38 UNL     1     -21.827  14.048 -12.811  1.00  0.00     0.052 C 
BRANCH  65  66
HETATM   66  C39 UNL     1     -21.708  12.553 -12.867  1.00  0.00     0.115 C 
BRANCH  66  67
HETATM   67  C40 UNL     1     -21.817  12.124 -14.311  1.00  0.00     0.139 C 
HETATM   68  O15 UNL     1     -20.933  12.458 -15.143  1.00  0.00    -0.650 OA
BRANCH  67  69
HETATM   69  O16 UNL     1     -22.875  11.368 -14.735  1.00  0.00    -0.776 OA
HETATM   70  H38 UNL     1     -22.876  10.366 -14.652  1.00  0.00     0.167 HD
ENDBRANCH  67  69
ENDBRANCH  66  67
ENDBRANCH  65  66
ENDBRANCH  14  65
ENDBRANCH   6   7
ENDBRANCH   5   6
ENDBRANCH   2   5
TORSDOF 28
ENDMDL
MODEL 18
REMARK VINA RESULT:      -6.3     22.360     28.720
REMARK  28 active torsions:
REMARK  status: ('A' for Active; 'I' for Inactive)
REMARK    1  A    between atoms: C1_2  and  O2_3 
REMARK    2  A    between atoms: C1_2  and  C2_4 
REMARK    3  A    between atoms: C2_4  and  C3_5 
REMARK    4  A    between atoms: C3_5  and  C4_6 
REMARK    5  A    between atoms: C5_7  and  C6_8 
REMARK    6  A    between atoms: C6_8  and  C7_9 
REMARK    7  A    between atoms: C7_9  and  O4_11 
REMARK    8  A    between atoms: C20_28  and  C21_29 
REMARK    9  A    between atoms: C21_29  and  C22_30 
REMARK   10  A    between atoms: C22_30  and  O6_32 
REMARK   11  A    between atoms: C23_33  and  C24_34 
REMARK   12  A    between atoms: C24_34  and  C25_35 
REMARK   13  A    between atoms: C25_35  and  C26_36 
REMARK   14  A    between atoms: C26_36  and  O8_38 
REMARK   15  A    between atoms: C27_39  and  C28_40 
REMARK   16  A    between atoms: C28_40  and  C29_41 
REMARK   17  A    between atoms: C29_41  and  O10_43 
REMARK   18  A    between atoms: C30_44  and  C31_45 
REMARK   19  A    between atoms: C31_45  and  C32_46 
REMARK   20  A    between atoms: C32_46  and  C33_47 
REMARK   21  A    between atoms: C33_47  and  O12_49 
REMARK   22  A    between atoms: C34_50  and  C35_51 
REMARK   23  A    between atoms: C35_51  and  C36_52 
REMARK   24  A    between atoms: C36_52  and  O14_54 
REMARK   25  A    between atoms: C37_55  and  C38_56 
REMARK   26  A    between atoms: C38_56  and  C39_57 
REMARK   27  A    between atoms: C39_57  and  C40_58 
REMARK   28  A    between atoms: C40_58  and  O16_60 
ROOT
HETATM    1  O1  UNL     1      -8.367   2.187   4.916  1.00  0.00    -0.650 OA
HETATM    2  C1  UNL     1      -7.418   2.605   5.591  1.00  0.00     0.139 C 
ENDROOT
BRANCH   2   3
HETATM    3  O2  UNL     1      -6.789   1.697   6.447  1.00  0.00    -0.776 OA
HETATM    4  H1  UNL     1      -7.140   1.490   7.375  1.00  0.00     0.167 HD
ENDBRANCH   2   3
BRANCH   2   5
HETATM    5  C2  UNL     1      -6.934   3.998   5.528  1.00  0.00     0.115 C 
BRANCH   5   6
HETATM    6  C3  UNL     1      -7.084   4.758   6.795  1.00  0.00     0.052 C 
BRANCH   6   7
HETATM    7  C4  UNL     1      -8.489   4.708   7.279  1.00  0.00    -0.020 A 
HETATM    8  C5  UNL     1      -8.954   4.106   8.377  1.00  0.00    -0.011 A 
HETATM    9  C8  UNL     1     -10.381   4.310   8.465  1.00  0.00     0.067 A 
HETATM   10  C9  UNL     1     -11.372   3.893   9.380  1.00  0.00     0.062 C 
HETATM   11  N4  UNL     1     -10.741   5.036   7.411  1.00  0.00    -0.248 NA
HETATM   12  C10 UNL     1     -12.743   4.081   9.219  1.00  0.00     0.041 A 
HETATM   13  N1  UNL     1     -13.554   4.019   8.146  1.00  0.00    -0.355 N 
HETATM   14  C37 UNL     1     -13.494   4.463  10.354  1.00  0.00    -0.022 A 
HETATM   15  C11 UNL     1     -14.791   4.353   8.559  1.00  0.00     0.042 A 
HETATM   16  H10 UNL     1     -13.262   3.714   7.113  1.00  0.00     0.166 HD
HETATM   17  C12 UNL     1     -16.010   4.503   7.895  1.00  0.00     0.062 C 
HETATM   18  C34 UNL     1     -14.764   4.631   9.943  1.00  0.00    -0.013 A 
HETATM   19  C13 UNL     1     -16.178   5.117   6.640  1.00  0.00     0.066 A 
HETATM   20  N2  UNL     1     -15.100   5.612   6.016  1.00  0.00    -0.248 NA
HETATM   21  C30 UNL     1     -17.319   5.351   5.789  1.00  0.00    -0.020 A 
HETATM   22  C14 UNL     1     -15.467   6.142   4.835  1.00  0.00     0.067 A 
HETATM   23  C15 UNL     1     -14.484   6.711   4.014  1.00  0.00     0.062 C 
HETATM   24  C27 UNL     1     -16.908   5.979   4.676  1.00  0.00    -0.011 A 
HETATM   25  C16 UNL     1     -13.086   6.545   4.115  1.00  0.00     0.041 A 
HETATM   26  N3  UNL     1     -12.301   6.473   5.197  1.00  0.00    -0.355 N 
HETATM   27  C23 UNL     1     -12.326   6.373   2.932  1.00  0.00    -0.022 A 
HETATM   28  C17 UNL     1     -11.049   6.253   4.777  1.00  0.00     0.042 A 
HETATM   29  H13 UNL     1     -12.622   6.601   6.265  1.00  0.00     0.166 HD
HETATM   30  C18 UNL     1      -9.849   6.083   5.494  1.00  0.00     0.062 C 
HETATM   31  C20 UNL     1     -11.032   6.185   3.368  1.00  0.00    -0.013 A 
HETATM   32  C19 UNL     1      -9.656   5.316   6.649  1.00  0.00     0.066 A 
BRANCH   8  33
HETATM   33  C6  UNL     1      -8.102   3.356   9.340  1.00  0.00     0.151 C 
BRANCH  33  34
HETATM   34  C7  UNL     1      -8.498   1.936   9.482  1.00  0.00     0.143 C 
HETATM   35  O3  UNL     1      -8.515   1.418  10.616  1.00  0.00    -0.650 OA
BRANCH  34  36
HETATM   36  O4  UNL     1      -8.835   1.234   8.346  1.00  0.00    -0.776 OA
HETATM   37  H8  UNL     1      -8.102   0.725   7.853  1.00  0.00     0.167 HD
ENDBRANCH  34  36
ENDBRANCH  33  34
ENDBRANCH   8  33
BRANCH  31  38
HETATM   38  C21 UNL     1      -9.838   5.923   2.471  1.00  0.00     0.151 C 
BRANCH  38  39
HETATM   39  C22 UNL     1      -9.927   4.509   2.036  1.00  0.00     0.143 C 
HETATM   40  O5  UNL     1     -10.101   4.254   0.825  1.00  0.00    -0.650 OA
BRANCH  39  41
HETATM   41  O6  UNL     1      -9.825   3.440   2.912  1.00  0.00    -0.776 OA
HETATM   42  H17 UNL     1     -10.193   3.496   3.870  1.00  0.00     0.167 HD
ENDBRANCH  39  41
ENDBRANCH  38  39
ENDBRANCH  31  38
BRANCH  27  43
HETATM   43  C24 UNL     1     -12.756   6.380   1.509  1.00  0.00     0.052 C 
BRANCH  43  44
HETATM   44  C25 UNL     1     -12.814   7.739   0.951  1.00  0.00     0.115 C 
BRANCH  44  45
HETATM   45  C26 UNL     1     -13.803   8.052  -0.076  1.00  0.00     0.139 C 
HETATM   46  O7  UNL     1     -14.349   9.111  -0.368  1.00  0.00    -0.650 OA
BRANCH  45  47
HETATM   47  O8  UNL     1     -14.197   6.938  -0.869  1.00  0.00    -0.776 OA
HETATM   48  H22 UNL     1     -14.679   7.033  -1.729  1.00  0.00     0.167 HD
ENDBRANCH  45  47
ENDBRANCH  44  45
ENDBRANCH  43  44
ENDBRANCH  27  43
BRANCH  24  49
HETATM   49  C28 UNL     1     -17.734   6.419   3.508  1.00  0.00     0.151 C 
BRANCH  49  50
HETATM   50  C29 UNL     1     -18.339   7.750   3.758  1.00  0.00     0.143 C 
HETATM   51  O9  UNL     1     -19.576   7.883   3.618  1.00  0.00    -0.650 OA
BRANCH  50  52
HETATM   52  O10 UNL     1     -17.603   8.857   4.141  1.00  0.00    -0.776 OA
HETATM   53  H25 UNL     1     -17.214   8.947   5.089  1.00  0.00     0.167 HD
ENDBRANCH  50  52
ENDBRANCH  49  50
ENDBRANCH  24  49
BRANCH  21  54
HETATM   54  C31 UNL     1     -18.731   4.956   6.057  1.00  0.00     0.052 C 
BRANCH  54  55
HETATM   55  C32 UNL     1     -19.090   3.589   5.597  1.00  0.00     0.115 C 
BRANCH  55  56
HETATM   56  C33 UNL     1     -19.441   2.806   6.838  1.00  0.00     0.139 C 
HETATM   57  O11 UNL     1     -20.626   2.746   7.251  1.00  0.00    -0.650 OA
BRANCH  56  58
HETATM   58  O12 UNL     1     -18.477   2.124   7.569  1.00  0.00    -0.776 OA
HETATM   59  H30 UNL     1     -17.696   1.748   7.024  1.00  0.00     0.167 HD
ENDBRANCH  56  58
ENDBRANCH  55  56
ENDBRANCH  54  55
ENDBRANCH  21  54
BRANCH  18  60
HETATM   60  C35 UNL     1     -15.879   5.022  10.867  1.00  0.00     0.151 C 
BRANCH  60  61
HETATM   61  C36 UNL     1     -16.206   6.424  10.597  1.00  0.00     0.143 C 
HETATM   62  O13 UNL     1     -15.276   7.259  10.414  1.00  0.00    -0.650 OA
BRANCH  61  63
HETATM   63  O14 UNL     1     -17.512   6.891  10.527  1.00  0.00    -0.776 OA
HETATM   64  H33 UNL     1     -18.150   6.441   9.893  1.00  0.00     0.167 HD
ENDBRANCH  61  63
ENDBRANCH  60  61
ENDBRANCH  18  60
BRANCH  14  65
HETATM   65  C38 UNL     1     -13.054   4.645  11.778  1.00  0.00     0.052 C 
BRANCH  65  66
HETATM   66  C39 UNL     1     -12.434   6.002  11.939  1.00  0.00     0.115 C 
BRANCH  66  67
HETATM   67  C40 UNL     1     -11.105   5.833  12.638  1.00  0.00     0.139 C 
HETATM   68  O15 UNL     1     -10.463   6.841  13.035  1.00  0.00    -0.650 OA
BRANCH  67  69
HETATM   69  O16 UNL     1     -10.583   4.587  12.850  1.00  0.00    -0.776 OA
HETATM   70  H38 UNL     1     -10.993   3.765  12.440  1.00  0.00     0.167 HD
ENDBRANCH  67  69
ENDBRANCH  66  67
ENDBRANCH  65  66
ENDBRANCH  14  65
ENDBRANCH   6   7
ENDBRANCH   5   6
ENDBRANCH   2   5
TORSDOF 28
ENDMDL
MODEL 19
REMARK VINA RESULT:      -6.3     27.000     31.295
REMARK  28 active torsions:
REMARK  status: ('A' for Active; 'I' for Inactive)
REMARK    1  A    between atoms: C1_2  and  O2_3 
REMARK    2  A    between atoms: C1_2  and  C2_4 
REMARK    3  A    between atoms: C2_4  and  C3_5 
REMARK    4  A    between atoms: C3_5  and  C4_6 
REMARK    5  A    between atoms: C5_7  and  C6_8 
REMARK    6  A    between atoms: C6_8  and  C7_9 
REMARK    7  A    between atoms: C7_9  and  O4_11 
REMARK    8  A    between atoms: C20_28  and  C21_29 
REMARK    9  A    between atoms: C21_29  and  C22_30 
REMARK   10  A    between atoms: C22_30  and  O6_32 
REMARK   11  A    between atoms: C23_33  and  C24_34 
REMARK   12  A    between atoms: C24_34  and  C25_35 
REMARK   13  A    between atoms: C25_35  and  C26_36 
REMARK   14  A    between atoms: C26_36  and  O8_38 
REMARK   15  A    between atoms: C27_39  and  C28_40 
REMARK   16  A    between atoms: C28_40  and  C29_41 
REMARK   17  A    between atoms: C29_41  and  O10_43 
REMARK   18  A    between atoms: C30_44  and  C31_45 
REMARK   19  A    between atoms: C31_45  and  C32_46 
REMARK   20  A    between atoms: C32_46  and  C33_47 
REMARK   21  A    between atoms: C33_47  and  O12_49 
REMARK   22  A    between atoms: C34_50  and  C35_51 
REMARK   23  A    between atoms: C35_51  and  C36_52 
REMARK   24  A    between atoms: C36_52  and  O14_54 
REMARK   25  A    between atoms: C37_55  and  C38_56 
REMARK   26  A    between atoms: C38_56  and  C39_57 
REMARK   27  A    between atoms: C39_57  and  C40_58 
REMARK   28  A    between atoms: C40_58  and  O16_60 
ROOT
HETATM    1  O1  UNL     1     -25.887  19.073  -9.242  1.00  0.00    -0.650 OA
HETATM    2  C1  UNL     1     -25.926  18.178 -10.095  1.00  0.00     0.139 C 
ENDROOT
BRANCH   2   3
HETATM    3  O2  UNL     1     -27.168  17.598 -10.361  1.00  0.00    -0.776 OA
HETATM    4  H1  UNL     1     -27.859  18.037 -10.960  1.00  0.00     0.167 HD
ENDBRANCH   2   3
BRANCH   2   5
HETATM    5  C2  UNL     1     -24.735  17.711 -10.831  1.00  0.00     0.115 C 
BRANCH   5   6
HETATM    6  C3  UNL     1     -24.744  16.263 -11.158  1.00  0.00     0.052 C 
BRANCH   6   7
HETATM    7  C4  UNL     1     -23.730  15.532 -10.351  1.00  0.00    -0.020 A 
HETATM    8  C5  UNL     1     -22.629  14.915 -10.787  1.00  0.00    -0.011 A 
HETATM    9  C8  UNL     1     -21.928  14.337  -9.665  1.00  0.00     0.067 A 
HETATM   10  C9  UNL     1     -20.748  13.572  -9.540  1.00  0.00     0.062 C 
HETATM   11  N4  UNL     1     -22.630  14.624  -8.573  1.00  0.00    -0.248 NA
HETATM   12  C10 UNL     1     -20.298  12.980  -8.361  1.00  0.00     0.041 A 
HETATM   13  N1  UNL     1     -20.933  12.365  -7.346  1.00  0.00    -0.355 N 
HETATM   14  C37 UNL     1     -18.913  13.039  -8.081  1.00  0.00    -0.022 A 
HETATM   15  C11 UNL     1     -20.003  12.037  -6.430  1.00  0.00     0.042 A 
HETATM   16  H10 UNL     1     -22.025  12.138  -7.291  1.00  0.00     0.166 HD
HETATM   17  C12 UNL     1     -20.072  11.432  -5.174  1.00  0.00     0.062 C 
HETATM   18  C34 UNL     1     -18.732  12.454  -6.884  1.00  0.00    -0.013 A 
HETATM   19  C13 UNL     1     -21.050  11.703  -4.199  1.00  0.00     0.066 A 
HETATM   20  N2  UNL     1     -21.995  12.615  -4.470  1.00  0.00    -0.248 NA
HETATM   21  C30 UNL     1     -21.309  11.187  -2.877  1.00  0.00    -0.020 A 
HETATM   22  C14 UNL     1     -22.834  12.718  -3.423  1.00  0.00     0.067 A 
HETATM   23  C15 UNL     1     -23.906  13.618  -3.501  1.00  0.00     0.062 C 
HETATM   24  C27 UNL     1     -22.399  11.796  -2.381  1.00  0.00    -0.011 A 
HETATM   25  C16 UNL     1     -24.418  14.236  -4.663  1.00  0.00     0.041 A 
HETATM   26  N3  UNL     1     -23.782  14.725  -5.733  1.00  0.00    -0.355 N 
HETATM   27  C23 UNL     1     -25.822  14.351  -4.818  1.00  0.00    -0.022 A 
HETATM   28  C17 UNL     1     -24.710  15.157  -6.596  1.00  0.00     0.042 A 
HETATM   29  H13 UNL     1     -22.670  14.793  -5.876  1.00  0.00     0.166 HD
HETATM   30  C18 UNL     1     -24.587  15.740  -7.871  1.00  0.00     0.062 C 
HETATM   31  C20 UNL     1     -25.993  14.935  -6.054  1.00  0.00    -0.013 A 
HETATM   32  C19 UNL     1     -23.730  15.343  -8.905  1.00  0.00     0.066 A 
BRANCH   8  33
HETATM   33  C6  UNL     1     -22.217  14.858 -12.217  1.00  0.00     0.151 C 
BRANCH  33  34
HETATM   34  C7  UNL     1     -22.620  13.601 -12.889  1.00  0.00     0.143 C 
HETATM   35  O3  UNL     1     -22.129  12.521 -12.508  1.00  0.00    -0.650 OA
BRANCH  34  36
HETATM   36  O4  UNL     1     -23.531  13.674 -13.920  1.00  0.00    -0.776 OA
HETATM   37  H8  UNL     1     -23.934  12.808 -14.276  1.00  0.00     0.167 HD
ENDBRANCH  34  36
ENDBRANCH  33  34
ENDBRANCH   8  33
BRANCH  31  38
HETATM   38  C21 UNL     1     -27.332  15.241  -6.697  1.00  0.00     0.151 C 
BRANCH  38  39
HETATM   39  C22 UNL     1     -27.516  16.710  -6.633  1.00  0.00     0.143 C 
HETATM   40  O5  UNL     1     -28.161  17.284  -7.537  1.00  0.00    -0.650 OA
BRANCH  39  41
HETATM   41  O6  UNL     1     -27.005  17.493  -5.610  1.00  0.00    -0.776 OA
HETATM   42  H17 UNL     1     -27.521  17.629  -4.731  1.00  0.00     0.167 HD
ENDBRANCH  39  41
ENDBRANCH  38  39
ENDBRANCH  31  38
BRANCH  27  43
HETATM   43  C24 UNL     1     -26.922  13.953  -3.900  1.00  0.00     0.052 C 
BRANCH  43  44
HETATM   44  C25 UNL     1     -27.388  15.073  -3.070  1.00  0.00     0.115 C 
BRANCH  44  45
HETATM   45  C26 UNL     1     -28.731  15.607  -3.272  1.00  0.00     0.139 C 
HETATM   46  O7  UNL     1     -29.804  15.038  -3.440  1.00  0.00    -0.650 OA
BRANCH  45  47
HETATM   47  O8  UNL     1     -28.802  17.029  -3.275  1.00  0.00    -0.776 OA
HETATM   48  H22 UNL     1     -28.523  17.582  -2.502  1.00  0.00     0.167 HD
ENDBRANCH  45  47
ENDBRANCH  44  45
ENDBRANCH  43  44
ENDBRANCH  27  43
BRANCH  24  49
HETATM   49  C28 UNL     1     -23.047  11.581  -1.049  1.00  0.00     0.151 C 
BRANCH  49  50
HETATM   50  C29 UNL     1     -22.702  12.676  -0.109  1.00  0.00     0.143 C 
HETATM   51  O9  UNL     1     -21.667  12.566   0.587  1.00  0.00    -0.650 OA
BRANCH  50  52
HETATM   52  O10 UNL     1     -23.470  13.817   0.039  1.00  0.00    -0.776 OA
HETATM   53  H25 UNL     1     -23.706  14.417  -0.762  1.00  0.00     0.167 HD
ENDBRANCH  50  52
ENDBRANCH  49  50
ENDBRANCH  24  49
BRANCH  21  54
HETATM   54  C31 UNL     1     -20.533  10.138  -2.158  1.00  0.00     0.052 C 
BRANCH  54  55
HETATM   55  C32 UNL     1     -19.159  10.545  -1.763  1.00  0.00     0.115 C 
BRANCH  55  56
HETATM   56  C33 UNL     1     -19.128  10.515  -0.255  1.00  0.00     0.139 C 
HETATM   57  O11 UNL     1     -18.497  11.384   0.396  1.00  0.00    -0.650 OA
BRANCH  56  58
HETATM   58  O12 UNL     1     -19.789   9.532   0.470  1.00  0.00    -0.776 OA
HETATM   59  H30 UNL     1     -19.372   9.298   1.375  1.00  0.00     0.167 HD
ENDBRANCH  56  58
ENDBRANCH  55  56
ENDBRANCH  54  55
ENDBRANCH  21  54
BRANCH  18  60
HETATM   60  C35 UNL     1     -17.385  12.301  -6.242  1.00  0.00     0.151 C 
BRANCH  60  61
HETATM   61  C36 UNL     1     -16.802  11.050  -6.731  1.00  0.00     0.143 C 
HETATM   62  O13 UNL     1     -15.602  11.030  -7.125  1.00  0.00    -0.650 OA
BRANCH  61  63
HETATM   63  O14 UNL     1     -17.513   9.859  -6.781  1.00  0.00    -0.776 OA
HETATM   64  H33 UNL     1     -18.472   9.884  -7.087  1.00  0.00     0.167 HD
ENDBRANCH  61  63
ENDBRANCH  60  61
ENDBRANCH  18  60
BRANCH  14  65
HETATM   65  C38 UNL     1     -17.791  13.601  -8.906  1.00  0.00     0.052 C 
BRANCH  65  66
HETATM   66  C39 UNL     1     -17.377  12.593  -9.938  1.00  0.00     0.115 C 
BRANCH  66  67
HETATM   67  C40 UNL     1     -15.886  12.718 -10.149  1.00  0.00     0.139 C 
HETATM   68  O15 UNL     1     -15.383  12.490 -11.280  1.00  0.00    -0.650 OA
BRANCH  67  69
HETATM   69  O16 UNL     1     -15.066  13.078  -9.117  1.00  0.00    -0.776 OA
HETATM   70  H38 UNL     1     -15.349  12.982  -8.156  1.00  0.00     0.167 HD
ENDBRANCH  67  69
ENDBRANCH  66  67
ENDBRANCH  65  66
ENDBRANCH  14  65
ENDBRANCH   6   7
ENDBRANCH   5   6
ENDBRANCH   2   5
TORSDOF 28
ENDMDL
MODEL 20
REMARK VINA RESULT:      -6.3     23.767     29.729
REMARK  28 active torsions:
REMARK  status: ('A' for Active; 'I' for Inactive)
REMARK    1  A    between atoms: C1_2  and  O2_3 
REMARK    2  A    between atoms: C1_2  and  C2_4 
REMARK    3  A    between atoms: C2_4  and  C3_5 
REMARK    4  A    between atoms: C3_5  and  C4_6 
REMARK    5  A    between atoms: C5_7  and  C6_8 
REMARK    6  A    between atoms: C6_8  and  C7_9 
REMARK    7  A    between atoms: C7_9  and  O4_11 
REMARK    8  A    between atoms: C20_28  and  C21_29 
REMARK    9  A    between atoms: C21_29  and  C22_30 
REMARK   10  A    between atoms: C22_30  and  O6_32 
REMARK   11  A    between atoms: C23_33  and  C24_34 
REMARK   12  A    between atoms: C24_34  and  C25_35 
REMARK   13  A    between atoms: C25_35  and  C26_36 
REMARK   14  A    between atoms: C26_36  and  O8_38 
REMARK   15  A    between atoms: C27_39  and  C28_40 
REMARK   16  A    between atoms: C28_40  and  C29_41 
REMARK   17  A    between atoms: C29_41  and  O10_43 
REMARK   18  A    between atoms: C30_44  and  C31_45 
REMARK   19  A    between atoms: C31_45  and  C32_46 
REMARK   20  A    between atoms: C32_46  and  C33_47 
REMARK   21  A    between atoms: C33_47  and  O12_49 
REMARK   22  A    between atoms: C34_50  and  C35_51 
REMARK   23  A    between atoms: C35_51  and  C36_52 
REMARK   24  A    between atoms: C36_52  and  O14_54 
REMARK   25  A    between atoms: C37_55  and  C38_56 
REMARK   26  A    between atoms: C38_56  and  C39_57 
REMARK   27  A    between atoms: C39_57  and  C40_58 
REMARK   28  A    between atoms: C40_58  and  O16_60 
ROOT
HETATM    1  O1  UNL     1     -17.979   9.055   1.815  1.00  0.00    -0.650 OA
HETATM    2  C1  UNL     1     -17.817   7.950   1.283  1.00  0.00     0.139 C 
ENDROOT
BRANCH   2   3
HETATM    3  O2  UNL     1     -18.882   7.047   1.339  1.00  0.00    -0.776 OA
HETATM    4  H1  UNL     1     -18.847   6.134   0.900  1.00  0.00     0.167 HD
ENDBRANCH   2   3
BRANCH   2   5
HETATM    5  C2  UNL     1     -16.568   7.556   0.602  1.00  0.00     0.115 C 
BRANCH   5   6
HETATM    6  C3  UNL     1     -15.465   8.542   0.725  1.00  0.00     0.052 C 
BRANCH   6   7
HETATM    7  C4  UNL     1     -14.238   7.900   1.269  1.00  0.00    -0.020 A 
HETATM    8  C5  UNL     1     -13.136   7.548   0.602  1.00  0.00    -0.011 A 
HETATM    9  C8  UNL     1     -12.190   6.958   1.520  1.00  0.00     0.067 A 
HETATM   10  C9  UNL     1     -10.902   6.401   1.370  1.00  0.00     0.062 C 
HETATM   11  N4  UNL     1     -12.751   6.970   2.725  1.00  0.00    -0.248 NA
HETATM   12  C10 UNL     1     -10.189   5.747   2.372  1.00  0.00     0.041 A 
HETATM   13  N1  UNL     1     -10.558   4.901   3.353  1.00  0.00    -0.355 N 
HETATM   14  C37 UNL     1      -8.804   6.009   2.476  1.00  0.00    -0.022 A 
HETATM   15  C11 UNL     1      -9.459   4.622   4.077  1.00  0.00     0.042 A 
HETATM   16  H10 UNL     1     -11.580   4.481   3.513  1.00  0.00     0.166 HD
HETATM   17  C12 UNL     1      -9.240   3.853   5.222  1.00  0.00     0.062 C 
HETATM   18  C34 UNL     1      -8.352   5.311   3.533  1.00  0.00    -0.013 A 
HETATM   19  C13 UNL     1     -10.085   3.817   6.346  1.00  0.00     0.066 A 
HETATM   20  N2  UNL     1     -11.189   4.578   6.346  1.00  0.00    -0.248 NA
HETATM   21  C30 UNL     1     -10.055   3.093   7.593  1.00  0.00    -0.020 A 
HETATM   22  C14 UNL     1     -11.863   4.393   7.496  1.00  0.00     0.067 A 
HETATM   23  C15 UNL     1     -13.059   5.093   7.700  1.00  0.00     0.062 C 
HETATM   24  C27 UNL     1     -11.135   3.431   8.316  1.00  0.00    -0.011 A 
HETATM   25  C16 UNL     1     -13.834   5.760   6.726  1.00  0.00     0.041 A 
HETATM   26  N3  UNL     1     -13.453   6.492   5.671  1.00  0.00    -0.355 N 
HETATM   27  C23 UNL     1     -15.245   5.649   6.774  1.00  0.00    -0.022 A 
HETATM   28  C17 UNL     1     -14.558   6.865   5.014  1.00  0.00     0.042 A 
HETATM   29  H13 UNL     1     -12.401   6.771   5.397  1.00  0.00     0.166 HD
HETATM   30  C18 UNL     1     -14.725   7.625   3.841  1.00  0.00     0.062 C 
HETATM   31  C20 UNL     1     -15.693   6.352   5.677  1.00  0.00    -0.013 A 
HETATM   32  C19 UNL     1     -13.987   7.523   2.655  1.00  0.00     0.066 A 
BRANCH   8  33
HETATM   33  C6  UNL     1     -12.945   7.755  -0.860  1.00  0.00     0.151 C 
BRANCH  33  34
HETATM   34  C7  UNL     1     -11.772   8.600  -1.180  1.00  0.00     0.143 C 
HETATM   35  O3  UNL     1     -11.604   9.670  -0.562  1.00  0.00    -0.650 OA
BRANCH  34  36
HETATM   36  O4  UNL     1     -10.902   8.169  -2.157  1.00  0.00    -0.776 OA
HETATM   37  H8  UNL     1     -10.941   8.613  -3.074  1.00  0.00     0.167 HD
ENDBRANCH  34  36
ENDBRANCH  33  34
ENDBRANCH   8  33
BRANCH  31  38
HETATM   38  C21 UNL     1     -17.146   6.502   5.269  1.00  0.00     0.151 C 
BRANCH  38  39
HETATM   39  C22 UNL     1     -17.501   5.296   4.485  1.00  0.00     0.143 C 
HETATM   40  O5  UNL     1     -18.666   4.849   4.548  1.00  0.00    -0.650 OA
BRANCH  39  41
HETATM   41  O6  UNL     1     -16.597   4.629   3.673  1.00  0.00    -0.776 OA
HETATM   42  H17 UNL     1     -16.027   3.853   4.032  1.00  0.00     0.167 HD
ENDBRANCH  39  41
ENDBRANCH  38  39
ENDBRANCH  31  38
BRANCH  27  43
HETATM   43  C24 UNL     1     -16.117   4.946   7.753  1.00  0.00     0.052 C 
BRANCH  43  44
HETATM   44  C25 UNL     1     -16.289   3.523   7.425  1.00  0.00     0.115 C 
BRANCH  44  45
HETATM   45  C26 UNL     1     -17.634   2.961   7.352  1.00  0.00     0.139 C 
HETATM   46  O7  UNL     1     -18.705   3.384   7.774  1.00  0.00    -0.650 OA
BRANCH  45  47
HETATM   47  O8  UNL     1     -17.709   1.709   6.680  1.00  0.00    -0.776 OA
HETATM   48  H22 UNL     1     -17.586   1.616   5.702  1.00  0.00     0.167 HD
ENDBRANCH  45  47
ENDBRANCH  44  45
ENDBRANCH  43  44
ENDBRANCH  27  43
BRANCH  24  49
HETATM   49  C28 UNL     1     -11.530   2.931   9.671  1.00  0.00     0.151 C 
BRANCH  49  50
HETATM   50  C29 UNL     1     -11.160   3.908  10.724  1.00  0.00     0.143 C 
HETATM   51  O9  UNL     1      -9.953   4.024  11.038  1.00  0.00    -0.650 OA
BRANCH  50  52
HETATM   52  O10 UNL     1     -12.084   4.701  11.381  1.00  0.00    -0.776 OA
HETATM   53  H25 UNL     1     -12.969   4.317  11.738  1.00  0.00     0.167 HD
ENDBRANCH  50  52
ENDBRANCH  49  50
ENDBRANCH  24  49
BRANCH  21  54
HETATM   54  C31 UNL     1      -9.025   2.110   8.032  1.00  0.00     0.052 C 
BRANCH  54  55
HETATM   55  C32 UNL     1      -7.750   2.715   8.500  1.00  0.00     0.115 C 
BRANCH  55  56
HETATM   56  C33 UNL     1      -7.377   1.984   9.766  1.00  0.00     0.139 C 
HETATM   57  O11 UNL     1      -6.560   2.479  10.581  1.00  0.00    -0.650 OA
BRANCH  56  58
HETATM   58  O12 UNL     1      -7.917   0.744  10.080  1.00  0.00    -0.776 OA
HETATM   59  H30 UNL     1      -7.745   0.003   9.395  1.00  0.00     0.167 HD
ENDBRANCH  56  58
ENDBRANCH  55  56
ENDBRANCH  54  55
ENDBRANCH  21  54
BRANCH  18  60
HETATM   60  C35 UNL     1      -6.915   5.312   3.962  1.00  0.00     0.151 C 
BRANCH  60  61
HETATM   61  C36 UNL     1      -6.788   6.251   5.079  1.00  0.00     0.143 C 
HETATM   62  O13 UNL     1      -6.522   5.817   6.235  1.00  0.00    -0.650 OA
BRANCH  61  63
HETATM   63  O14 UNL     1      -6.947   7.623   4.930  1.00  0.00    -0.776 OA
HETATM   64  H33 UNL     1      -6.169   8.223   5.147  1.00  0.00     0.167 HD
ENDBRANCH  61  63
ENDBRANCH  60  61
ENDBRANCH  18  60
BRANCH  14  65
HETATM   65  C38 UNL     1      -7.922   6.862   1.610  1.00  0.00     0.052 C 
BRANCH  65  66
HETATM   66  C39 UNL     1      -7.071   5.982   0.743  1.00  0.00     0.115 C 
BRANCH  66  67
HETATM   67  C40 UNL     1      -7.864   5.628  -0.493  1.00  0.00     0.139 C 
HETATM   68  O15 UNL     1      -7.996   4.425  -0.841  1.00  0.00    -0.650 OA
BRANCH  67  69
HETATM   69  O16 UNL     1      -8.447   6.606  -1.249  1.00  0.00    -0.776 OA
HETATM   70  H38 UNL     1      -9.178   7.193  -0.883  1.00  0.00     0.167 HD
ENDBRANCH  67  69
ENDBRANCH  66  67
ENDBRANCH  65  66
ENDBRANCH  14  65
ENDBRANCH   6   7
ENDBRANCH   5   6
ENDBRANCH   2   5
TORSDOF 28
ENDMDL
