MODEL 1
REMARK VINA RESULT:     -10.5      0.000      0.000
REMARK  16 active torsions:
REMARK  status: ('A' for Active; 'I' for Inactive)
REMARK    1  A    between atoms: C_6  and  C_7 
REMARK    2  A    between atoms: C_7  and  C_8 
REMARK    3  A    between atoms: C_8  and  C_9 
REMARK    4  A    between atoms: C_9  and  O_11 
REMARK    5  A    between atoms: C_16  and  C_17 
REMARK    6  A    between atoms: C_17  and  C_18 
REMARK    7  A    between atoms: C_18  and  C_19 
REMARK    8  A    between atoms: C_19  and  O_21 
REMARK    9  A    between atoms: C_28  and  C_29 
REMARK   10  A    between atoms: C_29  and  C_30 
REMARK   11  A    between atoms: C_30  and  C_31 
REMARK   12  A    between atoms: C_31  and  O_33 
REMARK   13  A    between atoms: C_42  and  C_43 
REMARK   14  A    between atoms: C_43  and  C_44 
REMARK   15  A    between atoms: C_44  and  C_45 
REMARK   16  A    between atoms: C_45  and  O_47 
ROOT
HETATM    1  C   UNK     0       3.809  12.887  42.942  0.00  0.00     0.051 C 
HETATM    2  C   UNK     0       3.702  11.772  41.921  0.00  0.00    -0.031 A 
HETATM    3  C   UNK     0       4.482  10.636  41.774  0.00  0.00     0.021 A 
HETATM    4  N   UNK     0       4.041   9.934  40.704  0.00  0.00    -0.361 N 
HETATM    5  C   UNK     0       2.991  10.593  40.171  0.00  0.00     0.022 A 
HETATM    6  C   UNK     0       2.754  11.749  40.907  0.00  0.00    -0.027 A 
HETATM    7  C   UNK     0       2.092  10.197  39.041  0.00  0.00     0.115 C 
HETATM    8  C   UNK     0       1.644   8.747  39.003  0.00  0.00     0.021 A 
HETATM    9  N   UNK     0       1.357   7.933  40.031  0.00  0.00    -0.361 N 
HETATM   10  C   UNK     0       1.093   6.706  39.534  0.00  0.00     0.022 A 
HETATM   11  C   UNK     0       1.204   6.733  38.146  0.00  0.00    -0.027 A 
HETATM   12  C   UNK     0       1.550   8.015  37.806  0.00  0.00    -0.031 A 
HETATM   13  C   UNK     0       1.776   8.515  36.396  0.00  0.00     0.051 C 
HETATM   14  C   UNK     0       0.779   5.453  40.345  0.00  0.00     0.115 C 
HETATM   15  C   UNK     0       1.895   5.034  41.289  0.00  0.00     0.021 A 
HETATM   16  N   UNK     0       2.443   5.756  42.284  0.00  0.00    -0.361 N 
HETATM   17  C   UNK     0       3.443   5.061  42.831  0.00  0.00     0.022 A 
HETATM   18  C   UNK     0       3.545   3.822  42.166  0.00  0.00    -0.027 A 
HETATM   19  C   UNK     0       2.569   3.818  41.204  0.00  0.00    -0.031 A 
HETATM   20  C   UNK     0       2.305   2.646  40.276  0.00  0.00     0.051 C 
HETATM   21  C   UNK     0       4.413   5.449  43.924  0.00  0.00     0.115 C 
HETATM   22  C   UNK     0       4.833   6.898  44.001  0.00  0.00     0.022 A 
HETATM   23  N   UNK     0       5.122   7.733  42.994  0.00  0.00    -0.361 N 
HETATM   24  C   UNK     0       5.305   8.967  43.506  0.00  0.00     0.021 A 
HETATM   25  C   UNK     0       5.141   8.923  44.878  0.00  0.00    -0.031 A 
HETATM   26  C   UNK     0       5.285  10.039  45.891  0.00  0.00     0.051 C 
HETATM   27  C   UNK     0       4.839   7.609  45.218  0.00  0.00    -0.027 A 
HETATM   28  C   UNK     0       5.560  10.259  42.750  0.00  0.00     0.115 C 
HETATM   29  H   UNK     0       4.499   8.998  40.308  0.00  0.00     0.165 HD
HETATM   30  H   UNK     0       1.290   8.234  41.106  0.00  0.00     0.165 HD
HETATM   31  H   UNK     0       2.087   6.758  42.640  0.00  0.00     0.165 HD
HETATM   32  H   UNK     0       5.241   7.451  41.916  0.00  0.00     0.165 HD
ENDROOT
BRANCH   6  33
HETATM   33  C   UNK     0       1.710  12.821  40.720  0.00  0.00     0.051 C 
BRANCH  33  34
HETATM   34  C   UNK     0       0.323  12.258  40.925  0.00  0.00     0.114 C 
BRANCH  34  35
HETATM   35  C   UNK     0       0.196  11.896  42.366  0.00  0.00     0.139 C 
HETATM   36  O   UNK     0      -0.088  10.710  42.702  0.00  0.00    -0.650 OA
BRANCH  35  37
HETATM   37  O   UNK     0       0.382  12.817  43.389  0.00  0.00    -0.776 OA
HETATM   38  H   UNK     0       0.016  13.755  43.338  0.00  0.00     0.167 HD
ENDBRANCH  35  37
ENDBRANCH  34  35
ENDBRANCH  33  34
ENDBRANCH   6  33
BRANCH  27  39
HETATM   39  C   UNK     0       4.662   7.156  46.624  0.00  0.00     0.051 C 
BRANCH  39  40
HETATM   40  C   UNK     0       5.857   6.938  47.438  0.00  0.00     0.114 C 
BRANCH  40  41
HETATM   41  C   UNK     0       5.875   6.012  48.548  0.00  0.00     0.139 C 
HETATM   42  O   UNK     0       4.851   5.600  49.112  0.00  0.00    -0.650 OA
BRANCH  41  43
HETATM   43  O   UNK     0       7.127   5.538  49.033  0.00  0.00    -0.776 OA
HETATM   44  H   UNK     0       7.805   6.265  49.224  0.00  0.00     0.167 HD
ENDBRANCH  41  43
ENDBRANCH  40  41
ENDBRANCH  39  40
ENDBRANCH  27  39
BRANCH  11  45
HETATM   45  C   UNK     0       0.994   5.613  37.163  0.00  0.00     0.051 C 
BRANCH  45  46
HETATM   46  C   UNK     0       0.765   4.288  37.794  0.00  0.00     0.114 C 
BRANCH  46  47
HETATM   47  C   UNK     0       1.161   3.250  36.799  0.00  0.00     0.139 C 
HETATM   48  O   UNK     0       1.068   2.057  37.118  0.00  0.00    -0.650 OA
BRANCH  47  49
HETATM   49  O   UNK     0       1.620   3.608  35.556  0.00  0.00    -0.776 OA
HETATM   50  H   UNK     0       1.045   3.503  34.712  0.00  0.00     0.167 HD
ENDBRANCH  47  49
ENDBRANCH  46  47
ENDBRANCH  45  46
ENDBRANCH  11  45
BRANCH  18  51
HETATM   51  C   UNK     0       4.506   2.697  42.448  0.00  0.00     0.051 C 
BRANCH  51  52
HETATM   52  C   UNK     0       3.765   1.719  43.349  0.00  0.00     0.114 C 
BRANCH  52  53
HETATM   53  C   UNK     0       4.241   1.789  44.744  0.00  0.00     0.139 C 
HETATM   54  O   UNK     0       5.207   2.512  45.036  0.00  0.00    -0.650 OA
BRANCH  53  55
HETATM   55  O   UNK     0       3.611   1.048  45.714  0.00  0.00    -0.776 OA
HETATM   56  H   UNK     0       2.722   0.615  45.633  0.00  0.00     0.167 HD
ENDBRANCH  53  55
ENDBRANCH  52  53
ENDBRANCH  51  52
ENDBRANCH  18  51
TORSDOF 16
ENDMDL
MODEL 2
REMARK VINA RESULT:      -9.6      2.928      7.519
REMARK  16 active torsions:
REMARK  status: ('A' for Active; 'I' for Inactive)
REMARK    1  A    between atoms: C_6  and  C_7 
REMARK    2  A    between atoms: C_7  and  C_8 
REMARK    3  A    between atoms: C_8  and  C_9 
REMARK    4  A    between atoms: C_9  and  O_11 
REMARK    5  A    between atoms: C_16  and  C_17 
REMARK    6  A    between atoms: C_17  and  C_18 
REMARK    7  A    between atoms: C_18  and  C_19 
REMARK    8  A    between atoms: C_19  and  O_21 
REMARK    9  A    between atoms: C_28  and  C_29 
REMARK   10  A    between atoms: C_29  and  C_30 
REMARK   11  A    between atoms: C_30  and  C_31 
REMARK   12  A    between atoms: C_31  and  O_33 
REMARK   13  A    between atoms: C_42  and  C_43 
REMARK   14  A    between atoms: C_43  and  C_44 
REMARK   15  A    between atoms: C_44  and  C_45 
REMARK   16  A    between atoms: C_45  and  O_47 
ROOT
HETATM    1  C   UNK     0       4.706  12.486  46.160  0.00  0.00     0.051 C 
HETATM    2  C   UNK     0       4.391  11.008  46.266  0.00  0.00    -0.031 A 
HETATM    3  C   UNK     0       3.206  10.340  46.002  0.00  0.00     0.021 A 
HETATM    4  N   UNK     0       3.374   9.022  46.266  0.00  0.00    -0.361 N 
HETATM    5  C   UNK     0       4.643   8.835  46.684  0.00  0.00     0.022 A 
HETATM    6  C   UNK     0       5.306  10.057  46.698  0.00  0.00    -0.027 A 
HETATM    7  C   UNK     0       5.359   7.561  47.009  0.00  0.00     0.115 C 
HETATM    8  C   UNK     0       5.128   6.390  46.071  0.00  0.00     0.021 A 
HETATM    9  N   UNK     0       4.952   6.407  44.741  0.00  0.00    -0.361 N 
HETATM   10  C   UNK     0       4.689   5.146  44.337  0.00  0.00     0.022 A 
HETATM   11  C   UNK     0       4.705   4.292  45.436  0.00  0.00    -0.027 A 
HETATM   12  C   UNK     0       4.982   5.070  46.532  0.00  0.00    -0.031 A 
HETATM   13  C   UNK     0       5.104   4.566  47.953  0.00  0.00     0.051 C 
HETATM   14  C   UNK     0       4.360   4.705  42.914  0.00  0.00     0.115 C 
HETATM   15  C   UNK     0       3.106   5.348  42.344  0.00  0.00     0.021 A 
HETATM   16  N   UNK     0       2.857   6.661  42.184  0.00  0.00    -0.361 N 
HETATM   17  C   UNK     0       1.616   6.818  41.718  0.00  0.00     0.022 A 
HETATM   18  C   UNK     0       1.032   5.546  41.558  0.00  0.00    -0.027 A 
HETATM   19  C   UNK     0       1.976   4.634  41.952  0.00  0.00    -0.031 A 
HETATM   20  C   UNK     0       1.769   3.131  41.904  0.00  0.00     0.051 C 
HETATM   21  C   UNK     0       0.835   8.083  41.440  0.00  0.00     0.115 C 
HETATM   22  C   UNK     0       1.087   9.270  42.339  0.00  0.00     0.022 A 
HETATM   23  N   UNK     0       1.270   9.283  43.666  0.00  0.00    -0.361 N 
HETATM   24  C   UNK     0       1.608  10.535  44.034  0.00  0.00     0.021 A 
HETATM   25  C   UNK     0       1.632  11.351  42.920  0.00  0.00    -0.031 A 
HETATM   26  C   UNK     0       1.916  12.836  42.831  0.00  0.00     0.051 C 
HETATM   27  C   UNK     0       1.302  10.564  41.822  0.00  0.00    -0.027 A 
HETATM   28  C   UNK     0       2.001  11.022  45.418  0.00  0.00     0.115 C 
HETATM   29  H   UNK     0       2.583   8.240  46.193  0.00  0.00     0.165 HD
HETATM   30  H   UNK     0       5.063   7.299  44.077  0.00  0.00     0.165 HD
HETATM   31  H   UNK     0       3.588   7.494  42.358  0.00  0.00     0.165 HD
HETATM   32  H   UNK     0       1.120   8.417  44.361  0.00  0.00     0.165 HD
ENDROOT
BRANCH   6  33
HETATM   33  C   UNK     0       6.725  10.385  47.089  0.00  0.00     0.051 C 
BRANCH  33  34
HETATM   34  C   UNK     0       7.706   9.708  46.162  0.00  0.00     0.114 C 
BRANCH  34  35
HETATM   35  C   UNK     0       8.810   9.161  47.002  0.00  0.00     0.139 C 
HETATM   36  O   UNK     0       8.662   8.062  47.613  0.00  0.00    -0.650 OA
BRANCH  35  37
HETATM   37  O   UNK     0      10.029   9.811  47.154  0.00  0.00    -0.776 OA
HETATM   38  H   UNK     0      10.907   9.339  47.013  0.00  0.00     0.167 HD
ENDBRANCH  35  37
ENDBRANCH  34  35
ENDBRANCH  33  34
ENDBRANCH   6  33
BRANCH  27  39
HETATM   39  C   UNK     0       1.157  11.112  40.446  0.00  0.00     0.051 C 
BRANCH  39  40
HETATM   40  C   UNK     0       2.297  11.014  39.536  0.00  0.00     0.114 C 
BRANCH  40  41
HETATM   41  C   UNK     0       3.657  10.895  40.013  0.00  0.00     0.139 C 
HETATM   42  O   UNK     0       4.443  11.849  40.083  0.00  0.00    -0.650 OA
BRANCH  41  43
HETATM   43  O   UNK     0       4.133   9.619  40.430  0.00  0.00    -0.776 OA
HETATM   44  H   UNK     0       4.352   9.556  41.417  0.00  0.00     0.167 HD
ENDBRANCH  41  43
ENDBRANCH  40  41
ENDBRANCH  39  40
ENDBRANCH  27  39
BRANCH  11  45
HETATM   45  C   UNK     0       4.476   2.805  45.478  0.00  0.00     0.051 C 
BRANCH  45  46
HETATM   46  C   UNK     0       5.376   2.079  46.409  0.00  0.00     0.114 C 
BRANCH  46  47
HETATM   47  C   UNK     0       4.856   0.686  46.530  0.00  0.00     0.139 C 
HETATM   48  O   UNK     0       5.656  -0.224  46.786  0.00  0.00    -0.650 OA
BRANCH  47  49
HETATM   49  O   UNK     0       3.521   0.418  46.361  0.00  0.00    -0.776 OA
HETATM   50  H   UNK     0       2.878   1.096  45.936  0.00  0.00     0.167 HD
ENDBRANCH  47  49
ENDBRANCH  46  47
ENDBRANCH  45  46
ENDBRANCH  11  45
BRANCH  18  51
HETATM   51  C   UNK     0      -0.343   5.217  41.037  0.00  0.00     0.051 C 
BRANCH  51  52
HETATM   52  C   UNK     0      -1.326   5.694  42.096  0.00  0.00     0.114 C 
BRANCH  52  53
HETATM   53  C   UNK     0      -1.861   4.574  42.894  0.00  0.00     0.139 C 
HETATM   54  O   UNK     0      -1.582   3.404  42.587  0.00  0.00    -0.650 OA
BRANCH  53  55
HETATM   55  O   UNK     0      -2.670   4.833  43.973  0.00  0.00    -0.776 OA
HETATM   56  H   UNK     0      -2.366   5.096  44.881  0.00  0.00     0.167 HD
ENDBRANCH  53  55
ENDBRANCH  52  53
ENDBRANCH  51  52
ENDBRANCH  18  51
TORSDOF 16
ENDMDL
MODEL 3
REMARK VINA RESULT:      -9.4     29.121     32.988
REMARK  16 active torsions:
REMARK  status: ('A' for Active; 'I' for Inactive)
REMARK    1  A    between atoms: C_6  and  C_7 
REMARK    2  A    between atoms: C_7  and  C_8 
REMARK    3  A    between atoms: C_8  and  C_9 
REMARK    4  A    between atoms: C_9  and  O_11 
REMARK    5  A    between atoms: C_16  and  C_17 
REMARK    6  A    between atoms: C_17  and  C_18 
REMARK    7  A    between atoms: C_18  and  C_19 
REMARK    8  A    between atoms: C_19  and  O_21 
REMARK    9  A    between atoms: C_28  and  C_29 
REMARK   10  A    between atoms: C_29  and  C_30 
REMARK   11  A    between atoms: C_30  and  C_31 
REMARK   12  A    between atoms: C_31  and  O_33 
REMARK   13  A    between atoms: C_42  and  C_43 
REMARK   14  A    between atoms: C_43  and  C_44 
REMARK   15  A    between atoms: C_44  and  C_45 
REMARK   16  A    between atoms: C_45  and  O_47 
ROOT
HETATM    1  C   UNK     0      33.240  -9.825  40.778  0.00  0.00     0.051 C 
HETATM    2  C   UNK     0      33.785  -8.512  41.303  0.00  0.00    -0.031 A 
HETATM    3  C   UNK     0      34.238  -7.405  40.602  0.00  0.00     0.021 A 
HETATM    4  N   UNK     0      34.664  -6.469  41.483  0.00  0.00    -0.361 N 
HETATM    5  C   UNK     0      34.483  -6.952  42.730  0.00  0.00     0.022 A 
HETATM    6  C   UNK     0      33.937  -8.229  42.654  0.00  0.00    -0.027 A 
HETATM    7  C   UNK     0      34.702  -6.282  44.051  0.00  0.00     0.115 C 
HETATM    8  C   UNK     0      34.240  -4.840  44.169  0.00  0.00     0.021 A 
HETATM    9  N   UNK     0      33.168  -4.257  43.611  0.00  0.00    -0.361 N 
HETATM   10  C   UNK     0      33.202  -2.942  43.912  0.00  0.00     0.022 A 
HETATM   11  C   UNK     0      34.322  -2.671  44.692  0.00  0.00    -0.027 A 
HETATM   12  C   UNK     0      34.981  -3.863  44.858  0.00  0.00    -0.031 A 
HETATM   13  C   UNK     0      36.258  -4.054  45.645  0.00  0.00     0.051 C 
HETATM   14  C   UNK     0      32.214  -1.882  43.433  0.00  0.00     0.115 C 
HETATM   15  C   UNK     0      32.162  -1.726  41.922  0.00  0.00     0.021 A 
HETATM   16  N   UNK     0      31.864  -2.669  41.009  0.00  0.00    -0.361 N 
HETATM   17  C   UNK     0      31.997  -2.152  39.785  0.00  0.00     0.022 A 
HETATM   18  C   UNK     0      32.391  -0.805  39.907  0.00  0.00    -0.027 A 
HETATM   19  C   UNK     0      32.489  -0.550  41.250  0.00  0.00    -0.031 A 
HETATM   20  C   UNK     0      32.855   0.805  41.827  0.00  0.00     0.051 C 
HETATM   21  C   UNK     0      31.851  -2.810  38.432  0.00  0.00     0.115 C 
HETATM   22  C   UNK     0      32.265  -4.257  38.311  0.00  0.00     0.022 A 
HETATM   23  N   UNK     0      33.325  -4.866  38.858  0.00  0.00    -0.361 N 
HETATM   24  C   UNK     0      33.228  -6.188  38.611  0.00  0.00     0.021 A 
HETATM   25  C   UNK     0      32.084  -6.435  37.879  0.00  0.00    -0.031 A 
HETATM   26  C   UNK     0      31.568  -7.750  37.331  0.00  0.00     0.051 C 
HETATM   27  C   UNK     0      31.450  -5.215  37.673  0.00  0.00    -0.027 A 
HETATM   28  C   UNK     0      34.143  -7.295  39.107  0.00  0.00     0.115 C 
HETATM   29  H   UNK     0      35.126  -5.490  41.218  0.00  0.00     0.165 HD
HETATM   30  H   UNK     0      32.357  -4.780  43.047  0.00  0.00     0.165 HD
HETATM   31  H   UNK     0      31.507  -3.708  41.232  0.00  0.00     0.165 HD
HETATM   32  H   UNK     0      34.175  -4.362  39.387  0.00  0.00     0.165 HD
ENDROOT
BRANCH   6  33
HETATM   33  C   UNK     0      33.557  -9.188  43.752  0.00  0.00     0.051 C 
BRANCH  33  34
HETATM   34  C   UNK     0      32.109  -9.007  44.144  0.00  0.00     0.114 C 
BRANCH  34  35
HETATM   35  C   UNK     0      32.085  -8.536  45.558  0.00  0.00     0.139 C 
HETATM   36  O   UNK     0      32.298  -9.348  46.505  0.00  0.00    -0.650 OA
BRANCH  35  37
HETATM   37  O   UNK     0      31.837  -7.212  45.903  0.00  0.00    -0.776 OA
HETATM   38  H   UNK     0      31.066  -6.950  46.495  0.00  0.00     0.167 HD
ENDBRANCH  35  37
ENDBRANCH  34  35
ENDBRANCH  33  34
ENDBRANCH   6  33
BRANCH  27  39
HETATM   39  C   UNK     0      30.213  -5.071  36.858  0.00  0.00     0.051 C 
BRANCH  39  40
HETATM   40  C   UNK     0      28.943  -4.871  37.555  0.00  0.00     0.114 C 
BRANCH  40  41
HETATM   41  C   UNK     0      27.673  -5.221  36.958  0.00  0.00     0.139 C 
HETATM   42  O   UNK     0      27.074  -4.496  36.152  0.00  0.00    -0.650 OA
BRANCH  41  43
HETATM   43  O   UNK     0      27.066  -6.461  37.303  0.00  0.00    -0.776 OA
HETATM   44  H   UNK     0      26.323  -6.388  37.987  0.00  0.00     0.167 HD
ENDBRANCH  41  43
ENDBRANCH  40  41
ENDBRANCH  39  40
ENDBRANCH  27  39
BRANCH  11  45
HETATM   45  C   UNK     0      34.773  -1.357  45.270  0.00  0.00     0.051 C 
BRANCH  45  46
HETATM   46  C   UNK     0      33.783  -0.724  46.180  0.00  0.00     0.114 C 
BRANCH  46  47
HETATM   47  C   UNK     0      34.004   0.749  46.116  0.00  0.00     0.139 C 
HETATM   48  O   UNK     0      34.326   1.254  45.031  0.00  0.00    -0.650 OA
BRANCH  47  49
HETATM   49  O   UNK     0      33.857   1.531  47.234  0.00  0.00    -0.776 OA
HETATM   50  H   UNK     0      34.355   1.330  48.109  0.00  0.00     0.167 HD
ENDBRANCH  47  49
ENDBRANCH  46  47
ENDBRANCH  45  46
ENDBRANCH  11  45
BRANCH  18  51
HETATM   51  C   UNK     0      32.639   0.191  38.804  0.00  0.00     0.051 C 
BRANCH  51  52
HETATM   52  C   UNK     0      31.376   1.033  38.698  0.00  0.00     0.114 C 
BRANCH  52  53
HETATM   53  C   UNK     0      31.633   2.452  39.010  0.00  0.00     0.139 C 
HETATM   54  O   UNK     0      32.797   2.886  39.016  0.00  0.00    -0.650 OA
BRANCH  53  55
HETATM   55  O   UNK     0      30.581   3.287  39.297  0.00  0.00    -0.776 OA
HETATM   56  H   UNK     0      29.641   3.165  39.000  0.00  0.00     0.167 HD
ENDBRANCH  53  55
ENDBRANCH  52  53
ENDBRANCH  51  52
ENDBRANCH  18  51
TORSDOF 16
ENDMDL
MODEL 4
REMARK VINA RESULT:      -9.3     30.085     33.445
REMARK  16 active torsions:
REMARK  status: ('A' for Active; 'I' for Inactive)
REMARK    1  A    between atoms: C_6  and  C_7 
REMARK    2  A    between atoms: C_7  and  C_8 
REMARK    3  A    between atoms: C_8  and  C_9 
REMARK    4  A    between atoms: C_9  and  O_11 
REMARK    5  A    between atoms: C_16  and  C_17 
REMARK    6  A    between atoms: C_17  and  C_18 
REMARK    7  A    between atoms: C_18  and  C_19 
REMARK    8  A    between atoms: C_19  and  O_21 
REMARK    9  A    between atoms: C_28  and  C_29 
REMARK   10  A    between atoms: C_29  and  C_30 
REMARK   11  A    between atoms: C_30  and  C_31 
REMARK   12  A    between atoms: C_31  and  O_33 
REMARK   13  A    between atoms: C_42  and  C_43 
REMARK   14  A    between atoms: C_43  and  C_44 
REMARK   15  A    between atoms: C_44  and  C_45 
REMARK   16  A    between atoms: C_45  and  O_47 
ROOT
HETATM    1  C   UNK     0      34.911   2.214  47.040  0.00  0.00     0.051 C 
HETATM    2  C   UNK     0      34.836   0.713  46.850  0.00  0.00    -0.031 A 
HETATM    3  C   UNK     0      33.822  -0.055  46.301  0.00  0.00     0.021 A 
HETATM    4  N   UNK     0      34.173  -1.361  46.364  0.00  0.00    -0.361 N 
HETATM    5  C   UNK     0      35.394  -1.442  46.934  0.00  0.00     0.022 A 
HETATM    6  C   UNK     0      35.837  -0.163  47.253  0.00  0.00    -0.027 A 
HETATM    7  C   UNK     0      36.267  -2.639  47.149  0.00  0.00     0.115 C 
HETATM    8  C   UNK     0      36.354  -3.633  46.005  0.00  0.00     0.021 A 
HETATM    9  N   UNK     0      36.345  -3.392  44.684  0.00  0.00    -0.361 N 
HETATM   10  C   UNK     0      36.349  -4.579  44.041  0.00  0.00     0.022 A 
HETATM   11  C   UNK     0      36.370  -5.613  44.973  0.00  0.00    -0.027 A 
HETATM   12  C   UNK     0      36.374  -5.024  46.212  0.00  0.00    -0.031 A 
HETATM   13  C   UNK     0      36.400  -5.763  47.531  0.00  0.00     0.051 C 
HETATM   14  C   UNK     0      36.279  -4.786  42.531  0.00  0.00     0.115 C 
HETATM   15  C   UNK     0      35.016  -4.232  41.891  0.00  0.00     0.021 A 
HETATM   16  N   UNK     0      34.573  -2.961  41.916  0.00  0.00    -0.361 N 
HETATM   17  C   UNK     0      33.391  -2.897  41.298  0.00  0.00     0.022 A 
HETATM   18  C   UNK     0      33.053  -4.186  40.841  0.00  0.00    -0.027 A 
HETATM   19  C   UNK     0      34.079  -5.013  41.218  0.00  0.00    -0.031 A 
HETATM   20  C   UNK     0      34.134  -6.494  40.890  0.00  0.00     0.051 C 
HETATM   21  C   UNK     0      32.450  -1.727  41.118  0.00  0.00     0.115 C 
HETATM   22  C   UNK     0      32.386  -0.706  42.230  0.00  0.00     0.022 A 
HETATM   23  N   UNK     0      32.397  -0.918  43.552  0.00  0.00    -0.361 N 
HETATM   24  C   UNK     0      32.472   0.278  44.172  0.00  0.00     0.021 A 
HETATM   25  C   UNK     0      32.499   1.284  43.225  0.00  0.00    -0.031 A 
HETATM   26  C   UNK     0      32.539   2.784  43.429  0.00  0.00     0.051 C 
HETATM   27  C   UNK     0      32.445   0.679  41.975  0.00  0.00    -0.027 A 
HETATM   28  C   UNK     0      32.603   0.547  45.661  0.00  0.00     0.115 C 
HETATM   29  H   UNK     0      33.540  -2.220  46.042  0.00  0.00     0.165 HD
HETATM   30  H   UNK     0      36.387  -2.384  44.203  0.00  0.00     0.165 HD
HETATM   31  H   UNK     0      35.127  -2.081  42.336  0.00  0.00     0.165 HD
HETATM   32  H   UNK     0      32.309  -1.912  44.063  0.00  0.00     0.165 HD
ENDROOT
BRANCH   6  33
HETATM   33  C   UNK     0      37.120   0.285  47.905  0.00  0.00     0.051 C 
BRANCH  33  34
HETATM   34  C   UNK     0      36.850   0.876  49.268  0.00  0.00     0.114 C 
BRANCH  34  35
HETATM   35  C   UNK     0      37.642   2.135  49.374  0.00  0.00     0.139 C 
HETATM   36  O   UNK     0      37.055   3.252  49.472  0.00  0.00    -0.650 OA
BRANCH  35  37
HETATM   37  O   UNK     0      39.032   2.148  49.373  0.00  0.00    -0.776 OA
HETATM   38  H   UNK     0      39.564   2.393  48.553  0.00  0.00     0.167 HD
ENDBRANCH  35  37
ENDBRANCH  34  35
ENDBRANCH  33  34
ENDBRANCH   6  33
BRANCH  27  39
HETATM   39  C   UNK     0      32.383   1.450  40.703  0.00  0.00     0.051 C 
BRANCH  39  40
HETATM   40  C   UNK     0      32.789   0.783  39.467  0.00  0.00     0.114 C 
BRANCH  40  41
HETATM   41  C   UNK     0      31.933   0.727  38.303  0.00  0.00     0.139 C 
HETATM   42  O   UNK     0      30.853   1.328  38.221  0.00  0.00    -0.650 OA
BRANCH  41  43
HETATM   43  O   UNK     0      32.336  -0.055  37.184  0.00  0.00    -0.776 OA
HETATM   44  H   UNK     0      32.017  -1.016  37.208  0.00  0.00     0.167 HD
ENDBRANCH  41  43
ENDBRANCH  40  41
ENDBRANCH  39  40
ENDBRANCH  27  39
BRANCH  11  45
HETATM   45  C   UNK     0      36.390  -7.098  44.731  0.00  0.00     0.051 C 
BRANCH  45  46
HETATM   46  C   UNK     0      35.068  -7.671  44.371  0.00  0.00     0.114 C 
BRANCH  46  47
HETATM   47  C   UNK     0      34.737  -8.699  45.399  0.00  0.00     0.139 C 
HETATM   48  O   UNK     0      34.904  -9.894  45.117  0.00  0.00    -0.650 OA
BRANCH  47  49
HETATM   49  O   UNK     0      34.257  -8.332  46.631  0.00  0.00    -0.776 OA
HETATM   50  H   UNK     0      34.843  -8.355  47.474  0.00  0.00     0.167 HD
ENDBRANCH  47  49
ENDBRANCH  46  47
ENDBRANCH  45  46
ENDBRANCH  11  45
BRANCH  18  51
HETATM   51  C   UNK     0      31.828  -4.604  40.069  0.00  0.00     0.051 C 
BRANCH  51  52
HETATM   52  C   UNK     0      32.130  -4.320  38.605  0.00  0.00     0.114 C 
BRANCH  52  53
HETATM   53  C   UNK     0      31.061  -3.527  37.967  0.00  0.00     0.139 C 
HETATM   54  O   UNK     0      31.326  -2.782  37.011  0.00  0.00    -0.650 OA
BRANCH  53  55
HETATM   55  O   UNK     0      29.774  -3.617  38.441  0.00  0.00    -0.776 OA
HETATM   56  H   UNK     0      29.320  -2.955  39.025  0.00  0.00     0.167 HD
ENDBRANCH  53  55
ENDBRANCH  52  53
ENDBRANCH  51  52
ENDBRANCH  18  51
TORSDOF 16
ENDMDL
MODEL 5
REMARK VINA RESULT:      -8.8      2.440      7.305
REMARK  16 active torsions:
REMARK  status: ('A' for Active; 'I' for Inactive)
REMARK    1  A    between atoms: C_6  and  C_7 
REMARK    2  A    between atoms: C_7  and  C_8 
REMARK    3  A    between atoms: C_8  and  C_9 
REMARK    4  A    between atoms: C_9  and  O_11 
REMARK    5  A    between atoms: C_16  and  C_17 
REMARK    6  A    between atoms: C_17  and  C_18 
REMARK    7  A    between atoms: C_18  and  C_19 
REMARK    8  A    between atoms: C_19  and  O_21 
REMARK    9  A    between atoms: C_28  and  C_29 
REMARK   10  A    between atoms: C_29  and  C_30 
REMARK   11  A    between atoms: C_30  and  C_31 
REMARK   12  A    between atoms: C_31  and  O_33 
REMARK   13  A    between atoms: C_42  and  C_43 
REMARK   14  A    between atoms: C_43  and  C_44 
REMARK   15  A    between atoms: C_44  and  C_45 
REMARK   16  A    between atoms: C_45  and  O_47 
ROOT
HETATM    1  C   UNK     0       2.805  12.818  43.186  0.00  0.00     0.051 C 
HETATM    2  C   UNK     0       2.848  11.466  43.869  0.00  0.00    -0.031 A 
HETATM    3  C   UNK     0       1.900  10.455  43.878  0.00  0.00     0.021 A 
HETATM    4  N   UNK     0       2.350   9.434  44.646  0.00  0.00    -0.361 N 
HETATM    5  C   UNK     0       3.569   9.769  45.119  0.00  0.00     0.022 A 
HETATM    6  C   UNK     0       3.909  11.035  44.654  0.00  0.00    -0.027 A 
HETATM    7  C   UNK     0       4.530   8.960  45.933  0.00  0.00     0.115 C 
HETATM    8  C   UNK     0       4.702   7.505  45.535  0.00  0.00     0.021 A 
HETATM    9  N   UNK     0       4.685   6.966  44.306  0.00  0.00    -0.361 N 
HETATM   10  C   UNK     0       4.785   5.626  44.435  0.00  0.00     0.022 A 
HETATM   11  C   UNK     0       4.879   5.293  45.783  0.00  0.00    -0.027 A 
HETATM   12  C   UNK     0       4.828   6.472  46.482  0.00  0.00    -0.031 A 
HETATM   13  C   UNK     0       4.900   6.600  47.987  0.00  0.00     0.051 C 
HETATM   14  C   UNK     0       4.743   4.606  43.300  0.00  0.00     0.115 C 
HETATM   15  C   UNK     0       3.447   4.621  42.507  0.00  0.00     0.021 A 
HETATM   16  N   UNK     0       2.906   5.654  41.835  0.00  0.00    -0.361 N 
HETATM   17  C   UNK     0       1.728   5.281  41.330  0.00  0.00     0.022 A 
HETATM   18  C   UNK     0       1.494   3.937  41.683  0.00  0.00    -0.027 A 
HETATM   19  C   UNK     0       2.578   3.535  42.418  0.00  0.00    -0.031 A 
HETATM   20  C   UNK     0       2.749   2.131  42.970  0.00  0.00     0.051 C 
HETATM   21  C   UNK     0       0.702   6.084  40.563  0.00  0.00     0.115 C 
HETATM   22  C   UNK     0       0.550   7.544  40.918  0.00  0.00     0.022 A 
HETATM   23  N   UNK     0       0.567   8.109  42.132  0.00  0.00    -0.361 N 
HETATM   24  C   UNK     0       0.545   9.448  41.976  0.00  0.00     0.021 A 
HETATM   25  C   UNK     0       0.502   9.753  40.629  0.00  0.00    -0.031 A 
HETATM   26  C   UNK     0       0.425  11.109  39.961  0.00  0.00     0.051 C 
HETATM   27  C   UNK     0       0.504   8.550  39.932  0.00  0.00    -0.027 A 
HETATM   28  C   UNK     0       0.643  10.511  43.057  0.00  0.00     0.115 C 
HETATM   29  H   UNK     0       1.788   8.501  44.881  0.00  0.00     0.165 HD
HETATM   30  H   UNK     0       4.653   7.532  43.344  0.00  0.00     0.165 HD
HETATM   31  H   UNK     0       3.388   6.654  41.672  0.00  0.00     0.165 HD
HETATM   32  H   UNK     0       0.552   7.567  43.113  0.00  0.00     0.165 HD
ENDROOT
BRANCH   6  33
HETATM   33  C   UNK     0       5.150  11.857  44.898  0.00  0.00     0.051 C 
BRANCH  33  34
HETATM   34  C   UNK     0       5.063  12.576  46.224  0.00  0.00     0.114 C 
BRANCH  34  35
HETATM   35  C   UNK     0       4.646  13.980  45.945  0.00  0.00     0.139 C 
HETATM   36  O   UNK     0       5.409  14.755  45.298  0.00  0.00    -0.650 OA
BRANCH  35  37
HETATM   37  O   UNK     0       3.427  14.497  46.366  0.00  0.00    -0.776 OA
HETATM   38  H   UNK     0       2.567  13.978  46.280  0.00  0.00     0.167 HD
ENDBRANCH  35  37
ENDBRANCH  34  35
ENDBRANCH  33  34
ENDBRANCH   6  33
BRANCH  27  39
HETATM   39  C   UNK     0       0.393   8.473  38.450  0.00  0.00     0.051 C 
BRANCH  39  40
HETATM   40  C   UNK     0       1.616   8.277  37.671  0.00  0.00     0.114 C 
BRANCH  40  41
HETATM   41  C   UNK     0       1.851   8.962  36.421  0.00  0.00     0.139 C 
HETATM   42  O   UNK     0       2.357   8.420  35.429  0.00  0.00    -0.650 OA
BRANCH  41  43
HETATM   43  O   UNK     0       1.488  10.334  36.305  0.00  0.00    -0.776 OA
HETATM   44  H   UNK     0       1.032  10.575  35.434  0.00  0.00     0.167 HD
ENDBRANCH  41  43
ENDBRANCH  40  41
ENDBRANCH  39  40
ENDBRANCH  27  39
BRANCH  11  45
HETATM   45  C   UNK     0       5.015   3.932  46.410  0.00  0.00     0.051 C 
BRANCH  45  46
HETATM   46  C   UNK     0       4.775   2.806  45.471  0.00  0.00     0.114 C 
BRANCH  46  47
HETATM   47  C   UNK     0       4.728   1.556  46.283  0.00  0.00     0.139 C 
HETATM   48  O   UNK     0       5.608   1.370  47.135  0.00  0.00    -0.650 OA
BRANCH  47  49
HETATM   49  O   UNK     0       3.733   0.631  46.092  0.00  0.00    -0.776 OA
HETATM   50  H   UNK     0       2.806   0.730  46.521  0.00  0.00     0.167 HD
ENDBRANCH  47  49
ENDBRANCH  46  47
ENDBRANCH  45  46
ENDBRANCH  11  45
BRANCH  18  51
HETATM   51  C   UNK     0       0.311   3.077  41.320  0.00  0.00     0.051 C 
BRANCH  51  52
HETATM   52  C   UNK     0       0.725   2.279  40.093  0.00  0.00     0.114 C 
BRANCH  52  53
HETATM   53  C   UNK     0       0.619   0.825  40.321  0.00  0.00     0.139 C 
HETATM   54  O   UNK     0       1.608   0.095  40.147  0.00  0.00    -0.650 OA
BRANCH  53  55
HETATM   55  O   UNK     0      -0.578   0.286  40.724  0.00  0.00    -0.776 OA
HETATM   56  H   UNK     0      -1.449   0.762  40.764  0.00  0.00     0.167 HD
ENDBRANCH  53  55
ENDBRANCH  52  53
ENDBRANCH  51  52
ENDBRANCH  18  51
TORSDOF 16
ENDMDL
MODEL 6
REMARK VINA RESULT:      -8.6      8.922     12.286
REMARK  16 active torsions:
REMARK  status: ('A' for Active; 'I' for Inactive)
REMARK    1  A    between atoms: C_6  and  C_7 
REMARK    2  A    between atoms: C_7  and  C_8 
REMARK    3  A    between atoms: C_8  and  C_9 
REMARK    4  A    between atoms: C_9  and  O_11 
REMARK    5  A    between atoms: C_16  and  C_17 
REMARK    6  A    between atoms: C_17  and  C_18 
REMARK    7  A    between atoms: C_18  and  C_19 
REMARK    8  A    between atoms: C_19  and  O_21 
REMARK    9  A    between atoms: C_28  and  C_29 
REMARK   10  A    between atoms: C_29  and  C_30 
REMARK   11  A    between atoms: C_30  and  C_31 
REMARK   12  A    between atoms: C_31  and  O_33 
REMARK   13  A    between atoms: C_42  and  C_43 
REMARK   14  A    between atoms: C_43  and  C_44 
REMARK   15  A    between atoms: C_44  and  C_45 
REMARK   16  A    between atoms: C_45  and  O_47 
ROOT
HETATM    1  C   UNK     0      10.353   3.415  28.623  0.00  0.00     0.051 C 
HETATM    2  C   UNK     0       8.985   4.015  28.878  0.00  0.00    -0.031 A 
HETATM    3  C   UNK     0       7.759   3.384  29.014  0.00  0.00     0.021 A 
HETATM    4  N   UNK     0       6.799   4.320  29.201  0.00  0.00    -0.361 N 
HETATM    5  C   UNK     0       7.388   5.534  29.195  0.00  0.00     0.022 A 
HETATM    6  C   UNK     0       8.755   5.380  28.992  0.00  0.00    -0.027 A 
HETATM    7  C   UNK     0       6.791   6.883  29.451  0.00  0.00     0.115 C 
HETATM    8  C   UNK     0       5.804   6.984  30.600  0.00  0.00     0.021 A 
HETATM    9  N   UNK     0       5.820   6.338  31.776  0.00  0.00    -0.361 N 
HETATM   10  C   UNK     0       4.698   6.666  32.451  0.00  0.00     0.022 A 
HETATM   11  C   UNK     0       3.942   7.556  31.692  0.00  0.00    -0.027 A 
HETATM   12  C   UNK     0       4.633   7.761  30.526  0.00  0.00    -0.031 A 
HETATM   13  C   UNK     0       4.192   8.664  29.395  0.00  0.00     0.051 C 
HETATM   14  C   UNK     0       4.268   6.115  33.808  0.00  0.00     0.115 C 
HETATM   15  C   UNK     0       4.060   4.610  33.823  0.00  0.00     0.021 A 
HETATM   16  N   UNK     0       4.959   3.653  33.522  0.00  0.00    -0.361 N 
HETATM   17  C   UNK     0       4.367   2.459  33.588  0.00  0.00     0.022 A 
HETATM   18  C   UNK     0       3.021   2.645  33.960  0.00  0.00    -0.027 A 
HETATM   19  C   UNK     0       2.842   3.996  34.106  0.00  0.00    -0.031 A 
HETATM   20  C   UNK     0       1.533   4.632  34.538  0.00  0.00     0.051 C 
HETATM   21  C   UNK     0       4.914   1.085  33.275  0.00  0.00     0.115 C 
HETATM   22  C   UNK     0       5.930   0.976  32.162  0.00  0.00     0.022 A 
HETATM   23  N   UNK     0       5.941   1.610  30.983  0.00  0.00    -0.361 N 
HETATM   24  C   UNK     0       7.105   1.329  30.362  0.00  0.00     0.021 A 
HETATM   25  C   UNK     0       7.857   0.485  31.156  0.00  0.00    -0.031 A 
HETATM   26  C   UNK     0       9.209  -0.136  30.875  0.00  0.00     0.051 C 
HETATM   27  C   UNK     0       7.126   0.244  32.314  0.00  0.00    -0.027 A 
HETATM   28  C   UNK     0       7.614   1.889  29.045  0.00  0.00     0.115 C 
HETATM   29  H   UNK     0       5.707   4.120  29.296  0.00  0.00     0.165 HD
HETATM   30  H   UNK     0       6.646   5.688  32.155  0.00  0.00     0.165 HD
HETATM   31  H   UNK     0       6.046   3.821  33.304  0.00  0.00     0.165 HD
HETATM   32  H   UNK     0       5.108   2.229  30.558  0.00  0.00     0.165 HD
ENDROOT
BRANCH   6  33
HETATM   33  C   UNK     0       9.845   6.418  28.898  0.00  0.00     0.051 C 
BRANCH  33  34
HETATM   34  C   UNK     0      10.536   6.591  30.230  0.00  0.00     0.114 C 
BRANCH  34  35
HETATM   35  C   UNK     0       9.765   7.605  31.005  0.00  0.00     0.139 C 
HETATM   36  O   UNK     0       9.805   8.826  30.672  0.00  0.00    -0.650 OA
BRANCH  35  37
HETATM   37  O   UNK     0       8.980   7.273  32.102  0.00  0.00    -0.776 OA
HETATM   38  H   UNK     0       9.326   6.693  32.850  0.00  0.00     0.167 HD
ENDBRANCH  35  37
ENDBRANCH  34  35
ENDBRANCH  33  34
ENDBRANCH   6  33
BRANCH  27  39
HETATM   39  C   UNK     0       7.584  -0.684  33.384  0.00  0.00     0.051 C 
BRANCH  39  40
HETATM   40  C   UNK     0       8.162  -0.110  34.599  0.00  0.00     0.114 C 
BRANCH  40  41
HETATM   41  C   UNK     0       7.510  -0.210  35.885  0.00  0.00     0.139 C 
HETATM   42  O   UNK     0       7.661  -1.168  36.655  0.00  0.00    -0.650 OA
BRANCH  41  43
HETATM   43  O   UNK     0       6.643   0.839  36.303  0.00  0.00    -0.776 OA
HETATM   44  H   UNK     0       7.095   1.565  36.845  0.00  0.00     0.167 HD
ENDBRANCH  41  43
ENDBRANCH  40  41
ENDBRANCH  39  40
ENDBRANCH  27  39
BRANCH  11  45
HETATM   45  C   UNK     0       2.625   8.201  32.032  0.00  0.00     0.051 C 
BRANCH  45  46
HETATM   46  C   UNK     0       2.721   9.268  33.060  0.00  0.00     0.114 C 
BRANCH  46  47
HETATM   47  C   UNK     0       2.363  10.554  32.396  0.00  0.00     0.139 C 
HETATM   48  O   UNK     0       1.995  10.528  31.213  0.00  0.00    -0.650 OA
BRANCH  47  49
HETATM   49  O   UNK     0       2.441  11.743  33.077  0.00  0.00    -0.776 OA
HETATM   50  H   UNK     0       1.604  12.240  33.403  0.00  0.00     0.167 HD
ENDBRANCH  47  49
ENDBRANCH  46  47
ENDBRANCH  45  46
ENDBRANCH  11  45
BRANCH  18  51
HETATM   51  C   UNK     0       1.968   1.591  34.186  0.00  0.00     0.051 C 
BRANCH  51  52
HETATM   52  C   UNK     0       2.084   1.178  35.645  0.00  0.00     0.114 C 
BRANCH  52  53
HETATM   53  C   UNK     0       2.277  -0.278  35.791  0.00  0.00     0.139 C 
HETATM   54  O   UNK     0       3.156  -0.715  36.551  0.00  0.00    -0.650 OA
BRANCH  53  55
HETATM   55  O   UNK     0       1.482  -1.143  35.080  0.00  0.00    -0.776 OA
HETATM   56  H   UNK     0       1.629  -2.120  34.976  0.00  0.00     0.167 HD
ENDBRANCH  53  55
ENDBRANCH  52  53
ENDBRANCH  51  52
ENDBRANCH  18  51
TORSDOF 16
ENDMDL
MODEL 7
REMARK VINA RESULT:      -8.5     29.739     32.450
REMARK  16 active torsions:
REMARK  status: ('A' for Active; 'I' for Inactive)
REMARK    1  A    between atoms: C_6  and  C_7 
REMARK    2  A    between atoms: C_7  and  C_8 
REMARK    3  A    between atoms: C_8  and  C_9 
REMARK    4  A    between atoms: C_9  and  O_11 
REMARK    5  A    between atoms: C_16  and  C_17 
REMARK    6  A    between atoms: C_17  and  C_18 
REMARK    7  A    between atoms: C_18  and  C_19 
REMARK    8  A    between atoms: C_19  and  O_21 
REMARK    9  A    between atoms: C_28  and  C_29 
REMARK   10  A    between atoms: C_29  and  C_30 
REMARK   11  A    between atoms: C_30  and  C_31 
REMARK   12  A    between atoms: C_31  and  O_33 
REMARK   13  A    between atoms: C_42  and  C_43 
REMARK   14  A    between atoms: C_43  and  C_44 
REMARK   15  A    between atoms: C_44  and  C_45 
REMARK   16  A    between atoms: C_45  and  O_47 
ROOT
HETATM    1  C   UNK     0      34.497  -2.405  46.666  0.00  0.00     0.051 C 
HETATM    2  C   UNK     0      34.426  -2.112  45.181  0.00  0.00    -0.031 A 
HETATM    3  C   UNK     0      35.138  -2.681  44.137  0.00  0.00     0.021 A 
HETATM    4  N   UNK     0      34.770  -2.088  42.977  0.00  0.00    -0.361 N 
HETATM    5  C   UNK     0      33.833  -1.159  43.257  0.00  0.00     0.022 A 
HETATM    6  C   UNK     0      33.596  -1.145  44.628  0.00  0.00    -0.027 A 
HETATM    7  C   UNK     0      33.039  -0.296  42.327  0.00  0.00     0.115 C 
HETATM    8  C   UNK     0      32.499  -0.962  41.074  0.00  0.00     0.021 A 
HETATM    9  N   UNK     0      32.045  -2.216  40.923  0.00  0.00    -0.361 N 
HETATM   10  C   UNK     0      31.754  -2.402  39.618  0.00  0.00     0.022 A 
HETATM   11  C   UNK     0      32.019  -1.233  38.910  0.00  0.00    -0.027 A 
HETATM   12  C   UNK     0      32.488  -0.322  39.821  0.00  0.00    -0.031 A 
HETATM   13  C   UNK     0      32.902   1.098  39.504  0.00  0.00     0.051 C 
HETATM   14  C   UNK     0      31.267  -3.700  38.979  0.00  0.00     0.115 C 
HETATM   15  C   UNK     0      32.241  -4.859  39.119  0.00  0.00     0.021 A 
HETATM   16  N   UNK     0      32.724  -5.393  40.256  0.00  0.00    -0.361 N 
HETATM   17  C   UNK     0      33.607  -6.346  39.952  0.00  0.00     0.022 A 
HETATM   18  C   UNK     0      33.697  -6.445  38.549  0.00  0.00    -0.027 A 
HETATM   19  C   UNK     0      32.835  -5.509  38.039  0.00  0.00    -0.031 A 
HETATM   20  C   UNK     0      32.595  -5.303  36.555  0.00  0.00     0.051 C 
HETATM   21  C   UNK     0      34.476  -7.191  40.857  0.00  0.00     0.115 C 
HETATM   22  C   UNK     0      34.984  -6.555  42.129  0.00  0.00     0.022 A 
HETATM   23  N   UNK     0      35.438  -5.308  42.310  0.00  0.00    -0.361 N 
HETATM   24  C   UNK     0      35.648  -5.120  43.628  0.00  0.00     0.021 A 
HETATM   25  C   UNK     0      35.331  -6.278  44.312  0.00  0.00    -0.031 A 
HETATM   26  C   UNK     0      35.439  -6.569  45.795  0.00  0.00     0.051 C 
HETATM   27  C   UNK     0      34.904  -7.211  43.374  0.00  0.00    -0.027 A 
HETATM   28  C   UNK     0      36.074  -3.841  44.329  0.00  0.00     0.115 C 
HETATM   29  H   UNK     0      35.203  -2.302  41.972  0.00  0.00     0.165 HD
HETATM   30  H   UNK     0      31.882  -2.957  41.743  0.00  0.00     0.165 HD
HETATM   31  H   UNK     0      32.401  -5.124  41.296  0.00  0.00     0.165 HD
HETATM   32  H   UNK     0      35.656  -4.561  41.502  0.00  0.00     0.165 HD
ENDROOT
BRANCH   6  33
HETATM   33  C   UNK     0      32.655  -0.293  45.441  0.00  0.00     0.051 C 
BRANCH  33  34
HETATM   34  C   UNK     0      31.232  -0.462  44.964  0.00  0.00     0.114 C 
BRANCH  34  35
HETATM   35  C   UNK     0      30.677   0.901  44.724  0.00  0.00     0.139 C 
HETATM   36  O   UNK     0      30.581   1.352  43.546  0.00  0.00    -0.650 OA
BRANCH  35  37
HETATM   37  O   UNK     0      30.244   1.726  45.755  0.00  0.00    -0.776 OA
HETATM   38  H   UNK     0      30.529   2.690  45.824  0.00  0.00     0.167 HD
ENDBRANCH  35  37
ENDBRANCH  34  35
ENDBRANCH  33  34
ENDBRANCH   6  33
BRANCH  27  39
HETATM   39  C   UNK     0      34.542  -8.610  43.729  0.00  0.00     0.051 C 
BRANCH  39  40
HETATM   40  C   UNK     0      33.131  -8.992  43.694  0.00  0.00     0.114 C 
BRANCH  40  41
HETATM   41  C   UNK     0      32.137  -8.347  44.522  0.00  0.00     0.139 C 
HETATM   42  O   UNK     0      32.355  -7.964  45.679  0.00  0.00    -0.650 OA
BRANCH  41  43
HETATM   43  O   UNK     0      30.832  -8.131  43.993  0.00  0.00    -0.776 OA
HETATM   44  H   UNK     0      30.084  -8.237  44.668  0.00  0.00     0.167 HD
ENDBRANCH  41  43
ENDBRANCH  40  41
ENDBRANCH  39  40
ENDBRANCH  27  39
BRANCH  11  45
HETATM   45  C   UNK     0      31.842  -0.961  37.440  0.00  0.00     0.051 C 
BRANCH  45  46
HETATM   46  C   UNK     0      30.479  -0.503  37.068  0.00  0.00     0.114 C 
BRANCH  46  47
HETATM   47  C   UNK     0      30.107  -1.205  35.807  0.00  0.00     0.139 C 
HETATM   48  O   UNK     0      30.113  -0.563  34.747  0.00  0.00    -0.650 OA
BRANCH  47  49
HETATM   49  O   UNK     0      29.762  -2.533  35.817  0.00  0.00    -0.776 OA
HETATM   50  H   UNK     0      30.428  -3.267  36.089  0.00  0.00     0.167 HD
ENDBRANCH  47  49
ENDBRANCH  46  47
ENDBRANCH  45  46
ENDBRANCH  11  45
BRANCH  18  51
HETATM   51  C   UNK     0      34.541  -7.395  37.740  0.00  0.00     0.051 C 
BRANCH  51  52
HETATM   52  C   UNK     0      35.936  -6.789  37.690  0.00  0.00     0.114 C 
BRANCH  52  53
HETATM   53  C   UNK     0      36.311  -6.386  36.321  0.00  0.00     0.139 C 
HETATM   54  O   UNK     0      35.471  -5.857  35.576  0.00  0.00    -0.650 OA
BRANCH  53  55
HETATM   55  O   UNK     0      37.593  -6.604  35.876  0.00  0.00    -0.776 OA
HETATM   56  H   UNK     0      37.851  -7.113  35.064  0.00  0.00     0.167 HD
ENDBRANCH  53  55
ENDBRANCH  52  53
ENDBRANCH  51  52
ENDBRANCH  18  51
TORSDOF 16
ENDMDL
MODEL 8
REMARK VINA RESULT:      -8.2      8.850     12.160
REMARK  16 active torsions:
REMARK  status: ('A' for Active; 'I' for Inactive)
REMARK    1  A    between atoms: C_6  and  C_7 
REMARK    2  A    between atoms: C_7  and  C_8 
REMARK    3  A    between atoms: C_8  and  C_9 
REMARK    4  A    between atoms: C_9  and  O_11 
REMARK    5  A    between atoms: C_16  and  C_17 
REMARK    6  A    between atoms: C_17  and  C_18 
REMARK    7  A    between atoms: C_18  and  C_19 
REMARK    8  A    between atoms: C_19  and  O_21 
REMARK    9  A    between atoms: C_28  and  C_29 
REMARK   10  A    between atoms: C_29  and  C_30 
REMARK   11  A    between atoms: C_30  and  C_31 
REMARK   12  A    between atoms: C_31  and  O_33 
REMARK   13  A    between atoms: C_42  and  C_43 
REMARK   14  A    between atoms: C_43  and  C_44 
REMARK   15  A    between atoms: C_44  and  C_45 
REMARK   16  A    between atoms: C_45  and  O_47 
ROOT
HETATM    1  C   UNK     0       1.984   7.582  31.978  0.00  0.00     0.051 C 
HETATM    2  C   UNK     0       3.394   7.103  31.699  0.00  0.00    -0.031 A 
HETATM    3  C   UNK     0       4.250   6.370  32.506  0.00  0.00     0.021 A 
HETATM    4  N   UNK     0       5.426   6.196  31.858  0.00  0.00    -0.361 N 
HETATM    5  C   UNK     0       5.336   6.794  30.652  0.00  0.00     0.022 A 
HETATM    6  C   UNK     0       4.078   7.374  30.521  0.00  0.00    -0.027 A 
HETATM    7  C   UNK     0       6.318   6.814  29.523  0.00  0.00     0.115 C 
HETATM    8  C   UNK     0       7.019   5.505  29.206  0.00  0.00     0.021 A 
HETATM    9  N   UNK     0       6.530   4.257  29.273  0.00  0.00    -0.361 N 
HETATM   10  C   UNK     0       7.532   3.398  28.992  0.00  0.00     0.022 A 
HETATM   11  C   UNK     0       8.697   4.113  28.728  0.00  0.00    -0.027 A 
HETATM   12  C   UNK     0       8.381   5.441  28.861  0.00  0.00    -0.031 A 
HETATM   13  C   UNK     0       9.340   6.592  28.661  0.00  0.00     0.051 C 
HETATM   14  C   UNK     0       7.446   1.875  29.013  0.00  0.00     0.115 C 
HETATM   15  C   UNK     0       7.082   1.297  30.371  0.00  0.00     0.021 A 
HETATM   16  N   UNK     0       5.978   1.546  31.100  0.00  0.00    -0.361 N 
HETATM   17  C   UNK     0       6.066   0.899  32.265  0.00  0.00     0.022 A 
HETATM   18  C   UNK     0       7.282   0.187  32.292  0.00  0.00    -0.027 A 
HETATM   19  C   UNK     0       7.908   0.444  31.100  0.00  0.00    -0.031 A 
HETATM   20  C   UNK     0       9.241  -0.161  30.700  0.00  0.00     0.051 C 
HETATM   21  C   UNK     0       5.131   0.906  33.453  0.00  0.00     0.115 C 
HETATM   22  C   UNK     0       4.394   2.189  33.753  0.00  0.00     0.022 A 
HETATM   23  N   UNK     0       4.855   3.445  33.692  0.00  0.00    -0.361 N 
HETATM   24  C   UNK     0       3.821   4.286  33.898  0.00  0.00     0.021 A 
HETATM   25  C   UNK     0       2.669   3.554  34.109  0.00  0.00    -0.031 A 
HETATM   26  C   UNK     0       1.270   4.045  34.421  0.00  0.00     0.051 C 
HETATM   27  C   UNK     0       3.010   2.209  34.021  0.00  0.00    -0.027 A 
HETATM   28  C   UNK     0       3.830   5.804  33.833  0.00  0.00     0.115 C 
HETATM   29  H   UNK     0       6.326   5.686  32.273  0.00  0.00     0.165 HD
HETATM   30  H   UNK     0       5.465   3.981  29.469  0.00  0.00     0.165 HD
HETATM   31  H   UNK     0       5.095   2.152  30.767  0.00  0.00     0.165 HD
HETATM   32  H   UNK     0       5.923   3.750  33.545  0.00  0.00     0.165 HD
ENDROOT
BRANCH   6  33
HETATM   33  C   UNK     0       3.486   8.158  29.377  0.00  0.00     0.051 C 
BRANCH  33  34
HETATM   34  C   UNK     0       3.662   9.642  29.597  0.00  0.00     0.114 C 
BRANCH  34  35
HETATM   35  C   UNK     0       2.413  10.313  29.136  0.00  0.00     0.139 C 
HETATM   36  O   UNK     0       2.368  10.862  27.997  0.00  0.00    -0.650 OA
BRANCH  35  37
HETATM   37  O   UNK     0       1.261  10.367  29.912  0.00  0.00    -0.776 OA
HETATM   38  H   UNK     0       0.544  11.057  29.756  0.00  0.00     0.167 HD
ENDBRANCH  35  37
ENDBRANCH  34  35
ENDBRANCH  33  34
ENDBRANCH   6  33
BRANCH  27  39
HETATM   39  C   UNK     0       2.038   1.108  34.263  0.00  0.00     0.051 C 
BRANCH  39  40
HETATM   40  C   UNK     0       2.119   0.376  35.527  0.00  0.00     0.114 C 
BRANCH  40  41
HETATM   41  C   UNK     0       2.840   0.889  36.670  0.00  0.00     0.139 C 
HETATM   42  O   UNK     0       3.997   0.551  36.956  0.00  0.00    -0.650 OA
BRANCH  41  43
HETATM   43  O   UNK     0       2.203   1.835  37.522  0.00  0.00    -0.776 OA
HETATM   44  H   UNK     0       1.270   1.572  37.817  0.00  0.00     0.167 HD
ENDBRANCH  41  43
ENDBRANCH  40  41
ENDBRANCH  39  40
ENDBRANCH  27  39
BRANCH  11  45
HETATM   45  C   UNK     0      10.060   3.590  28.362  0.00  0.00     0.051 C 
BRANCH  45  46
HETATM   46  C   UNK     0      10.230   3.304  26.914  0.00  0.00     0.114 C 
BRANCH  46  47
HETATM   47  C   UNK     0      10.958   2.007  26.803  0.00  0.00     0.139 C 
HETATM   48  O   UNK     0      12.094   2.006  26.308  0.00  0.00    -0.650 OA
BRANCH  47  49
HETATM   49  O   UNK     0      10.383   0.839  27.237  0.00  0.00    -0.776 OA
HETATM   50  H   UNK     0      10.093   0.100  26.586  0.00  0.00     0.167 HD
ENDBRANCH  47  49
ENDBRANCH  46  47
ENDBRANCH  45  46
ENDBRANCH  11  45
BRANCH  18  51
HETATM   51  C   UNK     0       7.808  -0.706  33.385  0.00  0.00     0.051 C 
BRANCH  51  52
HETATM   52  C   UNK     0       8.482   0.210  34.396  0.00  0.00     0.114 C 
BRANCH  52  53
HETATM   53  C   UNK     0       8.012  -0.048  35.771  0.00  0.00     0.139 C 
HETATM   54  O   UNK     0       8.560  -0.924  36.460  0.00  0.00    -0.650 OA
BRANCH  53  55
HETATM   55  O   UNK     0       6.966   0.681  36.281  0.00  0.00    -0.776 OA
HETATM   56  H   UNK     0       6.567   1.493  35.872  0.00  0.00     0.167 HD
ENDBRANCH  53  55
ENDBRANCH  52  53
ENDBRANCH  51  52
ENDBRANCH  18  51
TORSDOF 16
ENDMDL
MODEL 9
REMARK VINA RESULT:      -8.1     29.717     32.975
REMARK  16 active torsions:
REMARK  status: ('A' for Active; 'I' for Inactive)
REMARK    1  A    between atoms: C_6  and  C_7 
REMARK    2  A    between atoms: C_7  and  C_8 
REMARK    3  A    between atoms: C_8  and  C_9 
REMARK    4  A    between atoms: C_9  and  O_11 
REMARK    5  A    between atoms: C_16  and  C_17 
REMARK    6  A    between atoms: C_17  and  C_18 
REMARK    7  A    between atoms: C_18  and  C_19 
REMARK    8  A    between atoms: C_19  and  O_21 
REMARK    9  A    between atoms: C_28  and  C_29 
REMARK   10  A    between atoms: C_29  and  C_30 
REMARK   11  A    between atoms: C_30  and  C_31 
REMARK   12  A    between atoms: C_31  and  O_33 
REMARK   13  A    between atoms: C_42  and  C_43 
REMARK   14  A    between atoms: C_43  and  C_44 
REMARK   15  A    between atoms: C_44  and  C_45 
REMARK   16  A    between atoms: C_45  and  O_47 
ROOT
HETATM    1  C   UNK     0      34.614  -1.161  44.989  0.00  0.00     0.051 C 
HETATM    2  C   UNK     0      34.121  -2.521  44.536  0.00  0.00    -0.031 A 
HETATM    3  C   UNK     0      32.991  -2.847  43.803  0.00  0.00     0.021 A 
HETATM    4  N   UNK     0      32.933  -4.192  43.658  0.00  0.00    -0.361 N 
HETATM    5  C   UNK     0      34.006  -4.729  44.274  0.00  0.00     0.022 A 
HETATM    6  C   UNK     0      34.769  -3.712  44.837  0.00  0.00    -0.027 A 
HETATM    7  C   UNK     0      34.458  -6.155  44.328  0.00  0.00     0.115 C 
HETATM    8  C   UNK     0      34.372  -6.946  43.035  0.00  0.00     0.021 A 
HETATM    9  N   UNK     0      34.578  -6.521  41.778  0.00  0.00    -0.361 N 
HETATM   10  C   UNK     0      34.301  -7.541  40.939  0.00  0.00     0.022 A 
HETATM   11  C   UNK     0      33.915  -8.658  41.676  0.00  0.00    -0.027 A 
HETATM   12  C   UNK     0      33.958  -8.290  42.996  0.00  0.00    -0.031 A 
HETATM   13  C   UNK     0      33.622  -9.188  44.165  0.00  0.00     0.051 C 
HETATM   14  C   UNK     0      34.337  -7.490  39.415  0.00  0.00     0.115 C 
HETATM   15  C   UNK     0      33.370  -6.484  38.810  0.00  0.00     0.021 A 
HETATM   16  N   UNK     0      33.321  -5.157  39.030  0.00  0.00    -0.361 N 
HETATM   17  C   UNK     0      32.285  -4.641  38.365  0.00  0.00     0.022 A 
HETATM   18  C   UNK     0      31.633  -5.679  37.672  0.00  0.00    -0.027 A 
HETATM   19  C   UNK     0      32.323  -6.829  37.957  0.00  0.00    -0.031 A 
HETATM   20  C   UNK     0      31.974  -8.188  37.379  0.00  0.00     0.051 C 
HETATM   21  C   UNK     0      31.757  -3.224  38.338  0.00  0.00     0.115 C 
HETATM   22  C   UNK     0      31.876  -2.411  39.605  0.00  0.00     0.022 A 
HETATM   23  N   UNK     0      31.681  -2.809  40.869  0.00  0.00    -0.361 N 
HETATM   24  C   UNK     0      32.038  -1.801  41.691  0.00  0.00     0.021 A 
HETATM   25  C   UNK     0      32.463  -0.724  40.937  0.00  0.00    -0.031 A 
HETATM   26  C   UNK     0      32.921   0.643  41.402  0.00  0.00     0.051 C 
HETATM   27  C   UNK     0      32.368  -1.090  39.599  0.00  0.00    -0.027 A 
HETATM   28  C   UNK     0      32.080  -1.810  43.209  0.00  0.00     0.115 C 
HETATM   29  H   UNK     0      32.113  -4.756  43.155  0.00  0.00     0.165 HD
HETATM   30  H   UNK     0      34.966  -5.516  41.483  0.00  0.00     0.165 HD
HETATM   31  H   UNK     0      34.061  -4.564  39.628  0.00  0.00     0.165 HD
HETATM   32  H   UNK     0      31.249  -3.792  41.192  0.00  0.00     0.165 HD
ENDROOT
BRANCH   6  33
HETATM   33  C   UNK     0      36.049  -3.784  45.630  0.00  0.00     0.051 C 
BRANCH  33  34
HETATM   34  C   UNK     0      37.226  -3.351  44.788  0.00  0.00     0.114 C 
BRANCH  34  35
HETATM   35  C   UNK     0      37.644  -4.524  43.969  0.00  0.00     0.139 C 
HETATM   36  O   UNK     0      37.673  -4.442  42.706  0.00  0.00    -0.650 OA
BRANCH  35  37
HETATM   37  O   UNK     0      38.018  -5.738  44.534  0.00  0.00    -0.776 OA
HETATM   38  H   UNK     0      38.983  -6.004  44.640  0.00  0.00     0.167 HD
ENDBRANCH  35  37
ENDBRANCH  34  35
ENDBRANCH  33  34
ENDBRANCH   6  33
BRANCH  27  39
HETATM   39  C   UNK     0      32.674  -0.157  38.481  0.00  0.00     0.051 C 
BRANCH  39  40
HETATM   40  C   UNK     0      31.563   0.351  37.677  0.00  0.00     0.114 C 
BRANCH  40  41
HETATM   41  C   UNK     0      30.877  -0.469  36.704  0.00  0.00     0.139 C 
HETATM   42  O   UNK     0      29.702  -0.840  36.829  0.00  0.00    -0.650 OA
BRANCH  41  43
HETATM   43  O   UNK     0      31.575  -0.880  35.533  0.00  0.00    -0.776 OA
HETATM   44  H   UNK     0      32.008  -0.125  35.016  0.00  0.00     0.167 HD
ENDBRANCH  41  43
ENDBRANCH  40  41
ENDBRANCH  39  40
ENDBRANCH  27  39
BRANCH  11  45
HETATM   45  C   UNK     0      33.522 -10.023  41.180  0.00  0.00     0.051 C 
BRANCH  45  46
HETATM   46  C   UNK     0      32.939 -10.903  42.225  0.00  0.00     0.114 C 
BRANCH  46  47
HETATM   47  C   UNK     0      31.589 -11.321  41.748  0.00  0.00     0.139 C 
HETATM   48  O   UNK     0      31.472 -11.725  40.582  0.00  0.00    -0.650 OA
BRANCH  47  49
HETATM   49  O   UNK     0      30.500 -11.259  42.579  0.00  0.00    -0.776 OA
HETATM   50  H   UNK     0      30.410 -10.540  43.307  0.00  0.00     0.167 HD
ENDBRANCH  47  49
ENDBRANCH  46  47
ENDBRANCH  45  46
ENDBRANCH  11  45
BRANCH  18  51
HETATM   51  C   UNK     0      30.431  -5.579  36.769  0.00  0.00     0.051 C 
BRANCH  51  52
HETATM   52  C   UNK     0      29.384  -4.788  37.540  0.00  0.00     0.114 C 
BRANCH  52  53
HETATM   53  C   UNK     0      28.319  -4.278  36.655  0.00  0.00     0.139 C 
HETATM   54  O   UNK     0      27.145  -4.643  36.822  0.00  0.00    -0.650 OA
BRANCH  53  55
HETATM   55  O   UNK     0      28.636  -3.402  35.645  0.00  0.00    -0.776 OA
HETATM   56  H   UNK     0      28.088  -2.629  35.349  0.00  0.00     0.167 HD
ENDBRANCH  53  55
ENDBRANCH  52  53
ENDBRANCH  51  52
ENDBRANCH  18  51
TORSDOF 16
ENDMDL
MODEL 10
REMARK VINA RESULT:      -8.1     16.169     21.244
REMARK  16 active torsions:
REMARK  status: ('A' for Active; 'I' for Inactive)
REMARK    1  A    between atoms: C_6  and  C_7 
REMARK    2  A    between atoms: C_7  and  C_8 
REMARK    3  A    between atoms: C_8  and  C_9 
REMARK    4  A    between atoms: C_9  and  O_11 
REMARK    5  A    between atoms: C_16  and  C_17 
REMARK    6  A    between atoms: C_17  and  C_18 
REMARK    7  A    between atoms: C_18  and  C_19 
REMARK    8  A    between atoms: C_19  and  O_21 
REMARK    9  A    between atoms: C_28  and  C_29 
REMARK   10  A    between atoms: C_29  and  C_30 
REMARK   11  A    between atoms: C_30  and  C_31 
REMARK   12  A    between atoms: C_31  and  O_33 
REMARK   13  A    between atoms: C_42  and  C_43 
REMARK   14  A    between atoms: C_43  and  C_44 
REMARK   15  A    between atoms: C_44  and  C_45 
REMARK   16  A    between atoms: C_45  and  O_47 
ROOT
HETATM    1  C   UNK     0      12.023  -3.706  45.737  0.00  0.00     0.051 C 
HETATM    2  C   UNK     0      12.761  -4.951  46.183  0.00  0.00    -0.031 A 
HETATM    3  C   UNK     0      13.120  -6.071  45.449  0.00  0.00     0.021 A 
HETATM    4  N   UNK     0      13.741  -6.954  46.267  0.00  0.00    -0.361 N 
HETATM    5  C   UNK     0      13.794  -6.417  47.504  0.00  0.00     0.022 A 
HETATM    6  C   UNK     0      13.188  -5.166  47.487  0.00  0.00    -0.027 A 
HETATM    7  C   UNK     0      14.454  -6.940  48.741  0.00  0.00     0.115 C 
HETATM    8  C   UNK     0      15.834  -7.551  48.571  0.00  0.00     0.021 A 
HETATM    9  N   UNK     0      16.816  -7.179  47.735  0.00  0.00    -0.361 N 
HETATM   10  C   UNK     0      17.829  -8.062  47.860  0.00  0.00     0.022 A 
HETATM   11  C   UNK     0      17.495  -9.024  48.809  0.00  0.00    -0.027 A 
HETATM   12  C   UNK     0      16.239  -8.707  49.262  0.00  0.00    -0.031 A 
HETATM   13  C   UNK     0      15.468  -9.477  50.310  0.00  0.00     0.051 C 
HETATM   14  C   UNK     0      19.126  -8.066  47.055  0.00  0.00     0.115 C 
HETATM   15  C   UNK     0      18.920  -8.230  45.557  0.00  0.00     0.021 A 
HETATM   16  N   UNK     0      18.204  -7.439  44.735  0.00  0.00    -0.361 N 
HETATM   17  C   UNK     0      18.213  -7.962  43.507  0.00  0.00     0.022 A 
HETATM   18  C   UNK     0      18.979  -9.144  43.528  0.00  0.00    -0.027 A 
HETATM   19  C   UNK     0      19.417  -9.300  44.817  0.00  0.00    -0.031 A 
HETATM   20  C   UNK     0      20.312 -10.438  45.272  0.00  0.00     0.051 C 
HETATM   21  C   UNK     0      17.508  -7.503  42.251  0.00  0.00     0.115 C 
HETATM   22  C   UNK     0      16.153  -6.853  42.409  0.00  0.00     0.022 A 
HETATM   23  N   UNK     0      15.158  -7.199  43.236  0.00  0.00    -0.361 N 
HETATM   24  C   UNK     0      14.192  -6.263  43.152  0.00  0.00     0.021 A 
HETATM   25  C   UNK     0      14.570  -5.295  42.241  0.00  0.00    -0.031 A 
HETATM   26  C   UNK     0      13.806  -4.071  41.778  0.00  0.00     0.051 C 
HETATM   27  C   UNK     0      15.821  -5.651  41.752  0.00  0.00    -0.027 A 
HETATM   28  C   UNK     0      12.912  -6.171  43.965  0.00  0.00     0.115 C 
HETATM   29  H   UNK     0      14.102  -7.967  45.974  0.00  0.00     0.165 HD
HETATM   30  H   UNK     0      16.817  -6.265  47.092  0.00  0.00     0.165 HD
HETATM   31  H   UNK     0      17.723  -6.467  45.017  0.00  0.00     0.165 HD
HETATM   32  H   UNK     0      15.109  -8.132  43.856  0.00  0.00     0.165 HD
ENDROOT
BRANCH   6  33
HETATM   33  C   UNK     0      12.983  -4.172  48.603  0.00  0.00     0.051 C 
BRANCH  33  34
HETATM   34  C   UNK     0      11.570  -4.245  49.132  0.00  0.00     0.114 C 
BRANCH  34  35
HETATM   35  C   UNK     0      11.594  -5.109  50.348  0.00  0.00     0.139 C 
HETATM   36  O   UNK     0      11.287  -6.334  50.265  0.00  0.00    -0.650 OA
BRANCH  35  37
HETATM   37  O   UNK     0      11.947  -4.626  51.602  0.00  0.00    -0.776 OA
HETATM   38  H   UNK     0      12.076  -5.237  52.393  0.00  0.00     0.167 HD
ENDBRANCH  35  37
ENDBRANCH  34  35
ENDBRANCH  33  34
ENDBRANCH   6  33
BRANCH  27  39
HETATM   39  C   UNK     0      16.526  -4.882  40.690  0.00  0.00     0.051 C 
BRANCH  39  40
HETATM   40  C   UNK     0      17.536  -3.906  41.096  0.00  0.00     0.114 C 
BRANCH  40  41
HETATM   41  C   UNK     0      17.185  -2.596  41.596  0.00  0.00     0.139 C 
HETATM   42  O   UNK     0      16.760  -1.681  40.878  0.00  0.00    -0.650 OA
BRANCH  41  43
HETATM   43  O   UNK     0      17.329  -2.326  42.987  0.00  0.00    -0.776 OA
HETATM   44  H   UNK     0      17.962  -1.564  43.203  0.00  0.00     0.167 HD
ENDBRANCH  41  43
ENDBRANCH  40  41
ENDBRANCH  39  40
ENDBRANCH  27  39
BRANCH  11  45
HETATM   45  C   UNK     0      18.307 -10.197  49.288  0.00  0.00     0.051 C 
BRANCH  45  46
HETATM   46  C   UNK     0      19.035  -9.951  50.559  0.00  0.00     0.114 C 
BRANCH  46  47
HETATM   47  C   UNK     0      20.451  -9.644  50.205  0.00  0.00     0.139 C 
HETATM   48  O   UNK     0      21.187 -10.575  49.848  0.00  0.00    -0.650 OA
BRANCH  47  49
HETATM   49  O   UNK     0      20.930  -8.361  50.274  0.00  0.00    -0.776 OA
HETATM   50  H   UNK     0      20.919  -7.821  51.148  0.00  0.00     0.167 HD
ENDBRANCH  47  49
ENDBRANCH  46  47
ENDBRANCH  45  46
ENDBRANCH  11  45
BRANCH  18  51
HETATM   51  C   UNK     0      19.293 -10.064  42.376  0.00  0.00     0.051 C 
BRANCH  51  52
HETATM   52  C   UNK     0      20.586  -9.550  41.761  0.00  0.00     0.114 C 
BRANCH  52  53
HETATM   53  C   UNK     0      20.425  -9.236  40.328  0.00  0.00     0.139 C 
HETATM   54  O   UNK     0      20.426  -8.055  39.946  0.00  0.00    -0.650 OA
BRANCH  53  55
HETATM   55  O   UNK     0      20.272 -10.258  39.422  0.00  0.00    -0.776 OA
HETATM   56  H   UNK     0      19.411 -10.587  39.053  0.00  0.00     0.167 HD
ENDBRANCH  53  55
ENDBRANCH  52  53
ENDBRANCH  51  52
ENDBRANCH  18  51
TORSDOF 16
ENDMDL
MODEL 11
REMARK VINA RESULT:      -8.0     16.631     21.727
REMARK  16 active torsions:
REMARK  status: ('A' for Active; 'I' for Inactive)
REMARK    1  A    between atoms: C_6  and  C_7 
REMARK    2  A    between atoms: C_7  and  C_8 
REMARK    3  A    between atoms: C_8  and  C_9 
REMARK    4  A    between atoms: C_9  and  O_11 
REMARK    5  A    between atoms: C_16  and  C_17 
REMARK    6  A    between atoms: C_17  and  C_18 
REMARK    7  A    between atoms: C_18  and  C_19 
REMARK    8  A    between atoms: C_19  and  O_21 
REMARK    9  A    between atoms: C_28  and  C_29 
REMARK   10  A    between atoms: C_29  and  C_30 
REMARK   11  A    between atoms: C_30  and  C_31 
REMARK   12  A    between atoms: C_31  and  O_33 
REMARK   13  A    between atoms: C_42  and  C_43 
REMARK   14  A    between atoms: C_43  and  C_44 
REMARK   15  A    between atoms: C_44  and  C_45 
REMARK   16  A    between atoms: C_45  and  O_47 
ROOT
HETATM    1  C   UNK     0      12.389  -3.606  45.788  0.00  0.00     0.051 C 
HETATM    2  C   UNK     0      13.014  -4.903  46.261  0.00  0.00    -0.031 A 
HETATM    3  C   UNK     0      13.362  -6.029  45.532  0.00  0.00     0.021 A 
HETATM    4  N   UNK     0      13.863  -6.963  46.375  0.00  0.00    -0.361 N 
HETATM    5  C   UNK     0      13.851  -6.453  47.624  0.00  0.00     0.022 A 
HETATM    6  C   UNK     0      13.323  -5.166  47.589  0.00  0.00    -0.027 A 
HETATM    7  C   UNK     0      14.379  -7.038  48.896  0.00  0.00     0.115 C 
HETATM    8  C   UNK     0      15.729  -7.729  48.820  0.00  0.00     0.021 A 
HETATM    9  N   UNK     0      16.794  -7.404  48.071  0.00  0.00    -0.361 N 
HETATM   10  C   UNK     0      17.740  -8.349  48.253  0.00  0.00     0.022 A 
HETATM   11  C   UNK     0      17.275  -9.306  49.151  0.00  0.00    -0.027 A 
HETATM   12  C   UNK     0      16.009  -8.921  49.512  0.00  0.00    -0.031 A 
HETATM   13  C   UNK     0      15.113  -9.661  50.480  0.00  0.00     0.051 C 
HETATM   14  C   UNK     0      19.093  -8.418  47.551  0.00  0.00     0.115 C 
HETATM   15  C   UNK     0      18.996  -8.541  46.039  0.00  0.00     0.021 A 
HETATM   16  N   UNK     0      18.396  -7.693  45.182  0.00  0.00    -0.361 N 
HETATM   17  C   UNK     0      18.470  -8.192  43.947  0.00  0.00     0.022 A 
HETATM   18  C   UNK     0      19.159  -9.420  43.999  0.00  0.00    -0.027 A 
HETATM   19  C   UNK     0      19.485  -9.626  45.314  0.00  0.00    -0.031 A 
HETATM   20  C   UNK     0      20.272 -10.825  45.811  0.00  0.00     0.051 C 
HETATM   21  C   UNK     0      17.894  -7.668  42.651  0.00  0.00     0.115 C 
HETATM   22  C   UNK     0      16.573  -6.940  42.718  0.00  0.00     0.022 A 
HETATM   23  N   UNK     0      15.497  -7.239  43.458  0.00  0.00    -0.361 N 
HETATM   24  C   UNK     0      14.598  -6.243  43.320  0.00  0.00     0.021 A 
HETATM   25  C   UNK     0      15.104  -5.284  42.464  0.00  0.00    -0.031 A 
HETATM   26  C   UNK     0      14.454  -4.008  41.972  0.00  0.00     0.051 C 
HETATM   27  C   UNK     0      16.366  -5.708  42.065  0.00  0.00    -0.027 A 
HETATM   28  C   UNK     0      13.266  -6.089  44.034  0.00  0.00     0.115 C 
HETATM   29  H   UNK     0      14.185  -7.990  46.087  0.00  0.00     0.165 HD
HETATM   30  H   UNK     0      16.900  -6.480  47.451  0.00  0.00     0.165 HD
HETATM   31  H   UNK     0      17.953  -6.698  45.448  0.00  0.00     0.165 HD
HETATM   32  H   UNK     0      15.344  -8.179  44.050  0.00  0.00     0.165 HD
ENDROOT
BRANCH   6  33
HETATM   33  C   UNK     0      13.091  -4.183  48.708  0.00  0.00     0.051 C 
BRANCH  33  34
HETATM   34  C   UNK     0      11.649  -4.213  49.157  0.00  0.00     0.114 C 
BRANCH  34  35
HETATM   35  C   UNK     0      11.577  -5.081  50.367  0.00  0.00     0.139 C 
HETATM   36  O   UNK     0      11.200  -6.285  50.266  0.00  0.00    -0.650 OA
BRANCH  35  37
HETATM   37  O   UNK     0      11.913  -4.627  51.636  0.00  0.00    -0.776 OA
HETATM   38  H   UNK     0      11.977  -5.248  52.427  0.00  0.00     0.167 HD
ENDBRANCH  35  37
ENDBRANCH  34  35
ENDBRANCH  33  34
ENDBRANCH   6  33
BRANCH  27  39
HETATM   39  C   UNK     0      17.197  -4.964  41.080  0.00  0.00     0.051 C 
BRANCH  39  40
HETATM   40  C   UNK     0      17.254  -5.460  39.705  0.00  0.00     0.114 C 
BRANCH  40  41
HETATM   41  C   UNK     0      18.401  -6.172  39.189  0.00  0.00     0.139 C 
HETATM   42  O   UNK     0      19.513  -5.650  39.026  0.00  0.00    -0.650 OA
BRANCH  41  43
HETATM   43  O   UNK     0      18.265  -7.547  38.845  0.00  0.00    -0.776 OA
HETATM   44  H   UNK     0      17.519  -7.742  38.188  0.00  0.00     0.167 HD
ENDBRANCH  41  43
ENDBRANCH  40  41
ENDBRANCH  39  40
ENDBRANCH  27  39
BRANCH  11  45
HETATM   45  C   UNK     0      17.975 -10.535  49.664  0.00  0.00     0.051 C 
BRANCH  45  46
HETATM   46  C   UNK     0      18.662 -10.342  50.967  0.00  0.00     0.114 C 
BRANCH  46  47
HETATM   47  C   UNK     0      20.113 -10.157  50.678  0.00  0.00     0.139 C 
HETATM   48  O   UNK     0      20.789 -11.151  50.379  0.00  0.00    -0.650 OA
BRANCH  47  49
HETATM   49  O   UNK     0      20.689  -8.913  50.741  0.00  0.00    -0.776 OA
HETATM   50  H   UNK     0      20.418  -8.222  51.451  0.00  0.00     0.167 HD
ENDBRANCH  47  49
ENDBRANCH  46  47
ENDBRANCH  45  46
ENDBRANCH  11  45
BRANCH  18  51
HETATM   51  C   UNK     0      19.508 -10.336  42.855  0.00  0.00     0.051 C 
BRANCH  51  52
HETATM   52  C   UNK     0      20.835  -9.840  42.301  0.00  0.00     0.114 C 
BRANCH  52  53
HETATM   53  C   UNK     0      20.824  -9.771  40.827  0.00  0.00     0.139 C 
HETATM   54  O   UNK     0      20.525  -8.710  40.256  0.00  0.00    -0.650 OA
BRANCH  53  55
HETATM   55  O   UNK     0      21.143 -10.887  40.092  0.00  0.00    -0.776 OA
HETATM   56  H   UNK     0      20.498 -11.522  39.684  0.00  0.00     0.167 HD
ENDBRANCH  53  55
ENDBRANCH  52  53
ENDBRANCH  51  52
ENDBRANCH  18  51
TORSDOF 16
ENDMDL
MODEL 12
REMARK VINA RESULT:      -7.8     29.845     32.466
REMARK  16 active torsions:
REMARK  status: ('A' for Active; 'I' for Inactive)
REMARK    1  A    between atoms: C_6  and  C_7 
REMARK    2  A    between atoms: C_7  and  C_8 
REMARK    3  A    between atoms: C_8  and  C_9 
REMARK    4  A    between atoms: C_9  and  O_11 
REMARK    5  A    between atoms: C_16  and  C_17 
REMARK    6  A    between atoms: C_17  and  C_18 
REMARK    7  A    between atoms: C_18  and  C_19 
REMARK    8  A    between atoms: C_19  and  O_21 
REMARK    9  A    between atoms: C_28  and  C_29 
REMARK   10  A    between atoms: C_29  and  C_30 
REMARK   11  A    between atoms: C_30  and  C_31 
REMARK   12  A    between atoms: C_31  and  O_33 
REMARK   13  A    between atoms: C_42  and  C_43 
REMARK   14  A    between atoms: C_43  and  C_44 
REMARK   15  A    between atoms: C_44  and  C_45 
REMARK   16  A    between atoms: C_45  and  O_47 
ROOT
HETATM    1  C   UNK     0      21.622 -11.053  58.607  0.00  0.00     0.051 C 
HETATM    2  C   UNK     0      22.716 -10.117  59.079  0.00  0.00    -0.031 A 
HETATM    3  C   UNK     0      24.091 -10.238  58.955  0.00  0.00     0.021 A 
HETATM    4  N   UNK     0      24.683  -9.177  59.554  0.00  0.00    -0.361 N 
HETATM    5  C   UNK     0      23.715  -8.378  60.048  0.00  0.00     0.022 A 
HETATM    6  C   UNK     0      22.472  -8.938  59.771  0.00  0.00    -0.027 A 
HETATM    7  C   UNK     0      23.830  -7.043  60.714  0.00  0.00     0.115 C 
HETATM    8  C   UNK     0      24.810  -6.058  60.100  0.00  0.00     0.021 A 
HETATM    9  N   UNK     0      25.109  -5.873  58.805  0.00  0.00    -0.361 N 
HETATM   10  C   UNK     0      26.099  -4.959  58.730  0.00  0.00     0.022 A 
HETATM   11  C   UNK     0      26.441  -4.537  60.011  0.00  0.00    -0.027 A 
HETATM   12  C   UNK     0      25.632  -5.225  60.879  0.00  0.00    -0.031 A 
HETATM   13  C   UNK     0      25.647  -5.084  62.385  0.00  0.00     0.051 C 
HETATM   14  C   UNK     0      26.797  -4.489  57.457  0.00  0.00     0.115 C 
HETATM   15  C   UNK     0      27.509  -5.598  56.699  0.00  0.00     0.021 A 
HETATM   16  N   UNK     0      26.973  -6.727  56.199  0.00  0.00    -0.361 N 
HETATM   17  C   UNK     0      27.943  -7.474  55.667  0.00  0.00     0.022 A 
HETATM   18  C   UNK     0      29.168  -6.796  55.819  0.00  0.00    -0.027 A 
HETATM   19  C   UNK     0      28.883  -5.621  56.466  0.00  0.00    -0.031 A 
HETATM   20  C   UNK     0      29.923  -4.567  56.798  0.00  0.00     0.051 C 
HETATM   21  C   UNK     0      27.878  -8.852  55.048  0.00  0.00     0.115 C 
HETATM   22  C   UNK     0      26.877  -9.828  55.620  0.00  0.00     0.022 A 
HETATM   23  N   UNK     0      26.556 -10.030  56.904  0.00  0.00    -0.361 N 
HETATM   24  C   UNK     0      25.515 -10.886  56.950  0.00  0.00     0.021 A 
HETATM   25  C   UNK     0      25.164 -11.251  55.665  0.00  0.00    -0.031 A 
HETATM   26  C   UNK     0      24.089 -12.216  55.208  0.00  0.00     0.051 C 
HETATM   27  C   UNK     0      26.021 -10.587  54.796  0.00  0.00    -0.027 A 
HETATM   28  C   UNK     0      24.743 -11.345  58.176  0.00  0.00     0.115 C 
HETATM   29  H   UNK     0      25.782  -9.020  59.657  0.00  0.00     0.165 HD
HETATM   30  H   UNK     0      24.588  -6.349  57.938  0.00  0.00     0.165 HD
HETATM   31  H   UNK     0      25.881  -6.980  56.178  0.00  0.00     0.165 HD
HETATM   32  H   UNK     0      27.090  -9.604  57.793  0.00  0.00     0.165 HD
ENDROOT
BRANCH   6  33
HETATM   33  C   UNK     0      21.088  -8.445  60.112  0.00  0.00     0.051 C 
BRANCH  33  34
HETATM   34  C   UNK     0      20.710  -8.843  61.519  0.00  0.00     0.114 C 
BRANCH  34  35
HETATM   35  C   UNK     0      19.338  -9.423  61.466  0.00  0.00     0.139 C 
HETATM   36  O   UNK     0      18.769  -9.812  62.527  0.00  0.00    -0.650 OA
BRANCH  35  37
HETATM   37  O   UNK     0      18.628  -9.561  60.279  0.00  0.00    -0.776 OA
HETATM   38  H   UNK     0      18.480 -10.458  59.846  0.00  0.00     0.167 HD
ENDBRANCH  35  37
ENDBRANCH  34  35
ENDBRANCH  33  34
ENDBRANCH   6  33
BRANCH  27  39
HETATM   39  C   UNK     0      25.995 -10.786  53.321  0.00  0.00     0.051 C 
BRANCH  39  40
HETATM   40  C   UNK     0      25.432  -9.724  52.488  0.00  0.00     0.114 C 
BRANCH  40  41
HETATM   41  C   UNK     0      26.111  -9.224  51.313  0.00  0.00     0.139 C 
HETATM   42  O   UNK     0      27.340  -9.091  51.240  0.00  0.00    -0.650 OA
BRANCH  41  43
HETATM   43  O   UNK     0      25.341  -8.860  50.172  0.00  0.00    -0.776 OA
HETATM   44  H   UNK     0      25.879  -8.751  49.321  0.00  0.00     0.167 HD
ENDBRANCH  41  43
ENDBRANCH  40  41
ENDBRANCH  39  40
ENDBRANCH  27  39
BRANCH  11  45
HETATM   45  C   UNK     0      27.479  -3.528  60.425  0.00  0.00     0.051 C 
BRANCH  45  46
HETATM   46  C   UNK     0      26.921  -2.205  60.805  0.00  0.00     0.114 C 
BRANCH  46  47
HETATM   47  C   UNK     0      27.311  -1.238  59.739  0.00  0.00     0.139 C 
HETATM   48  O   UNK     0      26.424  -0.762  59.018  0.00  0.00    -0.650 OA
BRANCH  47  49
HETATM   49  O   UNK     0      28.624  -0.884  59.559  0.00  0.00    -0.776 OA
HETATM   50  H   UNK     0      29.369  -1.216  60.182  0.00  0.00     0.167 HD
ENDBRANCH  47  49
ENDBRANCH  46  47
ENDBRANCH  45  46
ENDBRANCH  11  45
BRANCH  18  51
HETATM   51  C   UNK     0      30.533  -7.233  55.354  0.00  0.00     0.051 C 
BRANCH  51  52
HETATM   52  C   UNK     0      31.280  -7.692  56.598  0.00  0.00     0.114 C 
BRANCH  52  53
HETATM   53  C   UNK     0      30.863  -9.043  57.021  0.00  0.00     0.139 C 
HETATM   54  O   UNK     0      30.209  -9.193  58.066  0.00  0.00    -0.650 OA
BRANCH  53  55
HETATM   55  O   UNK     0      31.206 -10.131  56.256  0.00  0.00    -0.776 OA
HETATM   56  H   UNK     0      31.046 -10.233  55.281  0.00  0.00     0.167 HD
ENDBRANCH  53  55
ENDBRANCH  52  53
ENDBRANCH  51  52
ENDBRANCH  18  51
TORSDOF 16
ENDMDL
MODEL 13
REMARK VINA RESULT:      -7.8     29.455     31.726
REMARK  16 active torsions:
REMARK  status: ('A' for Active; 'I' for Inactive)
REMARK    1  A    between atoms: C_6  and  C_7 
REMARK    2  A    between atoms: C_7  and  C_8 
REMARK    3  A    between atoms: C_8  and  C_9 
REMARK    4  A    between atoms: C_9  and  O_11 
REMARK    5  A    between atoms: C_16  and  C_17 
REMARK    6  A    between atoms: C_17  and  C_18 
REMARK    7  A    between atoms: C_18  and  C_19 
REMARK    8  A    between atoms: C_19  and  O_21 
REMARK    9  A    between atoms: C_28  and  C_29 
REMARK   10  A    between atoms: C_29  and  C_30 
REMARK   11  A    between atoms: C_30  and  C_31 
REMARK   12  A    between atoms: C_31  and  O_33 
REMARK   13  A    between atoms: C_42  and  C_43 
REMARK   14  A    between atoms: C_43  and  C_44 
REMARK   15  A    between atoms: C_44  and  C_45 
REMARK   16  A    between atoms: C_45  and  O_47 
ROOT
HETATM    1  C   UNK     0      27.937  -2.530  59.740  0.00  0.00     0.051 C 
HETATM    2  C   UNK     0      26.770  -3.478  59.554  0.00  0.00    -0.031 A 
HETATM    3  C   UNK     0      26.310  -4.092  58.399  0.00  0.00     0.021 A 
HETATM    4  N   UNK     0      25.217  -4.833  58.698  0.00  0.00    -0.361 N 
HETATM    5  C   UNK     0      24.976  -4.713  60.020  0.00  0.00     0.022 A 
HETATM    6  C   UNK     0      25.926  -3.870  60.585  0.00  0.00    -0.027 A 
HETATM    7  C   UNK     0      23.949  -5.399  60.866  0.00  0.00     0.115 C 
HETATM    8  C   UNK     0      23.733  -6.880  60.610  0.00  0.00     0.021 A 
HETATM    9  N   UNK     0      24.638  -7.810  60.268  0.00  0.00    -0.361 N 
HETATM   10  C   UNK     0      23.985  -8.972  60.053  0.00  0.00     0.022 A 
HETATM   11  C   UNK     0      22.623  -8.787  60.271  0.00  0.00    -0.027 A 
HETATM   12  C   UNK     0      22.457  -7.471  60.622  0.00  0.00    -0.031 A 
HETATM   13  C   UNK     0      21.137  -6.816  60.959  0.00  0.00     0.051 C 
HETATM   14  C   UNK     0      24.609 -10.283  59.584  0.00  0.00     0.115 C 
HETATM   15  C   UNK     0      25.281 -10.193  58.224  0.00  0.00     0.021 A 
HETATM   16  N   UNK     0      26.288  -9.378  57.857  0.00  0.00    -0.361 N 
HETATM   17  C   UNK     0      26.546  -9.555  56.559  0.00  0.00     0.022 A 
HETATM   18  C   UNK     0      25.671 -10.540  56.058  0.00  0.00    -0.027 A 
HETATM   19  C   UNK     0      24.885 -10.932  57.111  0.00  0.00    -0.031 A 
HETATM   20  C   UNK     0      23.823 -12.012  57.014  0.00  0.00     0.051 C 
HETATM   21  C   UNK     0      27.524  -8.839  55.656  0.00  0.00     0.115 C 
HETATM   22  C   UNK     0      27.782  -7.376  55.927  0.00  0.00     0.022 A 
HETATM   23  N   UNK     0      26.900  -6.428  56.273  0.00  0.00    -0.361 N 
HETATM   24  C   UNK     0      27.582  -5.300  56.558  0.00  0.00     0.021 A 
HETATM   25  C   UNK     0      28.934  -5.524  56.381  0.00  0.00    -0.031 A 
HETATM   26  C   UNK     0      30.088  -4.556  56.538  0.00  0.00     0.051 C 
HETATM   27  C   UNK     0      29.086  -6.845  55.978  0.00  0.00    -0.027 A 
HETATM   28  C   UNK     0      27.027  -3.987  57.083  0.00  0.00     0.115 C 
HETATM   29  H   UNK     0      24.601  -5.405  57.966  0.00  0.00     0.165 HD
HETATM   30  H   UNK     0      25.745  -7.662  60.227  0.00  0.00     0.165 HD
HETATM   31  H   UNK     0      26.862  -8.697  58.539  0.00  0.00     0.165 HD
HETATM   32  H   UNK     0      25.784  -6.534  56.277  0.00  0.00     0.165 HD
ENDROOT
BRANCH   6  33
HETATM   33  C   UNK     0      26.091  -3.412  62.013  0.00  0.00     0.051 C 
BRANCH  33  34
HETATM   34  C   UNK     0      25.576  -2.003  62.185  0.00  0.00     0.114 C 
BRANCH  34  35
HETATM   35  C   UNK     0      24.169  -2.097  62.668  0.00  0.00     0.139 C 
HETATM   36  O   UNK     0      23.815  -3.052  63.418  0.00  0.00    -0.650 OA
BRANCH  35  37
HETATM   37  O   UNK     0      23.197  -1.163  62.330  0.00  0.00    -0.776 OA
HETATM   38  H   UNK     0      22.379  -1.411  61.797  0.00  0.00     0.167 HD
ENDBRANCH  35  37
ENDBRANCH  34  35
ENDBRANCH  33  34
ENDBRANCH   6  33
BRANCH  27  39
HETATM   39  C   UNK     0      30.405  -7.436  55.620  0.00  0.00     0.051 C 
BRANCH  39  40
HETATM   40  C   UNK     0      31.224  -8.003  56.691  0.00  0.00     0.114 C 
BRANCH  40  41
HETATM   41  C   UNK     0      32.423  -7.352  57.171  0.00  0.00     0.139 C 
HETATM   42  O   UNK     0      33.518  -7.427  56.598  0.00  0.00    -0.650 OA
BRANCH  41  43
HETATM   43  O   UNK     0      32.358  -6.580  58.366  0.00  0.00    -0.776 OA
HETATM   44  H   UNK     0      33.232  -6.522  58.875  0.00  0.00     0.167 HD
ENDBRANCH  41  43
ENDBRANCH  40  41
ENDBRANCH  39  40
ENDBRANCH  27  39
BRANCH  11  45
HETATM   45  C   UNK     0      21.507  -9.791  60.163  0.00  0.00     0.051 C 
BRANCH  45  46
HETATM   46  C   UNK     0      20.861  -9.837  58.826  0.00  0.00     0.114 C 
BRANCH  46  47
HETATM   47  C   UNK     0      19.422 -10.159  59.043  0.00  0.00     0.139 C 
HETATM   48  O   UNK     0      19.110 -10.850  60.023  0.00  0.00    -0.650 OA
BRANCH  47  49
HETATM   49  O   UNK     0      18.461  -9.703  58.175  0.00  0.00    -0.776 OA
HETATM   50  H   UNK     0      18.552  -9.806  57.158  0.00  0.00     0.167 HD
ENDBRANCH  47  49
ENDBRANCH  46  47
ENDBRANCH  45  46
ENDBRANCH  11  45
BRANCH  18  51
HETATM   51  C   UNK     0      25.602 -11.092  54.658  0.00  0.00     0.051 C 
BRANCH  51  52
HETATM   52  C   UNK     0      24.494 -10.326  53.952  0.00  0.00     0.114 C 
BRANCH  52  53
HETATM   53  C   UNK     0      25.032  -9.334  53.001  0.00  0.00     0.139 C 
HETATM   54  O   UNK     0      25.510  -9.707  51.918  0.00  0.00    -0.650 OA
BRANCH  53  55
HETATM   55  O   UNK     0      25.002  -7.998  53.322  0.00  0.00    -0.776 OA
HETATM   56  H   UNK     0      25.632  -7.530  53.930  0.00  0.00     0.167 HD
ENDBRANCH  53  55
ENDBRANCH  52  53
ENDBRANCH  51  52
ENDBRANCH  18  51
TORSDOF 16
ENDMDL
MODEL 14
REMARK VINA RESULT:      -7.7      7.919     13.810
REMARK  16 active torsions:
REMARK  status: ('A' for Active; 'I' for Inactive)
REMARK    1  A    between atoms: C_6  and  C_7 
REMARK    2  A    between atoms: C_7  and  C_8 
REMARK    3  A    between atoms: C_8  and  C_9 
REMARK    4  A    between atoms: C_9  and  O_11 
REMARK    5  A    between atoms: C_16  and  C_17 
REMARK    6  A    between atoms: C_17  and  C_18 
REMARK    7  A    between atoms: C_18  and  C_19 
REMARK    8  A    between atoms: C_19  and  O_21 
REMARK    9  A    between atoms: C_28  and  C_29 
REMARK   10  A    between atoms: C_29  and  C_30 
REMARK   11  A    between atoms: C_30  and  C_31 
REMARK   12  A    between atoms: C_31  and  O_33 
REMARK   13  A    between atoms: C_42  and  C_43 
REMARK   14  A    between atoms: C_43  and  C_44 
REMARK   15  A    between atoms: C_44  and  C_45 
REMARK   16  A    between atoms: C_45  and  O_47 
ROOT
HETATM    1  C   UNK     0       3.732   1.989  33.787  0.00  0.00     0.051 C 
HETATM    2  C   UNK     0       3.796   3.503  33.768  0.00  0.00    -0.031 A 
HETATM    3  C   UNK     0       4.839   4.335  33.391  0.00  0.00     0.021 A 
HETATM    4  N   UNK     0       4.460   5.623  33.565  0.00  0.00    -0.361 N 
HETATM    5  C   UNK     0       3.196   5.631  34.037  0.00  0.00     0.022 A 
HETATM    6  C   UNK     0       2.751   4.321  34.178  0.00  0.00    -0.027 A 
HETATM    7  C   UNK     0       2.288   6.790  34.306  0.00  0.00     0.115 C 
HETATM    8  C   UNK     0       2.278   7.903  33.273  0.00  0.00     0.021 A 
HETATM    9  N   UNK     0       2.399   7.807  31.940  0.00  0.00    -0.361 N 
HETATM   10  C   UNK     0       2.427   9.057  31.431  0.00  0.00     0.022 A 
HETATM   11  C   UNK     0       2.312   9.983  32.463  0.00  0.00    -0.027 A 
HETATM   12  C   UNK     0       2.217   9.262  33.627  0.00  0.00    -0.031 A 
HETATM   13  C   UNK     0       2.070   9.853  35.011  0.00  0.00     0.051 C 
HETATM   14  C   UNK     0       2.617   9.428  29.963  0.00  0.00     0.115 C 
HETATM   15  C   UNK     0       3.938   8.957  29.375  0.00  0.00     0.021 A 
HETATM   16  N   UNK     0       4.400   7.695  29.298  0.00  0.00    -0.361 N 
HETATM   17  C   UNK     0       5.629   7.709  28.778  0.00  0.00     0.022 A 
HETATM   18  C   UNK     0       5.981   9.043  28.493  0.00  0.00    -0.027 A 
HETATM   19  C   UNK     0       4.913   9.815  28.870  0.00  0.00    -0.031 A 
HETATM   20  C   UNK     0       4.859  11.322  28.700  0.00  0.00     0.051 C 
HETATM   21  C   UNK     0       6.601   6.573  28.552  0.00  0.00     0.115 C 
HETATM   22  C   UNK     0       6.592   5.438  29.548  0.00  0.00     0.022 A 
HETATM   23  N   UNK     0       6.469   5.504  30.880  0.00  0.00    -0.361 N 
HETATM   24  C   UNK     0       6.364   4.247  31.358  0.00  0.00     0.021 A 
HETATM   25  C   UNK     0       6.432   3.350  30.310  0.00  0.00    -0.031 A 
HETATM   26  C   UNK     0       6.401   1.836  30.347  0.00  0.00     0.051 C 
HETATM   27  C   UNK     0       6.578   4.089  29.141  0.00  0.00    -0.027 A 
HETATM   28  C   UNK     0       6.116   3.817  32.794  0.00  0.00     0.115 C 
HETATM   29  H   UNK     0       5.103   6.517  33.392  0.00  0.00     0.165 HD
HETATM   30  H   UNK     0       2.414   6.858  31.350  0.00  0.00     0.165 HD
HETATM   31  H   UNK     0       3.829   6.770  29.573  0.00  0.00     0.165 HD
HETATM   32  H   UNK     0       6.498   6.437  31.501  0.00  0.00     0.165 HD
ENDROOT
BRANCH   6  33
HETATM   33  C   UNK     0       1.426   3.794  34.668  0.00  0.00     0.051 C 
BRANCH  33  34
HETATM   34  C   UNK     0       1.549   3.268  36.079  0.00  0.00     0.114 C 
BRANCH  34  35
HETATM   35  C   UNK     0       0.765   4.177  36.964  0.00  0.00     0.139 C 
HETATM   36  O   UNK     0      -0.182   3.719  37.668  0.00  0.00    -0.650 OA
BRANCH  35  37
HETATM   37  O   UNK     0       1.027   5.538  37.061  0.00  0.00    -0.776 OA
HETATM   38  H   UNK     0       0.615   6.208  36.432  0.00  0.00     0.167 HD
ENDBRANCH  35  37
ENDBRANCH  34  35
ENDBRANCH  33  34
ENDBRANCH   6  33
BRANCH  27  39
HETATM   39  C   UNK     0       6.757   3.462  27.803  0.00  0.00     0.051 C 
BRANCH  39  40
HETATM   40  C   UNK     0       5.574   3.258  26.968  0.00  0.00     0.114 C 
BRANCH  40  41
HETATM   41  C   UNK     0       5.612   3.401  25.530  0.00  0.00     0.139 C 
HETATM   42  O   UNK     0       4.665   3.107  24.788  0.00  0.00    -0.650 OA
BRANCH  41  43
HETATM   43  O   UNK     0       6.794   3.904  24.916  0.00  0.00    -0.776 OA
HETATM   44  H   UNK     0       7.428   4.375  25.551  0.00  0.00     0.167 HD
ENDBRANCH  41  43
ENDBRANCH  40  41
ENDBRANCH  39  40
ENDBRANCH  27  39
BRANCH  11  45
HETATM   45  C   UNK     0       2.287  11.486  32.382  0.00  0.00     0.051 C 
BRANCH  45  46
HETATM   46  C   UNK     0       0.988  12.046  31.928  0.00  0.00     0.114 C 
BRANCH  46  47
HETATM   47  C   UNK     0       1.294  13.192  31.025  0.00  0.00     0.139 C 
HETATM   48  O   UNK     0       0.414  14.042  30.828  0.00  0.00    -0.650 OA
BRANCH  47  49
HETATM   49  O   UNK     0       2.522  13.305  30.423  0.00  0.00    -0.776 OA
HETATM   50  H   UNK     0       2.970  12.513  29.946  0.00  0.00     0.167 HD
ENDBRANCH  47  49
ENDBRANCH  46  47
ENDBRANCH  45  46
ENDBRANCH  11  45
BRANCH  18  51
HETATM   51  C   UNK     0       7.258   9.552  27.875  0.00  0.00     0.051 C 
BRANCH  51  52
HETATM   52  C   UNK     0       8.154   9.969  29.032  0.00  0.00     0.114 C 
BRANCH  52  53
HETATM   53  C   UNK     0       9.308   9.063  29.187  0.00  0.00     0.139 C 
HETATM   54  O   UNK     0      10.287   9.168  28.431  0.00  0.00    -0.650 OA
BRANCH  53  55
HETATM   55  O   UNK     0       9.290   8.102  30.169  0.00  0.00    -0.776 OA
HETATM   56  H   UNK     0       8.629   7.366  30.254  0.00  0.00     0.167 HD
ENDBRANCH  53  55
ENDBRANCH  52  53
ENDBRANCH  51  52
ENDBRANCH  18  51
TORSDOF 16
ENDMDL
MODEL 15
REMARK VINA RESULT:      -7.7     16.740     22.371
REMARK  16 active torsions:
REMARK  status: ('A' for Active; 'I' for Inactive)
REMARK    1  A    between atoms: C_6  and  C_7 
REMARK    2  A    between atoms: C_7  and  C_8 
REMARK    3  A    between atoms: C_8  and  C_9 
REMARK    4  A    between atoms: C_9  and  O_11 
REMARK    5  A    between atoms: C_16  and  C_17 
REMARK    6  A    between atoms: C_17  and  C_18 
REMARK    7  A    between atoms: C_18  and  C_19 
REMARK    8  A    between atoms: C_19  and  O_21 
REMARK    9  A    between atoms: C_28  and  C_29 
REMARK   10  A    between atoms: C_29  and  C_30 
REMARK   11  A    between atoms: C_30  and  C_31 
REMARK   12  A    between atoms: C_31  and  O_33 
REMARK   13  A    between atoms: C_42  and  C_43 
REMARK   14  A    between atoms: C_43  and  C_44 
REMARK   15  A    between atoms: C_44  and  C_45 
REMARK   16  A    between atoms: C_45  and  O_47 
ROOT
HETATM    1  C   UNK     0      14.495 -11.533  53.012  0.00  0.00     0.051 C 
HETATM    2  C   UNK     0      15.103 -11.373  51.634  0.00  0.00    -0.031 A 
HETATM    3  C   UNK     0      14.505 -10.972  50.450  0.00  0.00     0.021 A 
HETATM    4  N   UNK     0      15.426 -11.005  49.457  0.00  0.00    -0.361 N 
HETATM    5  C   UNK     0      16.599 -11.410  49.984  0.00  0.00     0.022 A 
HETATM    6  C   UNK     0      16.433 -11.652  51.344  0.00  0.00    -0.027 A 
HETATM    7  C   UNK     0      17.945 -11.523  49.338  0.00  0.00     0.115 C 
HETATM    8  C   UNK     0      18.355 -10.390  48.414  0.00  0.00     0.021 A 
HETATM    9  N   UNK     0      18.089  -9.080  48.529  0.00  0.00    -0.361 N 
HETATM   10  C   UNK     0      18.570  -8.457  47.432  0.00  0.00     0.022 A 
HETATM   11  C   UNK     0      19.171  -9.390  46.592  0.00  0.00    -0.027 A 
HETATM   12  C   UNK     0      19.039 -10.610  47.205  0.00  0.00    -0.031 A 
HETATM   13  C   UNK     0      19.550 -11.923  46.656  0.00  0.00     0.051 C 
HETATM   14  C   UNK     0      18.437  -6.971  47.108  0.00  0.00     0.115 C 
HETATM   15  C   UNK     0      16.999  -6.496  46.976  0.00  0.00     0.021 A 
HETATM   16  N   UNK     0      16.024  -6.563  47.902  0.00  0.00    -0.361 N 
HETATM   17  C   UNK     0      14.886  -6.106  47.374  0.00  0.00     0.022 A 
HETATM   18  C   UNK     0      15.134  -5.713  46.043  0.00  0.00    -0.027 A 
HETATM   19  C   UNK     0      16.461  -5.962  45.807  0.00  0.00    -0.031 A 
HETATM   20  C   UNK     0      17.158  -5.648  44.496  0.00  0.00     0.051 C 
HETATM   21  C   UNK     0      13.498  -6.036  47.968  0.00  0.00     0.115 C 
HETATM   22  C   UNK     0      13.092  -7.134  48.924  0.00  0.00     0.022 A 
HETATM   23  N   UNK     0      13.346  -8.446  48.836  0.00  0.00    -0.361 N 
HETATM   24  C   UNK     0      12.928  -9.035  49.975  0.00  0.00     0.021 A 
HETATM   25  C   UNK     0      12.381  -8.080  50.811  0.00  0.00    -0.031 A 
HETATM   26  C   UNK     0      11.745  -8.259  52.174  0.00  0.00     0.051 C 
HETATM   27  C   UNK     0      12.475  -6.855  50.160  0.00  0.00    -0.027 A 
HETATM   28  C   UNK     0      13.083 -10.490  50.380  0.00  0.00     0.115 C 
HETATM   29  H   UNK     0      15.230 -10.779  48.383  0.00  0.00     0.165 HD
HETATM   30  H   UNK     0      17.606  -8.584  49.407  0.00  0.00     0.165 HD
HETATM   31  H   UNK     0      16.150  -6.895  48.965  0.00  0.00     0.165 HD
HETATM   32  H   UNK     0      13.785  -8.976  47.951  0.00  0.00     0.165 HD
ENDROOT
BRANCH   6  33
HETATM   33  C   UNK     0      17.427 -12.124  52.374  0.00  0.00     0.051 C 
BRANCH  33  34
HETATM   34  C   UNK     0      18.157 -10.953  52.989  0.00  0.00     0.114 C 
BRANCH  34  35
HETATM   35  C   UNK     0      19.541 -10.948  52.433  0.00  0.00     0.139 C 
HETATM   36  O   UNK     0      20.153 -12.038  52.237  0.00  0.00    -0.650 OA
BRANCH  35  37
HETATM   37  O   UNK     0      20.212  -9.776  52.107  0.00  0.00    -0.776 OA
HETATM   38  H   UNK     0      19.886  -9.156  51.383  0.00  0.00     0.167 HD
ENDBRANCH  35  37
ENDBRANCH  34  35
ENDBRANCH  33  34
ENDBRANCH   6  33
BRANCH  27  39
HETATM   39  C   UNK     0      11.923  -5.594  50.724  0.00  0.00     0.051 C 
BRANCH  39  40
HETATM   40  C   UNK     0      10.643  -5.106  50.210  0.00  0.00     0.114 C 
BRANCH  40  41
HETATM   41  C   UNK     0      10.561  -4.152  49.127  0.00  0.00     0.139 C 
HETATM   42  O   UNK     0      10.095  -4.422  48.012  0.00  0.00    -0.650 OA
BRANCH  41  43
HETATM   43  O   UNK     0      11.038  -2.826  49.335  0.00  0.00    -0.776 OA
HETATM   44  H   UNK     0      11.662  -2.487  48.614  0.00  0.00     0.167 HD
ENDBRANCH  41  43
ENDBRANCH  40  41
ENDBRANCH  39  40
ENDBRANCH  27  39
BRANCH  11  45
HETATM   45  C   UNK     0      19.848  -9.166  45.267  0.00  0.00     0.051 C 
BRANCH  45  46
HETATM   46  C   UNK     0      18.919  -9.141  44.108  0.00  0.00     0.114 C 
BRANCH  46  47
HETATM   47  C   UNK     0      19.453 -10.094  43.094  0.00  0.00     0.139 C 
HETATM   48  O   UNK     0      19.078 -11.274  43.135  0.00  0.00    -0.650 OA
BRANCH  47  49
HETATM   49  O   UNK     0      20.341  -9.676  42.136  0.00  0.00    -0.776 OA
HETATM   50  H   UNK     0      20.832  -8.776  42.203  0.00  0.00     0.167 HD
ENDBRANCH  47  49
ENDBRANCH  46  47
ENDBRANCH  45  46
ENDBRANCH  11  45
BRANCH  18  51
HETATM   51  C   UNK     0      14.165  -5.114  45.058  0.00  0.00     0.051 C 
BRANCH  51  52
HETATM   52  C   UNK     0      14.303  -3.604  45.189  0.00  0.00     0.114 C 
BRANCH  52  53
HETATM   53  C   UNK     0      12.991  -2.942  45.323  0.00  0.00     0.139 C 
HETATM   54  O   UNK     0      12.516  -2.305  44.369  0.00  0.00    -0.650 OA
BRANCH  53  55
HETATM   55  O   UNK     0      12.302  -3.033  46.508  0.00  0.00    -0.776 OA
HETATM   56  H   UNK     0      11.866  -3.849  46.869  0.00  0.00     0.167 HD
ENDBRANCH  53  55
ENDBRANCH  52  53
ENDBRANCH  51  52
ENDBRANCH  18  51
TORSDOF 16
ENDMDL
MODEL 16
REMARK VINA RESULT:      -7.7     16.918     22.938
REMARK  16 active torsions:
REMARK  status: ('A' for Active; 'I' for Inactive)
REMARK    1  A    between atoms: C_6  and  C_7 
REMARK    2  A    between atoms: C_7  and  C_8 
REMARK    3  A    between atoms: C_8  and  C_9 
REMARK    4  A    between atoms: C_9  and  O_11 
REMARK    5  A    between atoms: C_16  and  C_17 
REMARK    6  A    between atoms: C_17  and  C_18 
REMARK    7  A    between atoms: C_18  and  C_19 
REMARK    8  A    between atoms: C_19  and  O_21 
REMARK    9  A    between atoms: C_28  and  C_29 
REMARK   10  A    between atoms: C_29  and  C_30 
REMARK   11  A    between atoms: C_30  and  C_31 
REMARK   12  A    between atoms: C_31  and  O_33 
REMARK   13  A    between atoms: C_42  and  C_43 
REMARK   14  A    between atoms: C_43  and  C_44 
REMARK   15  A    between atoms: C_44  and  C_45 
REMARK   16  A    between atoms: C_45  and  O_47 
ROOT
HETATM    1  C   UNK     0      19.753  -9.492  45.696  0.00  0.00     0.051 C 
HETATM    2  C   UNK     0      19.082  -9.605  47.050  0.00  0.00    -0.031 A 
HETATM    3  C   UNK     0      18.569  -8.608  47.864  0.00  0.00     0.021 A 
HETATM    4  N   UNK     0      18.091  -9.168  49.000  0.00  0.00    -0.361 N 
HETATM    5  C   UNK     0      18.280 -10.501  48.924  0.00  0.00     0.022 A 
HETATM    6  C   UNK     0      18.901 -10.809  47.718  0.00  0.00    -0.027 A 
HETATM    7  C   UNK     0      17.849 -11.579  49.869  0.00  0.00     0.115 C 
HETATM    8  C   UNK     0      16.449 -11.462  50.444  0.00  0.00     0.021 A 
HETATM    9  N   UNK     0      15.337 -10.999  49.851  0.00  0.00    -0.361 N 
HETATM   10  C   UNK     0      14.345 -10.992  50.766  0.00  0.00     0.022 A 
HETATM   11  C   UNK     0      14.829 -11.473  51.980  0.00  0.00    -0.027 A 
HETATM   12  C   UNK     0      16.153 -11.770  51.784  0.00  0.00    -0.031 A 
HETATM   13  C   UNK     0      17.088 -12.329  52.833  0.00  0.00     0.051 C 
HETATM   14  C   UNK     0      12.922 -10.485  50.549  0.00  0.00     0.115 C 
HETATM   15  C   UNK     0      12.843  -9.013  50.178  0.00  0.00     0.021 A 
HETATM   16  N   UNK     0      13.411  -8.400  49.123  0.00  0.00    -0.361 N 
HETATM   17  C   UNK     0      13.163  -7.091  49.191  0.00  0.00     0.022 A 
HETATM   18  C   UNK     0      12.389  -6.839  50.340  0.00  0.00    -0.027 A 
HETATM   19  C   UNK     0      12.194  -8.052  50.949  0.00  0.00    -0.031 A 
HETATM   20  C   UNK     0      11.374  -8.239  52.212  0.00  0.00     0.051 C 
HETATM   21  C   UNK     0      13.633  -5.965  48.297  0.00  0.00     0.115 C 
HETATM   22  C   UNK     0      15.008  -6.089  47.683  0.00  0.00     0.022 A 
HETATM   23  N   UNK     0      16.131  -6.550  48.249  0.00  0.00    -0.361 N 
HETATM   24  C   UNK     0      17.085  -6.621  47.299  0.00  0.00     0.021 A 
HETATM   25  C   UNK     0      16.567  -6.186  46.094  0.00  0.00    -0.031 A 
HETATM   26  C   UNK     0      17.258  -6.045  44.754  0.00  0.00     0.051 C 
HETATM   27  C   UNK     0      15.239  -5.840  46.315  0.00  0.00    -0.027 A 
HETATM   28  C   UNK     0      18.496  -7.169  47.437  0.00  0.00     0.115 C 
HETATM   29  H   UNK     0      17.659  -8.613  49.865  0.00  0.00     0.165 HD
HETATM   30  H   UNK     0      15.237 -10.724  48.772  0.00  0.00     0.165 HD
HETATM   31  H   UNK     0      13.958  -8.908  48.286  0.00  0.00     0.165 HD
HETATM   32  H   UNK     0      16.273  -6.789  49.335  0.00  0.00     0.165 HD
ENDROOT
BRANCH   6  33
HETATM   33  C   UNK     0      19.331 -12.142  47.161  0.00  0.00     0.051 C 
BRANCH  33  34
HETATM   34  C   UNK     0      20.778 -12.419  47.492  0.00  0.00     0.114 C 
BRANCH  34  35
HETATM   35  C   UNK     0      20.800 -13.419  48.598  0.00  0.00     0.139 C 
HETATM   36  O   UNK     0      21.034 -13.050  49.786  0.00  0.00    -0.650 OA
BRANCH  35  37
HETATM   37  O   UNK     0      20.568 -14.773  48.389  0.00  0.00    -0.776 OA
HETATM   38  H   UNK     0      19.873 -15.283  48.909  0.00  0.00     0.167 HD
ENDBRANCH  35  37
ENDBRANCH  34  35
ENDBRANCH  33  34
ENDBRANCH   6  33
BRANCH  27  39
HETATM   39  C   UNK     0      14.367  -5.257  45.259  0.00  0.00     0.051 C 
BRANCH  39  40
HETATM   40  C   UNK     0      14.336  -3.803  45.109  0.00  0.00     0.114 C 
BRANCH  40  41
HETATM   41  C   UNK     0      13.133  -3.031  45.325  0.00  0.00     0.139 C 
HETATM   42  O   UNK     0      12.616  -2.314  44.457  0.00  0.00    -0.650 OA
BRANCH  41  43
HETATM   43  O   UNK     0      12.496  -3.086  46.597  0.00  0.00    -0.776 OA
HETATM   44  H   UNK     0      12.785  -2.361  47.242  0.00  0.00     0.167 HD
ENDBRANCH  41  43
ENDBRANCH  40  41
ENDBRANCH  39  40
ENDBRANCH  27  39
BRANCH  11  45
HETATM   45  C   UNK     0      14.093 -11.655  53.280  0.00  0.00     0.051 C 
BRANCH  45  46
HETATM   46  C   UNK     0      13.588 -10.390  53.873  0.00  0.00     0.114 C 
BRANCH  46  47
HETATM   47  C   UNK     0      13.897 -10.432  55.331  0.00  0.00     0.139 C 
HETATM   48  O   UNK     0      13.190  -9.772  56.105  0.00  0.00    -0.650 OA
BRANCH  47  49
HETATM   49  O   UNK     0      14.941 -11.183  55.807  0.00  0.00    -0.776 OA
HETATM   50  H   UNK     0      15.449 -10.930  56.663  0.00  0.00     0.167 HD
ENDBRANCH  47  49
ENDBRANCH  46  47
ENDBRANCH  45  46
ENDBRANCH  11  45
BRANCH  18  51
HETATM   51  C   UNK     0      11.846  -5.518  50.821  0.00  0.00     0.051 C 
BRANCH  51  52
HETATM   52  C   UNK     0      10.537  -5.299  50.076  0.00  0.00     0.114 C 
BRANCH  52  53
HETATM   53  C   UNK     0      10.611  -4.142  49.164  0.00  0.00     0.139 C 
HETATM   54  O   UNK     0      10.028  -4.176  48.068  0.00  0.00    -0.650 OA
BRANCH  53  55
HETATM   55  O   UNK     0      11.330  -3.031  49.532  0.00  0.00    -0.776 OA
HETATM   56  H   UNK     0      12.300  -2.886  49.380  0.00  0.00     0.167 HD
ENDBRANCH  53  55
ENDBRANCH  52  53
ENDBRANCH  51  52
ENDBRANCH  18  51
TORSDOF 16
ENDMDL
MODEL 17
REMARK VINA RESULT:      -7.7     16.740     19.589
REMARK  16 active torsions:
REMARK  status: ('A' for Active; 'I' for Inactive)
REMARK    1  A    between atoms: C_6  and  C_7 
REMARK    2  A    between atoms: C_7  and  C_8 
REMARK    3  A    between atoms: C_8  and  C_9 
REMARK    4  A    between atoms: C_9  and  O_11 
REMARK    5  A    between atoms: C_16  and  C_17 
REMARK    6  A    between atoms: C_17  and  C_18 
REMARK    7  A    between atoms: C_18  and  C_19 
REMARK    8  A    between atoms: C_19  and  O_21 
REMARK    9  A    between atoms: C_28  and  C_29 
REMARK   10  A    between atoms: C_29  and  C_30 
REMARK   11  A    between atoms: C_30  and  C_31 
REMARK   12  A    between atoms: C_31  and  O_33 
REMARK   13  A    between atoms: C_42  and  C_43 
REMARK   14  A    between atoms: C_43  and  C_44 
REMARK   15  A    between atoms: C_44  and  C_45 
REMARK   16  A    between atoms: C_45  and  O_47 
ROOT
HETATM    1  C   UNK     0      18.079  21.530  36.509  0.00  0.00     0.051 C 
HETATM    2  C   UNK     0      16.906  20.686  36.056  0.00  0.00    -0.031 A 
HETATM    3  C   UNK     0      16.470  20.401  34.771  0.00  0.00     0.021 A 
HETATM    4  N   UNK     0      15.360  19.629  34.842  0.00  0.00    -0.361 N 
HETATM    5  C   UNK     0      15.083  19.408  36.144  0.00  0.00     0.022 A 
HETATM    6  C   UNK     0      16.029  20.057  36.931  0.00  0.00    -0.027 A 
HETATM    7  C   UNK     0      14.024  18.547  36.759  0.00  0.00     0.115 C 
HETATM    8  C   UNK     0      13.797  17.188  36.123  0.00  0.00     0.021 A 
HETATM    9  N   UNK     0      14.699  16.360  35.573  0.00  0.00    -0.361 N 
HETATM   10  C   UNK     0      14.037  15.307  35.049  0.00  0.00     0.022 A 
HETATM   11  C   UNK     0      12.672  15.456  35.275  0.00  0.00    -0.027 A 
HETATM   12  C   UNK     0      12.513  16.638  35.952  0.00  0.00    -0.031 A 
HETATM   13  C   UNK     0      11.192  17.210  36.415  0.00  0.00     0.051 C 
HETATM   14  C   UNK     0      14.656  14.150  34.271  0.00  0.00     0.115 C 
HETATM   15  C   UNK     0      15.367  14.575  32.996  0.00  0.00     0.021 A 
HETATM   16  N   UNK     0      16.394  15.437  32.877  0.00  0.00    -0.361 N 
HETATM   17  C   UNK     0      16.685  15.597  31.584  0.00  0.00     0.022 A 
HETATM   18  C   UNK     0      15.812  14.793  30.825  0.00  0.00    -0.027 A 
HETATM   19  C   UNK     0      14.992  14.157  31.721  0.00  0.00    -0.031 A 
HETATM   20  C   UNK     0      13.919  13.161  31.323  0.00  0.00     0.051 C 
HETATM   21  C   UNK     0      17.697  16.503  30.920  0.00  0.00     0.115 C 
HETATM   22  C   UNK     0      17.966  17.841  31.568  0.00  0.00     0.022 A 
HETATM   23  N   UNK     0      17.088  18.684  32.126  0.00  0.00    -0.361 N 
HETATM   24  C   UNK     0      17.776  19.686  32.710  0.00  0.00     0.021 A 
HETATM   25  C   UNK     0      19.130  19.489  32.513  0.00  0.00    -0.031 A 
HETATM   26  C   UNK     0      20.292  20.360  32.942  0.00  0.00     0.051 C 
HETATM   27  C   UNK     0      19.276  18.314  31.785  0.00  0.00    -0.027 A 
HETATM   28  C   UNK     0      17.225  20.829  33.544  0.00  0.00     0.115 C 
HETATM   29  H   UNK     0      14.757  19.279  33.973  0.00  0.00     0.165 HD
HETATM   30  H   UNK     0      15.808  16.492  35.597  0.00  0.00     0.165 HD
HETATM   31  H   UNK     0      16.957  15.907  33.725  0.00  0.00     0.165 HD
HETATM   32  H   UNK     0      15.971  18.602  32.077  0.00  0.00     0.165 HD
ENDROOT
BRANCH   6  33
HETATM   33  C   UNK     0      16.159  20.126  38.431  0.00  0.00     0.051 C 
BRANCH  33  34
HETATM   34  C   UNK     0      16.761  18.852  38.976  0.00  0.00     0.114 C 
BRANCH  34  35
HETATM   35  C   UNK     0      17.713  19.235  40.057  0.00  0.00     0.139 C 
HETATM   36  O   UNK     0      17.330  19.266  41.263  0.00  0.00    -0.650 OA
BRANCH  35  37
HETATM   37  O   UNK     0      19.039  19.566  39.805  0.00  0.00    -0.776 OA
HETATM   38  H   UNK     0      19.426  19.552  38.876  0.00  0.00     0.167 HD
ENDBRANCH  35  37
ENDBRANCH  34  35
ENDBRANCH  33  34
ENDBRANCH   6  33
BRANCH  27  39
HETATM   39  C   UNK     0      20.596  17.810  31.317  0.00  0.00     0.051 C 
BRANCH  39  40
HETATM   40  C   UNK     0      20.953  17.998  29.911  0.00  0.00     0.114 C 
BRANCH  40  41
HETATM   41  C   UNK     0      22.111  17.367  29.319  0.00  0.00     0.139 C 
HETATM   42  O   UNK     0      22.341  16.152  29.393  0.00  0.00    -0.650 OA
BRANCH  41  43
HETATM   43  O   UNK     0      23.048  18.170  28.610  0.00  0.00    -0.776 OA
HETATM   44  H   UNK     0      24.015  17.898  28.738  0.00  0.00     0.167 HD
ENDBRANCH  41  43
ENDBRANCH  40  41
ENDBRANCH  39  40
ENDBRANCH  27  39
BRANCH  11  45
HETATM   45  C   UNK     0      11.546  14.536  34.884  0.00  0.00     0.051 C 
BRANCH  45  46
HETATM   46  C   UNK     0      11.492  13.276  35.669  0.00  0.00     0.114 C 
BRANCH  46  47
HETATM   47  C   UNK     0      10.254  13.325  36.498  0.00  0.00     0.139 C 
HETATM   48  O   UNK     0       9.388  14.166  36.220  0.00  0.00    -0.650 OA
BRANCH  47  49
HETATM   49  O   UNK     0      10.077  12.460  37.548  0.00  0.00    -0.776 OA
HETATM   50  H   UNK     0       9.238  12.485  38.140  0.00  0.00     0.167 HD
ENDBRANCH  47  49
ENDBRANCH  46  47
ENDBRANCH  45  46
ENDBRANCH  11  45
BRANCH  18  51
HETATM   51  C   UNK     0      15.775  14.624  29.328  0.00  0.00     0.051 C 
BRANCH  51  52
HETATM   52  C   UNK     0      14.642  15.507  28.827  0.00  0.00     0.114 C 
BRANCH  52  53
HETATM   53  C   UNK     0      15.103  16.879  28.536  0.00  0.00     0.139 C 
HETATM   54  O   UNK     0      15.799  17.101  27.532  0.00  0.00    -0.650 OA
BRANCH  53  55
HETATM   55  O   UNK     0      14.760  17.905  29.382  0.00  0.00    -0.776 OA
HETATM   56  H   UNK     0      15.088  18.840  29.329  0.00  0.00     0.167 HD
ENDBRANCH  53  55
ENDBRANCH  52  53
ENDBRANCH  51  52
ENDBRANCH  18  51
TORSDOF 16
ENDMDL
MODEL 18
REMARK VINA RESULT:      -7.6      9.027     14.687
REMARK  16 active torsions:
REMARK  status: ('A' for Active; 'I' for Inactive)
REMARK    1  A    between atoms: C_6  and  C_7 
REMARK    2  A    between atoms: C_7  and  C_8 
REMARK    3  A    between atoms: C_8  and  C_9 
REMARK    4  A    between atoms: C_9  and  O_11 
REMARK    5  A    between atoms: C_16  and  C_17 
REMARK    6  A    between atoms: C_17  and  C_18 
REMARK    7  A    between atoms: C_18  and  C_19 
REMARK    8  A    between atoms: C_19  and  O_21 
REMARK    9  A    between atoms: C_28  and  C_29 
REMARK   10  A    between atoms: C_29  and  C_30 
REMARK   11  A    between atoms: C_30  and  C_31 
REMARK   12  A    between atoms: C_31  and  O_33 
REMARK   13  A    between atoms: C_42  and  C_43 
REMARK   14  A    between atoms: C_43  and  C_44 
REMARK   15  A    between atoms: C_44  and  C_45 
REMARK   16  A    between atoms: C_45  and  O_47 
ROOT
HETATM    1  C   UNK     0       3.970   3.973  33.672  0.00  0.00     0.051 C 
HETATM    2  C   UNK     0       4.010   5.420  33.226  0.00  0.00    -0.031 A 
HETATM    3  C   UNK     0       5.038   6.126  32.620  0.00  0.00     0.021 A 
HETATM    4  N   UNK     0       4.641   7.407  32.429  0.00  0.00    -0.361 N 
HETATM    5  C   UNK     0       3.380   7.530  32.893  0.00  0.00     0.022 A 
HETATM    6  C   UNK     0       2.956   6.307  33.401  0.00  0.00    -0.027 A 
HETATM    7  C   UNK     0       2.456   8.706  32.835  0.00  0.00     0.115 C 
HETATM    8  C   UNK     0       2.422   9.483  31.531  0.00  0.00     0.021 A 
HETATM    9  N   UNK     0       2.536   9.018  30.277  0.00  0.00    -0.361 N 
HETATM   10  C   UNK     0       2.542  10.074  29.437  0.00  0.00     0.022 A 
HETATM   11  C   UNK     0       2.419  11.252  30.168  0.00  0.00    -0.027 A 
HETATM   12  C   UNK     0       2.342  10.887  31.488  0.00  0.00    -0.031 A 
HETATM   13  C   UNK     0       2.195  11.841  32.652  0.00  0.00     0.051 C 
HETATM   14  C   UNK     0       2.717  10.020  27.922  0.00  0.00     0.115 C 
HETATM   15  C   UNK     0       4.041   9.420  27.476  0.00  0.00     0.021 A 
HETATM   16  N   UNK     0       4.522   8.194  27.753  0.00  0.00    -0.361 N 
HETATM   17  C   UNK     0       5.748   8.076  27.237  0.00  0.00     0.022 A 
HETATM   18  C   UNK     0       6.078   9.281  26.585  0.00  0.00    -0.027 A 
HETATM   19  C   UNK     0       5.000  10.114  26.740  0.00  0.00    -0.031 A 
HETATM   20  C   UNK     0       4.922  11.512  26.154  0.00  0.00     0.051 C 
HETATM   21  C   UNK     0       6.736   6.936  27.329  0.00  0.00     0.115 C 
HETATM   22  C   UNK     0       6.750   6.126  28.605  0.00  0.00     0.022 A 
HETATM   23  N   UNK     0       6.634   6.562  29.866  0.00  0.00    -0.361 N 
HETATM   24  C   UNK     0       6.552   5.490  30.679  0.00  0.00     0.021 A 
HETATM   25  C   UNK     0       6.627   4.335  29.924  0.00  0.00    -0.031 A 
HETATM   26  C   UNK     0       6.620   2.893  30.385  0.00  0.00     0.051 C 
HETATM   27  C   UNK     0       6.754   4.717  28.593  0.00  0.00    -0.027 A 
HETATM   28  C   UNK     0       6.320   5.477  32.180  0.00  0.00     0.115 C 
HETATM   29  H   UNK     0       5.269   8.224  32.005  0.00  0.00     0.165 HD
HETATM   30  H   UNK     0       2.562   7.941  29.978  0.00  0.00     0.165 HD
HETATM   31  H   UNK     0       3.967   7.376  28.282  0.00  0.00     0.165 HD
HETATM   32  H   UNK     0       6.653   7.633  30.199  0.00  0.00     0.165 HD
ENDROOT
BRANCH   6  33
HETATM   33  C   UNK     0       1.642   5.922  34.033  0.00  0.00     0.051 C 
BRANCH  33  34
HETATM   34  C   UNK     0       1.615   6.316  35.491  0.00  0.00     0.114 C 
BRANCH  34  35
HETATM   35  C   UNK     0       1.188   5.118  36.269  0.00  0.00     0.139 C 
HETATM   36  O   UNK     0       1.117   3.986  35.708  0.00  0.00    -0.650 OA
BRANCH  35  37
HETATM   37  O   UNK     0       0.858   5.178  37.618  0.00  0.00    -0.776 OA
HETATM   38  H   UNK     0       1.513   5.494  38.315  0.00  0.00     0.167 HD
ENDBRANCH  35  37
ENDBRANCH  34  35
ENDBRANCH  33  34
ENDBRANCH   6  33
BRANCH  27  39
HETATM   39  C   UNK     0       6.935   3.741  27.484  0.00  0.00     0.051 C 
BRANCH  39  40
HETATM   40  C   UNK     0       5.757   3.334  26.720  0.00  0.00     0.114 C 
BRANCH  40  41
HETATM   41  C   UNK     0       5.584   3.681  25.327  0.00  0.00     0.139 C 
HETATM   42  O   UNK     0       6.358   4.422  24.706  0.00  0.00    -0.650 OA
BRANCH  41  43
HETATM   43  O   UNK     0       4.469   3.151  24.616  0.00  0.00    -0.776 OA
HETATM   44  H   UNK     0       3.660   3.760  24.593  0.00  0.00     0.167 HD
ENDBRANCH  41  43
ENDBRANCH  40  41
ENDBRANCH  39  40
ENDBRANCH  27  39
BRANCH  11  45
HETATM   45  C   UNK     0       2.370  12.671  29.668  0.00  0.00     0.051 C 
BRANCH  45  46
HETATM   46  C   UNK     0       0.997  13.181  29.427  0.00  0.00     0.114 C 
BRANCH  46  47
HETATM   47  C   UNK     0       0.984  14.618  29.825  0.00  0.00     0.139 C 
HETATM   48  O   UNK     0       1.673  14.971  30.792  0.00  0.00    -0.650 OA
BRANCH  47  49
HETATM   49  O   UNK     0       0.224  15.531  29.138  0.00  0.00    -0.776 OA
HETATM   50  H   UNK     0      -0.547  15.245  28.523  0.00  0.00     0.167 HD
ENDBRANCH  47  49
ENDBRANCH  46  47
ENDBRANCH  45  46
ENDBRANCH  11  45
BRANCH  18  51
HETATM   51  C   UNK     0       7.342   9.612  25.836  0.00  0.00     0.051 C 
BRANCH  51  52
HETATM   52  C   UNK     0       8.192  10.447  26.783  0.00  0.00     0.114 C 
BRANCH  52  53
HETATM   53  C   UNK     0       9.287   9.657  27.379  0.00  0.00     0.139 C 
HETATM   54  O   UNK     0       9.134   9.124  28.490  0.00  0.00    -0.650 OA
BRANCH  53  55
HETATM   55  O   UNK     0      10.473   9.518  26.701  0.00  0.00    -0.776 OA
HETATM   56  H   UNK     0      10.716   8.769  26.097  0.00  0.00     0.167 HD
ENDBRANCH  53  55
ENDBRANCH  52  53
ENDBRANCH  51  52
ENDBRANCH  18  51
TORSDOF 16
ENDMDL
MODEL 19
REMARK VINA RESULT:      -7.6     16.065     20.502
REMARK  16 active torsions:
REMARK  status: ('A' for Active; 'I' for Inactive)
REMARK    1  A    between atoms: C_6  and  C_7 
REMARK    2  A    between atoms: C_7  and  C_8 
REMARK    3  A    between atoms: C_8  and  C_9 
REMARK    4  A    between atoms: C_9  and  O_11 
REMARK    5  A    between atoms: C_16  and  C_17 
REMARK    6  A    between atoms: C_17  and  C_18 
REMARK    7  A    between atoms: C_18  and  C_19 
REMARK    8  A    between atoms: C_19  and  O_21 
REMARK    9  A    between atoms: C_28  and  C_29 
REMARK   10  A    between atoms: C_29  and  C_30 
REMARK   11  A    between atoms: C_30  and  C_31 
REMARK   12  A    between atoms: C_31  and  O_33 
REMARK   13  A    between atoms: C_42  and  C_43 
REMARK   14  A    between atoms: C_43  and  C_44 
REMARK   15  A    between atoms: C_44  and  C_45 
REMARK   16  A    between atoms: C_45  and  O_47 
ROOT
HETATM    1  C   UNK     0      20.677  -9.735  41.347  0.00  0.00     0.051 C 
HETATM    2  C   UNK     0      19.333  -9.036  41.384  0.00  0.00    -0.031 A 
HETATM    3  C   UNK     0      18.248  -9.258  42.217  0.00  0.00     0.021 A 
HETATM    4  N   UNK     0      17.245  -8.417  41.870  0.00  0.00    -0.361 N 
HETATM    5  C   UNK     0      17.670  -7.658  40.838  0.00  0.00     0.022 A 
HETATM    6  C   UNK     0      18.972  -8.021  40.507  0.00  0.00    -0.027 A 
HETATM    7  C   UNK     0      16.986  -6.520  40.149  0.00  0.00     0.115 C 
HETATM    8  C   UNK     0      16.261  -5.522  41.035  0.00  0.00     0.021 A 
HETATM    9  N   UNK     0      16.604  -5.085  42.257  0.00  0.00    -0.361 N 
HETATM   10  C   UNK     0      15.620  -4.277  42.705  0.00  0.00     0.022 A 
HETATM   11  C   UNK     0      14.620  -4.183  41.741  0.00  0.00    -0.027 A 
HETATM   12  C   UNK     0      15.018  -4.965  40.687  0.00  0.00    -0.031 A 
HETATM   13  C   UNK     0      14.241  -5.162  39.404  0.00  0.00     0.051 C 
HETATM   14  C   UNK     0      15.559  -3.606  44.074  0.00  0.00     0.115 C 
HETATM   15  C   UNK     0      15.540  -4.583  45.238  0.00  0.00     0.021 A 
HETATM   16  N   UNK     0      16.461  -5.517  45.541  0.00  0.00    -0.361 N 
HETATM   17  C   UNK     0      16.044  -6.218  46.598  0.00  0.00     0.022 A 
HETATM   18  C   UNK     0      14.796  -5.711  47.009  0.00  0.00    -0.027 A 
HETATM   19  C   UNK     0      14.492  -4.686  46.150  0.00  0.00    -0.031 A 
HETATM   20  C   UNK     0      13.239  -3.836  46.260  0.00  0.00     0.051 C 
HETATM   21  C   UNK     0      16.671  -7.412  47.281  0.00  0.00     0.115 C 
HETATM   22  C   UNK     0      17.433  -8.390  46.417  0.00  0.00     0.022 A 
HETATM   23  N   UNK     0      17.117  -8.839  45.195  0.00  0.00    -0.361 N 
HETATM   24  C   UNK     0      18.146  -9.580  44.737  0.00  0.00     0.021 A 
HETATM   25  C   UNK     0      19.145  -9.617  45.691  0.00  0.00    -0.031 A 
HETATM   26  C   UNK     0      20.470 -10.349  45.656  0.00  0.00     0.051 C 
HETATM   27  C   UNK     0      18.712  -8.862  46.776  0.00  0.00    -0.027 A 
HETATM   28  C   UNK     0      18.292 -10.222  43.369  0.00  0.00     0.115 C 
HETATM   29  H   UNK     0      16.230  -8.393  42.329  0.00  0.00     0.165 HD
HETATM   30  H   UNK     0      17.564  -5.306  42.785  0.00  0.00     0.165 HD
HETATM   31  H   UNK     0      17.449  -5.654  45.029  0.00  0.00     0.165 HD
HETATM   32  H   UNK     0      16.145  -8.673  44.662  0.00  0.00     0.165 HD
ENDROOT
BRANCH   6  33
HETATM   33  C   UNK     0      19.884  -7.485  39.433  0.00  0.00     0.051 C 
BRANCH  33  34
HETATM   34  C   UNK     0      19.595  -8.146  38.106  0.00  0.00     0.114 C 
BRANCH  34  35
HETATM   35  C   UNK     0      20.316  -7.371  37.055  0.00  0.00     0.139 C 
HETATM   36  O   UNK     0      20.650  -7.929  35.970  0.00  0.00    -0.650 OA
BRANCH  35  37
HETATM   37  O   UNK     0      20.647  -6.030  37.208  0.00  0.00    -0.776 OA
HETATM   38  H   UNK     0      21.509  -5.738  37.637  0.00  0.00     0.167 HD
ENDBRANCH  35  37
ENDBRANCH  34  35
ENDBRANCH  33  34
ENDBRANCH   6  33
BRANCH  27  39
HETATM   39  C   UNK     0      19.495  -8.727  48.034  0.00  0.00     0.051 C 
BRANCH  39  40
HETATM   40  C   UNK     0      20.738  -7.957  47.998  0.00  0.00     0.114 C 
BRANCH  40  41
HETATM   41  C   UNK     0      21.262  -7.287  49.167  0.00  0.00     0.139 C 
HETATM   42  O   UNK     0      21.578  -7.876  50.209  0.00  0.00    -0.650 OA
BRANCH  41  43
HETATM   43  O   UNK     0      21.431  -5.873  49.135  0.00  0.00    -0.776 OA
HETATM   44  H   UNK     0      21.837  -5.480  49.975  0.00  0.00     0.167 HD
ENDBRANCH  41  43
ENDBRANCH  40  41
ENDBRANCH  39  40
ENDBRANCH  27  39
BRANCH  11  45
HETATM   45  C   UNK     0      13.339  -3.395  41.788  0.00  0.00     0.051 C 
BRANCH  45  46
HETATM   46  C   UNK     0      12.238  -4.071  42.520  0.00  0.00     0.114 C 
BRANCH  46  47
HETATM   47  C   UNK     0      11.391  -3.005  43.128  0.00  0.00     0.139 C 
HETATM   48  O   UNK     0      11.947  -1.999  43.590  0.00  0.00    -0.650 OA
BRANCH  47  49
HETATM   49  O   UNK     0      10.026  -3.134  43.177  0.00  0.00    -0.776 OA
HETATM   50  H   UNK     0       9.557  -3.691  43.900  0.00  0.00     0.167 HD
ENDBRANCH  47  49
ENDBRANCH  46  47
ENDBRANCH  45  46
ENDBRANCH  11  45
BRANCH  18  51
HETATM   51  C   UNK     0      13.948  -6.163  48.170  0.00  0.00     0.051 C 
BRANCH  51  52
HETATM   52  C   UNK     0      14.082  -5.089  49.239  0.00  0.00     0.114 C 
BRANCH  52  53
HETATM   53  C   UNK     0      12.767  -4.649  49.743  0.00  0.00     0.139 C 
HETATM   54  O   UNK     0      11.727  -5.142  49.280  0.00  0.00    -0.650 OA
BRANCH  53  55
HETATM   55  O   UNK     0      12.702  -3.688  50.723  0.00  0.00    -0.776 OA
HETATM   56  H   UNK     0      13.426  -3.456  51.362  0.00  0.00     0.167 HD
ENDBRANCH  53  55
ENDBRANCH  52  53
ENDBRANCH  51  52
ENDBRANCH  18  51
TORSDOF 16
ENDMDL
MODEL 20
REMARK VINA RESULT:      -7.6     15.891     19.350
REMARK  16 active torsions:
REMARK  status: ('A' for Active; 'I' for Inactive)
REMARK    1  A    between atoms: C_6  and  C_7 
REMARK    2  A    between atoms: C_7  and  C_8 
REMARK    3  A    between atoms: C_8  and  C_9 
REMARK    4  A    between atoms: C_9  and  O_11 
REMARK    5  A    between atoms: C_16  and  C_17 
REMARK    6  A    between atoms: C_17  and  C_18 
REMARK    7  A    between atoms: C_18  and  C_19 
REMARK    8  A    between atoms: C_19  and  O_21 
REMARK    9  A    between atoms: C_28  and  C_29 
REMARK   10  A    between atoms: C_29  and  C_30 
REMARK   11  A    between atoms: C_30  and  C_31 
REMARK   12  A    between atoms: C_31  and  O_33 
REMARK   13  A    between atoms: C_42  and  C_43 
REMARK   14  A    between atoms: C_43  and  C_44 
REMARK   15  A    between atoms: C_44  and  C_45 
REMARK   16  A    between atoms: C_45  and  O_47 
ROOT
HETATM    1  C   UNK     0      18.461  14.727  30.019  0.00  0.00     0.051 C 
HETATM    2  C   UNK     0      17.853  15.924  30.721  0.00  0.00    -0.031 A 
HETATM    3  C   UNK     0      16.521  16.275  30.866  0.00  0.00     0.021 A 
HETATM    4  N   UNK     0      16.444  17.446  31.542  0.00  0.00    -0.361 N 
HETATM    5  C   UNK     0      17.698  17.843  31.839  0.00  0.00     0.022 A 
HETATM    6  C   UNK     0      18.605  16.915  31.338  0.00  0.00    -0.027 A 
HETATM    7  C   UNK     0      18.159  19.014  32.651  0.00  0.00     0.115 C 
HETATM    8  C   UNK     0      17.395  19.298  33.932  0.00  0.00     0.021 A 
HETATM    9  N   UNK     0      16.845  18.423  34.789  0.00  0.00    -0.361 N 
HETATM   10  C   UNK     0      16.187  19.123  35.737  0.00  0.00     0.022 A 
HETATM   11  C   UNK     0      16.324  20.486  35.489  0.00  0.00    -0.027 A 
HETATM   12  C   UNK     0      17.084  20.603  34.354  0.00  0.00    -0.031 A 
HETATM   13  C   UNK     0      17.495  21.907  33.708  0.00  0.00     0.051 C 
HETATM   14  C   UNK     0      15.361  18.537  36.880  0.00  0.00     0.115 C 
HETATM   15  C   UNK     0      14.183  17.695  36.418  0.00  0.00     0.021 A 
HETATM   16  N   UNK     0      14.213  16.596  35.642  0.00  0.00    -0.361 N 
HETATM   17  C   UNK     0      12.964  16.190  35.407  0.00  0.00     0.022 A 
HETATM   18  C   UNK     0      12.077  17.060  36.071  0.00  0.00    -0.027 A 
HETATM   19  C   UNK     0      12.853  17.997  36.702  0.00  0.00    -0.031 A 
HETATM   20  C   UNK     0      12.294  19.112  37.568  0.00  0.00     0.051 C 
HETATM   21  C   UNK     0      12.455  15.058  34.543  0.00  0.00     0.115 C 
HETATM   22  C   UNK     0      13.231  14.736  33.288  0.00  0.00     0.022 A 
HETATM   23  N   UNK     0      13.793  15.586  32.418  0.00  0.00    -0.361 N 
HETATM   24  C   UNK     0      14.508  14.869  31.528  0.00  0.00     0.021 A 
HETATM   25  C   UNK     0      14.396  13.524  31.825  0.00  0.00    -0.031 A 
HETATM   26  C   UNK     0      14.982  12.334  31.094  0.00  0.00     0.051 C 
HETATM   27  C   UNK     0      13.583  13.414  32.948  0.00  0.00    -0.027 A 
HETATM   28  C   UNK     0      15.393  15.393  30.410  0.00  0.00     0.115 C 
HETATM   29  H   UNK     0      15.506  18.003  31.770  0.00  0.00     0.165 HD
HETATM   30  H   UNK     0      16.962  17.312  34.756  0.00  0.00     0.165 HD
HETATM   31  H   UNK     0      15.137  16.067  35.290  0.00  0.00     0.165 HD
HETATM   32  H   UNK     0      13.654  16.698  32.399  0.00  0.00     0.165 HD
ENDROOT
BRANCH   6  33
HETATM   33  C   UNK     0      20.112  16.901  31.397  0.00  0.00     0.051 C 
BRANCH  33  34
HETATM   34  C   UNK     0      20.698  17.761  30.303  0.00  0.00     0.114 C 
BRANCH  34  35
HETATM   35  C   UNK     0      21.340  16.848  29.314  0.00  0.00     0.139 C 
HETATM   36  O   UNK     0      20.885  16.764  28.136  0.00  0.00    -0.650 OA
BRANCH  35  37
HETATM   37  O   UNK     0      22.444  16.063  29.624  0.00  0.00    -0.776 OA
HETATM   38  H   UNK     0      22.424  15.382  30.366  0.00  0.00     0.167 HD
ENDBRANCH  35  37
ENDBRANCH  34  35
ENDBRANCH  33  34
ENDBRANCH   6  33
BRANCH  27  39
HETATM   39  C   UNK     0      13.174  12.105  33.526  0.00  0.00     0.051 C 
BRANCH  39  40
HETATM   40  C   UNK     0      11.853  11.579  33.185  0.00  0.00     0.114 C 
BRANCH  40  41
HETATM   41  C   UNK     0      10.664  11.943  33.921  0.00  0.00     0.139 C 
HETATM   42  O   UNK     0       9.727  12.588  33.431  0.00  0.00    -0.650 OA
BRANCH  41  43
HETATM   43  O   UNK     0      10.547  11.549  35.284  0.00  0.00    -0.776 OA
HETATM   44  H   UNK     0       9.657  11.776  35.711  0.00  0.00     0.167 HD
ENDBRANCH  41  43
ENDBRANCH  40  41
ENDBRANCH  39  40
ENDBRANCH  27  39
BRANCH  11  45
HETATM   45  C   UNK     0      15.774  21.646  36.275  0.00  0.00     0.051 C 
BRANCH  45  46
HETATM   46  C   UNK     0      16.292  21.736  37.665  0.00  0.00     0.114 C 
BRANCH  46  47
HETATM   47  C   UNK     0      17.757  21.997  37.574  0.00  0.00     0.139 C 
HETATM   48  O   UNK     0      18.138  23.105  37.171  0.00  0.00    -0.650 OA
BRANCH  47  49
HETATM   49  O   UNK     0      18.666  21.031  37.926  0.00  0.00    -0.776 OA
HETATM   50  H   UNK     0      19.638  21.050  37.596  0.00  0.00     0.167 HD
ENDBRANCH  47  49
ENDBRANCH  46  47
ENDBRANCH  45  46
ENDBRANCH  11  45
BRANCH  18  51
HETATM   51  C   UNK     0      10.572  16.990  36.120  0.00  0.00     0.051 C 
BRANCH  51  52
HETATM   52  C   UNK     0      10.229  15.858  37.077  0.00  0.00     0.114 C 
BRANCH  52  53
HETATM   53  C   UNK     0       9.369  14.842  36.441  0.00  0.00     0.139 C 
HETATM   54  O   UNK     0       8.788  15.099  35.375  0.00  0.00    -0.650 OA
BRANCH  53  55
HETATM   55  O   UNK     0       9.212  13.615  37.038  0.00  0.00    -0.776 OA
HETATM   56  H   UNK     0       8.553  12.919  36.778  0.00  0.00     0.167 HD
ENDBRANCH  53  55
ENDBRANCH  52  53
ENDBRANCH  51  52
ENDBRANCH  18  51
TORSDOF 16
ENDMDL
