MODEL 1
REMARK VINA RESULT:      -8.7      0.000      0.000
REMARK  28 active torsions:
REMARK  status: ('A' for Active; 'I' for Inactive)
REMARK    1  A    between atoms: C_2  and  O_3 
REMARK    2  A    between atoms: C_2  and  C_4 
REMARK    3  A    between atoms: C_4  and  C_5 
REMARK    4  A    between atoms: C_5  and  C_6 
REMARK    5  A    between atoms: C_7  and  C_8 
REMARK    6  A    between atoms: C_8  and  C_9 
REMARK    7  A    between atoms: C_9  and  O_11 
REMARK    8  A    between atoms: C_28  and  C_29 
REMARK    9  A    between atoms: C_29  and  C_30 
REMARK   10  A    between atoms: C_30  and  O_32 
REMARK   11  A    between atoms: C_33  and  C_34 
REMARK   12  A    between atoms: C_34  and  C_35 
REMARK   13  A    between atoms: C_35  and  C_36 
REMARK   14  A    between atoms: C_36  and  O_38 
REMARK   15  A    between atoms: C_39  and  C_40 
REMARK   16  A    between atoms: C_40  and  C_41 
REMARK   17  A    between atoms: C_41  and  C_42 
REMARK   18  A    between atoms: C_42  and  O_44 
REMARK   19  A    between atoms: C_45  and  C_46 
REMARK   20  A    between atoms: C_46  and  C_47 
REMARK   21  A    between atoms: C_47  and  O_49 
REMARK   22  A    between atoms: C_50  and  C_51 
REMARK   23  A    between atoms: C_51  and  C_52 
REMARK   24  A    between atoms: C_52  and  O_54 
REMARK   25  A    between atoms: C_55  and  C_56 
REMARK   26  A    between atoms: C_56  and  C_57 
REMARK   27  A    between atoms: C_57  and  C_58 
REMARK   28  A    between atoms: C_58  and  O_60 
ROOT
ATOM      1  O   UNK d   0     -20.037  26.341  22.762  0.00  0.00    -0.650 OA
ATOM      2  C   UNK d   0     -18.905  26.862  22.870  0.00  0.00     0.139 C 
ENDROOT
BRANCH   2   3
ATOM      3  O   UNK d   0     -18.585  27.547  24.017  0.00  0.00    -0.776 OA
ATOM      4  H   UNK d   0     -17.752  27.307  24.560  0.00  0.00     0.167 HD
ENDBRANCH   2   3
BRANCH   2   5
ATOM      5  C   UNK d   0     -17.916  26.740  21.761  0.00  0.00     0.115 C 
BRANCH   5   6
ATOM      6  C   UNK d   0     -17.745  28.066  21.071  0.00  0.00     0.052 C 
BRANCH   6   7
ATOM      7  C   UNK d   0     -19.051  28.630  20.563  0.00  0.00    -0.020 A 
ATOM      8  C   UNK d   0     -19.660  29.717  20.961  0.00  0.00    -0.011 A 
ATOM      9  C   UNK d   0     -20.885  29.848  20.191  0.00  0.00     0.067 A 
ATOM     10  C   UNK d   0     -21.941  30.771  20.116  0.00  0.00     0.062 C 
ATOM     11  N   UNK d   0     -20.946  28.793  19.351  0.00  0.00    -0.248 NA
ATOM     12  C   UNK d   0     -22.905  30.875  19.108  0.00  0.00     0.041 A 
ATOM     13  N   UNK d   0     -23.610  29.932  18.454  0.00  0.00    -0.355 N 
ATOM     14  C   UNK d   0     -23.214  32.146  18.590  0.00  0.00    -0.022 A 
ATOM     15  C   UNK d   0     -24.352  30.571  17.530  0.00  0.00     0.042 A 
ATOM     16  H   UNK d   0     -23.598  28.838  18.655  0.00  0.00     0.166 HD
ATOM     17  C   UNK d   0     -25.265  30.066  16.583  0.00  0.00     0.062 C 
ATOM     18  C   UNK d   0     -24.130  31.961  17.585  0.00  0.00    -0.013 A 
ATOM     19  C   UNK d   0     -25.136  28.981  15.755  0.00  0.00     0.067 A 
ATOM     20  N   UNK d   0     -24.109  28.160  15.989  0.00  0.00    -0.248 NA
ATOM     21  C   UNK d   0     -25.853  28.452  14.606  0.00  0.00    -0.011 A 
ATOM     22  C   UNK d   0     -24.101  27.134  15.076  0.00  0.00     0.066 A 
ATOM     23  C   UNK d   0     -23.104  26.182  15.227  0.00  0.00     0.062 C 
ATOM     24  C   UNK d   0     -25.240  27.374  14.211  0.00  0.00    -0.020 A 
ATOM     25  C   UNK d   0     -22.152  26.088  16.254  0.00  0.00     0.041 A 
ATOM     26  N   UNK d   0     -21.441  27.024  16.893  0.00  0.00    -0.355 N 
ATOM     27  C   UNK d   0     -21.846  24.812  16.776  0.00  0.00    -0.022 A 
ATOM     28  C   UNK d   0     -20.693  26.388  17.809  0.00  0.00     0.042 A 
ATOM     29  H   UNK d   0     -21.446  28.122  16.683  0.00  0.00     0.166 HD
ATOM     30  C   UNK d   0     -19.774  26.877  18.751  0.00  0.00     0.062 C 
ATOM     31  C   UNK d   0     -20.924  24.993  17.761  0.00  0.00    -0.013 A 
ATOM     32  C   UNK d   0     -19.871  28.023  19.525  0.00  0.00     0.066 A 
BRANCH   8  33
ATOM     33  C   UNK d   0     -19.206  30.654  22.005  0.00  0.00     0.151 C 
BRANCH  33  34
ATOM     34  C   UNK d   0     -20.159  30.766  23.125  0.00  0.00     0.143 C 
ATOM     35  O   UNK d   0     -20.617  29.754  23.674  0.00  0.00    -0.650 OA
BRANCH  34  36
ATOM     36  O   UNK d   0     -20.544  32.012  23.562  0.00  0.00    -0.776 OA
ATOM     37  H   UNK d   0     -20.410  32.848  22.977  0.00  0.00     0.167 HD
ENDBRANCH  34  36
ENDBRANCH  33  34
ENDBRANCH   8  33
BRANCH  31  38
ATOM     38  C   UNK d   0     -20.308  23.910  18.615  0.00  0.00     0.151 C 
BRANCH  38  39
ATOM     39  C   UNK d   0     -21.038  23.681  19.844  0.00  0.00     0.143 C 
ATOM     40  O   UNK d   0     -22.119  23.067  19.872  0.00  0.00    -0.650 OA
BRANCH  39  41
ATOM     41  O   UNK d   0     -20.521  24.160  21.048  0.00  0.00    -0.776 OA
ATOM     42  H   UNK d   0     -20.082  23.472  21.667  0.00  0.00     0.167 HD
ENDBRANCH  39  41
ENDBRANCH  38  39
ENDBRANCH  31  38
BRANCH  27  43
ATOM     43  C   UNK d   0     -22.385  23.461  16.379  0.00  0.00     0.052 C 
BRANCH  43  44
ATOM     44  C   UNK d   0     -21.503  22.732  15.418  0.00  0.00     0.115 C 
BRANCH  44  45
ATOM     45  C   UNK d   0     -22.395  22.143  14.386  0.00  0.00     0.139 C 
ATOM     46  O   UNK d   0     -22.985  21.068  14.657  0.00  0.00    -0.650 OA
BRANCH  45  47
ATOM     47  O   UNK d   0     -22.603  22.729  13.156  0.00  0.00    -0.776 OA
ATOM     48  H   UNK d   0     -23.446  22.551  12.586  0.00  0.00     0.167 HD
ENDBRANCH  45  47
ENDBRANCH  44  45
ENDBRANCH  43  44
ENDBRANCH  27  43
BRANCH  24  49
ATOM     49  C   UNK d   0     -25.652  26.499  13.100  0.00  0.00     0.052 C 
BRANCH  49  50
ATOM     50  C   UNK d   0     -26.410  25.306  13.625  0.00  0.00     0.115 C 
BRANCH  50  51
ATOM     51  C   UNK d   0     -25.747  24.011  13.550  0.00  0.00     0.139 C 
ATOM     52  O   UNK d   0     -25.477  23.330  14.567  0.00  0.00    -0.650 OA
BRANCH  51  53
ATOM     53  O   UNK d   0     -25.389  23.494  12.315  0.00  0.00    -0.776 OA
ATOM     54  H   UNK d   0     -26.080  22.981  11.795  0.00  0.00     0.167 HD
ENDBRANCH  51  53
ENDBRANCH  50  51
ENDBRANCH  49  50
ENDBRANCH  24  49
BRANCH  21  55
ATOM     55  C   UNK d   0     -27.079  29.077  14.027  0.00  0.00     0.151 C 
BRANCH  55  56
ATOM     56  C   UNK d   0     -28.309  28.533  14.621  0.00  0.00     0.143 C 
ATOM     57  O   UNK d   0     -28.991  27.647  14.068  0.00  0.00    -0.650 OA
BRANCH  56  58
ATOM     58  O   UNK d   0     -28.715  29.040  15.854  0.00  0.00    -0.776 OA
ATOM     59  H   UNK d   0     -28.326  29.971  16.092  0.00  0.00     0.167 HD
ENDBRANCH  56  58
ENDBRANCH  55  56
ENDBRANCH  21  55
BRANCH  18  60
ATOM     60  C   UNK d   0     -24.732  33.064  16.749  0.00  0.00     0.151 C 
BRANCH  60  61
ATOM     61  C   UNK d   0     -23.876  33.180  15.559  0.00  0.00     0.143 C 
ATOM     62  O   UNK d   0     -23.956  32.522  14.521  0.00  0.00    -0.650 OA
BRANCH  61  63
ATOM     63  O   UNK d   0     -22.860  34.162  15.640  0.00  0.00    -0.776 OA
ATOM     64  H   UNK d   0     -22.049  34.119  15.050  0.00  0.00     0.167 HD
ENDBRANCH  61  63
ENDBRANCH  60  61
ENDBRANCH  18  60
BRANCH  14  65
ATOM     65  C   UNK d   0     -22.787  33.516  19.035  0.00  0.00     0.052 C 
BRANCH  65  66
ATOM     66  C   UNK d   0     -21.325  33.616  19.289  0.00  0.00     0.115 C 
BRANCH  66  67
ATOM     67  C   UNK d   0     -20.441  33.992  18.221  0.00  0.00     0.139 C 
ATOM     68  O   UNK d   0     -19.435  33.235  17.962  0.00  0.00    -0.650 OA
BRANCH  67  69
ATOM     69  O   UNK d   0     -20.530  35.112  17.395  0.00  0.00    -0.776 OA
ATOM     70  H   UNK d   0     -19.690  35.324  16.837  0.00  0.00     0.167 HD
ENDBRANCH  67  69
ENDBRANCH  66  67
ENDBRANCH  65  66
ENDBRANCH  14  65
ENDBRANCH   6   7
ENDBRANCH   5   6
ENDBRANCH   2   5
TORSDOF 28
ENDMDL
MODEL 2
REMARK VINA RESULT:      -7.8      2.275      8.176
REMARK  28 active torsions:
REMARK  status: ('A' for Active; 'I' for Inactive)
REMARK    1  A    between atoms: C_2  and  O_3 
REMARK    2  A    between atoms: C_2  and  C_4 
REMARK    3  A    between atoms: C_4  and  C_5 
REMARK    4  A    between atoms: C_5  and  C_6 
REMARK    5  A    between atoms: C_7  and  C_8 
REMARK    6  A    between atoms: C_8  and  C_9 
REMARK    7  A    between atoms: C_9  and  O_11 
REMARK    8  A    between atoms: C_28  and  C_29 
REMARK    9  A    between atoms: C_29  and  C_30 
REMARK   10  A    between atoms: C_30  and  O_32 
REMARK   11  A    between atoms: C_33  and  C_34 
REMARK   12  A    between atoms: C_34  and  C_35 
REMARK   13  A    between atoms: C_35  and  C_36 
REMARK   14  A    between atoms: C_36  and  O_38 
REMARK   15  A    between atoms: C_39  and  C_40 
REMARK   16  A    between atoms: C_40  and  C_41 
REMARK   17  A    between atoms: C_41  and  C_42 
REMARK   18  A    between atoms: C_42  and  O_44 
REMARK   19  A    between atoms: C_45  and  C_46 
REMARK   20  A    between atoms: C_46  and  C_47 
REMARK   21  A    between atoms: C_47  and  O_49 
REMARK   22  A    between atoms: C_50  and  C_51 
REMARK   23  A    between atoms: C_51  and  C_52 
REMARK   24  A    between atoms: C_52  and  O_54 
REMARK   25  A    between atoms: C_55  and  C_56 
REMARK   26  A    between atoms: C_56  and  C_57 
REMARK   27  A    between atoms: C_57  and  C_58 
REMARK   28  A    between atoms: C_58  and  O_60 
ROOT
ATOM      1  O   UNK d   0     -19.869  19.730  23.875  0.00  0.00    -0.650 OA
ATOM      2  C   UNK d   0     -19.381  20.456  22.981  0.00  0.00     0.139 C 
ENDROOT
BRANCH   2   3
ATOM      3  O   UNK d   0     -18.143  20.151  22.467  0.00  0.00    -0.776 OA
ATOM      4  H   UNK d   0     -17.927  20.311  21.481  0.00  0.00     0.167 HD
ENDBRANCH   2   3
BRANCH   2   5
ATOM      5  C   UNK d   0     -20.138  21.638  22.481  0.00  0.00     0.115 C 
BRANCH   5   6
ATOM      6  C   UNK d   0     -19.193  22.636  21.868  0.00  0.00     0.052 C 
BRANCH   6   7
ATOM      7  C   UNK d   0     -19.672  23.144  20.529  0.00  0.00    -0.020 A 
ATOM      8  C   UNK d   0     -19.582  22.543  19.370  0.00  0.00    -0.011 A 
ATOM      9  C   UNK d   0     -20.170  23.418  18.369  0.00  0.00     0.067 A 
ATOM     10  C   UNK d   0     -20.401  23.363  16.986  0.00  0.00     0.062 C 
ATOM     11  N   UNK d   0     -20.587  24.532  19.006  0.00  0.00    -0.248 NA
ATOM     12  C   UNK d   0     -21.239  24.193  16.233  0.00  0.00     0.041 A 
ATOM     13  N   UNK d   0     -21.430  25.525  16.267  0.00  0.00    -0.355 N 
ATOM     14  C   UNK d   0     -22.105  23.610  15.290  0.00  0.00    -0.022 A 
ATOM     15  C   UNK d   0     -22.400  25.802  15.376  0.00  0.00     0.042 A 
ATOM     16  H   UNK d   0     -20.876  26.258  16.894  0.00  0.00     0.166 HD
ATOM     17  C   UNK d   0     -22.983  27.033  15.013  0.00  0.00     0.062 C 
ATOM     18  C   UNK d   0     -22.849  24.627  14.744  0.00  0.00    -0.013 A 
ATOM     19  C   UNK d   0     -23.406  28.058  15.820  0.00  0.00     0.067 A 
ATOM     20  N   UNK d   0     -23.057  27.998  17.108  0.00  0.00    -0.248 NA
ATOM     21  C   UNK d   0     -24.196  29.266  15.647  0.00  0.00    -0.011 A 
ATOM     22  C   UNK d   0     -23.562  29.077  17.790  0.00  0.00     0.066 A 
ATOM     23  C   UNK d   0     -23.242  29.161  19.137  0.00  0.00     0.062 C 
ATOM     24  C   UNK d   0     -24.287  29.856  16.804  0.00  0.00    -0.020 A 
ATOM     25  C   UNK d   0     -22.388  28.323  19.871  0.00  0.00     0.041 A 
ATOM     26  N   UNK d   0     -22.209  26.997  19.848  0.00  0.00    -0.355 N 
ATOM     27  C   UNK d   0     -21.515  28.909  20.814  0.00  0.00    -0.022 A 
ATOM     28  C   UNK d   0     -21.248  26.717  20.742  0.00  0.00     0.042 A 
ATOM     29  H   UNK d   0     -22.774  26.261  19.225  0.00  0.00     0.166 HD
ATOM     30  C   UNK d   0     -20.665  25.497  21.120  0.00  0.00     0.062 C 
ATOM     31  C   UNK d   0     -20.790  27.900  21.369  0.00  0.00    -0.013 A 
ATOM     32  C   UNK d   0     -20.317  24.429  20.308  0.00  0.00     0.066 A 
BRANCH   8  33
ATOM     33  C   UNK d   0     -18.989  21.220  19.102  0.00  0.00     0.151 C 
BRANCH  33  34
ATOM     34  C   UNK d   0     -19.939  20.114  19.321  0.00  0.00     0.143 C 
ATOM     35  O   UNK d   0     -19.578  19.065  19.873  0.00  0.00    -0.650 OA
BRANCH  34  36
ATOM     36  O   UNK d   0     -21.243  20.252  18.905  0.00  0.00    -0.776 OA
ATOM     37  H   UNK d   0     -21.495  20.895  18.142  0.00  0.00     0.167 HD
ENDBRANCH  34  36
ENDBRANCH  33  34
ENDBRANCH   8  33
BRANCH  31  38
ATOM     38  C   UNK d   0     -19.717  28.049  22.422  0.00  0.00     0.151 C 
BRANCH  38  39
ATOM     39  C   UNK d   0     -18.381  28.067  21.864  0.00  0.00     0.143 C 
ATOM     40  O   UNK d   0     -17.581  27.128  22.022  0.00  0.00    -0.650 OA
BRANCH  39  41
ATOM     41  O   UNK d   0     -17.963  29.170  21.120  0.00  0.00    -0.776 OA
ATOM     42  H   UNK d   0     -17.132  29.666  21.458  0.00  0.00     0.167 HD
ENDBRANCH  39  41
ENDBRANCH  38  39
ENDBRANCH  31  38
BRANCH  27  43
ATOM     43  C   UNK d   0     -21.353  30.359  21.198  0.00  0.00     0.052 C 
BRANCH  43  44
ATOM     44  C   UNK d   0     -20.675  31.176  20.147  0.00  0.00     0.115 C 
BRANCH  44  45
ATOM     45  C   UNK d   0     -21.412  32.465  20.071  0.00  0.00     0.139 C 
ATOM     46  O   UNK d   0     -22.481  32.574  20.721  0.00  0.00    -0.650 OA
BRANCH  45  47
ATOM     47  O   UNK d   0     -20.969  33.536  19.325  0.00  0.00    -0.776 OA
ATOM     48  H   UNK d   0     -19.970  33.782  19.237  0.00  0.00     0.167 HD
ENDBRANCH  45  47
ENDBRANCH  44  45
ENDBRANCH  43  44
ENDBRANCH  27  43
BRANCH  24  49
ATOM     49  C   UNK d   0     -24.968  31.133  17.077  0.00  0.00     0.052 C 
BRANCH  49  50
ATOM     50  C   UNK d   0     -23.961  32.203  17.413  0.00  0.00     0.115 C 
BRANCH  50  51
ATOM     51  C   UNK d   0     -23.773  33.269  16.438  0.00  0.00     0.139 C 
ATOM     52  O   UNK d   0     -23.607  33.045  15.216  0.00  0.00    -0.650 OA
BRANCH  51  53
ATOM     53  O   UNK d   0     -23.771  34.590  16.858  0.00  0.00    -0.776 OA
ATOM     54  H   UNK d   0     -24.077  34.792  17.793  0.00  0.00     0.167 HD
ENDBRANCH  51  53
ENDBRANCH  50  51
ENDBRANCH  49  50
ENDBRANCH  24  49
BRANCH  21  55
ATOM     55  C   UNK d   0     -24.773  29.707  14.343  0.00  0.00     0.151 C 
BRANCH  55  56
ATOM     56  C   UNK d   0     -25.964  28.926  13.975  0.00  0.00     0.143 C 
ATOM     57  O   UNK d   0     -25.918  27.948  13.203  0.00  0.00    -0.650 OA
BRANCH  56  58
ATOM     58  O   UNK d   0     -27.187  29.310  14.523  0.00  0.00    -0.776 OA
ATOM     59  H   UNK d   0     -27.163  30.188  15.072  0.00  0.00     0.167 HD
ENDBRANCH  56  58
ENDBRANCH  55  56
ENDBRANCH  21  55
BRANCH  18  60
ATOM     60  C   UNK d   0     -23.914  24.449  13.690  0.00  0.00     0.151 C 
BRANCH  60  61
ATOM     61  C   UNK d   0     -25.168  24.207  14.419  0.00  0.00     0.143 C 
ATOM     62  O   UNK d   0     -25.765  24.997  15.151  0.00  0.00    -0.650 OA
BRANCH  61  63
ATOM     63  O   UNK d   0     -25.728  22.919  14.244  0.00  0.00    -0.776 OA
ATOM     64  H   UNK d   0     -25.144  22.113  14.109  0.00  0.00     0.167 HD
ENDBRANCH  61  63
ENDBRANCH  60  61
ENDBRANCH  18  60
BRANCH  14  65
ATOM     65  C   UNK d   0     -22.214  22.194  14.801  0.00  0.00     0.052 C 
BRANCH  65  66
ATOM     66  C   UNK d   0     -23.081  21.346  15.662  0.00  0.00     0.115 C 
BRANCH  66  67
ATOM     67  C   UNK d   0     -23.658  20.145  15.127  0.00  0.00     0.139 C 
ATOM     68  O   UNK d   0     -24.930  20.105  14.942  0.00  0.00    -0.650 OA
BRANCH  67  69
ATOM     69  O   UNK d   0     -23.001  18.969  14.767  0.00  0.00    -0.776 OA
ATOM     70  H   UNK d   0     -21.971  19.012  14.772  0.00  0.00     0.167 HD
ENDBRANCH  67  69
ENDBRANCH  66  67
ENDBRANCH  65  66
ENDBRANCH  14  65
ENDBRANCH   6   7
ENDBRANCH   5   6
ENDBRANCH   2   5
TORSDOF 28
ENDMDL
MODEL 3
REMARK VINA RESULT:      -7.6      1.602      8.156
REMARK  28 active torsions:
REMARK  status: ('A' for Active; 'I' for Inactive)
REMARK    1  A    between atoms: C_2  and  O_3 
REMARK    2  A    between atoms: C_2  and  C_4 
REMARK    3  A    between atoms: C_4  and  C_5 
REMARK    4  A    between atoms: C_5  and  C_6 
REMARK    5  A    between atoms: C_7  and  C_8 
REMARK    6  A    between atoms: C_8  and  C_9 
REMARK    7  A    between atoms: C_9  and  O_11 
REMARK    8  A    between atoms: C_28  and  C_29 
REMARK    9  A    between atoms: C_29  and  C_30 
REMARK   10  A    between atoms: C_30  and  O_32 
REMARK   11  A    between atoms: C_33  and  C_34 
REMARK   12  A    between atoms: C_34  and  C_35 
REMARK   13  A    between atoms: C_35  and  C_36 
REMARK   14  A    between atoms: C_36  and  O_38 
REMARK   15  A    between atoms: C_39  and  C_40 
REMARK   16  A    between atoms: C_40  and  C_41 
REMARK   17  A    between atoms: C_41  and  C_42 
REMARK   18  A    between atoms: C_42  and  O_44 
REMARK   19  A    between atoms: C_45  and  C_46 
REMARK   20  A    between atoms: C_46  and  C_47 
REMARK   21  A    between atoms: C_47  and  O_49 
REMARK   22  A    between atoms: C_50  and  C_51 
REMARK   23  A    between atoms: C_51  and  C_52 
REMARK   24  A    between atoms: C_52  and  O_54 
REMARK   25  A    between atoms: C_55  and  C_56 
REMARK   26  A    between atoms: C_56  and  C_57 
REMARK   27  A    between atoms: C_57  and  C_58 
REMARK   28  A    between atoms: C_58  and  O_60 
ROOT
ATOM      1  O   UNK d   0     -25.156  20.204  15.065  0.00  0.00    -0.650 OA
ATOM      2  C   UNK d   0     -24.001  20.605  14.800  0.00  0.00     0.139 C 
ENDROOT
BRANCH   2   3
ATOM      3  O   UNK d   0     -22.957  19.712  14.818  0.00  0.00    -0.776 OA
ATOM      4  H   UNK d   0     -23.059  18.790  15.247  0.00  0.00     0.167 HD
ENDBRANCH   2   3
BRANCH   2   5
ATOM      5  C   UNK d   0     -23.765  22.039  14.469  0.00  0.00     0.115 C 
BRANCH   5   6
ATOM      6  C   UNK d   0     -22.355  22.427  14.825  0.00  0.00     0.052 C 
BRANCH   6   7
ATOM      7  C   UNK d   0     -22.297  23.505  15.880  0.00  0.00    -0.020 A 
ATOM      8  C   UNK d   0     -21.793  23.418  17.084  0.00  0.00    -0.011 A 
ATOM      9  C   UNK d   0     -21.973  24.704  17.737  0.00  0.00     0.067 A 
ATOM     10  C   UNK d   0     -21.648  25.261  18.983  0.00  0.00     0.062 C 
ATOM     11  N   UNK d   0     -22.602  25.514  16.859  0.00  0.00    -0.248 NA
ATOM     12  C   UNK d   0     -21.657  26.615  19.334  0.00  0.00     0.041 A 
ATOM     13  N   UNK d   0     -22.540  27.595  19.065  0.00  0.00    -0.355 N 
ATOM     14  C   UNK d   0     -20.564  27.140  20.048  0.00  0.00    -0.022 A 
ATOM     15  C   UNK d   0     -22.032  28.730  19.582  0.00  0.00     0.042 A 
ATOM     16  H   UNK d   0     -23.512  27.483  18.536  0.00  0.00     0.166 HD
ATOM     17  C   UNK d   0     -22.546  30.042  19.585  0.00  0.00     0.062 C 
ATOM     18  C   UNK d   0     -20.793  28.484  20.205  0.00  0.00    -0.013 A 
ATOM     19  C   UNK d   0     -23.120  30.746  18.557  0.00  0.00     0.067 A 
ATOM     20  N   UNK d   0     -23.425  30.062  17.452  0.00  0.00    -0.248 NA
ATOM     21  C   UNK d   0     -23.500  32.129  18.323  0.00  0.00    -0.011 A 
ATOM     22  C   UNK d   0     -23.975  30.897  16.511  0.00  0.00     0.066 A 
ATOM     23  C   UNK d   0     -24.376  30.307  15.321  0.00  0.00     0.062 C 
ATOM     24  C   UNK d   0     -23.996  32.212  17.122  0.00  0.00    -0.020 A 
ATOM     25  C   UNK d   0     -24.371  28.942  14.994  0.00  0.00     0.041 A 
ATOM     26  N   UNK d   0     -23.485  27.971  15.249  0.00  0.00    -0.355 N 
ATOM     27  C   UNK d   0     -25.470  28.415  14.281  0.00  0.00    -0.022 A 
ATOM     28  C   UNK d   0     -23.986  26.840  14.726  0.00  0.00     0.042 A 
ATOM     29  H   UNK d   0     -22.504  28.087  15.770  0.00  0.00     0.166 HD
ATOM     30  C   UNK d   0     -23.481  25.530  14.708  0.00  0.00     0.062 C 
ATOM     31  C   UNK d   0     -25.235  27.086  14.109  0.00  0.00    -0.013 A 
ATOM     32  C   UNK d   0     -22.825  24.852  15.723  0.00  0.00     0.066 A 
BRANCH   8  33
ATOM     33  C   UNK d   0     -21.155  22.235  17.692  0.00  0.00     0.151 C 
BRANCH  33  34
ATOM     34  C   UNK d   0     -19.683  22.315  17.687  0.00  0.00     0.143 C 
ATOM     35  O   UNK d   0     -19.025  21.993  18.687  0.00  0.00    -0.650 OA
BRANCH  34  36
ATOM     36  O   UNK d   0     -19.034  22.754  16.556  0.00  0.00    -0.776 OA
ATOM     37  H   UNK d   0     -18.250  23.417  16.614  0.00  0.00     0.167 HD
ENDBRANCH  34  36
ENDBRANCH  33  34
ENDBRANCH   8  33
BRANCH  31  38
ATOM     38  C   UNK d   0     -26.146  26.103  13.411  0.00  0.00     0.151 C 
BRANCH  38  39
ATOM     39  C   UNK d   0     -26.684  25.101  14.308  0.00  0.00     0.143 C 
ATOM     40  O   UNK d   0     -26.691  23.890  14.026  0.00  0.00    -0.650 OA
BRANCH  39  41
ATOM     41  O   UNK d   0     -27.214  25.495  15.536  0.00  0.00    -0.776 OA
ATOM     42  H   UNK d   0     -26.812  25.061  16.373  0.00  0.00     0.167 HD
ENDBRANCH  39  41
ENDBRANCH  38  39
ENDBRANCH  31  38
BRANCH  27  43
ATOM     43  C   UNK d   0     -26.705  29.114  13.770  0.00  0.00     0.052 C 
BRANCH  43  44
ATOM     44  C   UNK d   0     -27.963  28.645  14.425  0.00  0.00     0.115 C 
BRANCH  44  45
ATOM     45  C   UNK d   0     -27.858  29.016  15.861  0.00  0.00     0.139 C 
ATOM     46  O   UNK d   0     -27.923  28.098  16.715  0.00  0.00    -0.650 OA
BRANCH  45  47
ATOM     47  O   UNK d   0     -27.687  30.315  16.287  0.00  0.00    -0.776 OA
ATOM     48  H   UNK d   0     -28.321  31.083  16.012  0.00  0.00     0.167 HD
ENDBRANCH  45  47
ENDBRANCH  44  45
ENDBRANCH  43  44
ENDBRANCH  27  43
BRANCH  24  49
ATOM     49  C   UNK d   0     -24.541  33.425  16.489  0.00  0.00     0.052 C 
BRANCH  49  50
ATOM     50  C   UNK d   0     -23.498  34.076  15.618  0.00  0.00     0.115 C 
BRANCH  50  51
ATOM     51  C   UNK d   0     -22.394  34.746  16.291  0.00  0.00     0.139 C 
ATOM     52  O   UNK d   0     -22.561  35.726  17.054  0.00  0.00    -0.650 OA
BRANCH  51  53
ATOM     53  O   UNK d   0     -21.096  34.299  16.091  0.00  0.00    -0.776 OA
ATOM     54  H   UNK d   0     -20.638  34.540  15.229  0.00  0.00     0.167 HD
ENDBRANCH  51  53
ENDBRANCH  50  51
ENDBRANCH  49  50
ENDBRANCH  24  49
BRANCH  21  55
ATOM     55  C   UNK d   0     -23.331  33.223  19.325  0.00  0.00     0.151 C 
BRANCH  55  56
ATOM     56  C   UNK d   0     -21.954  33.296  19.835  0.00  0.00     0.143 C 
ATOM     57  O   UNK d   0     -20.963  33.426  19.089  0.00  0.00    -0.650 OA
BRANCH  56  58
ATOM     58  O   UNK d   0     -21.767  33.214  21.214  0.00  0.00    -0.776 OA
ATOM     59  H   UNK d   0     -22.345  32.498  21.691  0.00  0.00     0.167 HD
ENDBRANCH  56  58
ENDBRANCH  55  56
ENDBRANCH  21  55
BRANCH  18  60
ATOM     60  C   UNK d   0     -19.866  29.443  20.910  0.00  0.00     0.151 C 
BRANCH  60  61
ATOM     61  C   UNK d   0     -20.576  29.874  22.124  0.00  0.00     0.143 C 
ATOM     62  O   UNK d   0     -20.790  31.030  22.488  0.00  0.00    -0.650 OA
BRANCH  61  63
ATOM     63  O   UNK d   0     -21.057  28.825  22.945  0.00  0.00    -0.776 OA
ATOM     64  H   UNK d   0     -20.858  27.864  22.728  0.00  0.00     0.167 HD
ENDBRANCH  61  63
ENDBRANCH  60  61
ENDBRANCH  18  60
BRANCH  14  65
ATOM     65  C   UNK d   0     -19.379  26.457  20.670  0.00  0.00     0.052 C 
BRANCH  65  66
ATOM     66  C   UNK d   0     -19.646  25.974  22.051  0.00  0.00     0.115 C 
BRANCH  66  67
ATOM     67  C   UNK d   0     -18.660  26.168  23.076  0.00  0.00     0.139 C 
ATOM     68  O   UNK d   0     -18.641  27.290  23.705  0.00  0.00    -0.650 OA
BRANCH  67  69
ATOM     69  O   UNK d   0     -17.681  25.270  23.500  0.00  0.00    -0.776 OA
ATOM     70  H   UNK d   0     -18.016  24.330  23.755  0.00  0.00     0.167 HD
ENDBRANCH  67  69
ENDBRANCH  66  67
ENDBRANCH  65  66
ENDBRANCH  14  65
ENDBRANCH   6   7
ENDBRANCH   5   6
ENDBRANCH   2   5
TORSDOF 28
ENDMDL
MODEL 4
REMARK VINA RESULT:      -7.6      1.253      7.054
REMARK  28 active torsions:
REMARK  status: ('A' for Active; 'I' for Inactive)
REMARK    1  A    between atoms: C_2  and  O_3 
REMARK    2  A    between atoms: C_2  and  C_4 
REMARK    3  A    between atoms: C_4  and  C_5 
REMARK    4  A    between atoms: C_5  and  C_6 
REMARK    5  A    between atoms: C_7  and  C_8 
REMARK    6  A    between atoms: C_8  and  C_9 
REMARK    7  A    between atoms: C_9  and  O_11 
REMARK    8  A    between atoms: C_28  and  C_29 
REMARK    9  A    between atoms: C_29  and  C_30 
REMARK   10  A    between atoms: C_30  and  O_32 
REMARK   11  A    between atoms: C_33  and  C_34 
REMARK   12  A    between atoms: C_34  and  C_35 
REMARK   13  A    between atoms: C_35  and  C_36 
REMARK   14  A    between atoms: C_36  and  O_38 
REMARK   15  A    between atoms: C_39  and  C_40 
REMARK   16  A    between atoms: C_40  and  C_41 
REMARK   17  A    between atoms: C_41  and  C_42 
REMARK   18  A    between atoms: C_42  and  O_44 
REMARK   19  A    between atoms: C_45  and  C_46 
REMARK   20  A    between atoms: C_46  and  C_47 
REMARK   21  A    between atoms: C_47  and  O_49 
REMARK   22  A    between atoms: C_50  and  C_51 
REMARK   23  A    between atoms: C_51  and  C_52 
REMARK   24  A    between atoms: C_52  and  O_54 
REMARK   25  A    between atoms: C_55  and  C_56 
REMARK   26  A    between atoms: C_56  and  C_57 
REMARK   27  A    between atoms: C_57  and  C_58 
REMARK   28  A    between atoms: C_58  and  O_60 
ROOT
ATOM      1  O   UNK d   0     -21.086  31.283  25.640  0.00  0.00    -0.650 OA
ATOM      2  C   UNK d   0     -20.529  31.307  24.520  0.00  0.00     0.139 C 
ENDROOT
BRANCH   2   3
ATOM      3  O   UNK d   0     -20.177  32.516  23.969  0.00  0.00    -0.776 OA
ATOM      4  H   UNK d   0     -20.033  33.341  24.556  0.00  0.00     0.167 HD
ENDBRANCH   2   3
BRANCH   2   5
ATOM      5  C   UNK d   0     -20.253  30.036  23.793  0.00  0.00     0.115 C 
BRANCH   5   6
ATOM      6  C   UNK d   0     -19.317  30.289  22.643  0.00  0.00     0.052 C 
BRANCH   6   7
ATOM      7  C   UNK d   0     -19.662  29.471  21.422  0.00  0.00    -0.020 A 
ATOM      8  C   UNK d   0     -19.083  28.372  21.008  0.00  0.00    -0.011 A 
ATOM      9  C   UNK d   0     -19.750  27.951  19.787  0.00  0.00     0.067 A 
ATOM     10  C   UNK d   0     -19.633  26.880  18.888  0.00  0.00     0.062 C 
ATOM     11  N   UNK d   0     -20.719  28.854  19.528  0.00  0.00    -0.248 NA
ATOM     12  C   UNK d   0     -20.555  26.490  17.911  0.00  0.00     0.041 A 
ATOM     13  N   UNK d   0     -21.284  27.214  17.040  0.00  0.00    -0.355 N 
ATOM     14  C   UNK d   0     -20.876  25.126  17.784  0.00  0.00    -0.022 A 
ATOM     15  C   UNK d   0     -22.065  26.345  16.370  0.00  0.00     0.042 A 
ATOM     16  H   UNK d   0     -21.234  28.315  16.889  0.00  0.00     0.166 HD
ATOM     17  C   UNK d   0     -23.012  26.568  15.350  0.00  0.00     0.062 C 
ATOM     18  C   UNK d   0     -21.837  25.027  16.809  0.00  0.00    -0.013 A 
ATOM     19  C   UNK d   0     -23.986  27.531  15.273  0.00  0.00     0.067 A 
ATOM     20  N   UNK d   0     -23.930  28.520  16.168  0.00  0.00    -0.248 NA
ATOM     21  C   UNK d   0     -25.148  27.776  14.435  0.00  0.00    -0.011 A 
ATOM     22  C   UNK d   0     -24.972  29.395  15.977  0.00  0.00     0.066 A 
ATOM     23  C   UNK d   0     -25.014  30.496  16.818  0.00  0.00     0.062 C 
ATOM     24  C   UNK d   0     -25.722  28.866  14.855  0.00  0.00    -0.020 A 
ATOM     25  C   UNK d   0     -24.070  30.877  17.785  0.00  0.00     0.041 A 
ATOM     26  N   UNK d   0     -23.357  30.159  18.661  0.00  0.00    -0.355 N 
ATOM     27  C   UNK d   0     -23.745  32.246  17.909  0.00  0.00    -0.022 A 
ATOM     28  C   UNK d   0     -22.584  31.024  19.336  0.00  0.00     0.042 A 
ATOM     29  H   UNK d   0     -23.416  29.054  18.819  0.00  0.00     0.166 HD
ATOM     30  C   UNK d   0     -21.644  30.818  20.359  0.00  0.00     0.062 C 
ATOM     31  C   UNK d   0     -22.805  32.348  18.888  0.00  0.00    -0.013 A 
ATOM     32  C   UNK d   0     -20.718  29.793  20.475  0.00  0.00     0.066 A 
BRANCH   8  33
ATOM     33  C   UNK d   0     -17.952  27.673  21.646  0.00  0.00     0.151 C 
BRANCH  33  34
ATOM     34  C   UNK d   0     -18.382  26.536  22.480  0.00  0.00     0.143 C 
ATOM     35  O   UNK d   0     -17.550  25.790  23.016  0.00  0.00    -0.650 OA
BRANCH  34  36
ATOM     36  O   UNK d   0     -19.725  26.303  22.663  0.00  0.00    -0.776 OA
ATOM     37  H   UNK d   0     -20.080  25.881  23.533  0.00  0.00     0.167 HD
ENDBRANCH  34  36
ENDBRANCH  33  34
ENDBRANCH   8  33
BRANCH  31  38
ATOM     38  C   UNK d   0     -22.146  33.622  19.361  0.00  0.00     0.151 C 
BRANCH  38  39
ATOM     39  C   UNK d   0     -20.946  33.943  18.617  0.00  0.00     0.143 C 
ATOM     40  O   UNK d   0     -20.926  34.817  17.732  0.00  0.00    -0.650 OA
BRANCH  39  41
ATOM     41  O   UNK d   0     -19.764  33.257  18.893  0.00  0.00    -0.776 OA
ATOM     42  H   UNK d   0     -18.984  33.401  18.244  0.00  0.00     0.167 HD
ENDBRANCH  39  41
ENDBRANCH  38  39
ENDBRANCH  31  38
BRANCH  27  43
ATOM     43  C   UNK d   0     -24.286  33.432  17.149  0.00  0.00     0.052 C 
BRANCH  43  44
ATOM     44  C   UNK d   0     -23.449  33.810  15.971  0.00  0.00     0.115 C 
BRANCH  44  45
ATOM     45  C   UNK d   0     -24.298  33.615  14.767  0.00  0.00     0.139 C 
ATOM     46  O   UNK d   0     -24.421  32.451  14.311  0.00  0.00    -0.650 OA
BRANCH  45  47
ATOM     47  O   UNK d   0     -24.955  34.652  14.140  0.00  0.00    -0.776 OA
ATOM     48  H   UNK d   0     -24.578  35.612  14.101  0.00  0.00     0.167 HD
ENDBRANCH  45  47
ENDBRANCH  44  45
ENDBRANCH  43  44
ENDBRANCH  27  43
BRANCH  24  49
ATOM     49  C   UNK d   0     -26.913  29.502  14.266  0.00  0.00     0.052 C 
BRANCH  49  50
ATOM     50  C   UNK d   0     -28.164  28.790  14.713  0.00  0.00     0.115 C 
BRANCH  50  51
ATOM     51  C   UNK d   0     -28.899  28.039  13.704  0.00  0.00     0.139 C 
ATOM     52  O   UNK d   0     -29.228  28.533  12.600  0.00  0.00    -0.650 OA
BRANCH  51  53
ATOM     53  O   UNK d   0     -29.261  26.725  13.956  0.00  0.00    -0.776 OA
ATOM     54  H   UNK d   0     -30.071  26.357  13.489  0.00  0.00     0.167 HD
ENDBRANCH  51  53
ENDBRANCH  50  51
ENDBRANCH  49  50
ENDBRANCH  24  49
BRANCH  21  55
ATOM     55  C   UNK d   0     -25.559  26.899  13.300  0.00  0.00     0.151 C 
BRANCH  55  56
ATOM     56  C   UNK d   0     -25.856  25.528  13.743  0.00  0.00     0.143 C 
ATOM     57  O   UNK d   0     -25.327  24.523  13.227  0.00  0.00    -0.650 OA
BRANCH  56  58
ATOM     58  O   UNK d   0     -26.769  25.365  14.783  0.00  0.00    -0.776 OA
ATOM     59  H   UNK d   0     -27.188  26.243  15.137  0.00  0.00     0.167 HD
ENDBRANCH  56  58
ENDBRANCH  55  56
ENDBRANCH  21  55
BRANCH  18  60
ATOM     60  C   UNK d   0     -22.477  23.739  16.353  0.00  0.00     0.151 C 
BRANCH  60  61
ATOM     61  C   UNK d   0     -23.645  23.538  17.224  0.00  0.00     0.143 C 
ATOM     62  O   UNK d   0     -23.674  22.943  18.302  0.00  0.00    -0.650 OA
BRANCH  61  63
ATOM     63  O   UNK d   0     -24.854  24.100  16.749  0.00  0.00    -0.776 OA
ATOM     64  H   UNK d   0     -25.657  24.184  17.347  0.00  0.00     0.167 HD
ENDBRANCH  61  63
ENDBRANCH  60  61
ENDBRANCH  18  60
BRANCH  14  65
ATOM     65  C   UNK d   0     -20.278  23.913  18.438  0.00  0.00     0.052 C 
BRANCH  65  66
ATOM     66  C   UNK d   0     -20.643  23.787  19.874  0.00  0.00     0.115 C 
BRANCH  66  67
ATOM     67  C   UNK d   0     -19.799  23.036  20.760  0.00  0.00     0.139 C 
ATOM     68  O   UNK d   0     -19.304  21.926  20.341  0.00  0.00    -0.650 OA
BRANCH  67  69
ATOM     69  O   UNK d   0     -19.429  23.359  22.065  0.00  0.00    -0.776 OA
ATOM     70  H   UNK d   0     -20.070  23.988  22.570  0.00  0.00     0.167 HD
ENDBRANCH  67  69
ENDBRANCH  66  67
ENDBRANCH  65  66
ENDBRANCH  14  65
ENDBRANCH   6   7
ENDBRANCH   5   6
ENDBRANCH   2   5
TORSDOF 28
ENDMDL
MODEL 5
REMARK VINA RESULT:      -7.3     22.334     25.874
REMARK  28 active torsions:
REMARK  status: ('A' for Active; 'I' for Inactive)
REMARK    1  A    between atoms: C_2  and  O_3 
REMARK    2  A    between atoms: C_2  and  C_4 
REMARK    3  A    between atoms: C_4  and  C_5 
REMARK    4  A    between atoms: C_5  and  C_6 
REMARK    5  A    between atoms: C_7  and  C_8 
REMARK    6  A    between atoms: C_8  and  C_9 
REMARK    7  A    between atoms: C_9  and  O_11 
REMARK    8  A    between atoms: C_28  and  C_29 
REMARK    9  A    between atoms: C_29  and  C_30 
REMARK   10  A    between atoms: C_30  and  O_32 
REMARK   11  A    between atoms: C_33  and  C_34 
REMARK   12  A    between atoms: C_34  and  C_35 
REMARK   13  A    between atoms: C_35  and  C_36 
REMARK   14  A    between atoms: C_36  and  O_38 
REMARK   15  A    between atoms: C_39  and  C_40 
REMARK   16  A    between atoms: C_40  and  C_41 
REMARK   17  A    between atoms: C_41  and  C_42 
REMARK   18  A    between atoms: C_42  and  O_44 
REMARK   19  A    between atoms: C_45  and  C_46 
REMARK   20  A    between atoms: C_46  and  C_47 
REMARK   21  A    between atoms: C_47  and  O_49 
REMARK   22  A    between atoms: C_50  and  C_51 
REMARK   23  A    between atoms: C_51  and  C_52 
REMARK   24  A    between atoms: C_52  and  O_54 
REMARK   25  A    between atoms: C_55  and  C_56 
REMARK   26  A    between atoms: C_56  and  C_57 
REMARK   27  A    between atoms: C_57  and  C_58 
REMARK   28  A    between atoms: C_58  and  O_60 
ROOT
ATOM      1  O   UNK d   0     -26.195   6.401   2.081  0.00  0.00    -0.650 OA
ATOM      2  C   UNK d   0     -25.845   6.609   3.264  0.00  0.00     0.139 C 
ENDROOT
BRANCH   2   3
ATOM      3  O   UNK d   0     -25.078   7.711   3.556  0.00  0.00    -0.776 OA
ATOM      4  H   UNK d   0     -25.317   8.328   4.335  0.00  0.00     0.167 HD
ENDBRANCH   2   3
BRANCH   2   5
ATOM      5  C   UNK d   0     -26.260   5.667   4.343  0.00  0.00     0.115 C 
BRANCH   5   6
ATOM      6  C   UNK d   0     -26.934   6.421   5.457  0.00  0.00     0.052 C 
BRANCH   6   7
ATOM      7  C   UNK d   0     -28.376   6.747   5.148  0.00  0.00    -0.020 A 
ATOM      8  C   UNK d   0     -29.414   5.958   5.260  0.00  0.00    -0.011 A 
ATOM      9  C   UNK d   0     -30.588   6.706   4.842  0.00  0.00     0.067 A 
ATOM     10  C   UNK d   0     -31.966   6.457   4.747  0.00  0.00     0.062 C 
ATOM     11  N   UNK d   0     -30.171   7.939   4.486  0.00  0.00    -0.248 NA
ATOM     12  C   UNK d   0     -32.988   7.399   4.583  0.00  0.00     0.041 A 
ATOM     13  N   UNK d   0     -33.073   8.486   3.792  0.00  0.00    -0.355 N 
ATOM     14  C   UNK d   0     -34.140   7.300   5.384  0.00  0.00    -0.022 A 
ATOM     15  C   UNK d   0     -34.246   9.082   4.076  0.00  0.00     0.042 A 
ATOM     16  H   UNK d   0     -32.328   8.813   3.034  0.00  0.00     0.166 HD
ATOM     17  C   UNK d   0     -34.832  10.247   3.540  0.00  0.00     0.062 C 
ATOM     18  C   UNK d   0     -34.943   8.368   5.069  0.00  0.00    -0.013 A 
ATOM     19  C   UNK d   0     -34.254  11.464   3.286  0.00  0.00     0.067 A 
ATOM     20  N   UNK d   0     -32.922  11.528   3.361  0.00  0.00    -0.248 NA
ATOM     21  C   UNK d   0     -34.728  12.796   2.948  0.00  0.00    -0.011 A 
ATOM     22  C   UNK d   0     -32.491  12.806   3.098  0.00  0.00     0.066 A 
ATOM     23  C   UNK d   0     -31.119  13.007   3.105  0.00  0.00     0.062 C 
ATOM     24  C   UNK d   0     -33.692  13.577   2.844  0.00  0.00    -0.020 A 
ATOM     25  C   UNK d   0     -30.109  12.045   3.259  0.00  0.00     0.041 A 
ATOM     26  N   UNK d   0     -30.017  10.974   4.056  0.00  0.00    -0.355 N 
ATOM     27  C   UNK d   0     -28.954  12.143   2.452  0.00  0.00    -0.022 A 
ATOM     28  C   UNK d   0     -28.844  10.382   3.781  0.00  0.00     0.042 A 
ATOM     29  H   UNK d   0     -30.762  10.652   4.824  0.00  0.00     0.166 HD
ATOM     30  C   UNK d   0     -28.245   9.229   4.313  0.00  0.00     0.062 C 
ATOM     31  C   UNK d   0     -28.149  11.094   2.775  0.00  0.00    -0.013 A 
ATOM     32  C   UNK d   0     -28.851   8.028   4.648  0.00  0.00     0.066 A 
BRANCH   8  33
ATOM     33  C   UNK d   0     -29.416   4.557   5.721  0.00  0.00     0.151 C 
BRANCH  33  34
ATOM     34  C   UNK d   0     -29.529   4.438   7.185  0.00  0.00     0.143 C 
ATOM     35  O   UNK d   0     -30.473   3.823   7.703  0.00  0.00    -0.650 OA
BRANCH  34  36
ATOM     36  O   UNK d   0     -28.574   5.020   7.986  0.00  0.00    -0.776 OA
ATOM     37  H   UNK d   0     -28.817   5.767   8.651  0.00  0.00     0.167 HD
ENDBRANCH  34  36
ENDBRANCH  33  34
ENDBRANCH   8  33
BRANCH  31  38
ATOM     38  C   UNK d   0     -26.807  10.778   2.159  0.00  0.00     0.151 C 
BRANCH  38  39
ATOM     39  C   UNK d   0     -26.883   9.746   1.147  0.00  0.00     0.143 C 
ATOM     40  O   UNK d   0     -27.935   9.490   0.535  0.00  0.00    -0.650 OA
BRANCH  39  41
ATOM     41  O   UNK d   0     -25.743   9.004   0.836  0.00  0.00    -0.776 OA
ATOM     42  H   UNK d   0     -25.786   7.996   1.013  0.00  0.00     0.167 HD
ENDBRANCH  39  41
ENDBRANCH  38  39
ENDBRANCH  31  38
BRANCH  27  43
ATOM     43  C   UNK d   0     -28.598  13.174   1.411  0.00  0.00     0.052 C 
BRANCH  43  44
ATOM     44  C   UNK d   0     -28.446  14.551   1.971  0.00  0.00     0.115 C 
BRANCH  44  45
ATOM     45  C   UNK d   0     -29.425  15.411   1.256  0.00  0.00     0.139 C 
ATOM     46  O   UNK d   0     -30.379  15.894   1.914  0.00  0.00    -0.650 OA
BRANCH  45  47
ATOM     47  O   UNK d   0     -29.324  15.700  -0.087  0.00  0.00    -0.776 OA
ATOM     48  H   UNK d   0     -30.051  16.222  -0.604  0.00  0.00     0.167 HD
ENDBRANCH  45  47
ENDBRANCH  44  45
ENDBRANCH  43  44
ENDBRANCH  27  43
BRANCH  24  49
ATOM     49  C   UNK d   0     -33.714  15.004   2.477  0.00  0.00     0.052 C 
BRANCH  49  50
ATOM     50  C   UNK d   0     -33.687  15.160   0.978  0.00  0.00     0.115 C 
BRANCH  50  51
ATOM     51  C   UNK d   0     -33.355  16.478   0.454  0.00  0.00     0.139 C 
ATOM     52  O   UNK d   0     -33.115  17.460   1.195  0.00  0.00    -0.650 OA
BRANCH  51  53
ATOM     53  O   UNK d   0     -33.298  16.676  -0.917  0.00  0.00    -0.776 OA
ATOM     54  H   UNK d   0     -34.117  17.029  -1.381  0.00  0.00     0.167 HD
ENDBRANCH  51  53
ENDBRANCH  50  51
ENDBRANCH  49  50
ENDBRANCH  24  49
BRANCH  21  55
ATOM     55  C   UNK d   0     -36.167  13.147   2.761  0.00  0.00     0.151 C 
BRANCH  55  56
ATOM     56  C   UNK d   0     -36.598  12.979   1.365  0.00  0.00     0.143 C 
ATOM     57  O   UNK d   0     -36.705  11.863   0.821  0.00  0.00    -0.650 OA
BRANCH  56  58
ATOM     58  O   UNK d   0     -36.897  14.129   0.635  0.00  0.00    -0.776 OA
ATOM     59  H   UNK d   0     -37.202  13.959  -0.341  0.00  0.00     0.167 HD
ENDBRANCH  56  58
ENDBRANCH  55  56
ENDBRANCH  21  55
BRANCH  18  60
ATOM     60  C   UNK d   0     -36.283   8.657   5.700  0.00  0.00     0.151 C 
BRANCH  60  61
ATOM     61  C   UNK d   0     -36.285  10.097   6.001  0.00  0.00     0.143 C 
ATOM     62  O   UNK d   0     -37.168  10.911   5.730  0.00  0.00    -0.650 OA
BRANCH  61  63
ATOM     63  O   UNK d   0     -35.134  10.573   6.675  0.00  0.00    -0.776 OA
ATOM     64  H   UNK d   0     -34.607  11.350   6.316  0.00  0.00     0.167 HD
ENDBRANCH  61  63
ENDBRANCH  60  61
ENDBRANCH  18  60
BRANCH  14  65
ATOM     65  C   UNK d   0     -34.579   6.229   6.342  0.00  0.00     0.052 C 
BRANCH  65  66
ATOM     66  C   UNK d   0     -35.503   5.240   5.725  0.00  0.00     0.115 C 
BRANCH  66  67
ATOM     67  C   UNK d   0     -35.024   3.925   5.402  0.00  0.00     0.139 C 
ATOM     68  O   UNK d   0     -34.077   3.425   6.113  0.00  0.00    -0.650 OA
BRANCH  67  69
ATOM     69  O   UNK d   0     -35.465   3.084   4.381  0.00  0.00    -0.776 OA
ATOM     70  H   UNK d   0     -36.238   2.448   4.626  0.00  0.00     0.167 HD
ENDBRANCH  67  69
ENDBRANCH  66  67
ENDBRANCH  65  66
ENDBRANCH  14  65
ENDBRANCH   6   7
ENDBRANCH   5   6
ENDBRANCH   2   5
TORSDOF 28
ENDMDL
MODEL 6
REMARK VINA RESULT:      -7.2      2.034      7.895
REMARK  28 active torsions:
REMARK  status: ('A' for Active; 'I' for Inactive)
REMARK    1  A    between atoms: C_2  and  O_3 
REMARK    2  A    between atoms: C_2  and  C_4 
REMARK    3  A    between atoms: C_4  and  C_5 
REMARK    4  A    between atoms: C_5  and  C_6 
REMARK    5  A    between atoms: C_7  and  C_8 
REMARK    6  A    between atoms: C_8  and  C_9 
REMARK    7  A    between atoms: C_9  and  O_11 
REMARK    8  A    between atoms: C_28  and  C_29 
REMARK    9  A    between atoms: C_29  and  C_30 
REMARK   10  A    between atoms: C_30  and  O_32 
REMARK   11  A    between atoms: C_33  and  C_34 
REMARK   12  A    between atoms: C_34  and  C_35 
REMARK   13  A    between atoms: C_35  and  C_36 
REMARK   14  A    between atoms: C_36  and  O_38 
REMARK   15  A    between atoms: C_39  and  C_40 
REMARK   16  A    between atoms: C_40  and  C_41 
REMARK   17  A    between atoms: C_41  and  C_42 
REMARK   18  A    between atoms: C_42  and  O_44 
REMARK   19  A    between atoms: C_45  and  C_46 
REMARK   20  A    between atoms: C_46  and  C_47 
REMARK   21  A    between atoms: C_47  and  O_49 
REMARK   22  A    between atoms: C_50  and  C_51 
REMARK   23  A    between atoms: C_51  and  C_52 
REMARK   24  A    between atoms: C_52  and  O_54 
REMARK   25  A    between atoms: C_55  and  C_56 
REMARK   26  A    between atoms: C_56  and  C_57 
REMARK   27  A    between atoms: C_57  and  C_58 
REMARK   28  A    between atoms: C_58  and  O_60 
ROOT
ATOM      1  O   UNK d   0     -18.622  21.217  22.728  0.00  0.00    -0.650 OA
ATOM      2  C   UNK d   0     -19.741  21.548  23.180  0.00  0.00     0.139 C 
ENDROOT
BRANCH   2   3
ATOM      3  O   UNK d   0     -20.459  20.646  23.927  0.00  0.00    -0.776 OA
ATOM      4  H   UNK d   0     -20.318  20.567  24.937  0.00  0.00     0.167 HD
ENDBRANCH   2   3
BRANCH   2   5
ATOM      5  C   UNK d   0     -20.287  22.908  22.906  0.00  0.00     0.115 C 
BRANCH   5   6
ATOM      6  C   UNK d   0     -19.430  23.614  21.891  0.00  0.00     0.052 C 
BRANCH   6   7
ATOM      7  C   UNK d   0     -20.181  23.938  20.621  0.00  0.00    -0.020 A 
ATOM      8  C   UNK d   0     -20.472  23.127  19.637  0.00  0.00    -0.011 A 
ATOM      9  C   UNK d   0     -21.194  23.889  18.632  0.00  0.00     0.067 A 
ATOM     10  C   UNK d   0     -21.788  23.618  17.389  0.00  0.00     0.062 C 
ATOM     11  N   UNK d   0     -21.292  25.157  19.083  0.00  0.00    -0.248 NA
ATOM     12  C   UNK d   0     -22.688  24.425  16.686  0.00  0.00     0.041 A 
ATOM     13  N   UNK d   0     -22.702  25.753  16.465  0.00  0.00    -0.355 N 
ATOM     14  C   UNK d   0     -23.836  23.836  16.125  0.00  0.00    -0.022 A 
ATOM     15  C   UNK d   0     -23.833  26.023  15.786  0.00  0.00     0.042 A 
ATOM     16  H   UNK d   0     -21.919  26.483  16.766  0.00  0.00     0.166 HD
ATOM     17  C   UNK d   0     -24.339  27.247  15.303  0.00  0.00     0.062 C 
ATOM     18  C   UNK d   0     -24.570  24.846  15.555  0.00  0.00    -0.013 A 
ATOM     19  C   UNK d   0     -24.408  28.461  15.937  0.00  0.00     0.067 A 
ATOM     20  N   UNK d   0     -23.742  28.582  17.088  0.00  0.00    -0.248 NA
ATOM     21  C   UNK d   0     -25.065  29.733  15.687  0.00  0.00    -0.011 A 
ATOM     22  C   UNK d   0     -23.916  29.840  17.610  0.00  0.00     0.066 A 
ATOM     23  C   UNK d   0     -23.244  30.116  18.791  0.00  0.00     0.062 C 
ATOM     24  C   UNK d   0     -24.776  30.535  16.672  0.00  0.00    -0.020 A 
ATOM     25  C   UNK d   0     -22.333  29.295  19.475  0.00  0.00     0.041 A 
ATOM     26  N   UNK d   0     -22.327  27.977  19.707  0.00  0.00    -0.355 N 
ATOM     27  C   UNK d   0     -21.179  29.887  20.033  0.00  0.00    -0.022 A 
ATOM     28  C   UNK d   0     -21.205  27.707  20.392  0.00  0.00     0.042 A 
ATOM     29  H   UNK d   0     -23.120  27.247  19.413  0.00  0.00     0.166 HD
ATOM     30  C   UNK d   0     -20.694  26.496  20.886  0.00  0.00     0.062 C 
ATOM     31  C   UNK d   0     -20.459  28.889  20.615  0.00  0.00    -0.013 A 
ATOM     32  C   UNK d   0     -20.703  25.252  20.276  0.00  0.00     0.066 A 
BRANCH   8  33
ATOM     33  C   UNK d   0     -20.134  21.695  19.541  0.00  0.00     0.151 C 
BRANCH  33  34
ATOM     34  C   UNK d   0     -18.784  21.462  18.998  0.00  0.00     0.143 C 
ATOM     35  O   UNK d   0     -18.520  21.723  17.815  0.00  0.00    -0.650 OA
BRANCH  34  36
ATOM     36  O   UNK d   0     -17.806  20.948  19.817  0.00  0.00    -0.776 OA
ATOM     37  H   UNK d   0     -18.024  20.235  20.527  0.00  0.00     0.167 HD
ENDBRANCH  34  36
ENDBRANCH  33  34
ENDBRANCH   8  33
BRANCH  31  38
ATOM     38  C   UNK d   0     -19.136  29.044  21.328  0.00  0.00     0.151 C 
BRANCH  38  39
ATOM     39  C   UNK d   0     -19.288  29.258  22.752  0.00  0.00     0.143 C 
ATOM     40  O   UNK d   0     -19.545  30.375  23.233  0.00  0.00    -0.650 OA
BRANCH  39  41
ATOM     41  O   UNK d   0     -19.143  28.181  23.627  0.00  0.00    -0.776 OA
ATOM     42  H   UNK d   0     -19.937  27.538  23.701  0.00  0.00     0.167 HD
ENDBRANCH  39  41
ENDBRANCH  38  39
ENDBRANCH  31  38
BRANCH  27  43
ATOM     43  C   UNK d   0     -20.748  31.332  20.035  0.00  0.00     0.052 C 
BRANCH  43  44
ATOM     44  C   UNK d   0     -21.631  32.211  20.861  0.00  0.00     0.115 C 
BRANCH  44  45
ATOM     45  C   UNK d   0     -21.768  33.492  20.120  0.00  0.00     0.139 C 
ATOM     46  O   UNK d   0     -22.686  34.278  20.462  0.00  0.00    -0.650 OA
BRANCH  45  47
ATOM     47  O   UNK d   0     -20.931  33.850  19.086  0.00  0.00    -0.776 OA
ATOM     48  H   UNK d   0     -19.907  33.927  19.195  0.00  0.00     0.167 HD
ENDBRANCH  45  47
ENDBRANCH  44  45
ENDBRANCH  43  44
ENDBRANCH  27  43
BRANCH  24  49
ATOM     49  C   UNK d   0     -25.203  31.938  16.803  0.00  0.00     0.052 C 
BRANCH  49  50
ATOM     50  C   UNK d   0     -24.387  32.822  15.895  0.00  0.00     0.115 C 
BRANCH  50  51
ATOM     51  C   UNK d   0     -23.574  33.853  16.525  0.00  0.00     0.139 C 
ATOM     52  O   UNK d   0     -22.557  34.340  15.978  0.00  0.00    -0.650 OA
BRANCH  51  53
ATOM     53  O   UNK d   0     -23.920  34.327  17.781  0.00  0.00    -0.776 OA
ATOM     54  H   UNK d   0     -23.325  34.095  18.557  0.00  0.00     0.167 HD
ENDBRANCH  51  53
ENDBRANCH  50  51
ENDBRANCH  49  50
ENDBRANCH  24  49
BRANCH  21  55
ATOM     55  C   UNK d   0     -25.909  30.017  14.489  0.00  0.00     0.151 C 
BRANCH  55  56
ATOM     56  C   UNK d   0     -27.154  29.234  14.494  0.00  0.00     0.143 C 
ATOM     57  O   UNK d   0     -27.485  28.487  13.552  0.00  0.00    -0.650 OA
BRANCH  56  58
ATOM     58  O   UNK d   0     -27.987  29.345  15.606  0.00  0.00    -0.776 OA
ATOM     59  H   UNK d   0     -28.704  30.090  15.541  0.00  0.00     0.167 HD
ENDBRANCH  56  58
ENDBRANCH  55  56
ENDBRANCH  21  55
BRANCH  18  60
ATOM     60  C   UNK d   0     -25.889  24.661  14.845  0.00  0.00     0.151 C 
BRANCH  60  61
ATOM     61  C   UNK d   0     -26.929  24.975  15.836  0.00  0.00     0.143 C 
ATOM     62  O   UNK d   0     -27.226  24.318  16.834  0.00  0.00    -0.650 OA
BRANCH  61  63
ATOM     63  O   UNK d   0     -27.651  26.169  15.594  0.00  0.00    -0.776 OA
ATOM     64  H   UNK d   0     -27.646  26.603  14.688  0.00  0.00     0.167 HD
ENDBRANCH  61  63
ENDBRANCH  60  61
ENDBRANCH  18  60
BRANCH  14  65
ATOM     65  C   UNK d   0     -24.239  22.394  16.004  0.00  0.00     0.052 C 
BRANCH  65  66
ATOM     66  C   UNK d   0     -23.502  21.673  14.931  0.00  0.00     0.115 C 
BRANCH  66  67
ATOM     67  C   UNK d   0     -23.478  22.210  13.600  0.00  0.00     0.139 C 
ATOM     68  O   UNK d   0     -24.536  22.105  12.877  0.00  0.00    -0.650 OA
BRANCH  67  69
ATOM     69  O   UNK d   0     -22.420  22.854  12.959  0.00  0.00    -0.776 OA
ATOM     70  H   UNK d   0     -22.267  22.593  11.974  0.00  0.00     0.167 HD
ENDBRANCH  67  69
ENDBRANCH  66  67
ENDBRANCH  65  66
ENDBRANCH  14  65
ENDBRANCH   6   7
ENDBRANCH   5   6
ENDBRANCH   2   5
TORSDOF 28
ENDMDL
MODEL 7
REMARK VINA RESULT:      -7.2      1.931      8.074
REMARK  28 active torsions:
REMARK  status: ('A' for Active; 'I' for Inactive)
REMARK    1  A    between atoms: C_2  and  O_3 
REMARK    2  A    between atoms: C_2  and  C_4 
REMARK    3  A    between atoms: C_4  and  C_5 
REMARK    4  A    between atoms: C_5  and  C_6 
REMARK    5  A    between atoms: C_7  and  C_8 
REMARK    6  A    between atoms: C_8  and  C_9 
REMARK    7  A    between atoms: C_9  and  O_11 
REMARK    8  A    between atoms: C_28  and  C_29 
REMARK    9  A    between atoms: C_29  and  C_30 
REMARK   10  A    between atoms: C_30  and  O_32 
REMARK   11  A    between atoms: C_33  and  C_34 
REMARK   12  A    between atoms: C_34  and  C_35 
REMARK   13  A    between atoms: C_35  and  C_36 
REMARK   14  A    between atoms: C_36  and  O_38 
REMARK   15  A    between atoms: C_39  and  C_40 
REMARK   16  A    between atoms: C_40  and  C_41 
REMARK   17  A    between atoms: C_41  and  C_42 
REMARK   18  A    between atoms: C_42  and  O_44 
REMARK   19  A    between atoms: C_45  and  C_46 
REMARK   20  A    between atoms: C_46  and  C_47 
REMARK   21  A    between atoms: C_47  and  O_49 
REMARK   22  A    between atoms: C_50  and  C_51 
REMARK   23  A    between atoms: C_51  and  C_52 
REMARK   24  A    between atoms: C_52  and  O_54 
REMARK   25  A    between atoms: C_55  and  C_56 
REMARK   26  A    between atoms: C_56  and  C_57 
REMARK   27  A    between atoms: C_57  and  C_58 
REMARK   28  A    between atoms: C_58  and  O_60 
ROOT
ATOM      1  O   UNK d   0     -22.430  35.297  17.789  0.00  0.00    -0.650 OA
ATOM      2  C   UNK d   0     -21.616  34.361  17.628  0.00  0.00     0.139 C 
ENDROOT
BRANCH   2   3
ATOM      3  O   UNK d   0     -20.917  34.273  16.448  0.00  0.00    -0.776 OA
ATOM      4  H   UNK d   0     -20.111  34.874  16.266  0.00  0.00     0.167 HD
ENDBRANCH   2   3
BRANCH   2   5
ATOM      5  C   UNK d   0     -21.410  33.353  18.706  0.00  0.00     0.115 C 
BRANCH   5   6
ATOM      6  C   UNK d   0     -22.735  32.922  19.272  0.00  0.00     0.052 C 
BRANCH   6   7
ATOM      7  C   UNK d   0     -23.208  31.605  18.706  0.00  0.00    -0.020 A 
ATOM      8  C   UNK d   0     -24.071  31.414  17.742  0.00  0.00    -0.011 A 
ATOM      9  C   UNK d   0     -24.215  29.980  17.551  0.00  0.00     0.067 A 
ATOM     10  C   UNK d   0     -24.943  29.141  16.692  0.00  0.00     0.062 C 
ATOM     11  N   UNK d   0     -23.407  29.374  18.446  0.00  0.00    -0.248 NA
ATOM     12  C   UNK d   0     -24.740  27.774  16.471  0.00  0.00     0.041 A 
ATOM     13  N   UNK d   0     -24.480  26.767  17.326  0.00  0.00    -0.355 N 
ATOM     14  C   UNK d   0     -24.737  27.292  15.150  0.00  0.00    -0.022 A 
ATOM     15  C   UNK d   0     -24.305  25.659  16.580  0.00  0.00     0.042 A 
ATOM     16  H   UNK d   0     -24.441  26.833  18.436  0.00  0.00     0.166 HD
ATOM     17  C   UNK d   0     -24.014  24.336  16.966  0.00  0.00     0.062 C 
ATOM     18  C   UNK d   0     -24.458  25.949  15.211  0.00  0.00    -0.013 A 
ATOM     19  C   UNK d   0     -23.097  23.886  17.882  0.00  0.00     0.067 A 
ATOM     20  N   UNK d   0     -22.529  24.803  18.669  0.00  0.00    -0.248 NA
ATOM     21  C   UNK d   0     -22.528  22.599  18.244  0.00  0.00    -0.011 A 
ATOM     22  C   UNK d   0     -21.628  24.209  19.519  0.00  0.00     0.066 A 
ATOM     23  C   UNK d   0     -20.990  25.045  20.422  0.00  0.00     0.062 C 
ATOM     24  C   UNK d   0     -21.666  22.795  19.199  0.00  0.00    -0.020 A 
ATOM     25  C   UNK d   0     -21.217  26.413  20.637  0.00  0.00     0.041 A 
ATOM     26  N   UNK d   0     -21.460  27.417  19.787  0.00  0.00    -0.355 N 
ATOM     27  C   UNK d   0     -21.224  26.896  21.964  0.00  0.00    -0.022 A 
ATOM     28  C   UNK d   0     -21.627  28.525  20.527  0.00  0.00     0.042 A 
ATOM     29  H   UNK d   0     -21.489  27.351  18.671  0.00  0.00     0.166 HD
ATOM     30  C   UNK d   0     -21.907  29.849  20.157  0.00  0.00     0.062 C 
ATOM     31  C   UNK d   0     -21.483  28.231  21.904  0.00  0.00    -0.013 A 
ATOM     32  C   UNK d   0     -22.773  30.296  19.171  0.00  0.00     0.066 A 
BRANCH   8  33
ATOM     33  C   UNK d   0     -24.786  32.451  16.976  0.00  0.00     0.151 C 
BRANCH  33  34
ATOM     34  C   UNK d   0     -24.326  32.548  15.579  0.00  0.00     0.143 C 
ATOM     35  O   UNK d   0     -23.515  33.420  15.235  0.00  0.00    -0.650 OA
BRANCH  34  36
ATOM     36  O   UNK d   0     -24.807  31.658  14.646  0.00  0.00    -0.776 OA
ATOM     37  H   UNK d   0     -24.258  30.837  14.359  0.00  0.00     0.167 HD
ENDBRANCH  34  36
ENDBRANCH  33  34
ENDBRANCH   8  33
BRANCH  31  38
ATOM     38  C   UNK d   0     -21.601  29.170  23.081  0.00  0.00     0.151 C 
BRANCH  38  39
ATOM     39  C   UNK d   0     -20.474  30.071  23.196  0.00  0.00     0.143 C 
ATOM     40  O   UNK d   0     -20.588  31.228  23.638  0.00  0.00    -0.650 OA
BRANCH  39  41
ATOM     41  O   UNK d   0     -19.207  29.640  22.801  0.00  0.00    -0.776 OA
ATOM     42  H   UNK d   0     -19.161  29.050  21.964  0.00  0.00     0.167 HD
ENDBRANCH  39  41
ENDBRANCH  38  39
ENDBRANCH  31  38
BRANCH  27  43
ATOM     43  C   UNK d   0     -20.996  26.151  23.256  0.00  0.00     0.052 C 
BRANCH  43  44
ATOM     44  C   UNK d   0     -19.658  25.490  23.329  0.00  0.00     0.115 C 
BRANCH  44  45
ATOM     45  C   UNK d   0     -18.652  26.579  23.438  0.00  0.00     0.139 C 
ATOM     46  O   UNK d   0     -18.620  27.251  24.498  0.00  0.00    -0.650 OA
BRANCH  45  47
ATOM     47  O   UNK d   0     -17.757  26.872  22.432  0.00  0.00    -0.776 OA
ATOM     48  H   UNK d   0     -16.848  27.330  22.607  0.00  0.00     0.167 HD
ENDBRANCH  45  47
ENDBRANCH  44  45
ENDBRANCH  43  44
ENDBRANCH  27  43
BRANCH  24  49
ATOM     49  C   UNK d   0     -20.884  21.756  19.891  0.00  0.00     0.052 C 
BRANCH  49  50
ATOM     50  C   UNK d   0     -19.450  21.783  19.428  0.00  0.00     0.115 C 
BRANCH  50  51
ATOM     51  C   UNK d   0     -18.588  20.695  19.868  0.00  0.00     0.139 C 
ATOM     52  O   UNK d   0     -18.466  19.626  19.225  0.00  0.00    -0.650 OA
BRANCH  51  53
ATOM     53  O   UNK d   0     -17.866  20.824  21.045  0.00  0.00    -0.776 OA
ATOM     54  H   UNK d   0     -17.247  21.610  21.139  0.00  0.00     0.167 HD
ENDBRANCH  51  53
ENDBRANCH  50  51
ENDBRANCH  49  50
ENDBRANCH  24  49
BRANCH  21  55
ATOM     55  C   UNK d   0     -22.907  21.307  17.600  0.00  0.00     0.151 C 
BRANCH  55  56
ATOM     56  C   UNK d   0     -22.803  21.369  16.134  0.00  0.00     0.143 C 
ATOM     57  O   UNK d   0     -23.755  21.097  15.377  0.00  0.00    -0.650 OA
BRANCH  56  58
ATOM     58  O   UNK d   0     -21.579  21.751  15.586  0.00  0.00    -0.776 OA
ATOM     59  H   UNK d   0     -21.030  22.413  16.164  0.00  0.00     0.167 HD
ENDBRANCH  56  58
ENDBRANCH  55  56
ENDBRANCH  21  55
BRANCH  18  60
ATOM     60  C   UNK d   0     -24.350  25.034  14.017  0.00  0.00     0.151 C 
BRANCH  60  61
ATOM     61  C   UNK d   0     -22.946  24.596  13.969  0.00  0.00     0.143 C 
ATOM     62  O   UNK d   0     -21.973  25.170  14.460  0.00  0.00    -0.650 OA
BRANCH  61  63
ATOM     63  O   UNK d   0     -22.717  23.382  13.279  0.00  0.00    -0.776 OA
ATOM     64  H   UNK d   0     -23.462  22.910  12.798  0.00  0.00     0.167 HD
ENDBRANCH  61  63
ENDBRANCH  60  61
ENDBRANCH  18  60
BRANCH  14  65
ATOM     65  C   UNK d   0     -25.072  27.977  13.855  0.00  0.00     0.052 C 
BRANCH  65  66
ATOM     66  C   UNK d   0     -26.497  27.810  13.461  0.00  0.00     0.115 C 
BRANCH  66  67
ATOM     67  C   UNK d   0     -26.825  27.079  12.269  0.00  0.00     0.139 C 
ATOM     68  O   UNK d   0     -27.550  26.023  12.378  0.00  0.00    -0.650 OA
BRANCH  67  69
ATOM     69  O   UNK d   0     -26.448  27.370  10.959  0.00  0.00    -0.776 OA
ATOM     70  H   UNK d   0     -25.804  26.698  10.518  0.00  0.00     0.167 HD
ENDBRANCH  67  69
ENDBRANCH  66  67
ENDBRANCH  65  66
ENDBRANCH  14  65
ENDBRANCH   6   7
ENDBRANCH   5   6
ENDBRANCH   2   5
TORSDOF 28
ENDMDL
MODEL 8
REMARK VINA RESULT:      -7.2      2.496      5.798
REMARK  28 active torsions:
REMARK  status: ('A' for Active; 'I' for Inactive)
REMARK    1  A    between atoms: C_2  and  O_3 
REMARK    2  A    between atoms: C_2  and  C_4 
REMARK    3  A    between atoms: C_4  and  C_5 
REMARK    4  A    between atoms: C_5  and  C_6 
REMARK    5  A    between atoms: C_7  and  C_8 
REMARK    6  A    between atoms: C_8  and  C_9 
REMARK    7  A    between atoms: C_9  and  O_11 
REMARK    8  A    between atoms: C_28  and  C_29 
REMARK    9  A    between atoms: C_29  and  C_30 
REMARK   10  A    between atoms: C_30  and  O_32 
REMARK   11  A    between atoms: C_33  and  C_34 
REMARK   12  A    between atoms: C_34  and  C_35 
REMARK   13  A    between atoms: C_35  and  C_36 
REMARK   14  A    between atoms: C_36  and  O_38 
REMARK   15  A    between atoms: C_39  and  C_40 
REMARK   16  A    between atoms: C_40  and  C_41 
REMARK   17  A    between atoms: C_41  and  C_42 
REMARK   18  A    between atoms: C_42  and  O_44 
REMARK   19  A    between atoms: C_45  and  C_46 
REMARK   20  A    between atoms: C_46  and  C_47 
REMARK   21  A    between atoms: C_47  and  O_49 
REMARK   22  A    between atoms: C_50  and  C_51 
REMARK   23  A    between atoms: C_51  and  C_52 
REMARK   24  A    between atoms: C_52  and  O_54 
REMARK   25  A    between atoms: C_55  and  C_56 
REMARK   26  A    between atoms: C_56  and  C_57 
REMARK   27  A    between atoms: C_57  and  C_58 
REMARK   28  A    between atoms: C_58  and  O_60 
ROOT
ATOM      1  O   UNK d   0     -19.427  18.507  21.562  0.00  0.00    -0.650 OA
ATOM      2  C   UNK d   0     -18.856  18.963  20.547  0.00  0.00     0.139 C 
ENDROOT
BRANCH   2   3
ATOM      3  O   UNK d   0     -17.558  18.596  20.283  0.00  0.00    -0.776 OA
ATOM      4  H   UNK d   0     -16.801  19.282  20.309  0.00  0.00     0.167 HD
ENDBRANCH   2   3
BRANCH   2   5
ATOM      5  C   UNK d   0     -19.579  19.894  19.636  0.00  0.00     0.115 C 
BRANCH   5   6
ATOM      6  C   UNK d   0     -18.764  21.139  19.414  0.00  0.00     0.052 C 
BRANCH   6   7
ATOM      7  C   UNK d   0     -19.524  22.399  19.751  0.00  0.00    -0.020 A 
ATOM      8  C   UNK d   0     -19.668  22.954  20.927  0.00  0.00    -0.011 A 
ATOM      9  C   UNK d   0     -20.487  24.144  20.761  0.00  0.00     0.067 A 
ATOM     10  C   UNK d   0     -20.977  25.161  21.595  0.00  0.00     0.062 C 
ATOM     11  N   UNK d   0     -20.802  24.233  19.452  0.00  0.00    -0.248 NA
ATOM     12  C   UNK d   0     -21.524  26.388  21.204  0.00  0.00     0.041 A 
ATOM     13  N   UNK d   0     -22.392  26.698  20.222  0.00  0.00    -0.355 N 
ATOM     14  C   UNK d   0     -21.108  27.559  21.862  0.00  0.00    -0.022 A 
ATOM     15  C   UNK d   0     -22.532  28.038  20.236  0.00  0.00     0.042 A 
ATOM     16  H   UNK d   0     -22.911  25.984  19.546  0.00  0.00     0.166 HD
ATOM     17  C   UNK d   0     -23.317  28.882  19.426  0.00  0.00     0.062 C 
ATOM     18  C   UNK d   0     -21.742  28.612  21.250  0.00  0.00    -0.013 A 
ATOM     19  C   UNK d   0     -23.484  28.861  18.065  0.00  0.00     0.067 A 
ATOM     20  N   UNK d   0     -23.012  27.794  17.415  0.00  0.00    -0.248 NA
ATOM     21  C   UNK d   0     -24.062  29.748  17.070  0.00  0.00    -0.011 A 
ATOM     22  C   UNK d   0     -23.238  27.920  16.066  0.00  0.00     0.066 A 
ATOM     23  C   UNK d   0     -22.829  26.860  15.271  0.00  0.00     0.062 C 
ATOM     24  C   UNK d   0     -23.910  29.194  15.901  0.00  0.00    -0.020 A 
ATOM     25  C   UNK d   0     -22.293  25.631  15.685  0.00  0.00     0.041 A 
ATOM     26  N   UNK d   0     -21.419  25.323  16.650  0.00  0.00    -0.355 N 
ATOM     27  C   UNK d   0     -22.714  24.455  15.026  0.00  0.00    -0.022 A 
ATOM     28  C   UNK d   0     -21.271  23.989  16.633  0.00  0.00     0.042 A 
ATOM     29  H   UNK d   0     -20.890  26.044  17.322  0.00  0.00     0.166 HD
ATOM     30  C   UNK d   0     -20.487  23.137  17.426  0.00  0.00     0.062 C 
ATOM     31  C   UNK d   0     -22.073  23.411  15.620  0.00  0.00    -0.013 A 
ATOM     32  C   UNK d   0     -20.252  23.214  18.790  0.00  0.00     0.066 A 
BRANCH   8  33
ATOM     33  C   UNK d   0     -19.114  22.474  22.207  0.00  0.00     0.151 C 
BRANCH  33  34
ATOM     34  C   UNK d   0     -20.152  21.971  23.125  0.00  0.00     0.143 C 
ATOM     35  O   UNK d   0     -20.382  22.545  24.200  0.00  0.00    -0.650 OA
BRANCH  34  36
ATOM     36  O   UNK d   0     -20.871  20.850  22.783  0.00  0.00    -0.776 OA
ATOM     37  H   UNK d   0     -20.464  19.908  22.867  0.00  0.00     0.167 HD
ENDBRANCH  34  36
ENDBRANCH  33  34
ENDBRANCH   8  33
BRANCH  31  38
ATOM     38  C   UNK d   0     -22.221  21.952  15.259  0.00  0.00     0.151 C 
BRANCH  38  39
ATOM     39  C   UNK d   0     -23.224  21.276  16.054  0.00  0.00     0.143 C 
ATOM     40  O   UNK d   0     -23.930  21.874  16.885  0.00  0.00    -0.650 OA
BRANCH  39  41
ATOM     41  O   UNK d   0     -23.418  19.904  15.892  0.00  0.00    -0.776 OA
ATOM     42  H   UNK d   0     -23.677  19.582  14.954  0.00  0.00     0.167 HD
ENDBRANCH  39  41
ENDBRANCH  38  39
ENDBRANCH  31  38
BRANCH  27  43
ATOM     43  C   UNK d   0     -23.680  24.292  13.879  0.00  0.00     0.052 C 
BRANCH  43  44
ATOM     44  C   UNK d   0     -25.095  24.105  14.320  0.00  0.00     0.115 C 
BRANCH  44  45
ATOM     45  C   UNK d   0     -25.921  24.053  13.085  0.00  0.00     0.139 C 
ATOM     46  O   UNK d   0     -25.859  23.018  12.376  0.00  0.00    -0.650 OA
BRANCH  45  47
ATOM     47  O   UNK d   0     -26.749  25.083  12.696  0.00  0.00    -0.776 OA
ATOM     48  H   UNK d   0     -26.442  25.839  12.062  0.00  0.00     0.167 HD
ENDBRANCH  45  47
ENDBRANCH  44  45
ENDBRANCH  43  44
ENDBRANCH  27  43
BRANCH  24  49
ATOM     49  C   UNK d   0     -24.385  29.734  14.616  0.00  0.00     0.052 C 
BRANCH  49  50
ATOM     50  C   UNK d   0     -25.871  29.526  14.476  0.00  0.00     0.115 C 
BRANCH  50  51
ATOM     51  C   UNK d   0     -26.311  28.333  13.764  0.00  0.00     0.139 C 
ATOM     52  O   UNK d   0     -27.513  27.978  13.718  0.00  0.00    -0.650 OA
BRANCH  51  53
ATOM     53  O   UNK d   0     -25.380  27.544  13.107  0.00  0.00    -0.776 OA
ATOM     54  H   UNK d   0     -25.285  26.585  13.391  0.00  0.00     0.167 HD
ENDBRANCH  51  53
ENDBRANCH  50  51
ENDBRANCH  49  50
ENDBRANCH  24  49
BRANCH  21  55
ATOM     55  C   UNK d   0     -24.708  31.055  17.390  0.00  0.00     0.151 C 
BRANCH  55  56
ATOM     56  C   UNK d   0     -23.743  32.165  17.380  0.00  0.00     0.143 C 
ATOM     57  O   UNK d   0     -23.434  32.782  16.342  0.00  0.00    -0.650 OA
BRANCH  56  58
ATOM     58  O   UNK d   0     -23.159  32.528  18.593  0.00  0.00    -0.776 OA
ATOM     59  H   UNK d   0     -22.865  31.735  19.191  0.00  0.00     0.167 HD
ENDBRANCH  56  58
ENDBRANCH  55  56
ENDBRANCH  21  55
BRANCH  18  60
ATOM     60  C   UNK d   0     -21.577  30.062  21.635  0.00  0.00     0.151 C 
BRANCH  60  61
ATOM     61  C   UNK d   0     -20.725  30.661  20.596  0.00  0.00     0.143 C 
ATOM     62  O   UNK d   0     -20.821  31.792  20.119  0.00  0.00    -0.650 OA
BRANCH  61  63
ATOM     63  O   UNK d   0     -19.692  29.826  20.108  0.00  0.00    -0.776 OA
ATOM     64  H   UNK d   0     -19.454  29.811  19.132  0.00  0.00     0.167 HD
ENDBRANCH  61  63
ENDBRANCH  60  61
ENDBRANCH  18  60
BRANCH  14  65
ATOM     65  C   UNK d   0     -20.243  27.748  23.076  0.00  0.00     0.052 C 
BRANCH  65  66
ATOM     66  C   UNK d   0     -18.862  28.192  22.743  0.00  0.00     0.115 C 
BRANCH  66  67
ATOM     67  C   UNK d   0     -18.021  27.354  21.935  0.00  0.00     0.139 C 
ATOM     68  O   UNK d   0     -17.482  26.320  22.478  0.00  0.00    -0.650 OA
BRANCH  67  69
ATOM     69  O   UNK d   0     -17.695  27.516  20.589  0.00  0.00    -0.776 OA
ATOM     70  H   UNK d   0     -16.707  27.356  20.345  0.00  0.00     0.167 HD
ENDBRANCH  67  69
ENDBRANCH  66  67
ENDBRANCH  65  66
ENDBRANCH  14  65
ENDBRANCH   6   7
ENDBRANCH   5   6
ENDBRANCH   2   5
TORSDOF 28
ENDMDL
MODEL 9
REMARK VINA RESULT:      -7.1      1.700      4.314
REMARK  28 active torsions:
REMARK  status: ('A' for Active; 'I' for Inactive)
REMARK    1  A    between atoms: C_2  and  O_3 
REMARK    2  A    between atoms: C_2  and  C_4 
REMARK    3  A    between atoms: C_4  and  C_5 
REMARK    4  A    between atoms: C_5  and  C_6 
REMARK    5  A    between atoms: C_7  and  C_8 
REMARK    6  A    between atoms: C_8  and  C_9 
REMARK    7  A    between atoms: C_9  and  O_11 
REMARK    8  A    between atoms: C_28  and  C_29 
REMARK    9  A    between atoms: C_29  and  C_30 
REMARK   10  A    between atoms: C_30  and  O_32 
REMARK   11  A    between atoms: C_33  and  C_34 
REMARK   12  A    between atoms: C_34  and  C_35 
REMARK   13  A    between atoms: C_35  and  C_36 
REMARK   14  A    between atoms: C_36  and  O_38 
REMARK   15  A    between atoms: C_39  and  C_40 
REMARK   16  A    between atoms: C_40  and  C_41 
REMARK   17  A    between atoms: C_41  and  C_42 
REMARK   18  A    between atoms: C_42  and  O_44 
REMARK   19  A    between atoms: C_45  and  C_46 
REMARK   20  A    between atoms: C_46  and  C_47 
REMARK   21  A    between atoms: C_47  and  O_49 
REMARK   22  A    between atoms: C_50  and  C_51 
REMARK   23  A    between atoms: C_51  and  C_52 
REMARK   24  A    between atoms: C_52  and  O_54 
REMARK   25  A    between atoms: C_55  and  C_56 
REMARK   26  A    between atoms: C_56  and  C_57 
REMARK   27  A    between atoms: C_57  and  C_58 
REMARK   28  A    between atoms: C_58  and  O_60 
ROOT
ATOM      1  O   UNK d   0     -21.036  30.320  24.076  0.00  0.00    -0.650 OA
ATOM      2  C   UNK d   0     -20.239  31.090  23.497  0.00  0.00     0.139 C 
ENDROOT
BRANCH   2   3
ATOM      3  O   UNK d   0     -20.286  32.436  23.766  0.00  0.00    -0.776 OA
ATOM      4  H   UNK d   0     -19.543  32.895  24.296  0.00  0.00     0.167 HD
ENDBRANCH   2   3
BRANCH   2   5
ATOM      5  C   UNK d   0     -19.249  30.548  22.523  0.00  0.00     0.115 C 
BRANCH   5   6
ATOM      6  C   UNK d   0     -19.435  31.198  21.179  0.00  0.00     0.052 C 
BRANCH   6   7
ATOM      7  C   UNK d   0     -20.669  30.706  20.461  0.00  0.00    -0.020 A 
ATOM      8  C   UNK d   0     -21.732  31.396  20.137  0.00  0.00    -0.011 A 
ATOM      9  C   UNK d   0     -22.659  30.498  19.468  0.00  0.00     0.067 A 
ATOM     10  C   UNK d   0     -23.926  30.609  18.875  0.00  0.00     0.062 C 
ATOM     11  N   UNK d   0     -22.080  29.280  19.433  0.00  0.00    -0.248 NA
ATOM     12  C   UNK d   0     -24.548  29.686  18.027  0.00  0.00     0.041 A 
ATOM     13  N   UNK d   0     -24.632  28.344  18.086  0.00  0.00    -0.355 N 
ATOM     14  C   UNK d   0     -25.172  30.153  16.855  0.00  0.00    -0.022 A 
ATOM     15  C   UNK d   0     -25.286  27.945  16.979  0.00  0.00     0.042 A 
ATOM     16  H   UNK d   0     -24.253  27.692  18.904  0.00  0.00     0.166 HD
ATOM     17  C   UNK d   0     -25.644  26.654  16.544  0.00  0.00     0.062 C 
ATOM     18  C   UNK d   0     -25.641  29.052  16.183  0.00  0.00    -0.013 A 
ATOM     19  C   UNK d   0     -24.890  25.508  16.533  0.00  0.00     0.067 A 
ATOM     20  N   UNK d   0     -23.729  25.541  17.192  0.00  0.00    -0.248 NA
ATOM     21  C   UNK d   0     -25.011  24.183  15.947  0.00  0.00    -0.011 A 
ATOM     22  C   UNK d   0     -23.082  24.335  17.079  0.00  0.00     0.066 A 
ATOM     23  C   UNK d   0     -21.874  24.218  17.752  0.00  0.00     0.062 C 
ATOM     24  C   UNK d   0     -23.948  23.503  16.267  0.00  0.00    -0.020 A 
ATOM     25  C   UNK d   0     -21.273  25.152  18.609  0.00  0.00     0.041 A 
ATOM     26  N   UNK d   0     -21.177  26.485  18.543  0.00  0.00    -0.355 N 
ATOM     27  C   UNK d   0     -20.651  24.684  19.787  0.00  0.00    -0.022 A 
ATOM     28  C   UNK d   0     -20.517  26.884  19.642  0.00  0.00     0.042 A 
ATOM     29  H   UNK d   0     -21.549  27.138  17.715  0.00  0.00     0.166 HD
ATOM     30  C   UNK d   0     -20.146  28.165  20.082  0.00  0.00     0.062 C 
ATOM     31  C   UNK d   0     -20.170  25.773  20.446  0.00  0.00    -0.013 A 
ATOM     32  C   UNK d   0     -20.881  29.338  20.013  0.00  0.00     0.066 A 
BRANCH   8  33
ATOM     33  C   UNK d   0     -21.972  32.827  20.400  0.00  0.00     0.151 C 
BRANCH  33  34
ATOM     34  C   UNK d   0     -21.828  33.661  19.192  0.00  0.00     0.143 C 
ATOM     35  O   UNK d   0     -22.515  34.680  19.036  0.00  0.00    -0.650 OA
BRANCH  34  36
ATOM     36  O   UNK d   0     -20.917  33.299  18.227  0.00  0.00    -0.776 OA
ATOM     37  H   UNK d   0     -21.184  32.687  17.444  0.00  0.00     0.167 HD
ENDBRANCH  34  36
ENDBRANCH  33  34
ENDBRANCH   8  33
BRANCH  31  38
ATOM     38  C   UNK d   0     -19.437  25.764  21.768  0.00  0.00     0.151 C 
BRANCH  38  39
ATOM     39  C   UNK d   0     -20.327  25.875  22.904  0.00  0.00     0.143 C 
ATOM     40  O   UNK d   0     -20.759  26.969  23.307  0.00  0.00    -0.650 OA
BRANCH  39  41
ATOM     41  O   UNK d   0     -20.722  24.721  23.581  0.00  0.00    -0.776 OA
ATOM     42  H   UNK d   0     -21.727  24.605  23.746  0.00  0.00     0.167 HD
ENDBRANCH  39  41
ENDBRANCH  38  39
ENDBRANCH  31  38
BRANCH  27  43
ATOM     43  C   UNK d   0     -20.498  23.271  20.294  0.00  0.00     0.052 C 
BRANCH  43  44
ATOM     44  C   UNK d   0     -19.612  22.428  19.436  0.00  0.00     0.115 C 
BRANCH  44  45
ATOM     45  C   UNK d   0     -18.859  21.534  20.354  0.00  0.00     0.139 C 
ATOM     46  O   UNK d   0     -19.299  21.376  21.520  0.00  0.00    -0.650 OA
BRANCH  45  47
ATOM     47  O   UNK d   0     -17.709  20.874  19.978  0.00  0.00    -0.776 OA
ATOM     48  H   UNK d   0     -17.706  19.890  19.664  0.00  0.00     0.167 HD
ENDBRANCH  45  47
ENDBRANCH  44  45
ENDBRANCH  43  44
ENDBRANCH  27  43
BRANCH  24  49
ATOM     49  C   UNK d   0     -23.676  22.099  15.914  0.00  0.00     0.052 C 
BRANCH  49  50
ATOM     50  C   UNK d   0     -22.646  22.024  14.817  0.00  0.00     0.115 C 
BRANCH  50  51
ATOM     51  C   UNK d   0     -23.056  22.461  13.489  0.00  0.00     0.139 C 
ATOM     52  O   UNK d   0     -23.974  21.899  12.846  0.00  0.00    -0.650 OA
BRANCH  51  53
ATOM     53  O   UNK d   0     -22.417  23.537  12.893  0.00  0.00    -0.776 OA
ATOM     54  H   UNK d   0     -21.608  23.922  13.349  0.00  0.00     0.167 HD
ENDBRANCH  51  53
ENDBRANCH  50  51
ENDBRANCH  49  50
ENDBRANCH  24  49
BRANCH  21  55
ATOM     55  C   UNK d   0     -26.179  23.734  15.133  0.00  0.00     0.151 C 
BRANCH  55  56
ATOM     56  C   UNK d   0     -26.140  24.276  13.766  0.00  0.00     0.143 C 
ATOM     57  O   UNK d   0     -25.197  24.973  13.344  0.00  0.00    -0.650 OA
BRANCH  56  58
ATOM     58  O   UNK d   0     -27.210  23.986  12.922  0.00  0.00    -0.776 OA
ATOM     59  H   UNK d   0     -27.758  23.147  13.185  0.00  0.00     0.167 HD
ENDBRANCH  56  58
ENDBRANCH  55  56
ENDBRANCH  21  55
BRANCH  18  60
ATOM     60  C   UNK d   0     -26.373  29.091  14.864  0.00  0.00     0.151 C 
BRANCH  60  61
ATOM     61  C   UNK d   0     -25.389  28.701  13.843  0.00  0.00     0.143 C 
ATOM     62  O   UNK d   0     -24.228  29.101  13.741  0.00  0.00    -0.650 OA
BRANCH  61  63
ATOM     63  O   UNK d   0     -25.850  27.764  12.888  0.00  0.00    -0.776 OA
ATOM     64  H   UNK d   0     -26.185  26.860  13.169  0.00  0.00     0.167 HD
ENDBRANCH  61  63
ENDBRANCH  60  61
ENDBRANCH  18  60
BRANCH  14  65
ATOM     65  C   UNK d   0     -25.443  31.551  16.378  0.00  0.00     0.052 C 
BRANCH  65  66
ATOM     66  C   UNK d   0     -24.272  32.172  15.703  0.00  0.00     0.115 C 
BRANCH  66  67
ATOM     67  C   UNK d   0     -23.918  33.532  16.000  0.00  0.00     0.139 C 
ATOM     68  O   UNK d   0     -22.985  34.087  15.311  0.00  0.00    -0.650 OA
BRANCH  67  69
ATOM     69  O   UNK d   0     -24.469  34.364  16.974  0.00  0.00    -0.776 OA
ATOM     70  H   UNK d   0     -25.353  34.828  16.718  0.00  0.00     0.167 HD
ENDBRANCH  67  69
ENDBRANCH  66  67
ENDBRANCH  65  66
ENDBRANCH  14  65
ENDBRANCH   6   7
ENDBRANCH   5   6
ENDBRANCH   2   5
TORSDOF 28
ENDMDL
MODEL 10
REMARK VINA RESULT:      -7.1      1.372      8.256
REMARK  28 active torsions:
REMARK  status: ('A' for Active; 'I' for Inactive)
REMARK    1  A    between atoms: C_2  and  O_3 
REMARK    2  A    between atoms: C_2  and  C_4 
REMARK    3  A    between atoms: C_4  and  C_5 
REMARK    4  A    between atoms: C_5  and  C_6 
REMARK    5  A    between atoms: C_7  and  C_8 
REMARK    6  A    between atoms: C_8  and  C_9 
REMARK    7  A    between atoms: C_9  and  O_11 
REMARK    8  A    between atoms: C_28  and  C_29 
REMARK    9  A    between atoms: C_29  and  C_30 
REMARK   10  A    between atoms: C_30  and  O_32 
REMARK   11  A    between atoms: C_33  and  C_34 
REMARK   12  A    between atoms: C_34  and  C_35 
REMARK   13  A    between atoms: C_35  and  C_36 
REMARK   14  A    between atoms: C_36  and  O_38 
REMARK   15  A    between atoms: C_39  and  C_40 
REMARK   16  A    between atoms: C_40  and  C_41 
REMARK   17  A    between atoms: C_41  and  C_42 
REMARK   18  A    between atoms: C_42  and  O_44 
REMARK   19  A    between atoms: C_45  and  C_46 
REMARK   20  A    between atoms: C_46  and  C_47 
REMARK   21  A    between atoms: C_47  and  O_49 
REMARK   22  A    between atoms: C_50  and  C_51 
REMARK   23  A    between atoms: C_51  and  C_52 
REMARK   24  A    between atoms: C_52  and  O_54 
REMARK   25  A    between atoms: C_55  and  C_56 
REMARK   26  A    between atoms: C_56  and  C_57 
REMARK   27  A    between atoms: C_57  and  C_58 
REMARK   28  A    between atoms: C_58  and  O_60 
ROOT
ATOM      1  O   UNK d   0     -22.668  19.903  19.805  0.00  0.00    -0.650 OA
ATOM      2  C   UNK d   0     -21.612  20.492  19.483  0.00  0.00     0.139 C 
ENDROOT
BRANCH   2   3
ATOM      3  O   UNK d   0     -20.475  19.758  19.249  0.00  0.00    -0.776 OA
ATOM      4  H   UNK d   0     -20.236  19.441  18.307  0.00  0.00     0.167 HD
ENDBRANCH   2   3
BRANCH   2   5
ATOM      5  C   UNK d   0     -21.593  21.977  19.357  0.00  0.00     0.115 C 
BRANCH   5   6
ATOM      6  C   UNK d   0     -20.763  22.386  18.171  0.00  0.00     0.052 C 
BRANCH   6   7
ATOM      7  C   UNK d   0     -21.364  23.544  17.411  0.00  0.00    -0.020 A 
ATOM      8  C   UNK d   0     -21.905  23.522  16.220  0.00  0.00    -0.011 A 
ATOM      9  C   UNK d   0     -22.336  24.873  15.902  0.00  0.00     0.067 A 
ATOM     10  C   UNK d   0     -22.984  25.503  14.828  0.00  0.00     0.062 C 
ATOM     11  N   UNK d   0     -22.014  25.654  16.955  0.00  0.00    -0.248 NA
ATOM     12  C   UNK d   0     -23.570  26.773  14.820  0.00  0.00     0.041 A 
ATOM     13  N   UNK d   0     -23.148  27.948  15.326  0.00  0.00    -0.355 N 
ATOM     14  C   UNK d   0     -24.847  26.930  14.250  0.00  0.00    -0.022 A 
ATOM     15  C   UNK d   0     -24.128  28.843  15.099  0.00  0.00     0.042 A 
ATOM     16  H   UNK d   0     -22.169  28.144  15.816  0.00  0.00     0.166 HD
ATOM     17  C   UNK d   0     -24.204  30.213  15.420  0.00  0.00     0.062 C 
ATOM     18  C   UNK d   0     -25.209  28.242  14.427  0.00  0.00    -0.013 A 
ATOM     19  C   UNK d   0     -23.873  30.845  16.591  0.00  0.00     0.067 A 
ATOM     20  N   UNK d   0     -23.205  30.126  17.497  0.00  0.00    -0.248 NA
ATOM     21  C   UNK d   0     -24.077  32.167  17.159  0.00  0.00    -0.011 A 
ATOM     22  C   UNK d   0     -22.958  30.882  18.617  0.00  0.00     0.066 A 
ATOM     23  C   UNK d   0     -22.234  30.268  19.628  0.00  0.00     0.062 C 
ATOM     24  C   UNK d   0     -23.543  32.181  18.346  0.00  0.00    -0.020 A 
ATOM     25  C   UNK d   0     -21.643  28.995  19.612  0.00  0.00     0.041 A 
ATOM     26  N   UNK d   0     -22.069  27.825  19.123  0.00  0.00    -0.355 N 
ATOM     27  C   UNK d   0     -20.360  28.840  20.180  0.00  0.00    -0.022 A 
ATOM     28  C   UNK d   0     -21.098  26.928  19.355  0.00  0.00     0.042 A 
ATOM     29  H   UNK d   0     -23.058  27.627  18.640  0.00  0.00     0.166 HD
ATOM     30  C   UNK d   0     -21.012  25.560  19.050  0.00  0.00     0.062 C 
ATOM     31  C   UNK d   0     -20.007  27.535  20.021  0.00  0.00    -0.013 A 
ATOM     32  C   UNK d   0     -21.427  24.914  17.896  0.00  0.00     0.066 A 
BRANCH   8  33
ATOM     33  C   UNK d   0     -22.054  22.350  15.337  0.00  0.00     0.151 C 
BRANCH  33  34
ATOM     34  C   UNK d   0     -23.192  21.493  15.715  0.00  0.00     0.143 C 
ATOM     35  O   UNK d   0     -24.208  21.976  16.236  0.00  0.00    -0.650 OA
BRANCH  34  36
ATOM     36  O   UNK d   0     -23.122  20.138  15.486  0.00  0.00    -0.776 OA
ATOM     37  H   UNK d   0     -22.910  19.765  14.551  0.00  0.00     0.167 HD
ENDBRANCH  34  36
ENDBRANCH  33  34
ENDBRANCH   8  33
BRANCH  31  38
ATOM     38  C   UNK d   0     -18.707  26.903  20.461  0.00  0.00     0.151 C 
BRANCH  38  39
ATOM     39  C   UNK d   0     -18.737  26.459  21.839  0.00  0.00     0.143 C 
ATOM     40  O   UNK d   0     -19.767  26.005  22.369  0.00  0.00    -0.650 OA
BRANCH  39  41
ATOM     41  O   UNK d   0     -17.578  26.535  22.610  0.00  0.00    -0.776 OA
ATOM     42  H   UNK d   0     -17.588  26.043  23.509  0.00  0.00     0.167 HD
ENDBRANCH  39  41
ENDBRANCH  38  39
ENDBRANCH  31  38
BRANCH  27  43
ATOM     43  C   UNK d   0     -19.479  29.863  20.853  0.00  0.00     0.052 C 
BRANCH  43  44
ATOM     44  C   UNK d   0     -19.593  29.850  22.343  0.00  0.00     0.115 C 
BRANCH  44  45
ATOM     45  C   UNK d   0     -19.409  31.254  22.795  0.00  0.00     0.139 C 
ATOM     46  O   UNK d   0     -20.341  31.795  23.440  0.00  0.00    -0.650 OA
BRANCH  45  47
ATOM     47  O   UNK d   0     -18.263  31.977  22.541  0.00  0.00    -0.776 OA
ATOM     48  H   UNK d   0     -17.322  31.647  22.807  0.00  0.00     0.167 HD
ENDBRANCH  45  47
ENDBRANCH  44  45
ENDBRANCH  43  44
ENDBRANCH  27  43
BRANCH  24  49
ATOM     49  C   UNK d   0     -23.486  33.335  19.260  0.00  0.00     0.052 C 
BRANCH  49  50
ATOM     50  C   UNK d   0     -22.081  33.536  19.766  0.00  0.00     0.115 C 
BRANCH  50  51
ATOM     51  C   UNK d   0     -21.046  33.786  18.772  0.00  0.00     0.139 C 
ATOM     52  O   UNK d   0     -21.181  34.626  17.852  0.00  0.00    -0.650 OA
BRANCH  51  53
ATOM     53  O   UNK d   0     -19.856  33.075  18.827  0.00  0.00    -0.776 OA
ATOM     54  H   UNK d   0     -19.831  32.232  19.373  0.00  0.00     0.167 HD
ENDBRANCH  51  53
ENDBRANCH  50  51
ENDBRANCH  49  50
ENDBRANCH  24  49
BRANCH  21  55
ATOM     55  C   UNK d   0     -24.780  33.279  16.454  0.00  0.00     0.151 C 
BRANCH  55  56
ATOM     56  C   UNK d   0     -23.982  33.819  15.342  0.00  0.00     0.143 C 
ATOM     57  O   UNK d   0     -24.465  34.053  14.217  0.00  0.00    -0.650 OA
BRANCH  56  58
ATOM     58  O   UNK d   0     -22.632  34.073  15.576  0.00  0.00    -0.776 OA
ATOM     59  H   UNK d   0     -22.106  33.286  15.997  0.00  0.00     0.167 HD
ENDBRANCH  56  58
ENDBRANCH  55  56
ENDBRANCH  21  55
BRANCH  18  60
ATOM     60  C   UNK d   0     -26.515  28.847  13.973  0.00  0.00     0.151 C 
BRANCH  60  61
ATOM     61  C   UNK d   0     -27.403  28.816  15.145  0.00  0.00     0.143 C 
ATOM     62  O   UNK d   0     -27.985  27.835  15.609  0.00  0.00    -0.650 OA
BRANCH  61  63
ATOM     63  O   UNK d   0     -27.593  30.061  15.791  0.00  0.00    -0.776 OA
ATOM     64  H   UNK d   0     -27.085  30.295  16.625  0.00  0.00     0.167 HD
ENDBRANCH  61  63
ENDBRANCH  60  61
ENDBRANCH  18  60
BRANCH  14  65
ATOM     65  C   UNK d   0     -25.699  25.967  13.473  0.00  0.00     0.052 C 
BRANCH  65  66
ATOM     66  C   UNK d   0     -26.373  24.960  14.336  0.00  0.00     0.115 C 
BRANCH  66  67
ATOM     67  C   UNK d   0     -26.662  23.654  13.813  0.00  0.00     0.139 C 
ATOM     68  O   UNK d   0     -27.152  23.562  12.628  0.00  0.00    -0.650 OA
BRANCH  67  69
ATOM     69  O   UNK d   0     -26.476  22.423  14.441  0.00  0.00    -0.776 OA
ATOM     70  H   UNK d   0     -26.501  22.438  15.471  0.00  0.00     0.167 HD
ENDBRANCH  67  69
ENDBRANCH  66  67
ENDBRANCH  65  66
ENDBRANCH  14  65
ENDBRANCH   6   7
ENDBRANCH   5   6
ENDBRANCH   2   5
TORSDOF 28
ENDMDL
MODEL 11
REMARK VINA RESULT:      -7.0      1.636      7.804
REMARK  28 active torsions:
REMARK  status: ('A' for Active; 'I' for Inactive)
REMARK    1  A    between atoms: C_2  and  O_3 
REMARK    2  A    between atoms: C_2  and  C_4 
REMARK    3  A    between atoms: C_4  and  C_5 
REMARK    4  A    between atoms: C_5  and  C_6 
REMARK    5  A    between atoms: C_7  and  C_8 
REMARK    6  A    between atoms: C_8  and  C_9 
REMARK    7  A    between atoms: C_9  and  O_11 
REMARK    8  A    between atoms: C_28  and  C_29 
REMARK    9  A    between atoms: C_29  and  C_30 
REMARK   10  A    between atoms: C_30  and  O_32 
REMARK   11  A    between atoms: C_33  and  C_34 
REMARK   12  A    between atoms: C_34  and  C_35 
REMARK   13  A    between atoms: C_35  and  C_36 
REMARK   14  A    between atoms: C_36  and  O_38 
REMARK   15  A    between atoms: C_39  and  C_40 
REMARK   16  A    between atoms: C_40  and  C_41 
REMARK   17  A    between atoms: C_41  and  C_42 
REMARK   18  A    between atoms: C_42  and  O_44 
REMARK   19  A    between atoms: C_45  and  C_46 
REMARK   20  A    between atoms: C_46  and  C_47 
REMARK   21  A    between atoms: C_47  and  O_49 
REMARK   22  A    between atoms: C_50  and  C_51 
REMARK   23  A    between atoms: C_51  and  C_52 
REMARK   24  A    between atoms: C_52  and  O_54 
REMARK   25  A    between atoms: C_55  and  C_56 
REMARK   26  A    between atoms: C_56  and  C_57 
REMARK   27  A    between atoms: C_57  and  C_58 
REMARK   28  A    between atoms: C_58  and  O_60 
ROOT
ATOM      1  O   UNK d   0     -19.913  24.032  15.600  0.00  0.00    -0.650 OA
ATOM      2  C   UNK d   0     -20.347  22.884  15.841  0.00  0.00     0.139 C 
ENDROOT
BRANCH   2   3
ATOM      3  O   UNK d   0     -19.544  21.985  16.501  0.00  0.00    -0.776 OA
ATOM      4  H   UNK d   0     -19.110  21.203  16.006  0.00  0.00     0.167 HD
ENDBRANCH   2   3
BRANCH   2   5
ATOM      5  C   UNK d   0     -21.722  22.499  15.413  0.00  0.00     0.115 C 
BRANCH   5   6
ATOM      6  C   UNK d   0     -22.635  22.428  16.608  0.00  0.00     0.052 C 
BRANCH   6   7
ATOM      7  C   UNK d   0     -22.574  23.672  17.460  0.00  0.00    -0.020 A 
ATOM      8  C   UNK d   0     -22.120  23.781  18.682  0.00  0.00    -0.011 A 
ATOM      9  C   UNK d   0     -22.273  25.167  19.092  0.00  0.00     0.067 A 
ATOM     10  C   UNK d   0     -21.974  25.924  20.236  0.00  0.00     0.062 C 
ATOM     11  N   UNK d   0     -22.835  25.831  18.060  0.00  0.00    -0.248 NA
ATOM     12  C   UNK d   0     -21.941  27.319  20.344  0.00  0.00     0.041 A 
ATOM     13  N   UNK d   0     -22.774  28.265  19.868  0.00  0.00    -0.355 N 
ATOM     14  C   UNK d   0     -20.856  27.925  21.003  0.00  0.00    -0.022 A 
ATOM     15  C   UNK d   0     -22.240  29.455  20.202  0.00  0.00     0.042 A 
ATOM     16  H   UNK d   0     -23.729  28.094  19.325  0.00  0.00     0.166 HD
ATOM     17  C   UNK d   0     -22.700  30.764  19.953  0.00  0.00     0.062 C 
ATOM     18  C   UNK d   0     -21.038  29.283  20.914  0.00  0.00    -0.013 A 
ATOM     19  C   UNK d   0     -23.206  31.294  18.794  0.00  0.00     0.067 A 
ATOM     20  N   UNK d   0     -23.496  30.437  17.812  0.00  0.00    -0.248 NA
ATOM     21  C   UNK d   0     -23.520  32.626  18.304  0.00  0.00    -0.011 A 
ATOM     22  C   UNK d   0     -23.975  31.111  16.716  0.00  0.00     0.066 A 
ATOM     23  C   UNK d   0     -24.353  30.334  15.631  0.00  0.00     0.062 C 
ATOM     24  C   UNK d   0     -23.966  32.513  17.087  0.00  0.00    -0.020 A 
ATOM     25  C   UNK d   0     -24.391  28.934  15.547  0.00  0.00     0.041 A 
ATOM     26  N   UNK d   0     -23.556  27.994  16.007  0.00  0.00    -0.355 N 
ATOM     27  C   UNK d   0     -25.482  28.326  14.889  0.00  0.00    -0.022 A 
ATOM     28  C   UNK d   0     -24.081  26.806  15.668  0.00  0.00     0.042 A 
ATOM     29  H   UNK d   0     -22.591  28.168  16.543  0.00  0.00     0.166 HD
ATOM     30  C   UNK d   0     -23.629  25.497  15.900  0.00  0.00     0.062 C 
ATOM     31  C   UNK d   0     -25.295  26.980  14.961  0.00  0.00    -0.013 A 
ATOM     32  C   UNK d   0     -23.040  24.988  17.047  0.00  0.00     0.066 A 
BRANCH   8  33
ATOM     33  C   UNK d   0     -21.554  22.704  19.516  0.00  0.00     0.151 C 
BRANCH  33  34
ATOM     34  C   UNK d   0     -20.135  22.924  19.846  0.00  0.00     0.143 C 
ATOM     35  O   UNK d   0     -19.236  22.400  19.173  0.00  0.00    -0.650 OA
BRANCH  34  36
ATOM     36  O   UNK d   0     -19.806  23.721  20.918  0.00  0.00    -0.776 OA
ATOM     37  H   UNK d   0     -19.886  23.376  21.884  0.00  0.00     0.167 HD
ENDBRANCH  34  36
ENDBRANCH  33  34
ENDBRANCH   8  33
BRANCH  31  38
ATOM     38  C   UNK d   0     -26.217  25.920  14.406  0.00  0.00     0.151 C 
BRANCH  38  39
ATOM     39  C   UNK d   0     -25.929  25.592  13.026  0.00  0.00     0.143 C 
ATOM     40  O   UNK d   0     -25.144  24.682  12.708  0.00  0.00    -0.650 OA
BRANCH  39  41
ATOM     41  O   UNK d   0     -26.549  26.314  12.006  0.00  0.00    -0.776 OA
ATOM     42  H   UNK d   0     -26.101  26.287  11.084  0.00  0.00     0.167 HD
ENDBRANCH  39  41
ENDBRANCH  38  39
ENDBRANCH  31  38
BRANCH  27  43
ATOM     43  C   UNK d   0     -26.667  28.965  14.208  0.00  0.00     0.052 C 
BRANCH  43  44
ATOM     44  C   UNK d   0     -27.950  28.770  14.950  0.00  0.00     0.115 C 
BRANCH  44  45
ATOM     45  C   UNK d   0     -28.970  28.387  13.939  0.00  0.00     0.139 C 
ATOM     46  O   UNK d   0     -28.576  28.081  12.787  0.00  0.00    -0.650 OA
BRANCH  45  47
ATOM     47  O   UNK d   0     -30.319  28.348  14.217  0.00  0.00    -0.776 OA
ATOM     48  H   UNK d   0     -30.745  28.870  15.000  0.00  0.00     0.167 HD
ENDBRANCH  45  47
ENDBRANCH  44  45
ENDBRANCH  43  44
ENDBRANCH  27  43
BRANCH  24  49
ATOM     49  C   UNK d   0     -24.438  33.613  16.228  0.00  0.00     0.052 C 
BRANCH  49  50
ATOM     50  C   UNK d   0     -23.295  34.175  15.422  0.00  0.00     0.115 C 
BRANCH  50  51
ATOM     51  C   UNK d   0     -22.209  34.807  16.159  0.00  0.00     0.139 C 
ATOM     52  O   UNK d   0     -22.366  35.854  16.830  0.00  0.00    -0.650 OA
BRANCH  51  53
ATOM     53  O   UNK d   0     -20.942  34.245  16.129  0.00  0.00    -0.776 OA
ATOM     54  H   UNK d   0     -20.250  34.597  16.767  0.00  0.00     0.167 HD
ENDBRANCH  51  53
ENDBRANCH  50  51
ENDBRANCH  49  50
ENDBRANCH  24  49
BRANCH  21  55
ATOM     55  C   UNK d   0     -23.347  33.873  19.107  0.00  0.00     0.151 C 
BRANCH  55  56
ATOM     56  C   UNK d   0     -22.091  33.866  19.873  0.00  0.00     0.143 C 
ATOM     57  O   UNK d   0     -22.055  33.708  21.109  0.00  0.00    -0.650 OA
BRANCH  56  58
ATOM     58  O   UNK d   0     -20.901  34.044  19.170  0.00  0.00    -0.776 OA
ATOM     59  H   UNK d   0     -20.339  34.864  19.463  0.00  0.00     0.167 HD
ENDBRANCH  56  58
ENDBRANCH  55  56
ENDBRANCH  21  55
BRANCH  18  60
ATOM     60  C   UNK d   0     -20.100  30.319  21.481  0.00  0.00     0.151 C 
BRANCH  60  61
ATOM     61  C   UNK d   0     -20.707  30.764  22.745  0.00  0.00     0.143 C 
ATOM     62  O   UNK d   0     -21.322  30.072  23.557  0.00  0.00    -0.650 OA
BRANCH  61  63
ATOM     63  O   UNK d   0     -20.552  32.141  23.037  0.00  0.00    -0.776 OA
ATOM     64  H   UNK d   0     -19.716  32.488  23.471  0.00  0.00     0.167 HD
ENDBRANCH  61  63
ENDBRANCH  60  61
ENDBRANCH  18  60
BRANCH  14  65
ATOM     65  C   UNK d   0     -19.725  27.324  21.788  0.00  0.00     0.052 C 
BRANCH  65  66
ATOM     66  C   UNK d   0     -20.128  26.898  23.155  0.00  0.00     0.115 C 
BRANCH  66  67
ATOM     67  C   UNK d   0     -19.308  25.969  23.882  0.00  0.00     0.139 C 
ATOM     68  O   UNK d   0     -18.558  26.419  24.824  0.00  0.00    -0.650 OA
BRANCH  67  69
ATOM     69  O   UNK d   0     -19.211  24.591  23.696  0.00  0.00    -0.776 OA
ATOM     70  H   UNK d   0     -20.062  24.049  23.905  0.00  0.00     0.167 HD
ENDBRANCH  67  69
ENDBRANCH  66  67
ENDBRANCH  65  66
ENDBRANCH  14  65
ENDBRANCH   6   7
ENDBRANCH   5   6
ENDBRANCH   2   5
TORSDOF 28
ENDMDL
MODEL 12
REMARK VINA RESULT:      -7.0      5.171     11.444
REMARK  28 active torsions:
REMARK  status: ('A' for Active; 'I' for Inactive)
REMARK    1  A    between atoms: C_2  and  O_3 
REMARK    2  A    between atoms: C_2  and  C_4 
REMARK    3  A    between atoms: C_4  and  C_5 
REMARK    4  A    between atoms: C_5  and  C_6 
REMARK    5  A    between atoms: C_7  and  C_8 
REMARK    6  A    between atoms: C_8  and  C_9 
REMARK    7  A    between atoms: C_9  and  O_11 
REMARK    8  A    between atoms: C_28  and  C_29 
REMARK    9  A    between atoms: C_29  and  C_30 
REMARK   10  A    between atoms: C_30  and  O_32 
REMARK   11  A    between atoms: C_33  and  C_34 
REMARK   12  A    between atoms: C_34  and  C_35 
REMARK   13  A    between atoms: C_35  and  C_36 
REMARK   14  A    between atoms: C_36  and  O_38 
REMARK   15  A    between atoms: C_39  and  C_40 
REMARK   16  A    between atoms: C_40  and  C_41 
REMARK   17  A    between atoms: C_41  and  C_42 
REMARK   18  A    between atoms: C_42  and  O_44 
REMARK   19  A    between atoms: C_45  and  C_46 
REMARK   20  A    between atoms: C_46  and  C_47 
REMARK   21  A    between atoms: C_47  and  O_49 
REMARK   22  A    between atoms: C_50  and  C_51 
REMARK   23  A    between atoms: C_51  and  C_52 
REMARK   24  A    between atoms: C_52  and  O_54 
REMARK   25  A    between atoms: C_55  and  C_56 
REMARK   26  A    between atoms: C_56  and  C_57 
REMARK   27  A    between atoms: C_57  and  C_58 
REMARK   28  A    between atoms: C_58  and  O_60 
ROOT
ATOM      1  O   UNK d   0     -27.926  16.121  15.416  0.00  0.00    -0.650 OA
ATOM      2  C   UNK d   0     -26.787  15.627  15.261  0.00  0.00     0.139 C 
ENDROOT
BRANCH   2   3
ATOM      3  O   UNK d   0     -26.175  15.716  14.034  0.00  0.00    -0.776 OA
ATOM      4  H   UNK d   0     -26.653  15.414  13.183  0.00  0.00     0.167 HD
ENDBRANCH   2   3
BRANCH   2   5
ATOM      5  C   UNK d   0     -26.106  14.946  16.399  0.00  0.00     0.115 C 
BRANCH   5   6
ATOM      6  C   UNK d   0     -24.616  14.957  16.191  0.00  0.00     0.052 C 
BRANCH   6   7
ATOM      7  C   UNK d   0     -23.931  16.065  16.954  0.00  0.00    -0.020 A 
ATOM      8  C   UNK d   0     -23.315  15.979  18.106  0.00  0.00    -0.011 A 
ATOM      9  C   UNK d   0     -22.822  17.303  18.447  0.00  0.00     0.067 A 
ATOM     10  C   UNK d   0     -22.087  17.870  19.500  0.00  0.00     0.062 C 
ATOM     11  N   UNK d   0     -23.188  18.136  17.450  0.00  0.00    -0.248 NA
ATOM     12  C   UNK d   0     -21.463  19.122  19.520  0.00  0.00     0.041 A 
ATOM     13  N   UNK d   0     -21.880  20.327  19.089  0.00  0.00    -0.355 N 
ATOM     14  C   UNK d   0     -20.148  19.219  20.009  0.00  0.00    -0.022 A 
ATOM     15  C   UNK d   0     -20.861  21.185  19.285  0.00  0.00     0.042 A 
ATOM     16  H   UNK d   0     -22.882  20.571  18.673  0.00  0.00     0.166 HD
ATOM     17  C   UNK d   0     -20.763  22.564  19.014  0.00  0.00     0.062 C 
ATOM     18  C   UNK d   0     -19.757  20.526  19.860  0.00  0.00    -0.013 A 
ATOM     19  C   UNK d   0     -21.149  23.252  17.893  0.00  0.00     0.067 A 
ATOM     20  N   UNK d   0     -21.897  22.591  17.005  0.00  0.00    -0.248 NA
ATOM     21  C   UNK d   0     -20.942  24.591  17.365  0.00  0.00    -0.011 A 
ATOM     22  C   UNK d   0     -22.192  23.399  15.935  0.00  0.00     0.066 A 
ATOM     23  C   UNK d   0     -22.998  22.848  14.950  0.00  0.00     0.062 C 
ATOM     24  C   UNK d   0     -21.551  24.669  16.217  0.00  0.00    -0.020 A 
ATOM     25  C   UNK d   0     -23.626  21.593  14.955  0.00  0.00     0.041 A 
ATOM     26  N   UNK d   0     -23.206  20.391  15.369  0.00  0.00    -0.355 N 
ATOM     27  C   UNK d   0     -24.948  21.497  14.468  0.00  0.00    -0.022 A 
ATOM     28  C   UNK d   0     -24.217  19.533  15.166  0.00  0.00     0.042 A 
ATOM     29  H   UNK d   0     -22.195  20.146  15.778  0.00  0.00     0.166 HD
ATOM     30  C   UNK d   0     -24.326  18.157  15.423  0.00  0.00     0.062 C 
ATOM     31  C   UNK d   0     -25.330  20.197  14.598  0.00  0.00    -0.013 A 
ATOM     32  C   UNK d   0     -23.857  17.452  16.520  0.00  0.00     0.066 A 
BRANCH   8  33
ATOM     33  C   UNK d   0     -23.146  14.768  18.930  0.00  0.00     0.151 C 
BRANCH  33  34
ATOM     34  C   UNK d   0     -24.317  14.487  19.780  0.00  0.00     0.143 C 
ATOM     35  O   UNK d   0     -24.621  15.242  20.715  0.00  0.00    -0.650 OA
BRANCH  34  36
ATOM     36  O   UNK d   0     -25.081  13.371  19.529  0.00  0.00    -0.776 OA
ATOM     37  H   UNK d   0     -24.740  12.617  18.916  0.00  0.00     0.167 HD
ENDBRANCH  34  36
ENDBRANCH  33  34
ENDBRANCH   8  33
BRANCH  31  38
ATOM     38  C   UNK d   0     -26.674  19.621  14.220  0.00  0.00     0.151 C 
BRANCH  38  39
ATOM     39  C   UNK d   0     -27.619  19.631  15.317  0.00  0.00     0.143 C 
ATOM     40  O   UNK d   0     -27.431  20.297  16.350  0.00  0.00    -0.650 OA
BRANCH  39  41
ATOM     41  O   UNK d   0     -28.786  18.873  15.225  0.00  0.00    -0.776 OA
ATOM     42  H   UNK d   0     -29.423  18.907  16.027  0.00  0.00     0.167 HD
ENDBRANCH  39  41
ENDBRANCH  38  39
ENDBRANCH  31  38
BRANCH  27  43
ATOM     43  C   UNK d   0     -25.838  22.571  13.894  0.00  0.00     0.052 C 
BRANCH  43  44
ATOM     44  C   UNK d   0     -26.447  23.453  14.936  0.00  0.00     0.115 C 
BRANCH  44  45
ATOM     45  C   UNK d   0     -26.122  24.851  14.551  0.00  0.00     0.139 C 
ATOM     46  O   UNK d   0     -26.462  25.774  15.333  0.00  0.00    -0.650 OA
BRANCH  45  47
ATOM     47  O   UNK d   0     -25.465  25.172  13.384  0.00  0.00    -0.776 OA
ATOM     48  H   UNK d   0     -24.589  25.719  13.366  0.00  0.00     0.167 HD
ENDBRANCH  45  47
ENDBRANCH  44  45
ENDBRANCH  43  44
ENDBRANCH  27  43
BRANCH  24  49
ATOM     49  C   UNK d   0     -21.630  25.861  15.355  0.00  0.00     0.052 C 
BRANCH  49  50
ATOM     50  C   UNK d   0     -22.948  26.565  15.553  0.00  0.00     0.115 C 
BRANCH  50  51
ATOM     51  C   UNK d   0     -23.247  27.680  14.665  0.00  0.00     0.139 C 
ATOM     52  O   UNK d   0     -22.431  28.607  14.446  0.00  0.00    -0.650 OA
BRANCH  51  53
ATOM     53  O   UNK d   0     -24.477  27.740  14.028  0.00  0.00    -0.776 OA
ATOM     54  H   UNK d   0     -24.789  28.630  13.681  0.00  0.00     0.167 HD
ENDBRANCH  51  53
ENDBRANCH  50  51
ENDBRANCH  49  50
ENDBRANCH  24  49
BRANCH  21  55
ATOM     55  C   UNK d   0     -20.161  25.653  18.065  0.00  0.00     0.151 C 
BRANCH  55  56
ATOM     56  C   UNK d   0     -21.025  26.541  18.857  0.00  0.00     0.143 C 
ATOM     57  O   UNK d   0     -21.722  26.134  19.807  0.00  0.00    -0.650 OA
BRANCH  56  58
ATOM     58  O   UNK d   0     -21.052  27.893  18.517  0.00  0.00    -0.776 OA
ATOM     59  H   UNK d   0     -20.905  28.545  19.308  0.00  0.00     0.167 HD
ENDBRANCH  56  58
ENDBRANCH  55  56
ENDBRANCH  21  55
BRANCH  18  60
ATOM     60  C   UNK d   0     -18.407  21.075  20.251  0.00  0.00     0.151 C 
BRANCH  60  61
ATOM     61  C   UNK d   0     -18.511  21.427  21.675  0.00  0.00     0.143 C 
ATOM     62  O   UNK d   0     -19.283  22.239  22.185  0.00  0.00    -0.650 OA
BRANCH  61  63
ATOM     63  O   UNK d   0     -17.614  20.743  22.531  0.00  0.00    -0.776 OA
ATOM     64  H   UNK d   0     -17.290  19.818  22.310  0.00  0.00     0.167 HD
ENDBRANCH  61  63
ENDBRANCH  60  61
ENDBRANCH  18  60
BRANCH  14  65
ATOM     65  C   UNK d   0     -19.277  18.201  20.690  0.00  0.00     0.052 C 
BRANCH  65  66
ATOM     66  C   UNK d   0     -19.816  17.762  22.006  0.00  0.00     0.115 C 
BRANCH  66  67
ATOM     67  C   UNK d   0     -18.930  17.626  23.128  0.00  0.00     0.139 C 
ATOM     68  O   UNK d   0     -19.415  17.213  24.245  0.00  0.00    -0.650 OA
BRANCH  67  69
ATOM     69  O   UNK d   0     -17.562  17.892  23.172  0.00  0.00    -0.776 OA
ATOM     70  H   UNK d   0     -16.987  17.197  23.669  0.00  0.00     0.167 HD
ENDBRANCH  67  69
ENDBRANCH  66  67
ENDBRANCH  65  66
ENDBRANCH  14  65
ENDBRANCH   6   7
ENDBRANCH   5   6
ENDBRANCH   2   5
TORSDOF 28
ENDMDL
MODEL 13
REMARK VINA RESULT:      -6.8      6.369     10.588
REMARK  28 active torsions:
REMARK  status: ('A' for Active; 'I' for Inactive)
REMARK    1  A    between atoms: C_2  and  O_3 
REMARK    2  A    between atoms: C_2  and  C_4 
REMARK    3  A    between atoms: C_4  and  C_5 
REMARK    4  A    between atoms: C_5  and  C_6 
REMARK    5  A    between atoms: C_7  and  C_8 
REMARK    6  A    between atoms: C_8  and  C_9 
REMARK    7  A    between atoms: C_9  and  O_11 
REMARK    8  A    between atoms: C_28  and  C_29 
REMARK    9  A    between atoms: C_29  and  C_30 
REMARK   10  A    between atoms: C_30  and  O_32 
REMARK   11  A    between atoms: C_33  and  C_34 
REMARK   12  A    between atoms: C_34  and  C_35 
REMARK   13  A    between atoms: C_35  and  C_36 
REMARK   14  A    between atoms: C_36  and  O_38 
REMARK   15  A    between atoms: C_39  and  C_40 
REMARK   16  A    between atoms: C_40  and  C_41 
REMARK   17  A    between atoms: C_41  and  C_42 
REMARK   18  A    between atoms: C_42  and  O_44 
REMARK   19  A    between atoms: C_45  and  C_46 
REMARK   20  A    between atoms: C_46  and  C_47 
REMARK   21  A    between atoms: C_47  and  O_49 
REMARK   22  A    between atoms: C_50  and  C_51 
REMARK   23  A    between atoms: C_51  and  C_52 
REMARK   24  A    between atoms: C_52  and  O_54 
REMARK   25  A    between atoms: C_55  and  C_56 
REMARK   26  A    between atoms: C_56  and  C_57 
REMARK   27  A    between atoms: C_57  and  C_58 
REMARK   28  A    between atoms: C_58  and  O_60 
ROOT
ATOM      1  O   UNK d   0     -25.522  14.298  21.555  0.00  0.00    -0.650 OA
ATOM      2  C   UNK d   0     -24.477  13.694  21.223  0.00  0.00     0.139 C 
ENDROOT
BRANCH   2   3
ATOM      3  O   UNK d   0     -24.479  12.921  20.087  0.00  0.00    -0.776 OA
ATOM      4  H   UNK d   0     -23.710  12.970  19.415  0.00  0.00     0.167 HD
ENDBRANCH   2   3
BRANCH   2   5
ATOM      5  C   UNK d   0     -23.247  13.813  22.056  0.00  0.00     0.115 C 
BRANCH   5   6
ATOM      6  C   UNK d   0     -22.096  14.293  21.213  0.00  0.00     0.052 C 
BRANCH   6   7
ATOM      7  C   UNK d   0     -22.164  15.774  20.926  0.00  0.00    -0.020 A 
ATOM      8  C   UNK d   0     -21.774  16.755  21.698  0.00  0.00    -0.011 A 
ATOM      9  C   UNK d   0     -22.046  18.003  21.004  0.00  0.00     0.067 A 
ATOM     10  C   UNK d   0     -21.854  19.369  21.263  0.00  0.00     0.062 C 
ATOM     11  N   UNK d   0     -22.608  17.687  19.818  0.00  0.00    -0.248 NA
ATOM     12  C   UNK d   0     -21.927  20.424  20.347  0.00  0.00     0.041 A 
ATOM     13  N   UNK d   0     -22.804  20.679  19.357  0.00  0.00    -0.355 N 
ATOM     14  C   UNK d   0     -20.920  21.406  20.357  0.00  0.00    -0.022 A 
ATOM     15  C   UNK d   0     -22.374  21.792  18.734  0.00  0.00     0.042 A 
ATOM     16  H   UNK d   0     -23.719  20.094  19.116  0.00  0.00     0.166 HD
ATOM     17  C   UNK d   0     -22.916  22.493  17.638  0.00  0.00     0.062 C 
ATOM     18  C   UNK d   0     -21.195  22.277  19.333  0.00  0.00    -0.013 A 
ATOM     19  C   UNK d   0     -23.406  21.999  16.456  0.00  0.00     0.067 A 
ATOM     20  N   UNK d   0     -23.589  20.678  16.382  0.00  0.00    -0.248 NA
ATOM     21  C   UNK d   0     -23.794  22.557  15.172  0.00  0.00    -0.011 A 
ATOM     22  C   UNK d   0     -24.067  20.332  15.142  0.00  0.00     0.066 A 
ATOM     23  C   UNK d   0     -24.339  18.987  14.939  0.00  0.00     0.062 C 
ATOM     24  C   UNK d   0     -24.176  21.576  14.406  0.00  0.00    -0.020 A 
ATOM     25  C   UNK d   0     -24.270  17.945  15.877  0.00  0.00     0.041 A 
ATOM     26  N   UNK d   0     -23.391  17.683  16.851  0.00  0.00    -0.355 N 
ATOM     27  C   UNK d   0     -25.285  16.962  15.869  0.00  0.00    -0.022 A 
ATOM     28  C   UNK d   0     -23.813  16.568  17.469  0.00  0.00     0.042 A 
ATOM     29  H   UNK d   0     -22.466  18.266  17.086  0.00  0.00     0.166 HD
ATOM     30  C   UNK d   0     -23.279  15.856  18.554  0.00  0.00     0.062 C 
ATOM     31  C   UNK d   0     -25.003  16.088  16.873  0.00  0.00    -0.013 A 
ATOM     32  C   UNK d   0     -22.706  16.362  19.710  0.00  0.00     0.066 A 
BRANCH   8  33
ATOM     33  C   UNK d   0     -21.170  16.641  23.039  0.00  0.00     0.151 C 
BRANCH  33  34
ATOM     34  C   UNK d   0     -19.769  17.097  23.074  0.00  0.00     0.143 C 
ATOM     35  O   UNK d   0     -19.432  18.063  23.774  0.00  0.00    -0.650 OA
BRANCH  34  36
ATOM     36  O   UNK d   0     -18.826  16.442  22.317  0.00  0.00    -0.776 OA
ATOM     37  H   UNK d   0     -18.363  15.590  22.661  0.00  0.00     0.167 HD
ENDBRANCH  34  36
ENDBRANCH  33  34
ENDBRANCH   8  33
BRANCH  31  38
ATOM     38  C   UNK d   0     -25.821  14.876  17.255  0.00  0.00     0.151 C 
BRANCH  38  39
ATOM     39  C   UNK d   0     -26.846  15.175  18.233  0.00  0.00     0.143 C 
ATOM     40  O   UNK d   0     -27.989  14.692  18.167  0.00  0.00    -0.650 OA
BRANCH  39  41
ATOM     41  O   UNK d   0     -26.553  16.034  19.292  0.00  0.00    -0.776 OA
ATOM     42  H   UNK d   0     -25.564  16.242  19.458  0.00  0.00     0.167 HD
ENDBRANCH  39  41
ENDBRANCH  38  39
ENDBRANCH  31  38
BRANCH  27  43
ATOM     43  C   UNK d   0     -26.481  16.828  14.960  0.00  0.00     0.052 C 
BRANCH  43  44
ATOM     44  C   UNK d   0     -27.633  17.687  15.370  0.00  0.00     0.115 C 
BRANCH  44  45
ATOM     45  C   UNK d   0     -28.770  16.770  15.644  0.00  0.00     0.139 C 
ATOM     46  O   UNK d   0     -28.980  15.830  14.838  0.00  0.00    -0.650 OA
BRANCH  45  47
ATOM     47  O   UNK d   0     -29.592  16.906  16.742  0.00  0.00    -0.776 OA
ATOM     48  H   UNK d   0     -29.233  17.110  17.689  0.00  0.00     0.167 HD
ENDBRANCH  45  47
ENDBRANCH  44  45
ENDBRANCH  43  44
ENDBRANCH  27  43
BRANCH  24  49
ATOM     49  C   UNK d   0     -24.687  21.697  13.030  0.00  0.00     0.052 C 
BRANCH  49  50
ATOM     50  C   UNK d   0     -26.166  21.989  13.043  0.00  0.00     0.115 C 
BRANCH  50  51
ATOM     51  C   UNK d   0     -27.066  20.855  13.205  0.00  0.00     0.139 C 
ATOM     52  O   UNK d   0     -28.083  20.898  13.937  0.00  0.00    -0.650 OA
BRANCH  51  53
ATOM     53  O   UNK d   0     -26.805  19.670  12.535  0.00  0.00    -0.776 OA
ATOM     54  H   UNK d   0     -26.101  19.057  12.908  0.00  0.00     0.167 HD
ENDBRANCH  51  53
ENDBRANCH  50  51
ENDBRANCH  49  50
ENDBRANCH  24  49
BRANCH  21  55
ATOM     55  C   UNK d   0     -23.747  24.013  14.845  0.00  0.00     0.151 C 
BRANCH  55  56
ATOM     56  C   UNK d   0     -22.368  24.518  14.774  0.00  0.00     0.143 C 
ATOM     57  O   UNK d   0     -22.041  25.650  15.182  0.00  0.00    -0.650 OA
BRANCH  56  58
ATOM     58  O   UNK d   0     -21.398  23.681  14.224  0.00  0.00    -0.776 OA
ATOM     59  H   UNK d   0     -20.881  24.082  13.420  0.00  0.00     0.167 HD
ENDBRANCH  56  58
ENDBRANCH  55  56
ENDBRANCH  21  55
BRANCH  18  60
ATOM     60  C   UNK d   0     -20.361  23.482  18.976  0.00  0.00     0.151 C 
BRANCH  60  61
ATOM     61  C   UNK d   0     -19.818  23.215  17.635  0.00  0.00     0.143 C 
ATOM     62  O   UNK d   0     -19.620  24.034  16.738  0.00  0.00    -0.650 OA
BRANCH  61  63
ATOM     63  O   UNK d   0     -19.496  21.861  17.374  0.00  0.00    -0.776 OA
ATOM     64  H   UNK d   0     -18.764  21.395  17.881  0.00  0.00     0.167 HD
ENDBRANCH  61  63
ENDBRANCH  60  61
ENDBRANCH  18  60
BRANCH  14  65
ATOM     65  C   UNK d   0     -19.784  21.636  21.314  0.00  0.00     0.052 C 
BRANCH  65  66
ATOM     66  C   UNK d   0     -18.476  21.160  20.789  0.00  0.00     0.115 C 
BRANCH  66  67
ATOM     67  C   UNK d   0     -18.407  19.920  20.068  0.00  0.00     0.139 C 
ATOM     68  O   UNK d   0     -18.222  18.834  20.732  0.00  0.00    -0.650 OA
BRANCH  67  69
ATOM     69  O   UNK d   0     -18.517  19.725  18.692  0.00  0.00    -0.776 OA
ATOM     70  H   UNK d   0     -19.039  20.450  18.177  0.00  0.00     0.167 HD
ENDBRANCH  67  69
ENDBRANCH  66  67
ENDBRANCH  65  66
ENDBRANCH  14  65
ENDBRANCH   6   7
ENDBRANCH   5   6
ENDBRANCH   2   5
TORSDOF 28
ENDMDL
MODEL 14
REMARK VINA RESULT:      -6.8      1.810      7.086
REMARK  28 active torsions:
REMARK  status: ('A' for Active; 'I' for Inactive)
REMARK    1  A    between atoms: C_2  and  O_3 
REMARK    2  A    between atoms: C_2  and  C_4 
REMARK    3  A    between atoms: C_4  and  C_5 
REMARK    4  A    between atoms: C_5  and  C_6 
REMARK    5  A    between atoms: C_7  and  C_8 
REMARK    6  A    between atoms: C_8  and  C_9 
REMARK    7  A    between atoms: C_9  and  O_11 
REMARK    8  A    between atoms: C_28  and  C_29 
REMARK    9  A    between atoms: C_29  and  C_30 
REMARK   10  A    between atoms: C_30  and  O_32 
REMARK   11  A    between atoms: C_33  and  C_34 
REMARK   12  A    between atoms: C_34  and  C_35 
REMARK   13  A    between atoms: C_35  and  C_36 
REMARK   14  A    between atoms: C_36  and  O_38 
REMARK   15  A    between atoms: C_39  and  C_40 
REMARK   16  A    between atoms: C_40  and  C_41 
REMARK   17  A    between atoms: C_41  and  C_42 
REMARK   18  A    between atoms: C_42  and  O_44 
REMARK   19  A    between atoms: C_45  and  C_46 
REMARK   20  A    between atoms: C_46  and  C_47 
REMARK   21  A    between atoms: C_47  and  O_49 
REMARK   22  A    between atoms: C_50  and  C_51 
REMARK   23  A    between atoms: C_51  and  C_52 
REMARK   24  A    between atoms: C_52  and  O_54 
REMARK   25  A    between atoms: C_55  and  C_56 
REMARK   26  A    between atoms: C_56  and  C_57 
REMARK   27  A    between atoms: C_57  and  C_58 
REMARK   28  A    between atoms: C_58  and  O_60 
ROOT
ATOM      1  O   UNK d   0     -21.919  34.807  17.943  0.00  0.00    -0.650 OA
ATOM      2  C   UNK d   0     -21.698  33.758  18.589  0.00  0.00     0.139 C 
ENDROOT
BRANCH   2   3
ATOM      3  O   UNK d   0     -20.466  33.571  19.168  0.00  0.00    -0.776 OA
ATOM      4  H   UNK d   0     -20.160  32.643  19.468  0.00  0.00     0.167 HD
ENDBRANCH   2   3
BRANCH   2   5
ATOM      5  C   UNK d   0     -22.764  32.725  18.726  0.00  0.00     0.115 C 
BRANCH   5   6
ATOM      6  C   UNK d   0     -22.547  31.921  19.978  0.00  0.00     0.052 C 
BRANCH   6   7
ATOM      7  C   UNK d   0     -22.214  30.476  19.691  0.00  0.00    -0.020 A 
ATOM      8  C   UNK d   0     -21.152  29.812  20.068  0.00  0.00    -0.011 A 
ATOM      9  C   UNK d   0     -21.267  28.459  19.550  0.00  0.00     0.067 A 
ATOM     10  C   UNK d   0     -20.503  27.283  19.612  0.00  0.00     0.062 C 
ATOM     11  N   UNK d   0     -22.427  28.389  18.864  0.00  0.00    -0.248 NA
ATOM     12  C   UNK d   0     -20.914  25.987  19.279  0.00  0.00     0.041 A 
ATOM     13  N   UNK d   0     -21.641  25.526  18.244  0.00  0.00    -0.355 N 
ATOM     14  C   UNK d   0     -20.601  24.929  20.151  0.00  0.00    -0.022 A 
ATOM     15  C   UNK d   0     -21.805  24.204  18.441  0.00  0.00     0.042 A 
ATOM     16  H   UNK d   0     -22.015  26.120  17.381  0.00  0.00     0.166 HD
ATOM     17  C   UNK d   0     -22.480  23.242  17.665  0.00  0.00     0.062 C 
ATOM     18  C   UNK d   0     -21.167  23.793  19.627  0.00  0.00    -0.013 A 
ATOM     19  C   UNK d   0     -23.714  23.324  17.071  0.00  0.00     0.067 A 
ATOM     20  N   UNK d   0     -24.291  24.528  17.040  0.00  0.00    -0.248 NA
ATOM     21  C   UNK d   0     -24.632  22.393  16.436  0.00  0.00    -0.011 A 
ATOM     22  C   UNK d   0     -25.520  24.451  16.432  0.00  0.00     0.066 A 
ATOM     23  C   UNK d   0     -26.217  25.643  16.298  0.00  0.00     0.062 C 
ATOM     24  C   UNK d   0     -25.689  23.058  16.068  0.00  0.00    -0.020 A 
ATOM     25  C   UNK d   0     -25.781  26.936  16.627  0.00  0.00     0.041 A 
ATOM     26  N   UNK d   0     -25.071  27.397  17.664  0.00  0.00    -0.355 N 
ATOM     27  C   UNK d   0     -26.092  27.997  15.749  0.00  0.00    -0.022 A 
ATOM     28  C   UNK d   0     -24.914  28.716  17.474  0.00  0.00     0.042 A 
ATOM     29  H   UNK d   0     -24.705  26.801  18.536  0.00  0.00     0.166 HD
ATOM     30  C   UNK d   0     -24.253  29.687  18.242  0.00  0.00     0.062 C 
ATOM     31  C   UNK d   0     -25.546  29.127  16.276  0.00  0.00    -0.013 A 
ATOM     32  C   UNK d   0     -23.045  29.570  18.912  0.00  0.00     0.066 A 
BRANCH   8  33
ATOM     33  C   UNK d   0     -20.026  30.324  20.870  0.00  0.00     0.151 C 
BRANCH  33  34
ATOM     34  C   UNK d   0     -20.220  30.126  22.318  0.00  0.00     0.143 C 
ATOM     35  O   UNK d   0     -19.250  30.001  23.079  0.00  0.00    -0.650 OA
BRANCH  34  36
ATOM     36  O   UNK d   0     -21.497  30.079  22.828  0.00  0.00    -0.776 OA
ATOM     37  H   UNK d   0     -22.319  30.072  22.210  0.00  0.00     0.167 HD
ENDBRANCH  34  36
ENDBRANCH  33  34
ENDBRANCH   8  33
BRANCH  31  38
ATOM     38  C   UNK d   0     -25.609  30.511  15.675  0.00  0.00     0.151 C 
BRANCH  38  39
ATOM     39  C   UNK d   0     -24.350  30.930  15.096  0.00  0.00     0.143 C 
ATOM     40  O   UNK d   0     -23.620  30.151  14.458  0.00  0.00    -0.650 OA
BRANCH  39  41
ATOM     41  O   UNK d   0     -23.929  32.250  15.251  0.00  0.00    -0.776 OA
ATOM     42  H   UNK d   0     -23.378  32.464  16.088  0.00  0.00     0.167 HD
ENDBRANCH  39  41
ENDBRANCH  38  39
ENDBRANCH  31  38
BRANCH  27  43
ATOM     43  C   UNK d   0     -26.872  27.975  14.458  0.00  0.00     0.052 C 
BRANCH  43  44
ATOM     44  C   UNK d   0     -26.010  27.794  13.250  0.00  0.00     0.115 C 
BRANCH  44  45
ATOM     45  C   UNK d   0     -26.406  26.500  12.636  0.00  0.00     0.139 C 
ATOM     46  O   UNK d   0     -25.533  25.604  12.529  0.00  0.00    -0.650 OA
BRANCH  45  47
ATOM     47  O   UNK d   0     -27.685  26.246  12.188  0.00  0.00    -0.776 OA
ATOM     48  H   UNK d   0     -28.275  26.966  11.741  0.00  0.00     0.167 HD
ENDBRANCH  45  47
ENDBRANCH  44  45
ENDBRANCH  43  44
ENDBRANCH  27  43
BRANCH  24  49
ATOM     49  C   UNK d   0     -26.853  22.511  15.351  0.00  0.00     0.052 C 
BRANCH  49  50
ATOM     50  C   UNK d   0     -26.851  22.973  13.917  0.00  0.00     0.115 C 
BRANCH  50  51
ATOM     51  C   UNK d   0     -26.081  22.183  12.965  0.00  0.00     0.139 C 
ATOM     52  O   UNK d   0     -26.274  20.956  12.793  0.00  0.00    -0.650 OA
BRANCH  51  53
ATOM     53  O   UNK d   0     -25.090  22.791  12.211  0.00  0.00    -0.776 OA
ATOM     54  H   UNK d   0     -25.340  23.587  11.650  0.00  0.00     0.167 HD
ENDBRANCH  51  53
ENDBRANCH  50  51
ENDBRANCH  49  50
ENDBRANCH  24  49
BRANCH  21  55
ATOM     55  C   UNK d   0     -24.354  20.937  16.259  0.00  0.00     0.151 C 
BRANCH  55  56
ATOM     56  C   UNK d   0     -23.495  20.677  15.094  0.00  0.00     0.143 C 
ATOM     57  O   UNK d   0     -23.137  19.529  14.762  0.00  0.00    -0.650 OA
BRANCH  56  58
ATOM     58  O   UNK d   0     -23.074  21.771  14.341  0.00  0.00    -0.776 OA
ATOM     59  H   UNK d   0     -23.015  22.664  14.863  0.00  0.00     0.167 HD
ENDBRANCH  56  58
ENDBRANCH  55  56
ENDBRANCH  21  55
BRANCH  18  60
ATOM     60  C   UNK d   0     -21.085  22.421  20.249  0.00  0.00     0.151 C 
BRANCH  60  61
ATOM     61  C   UNK d   0     -19.842  21.821  19.741  0.00  0.00     0.143 C 
ATOM     62  O   UNK d   0     -18.776  21.700  20.344  0.00  0.00    -0.650 OA
BRANCH  61  63
ATOM     63  O   UNK d   0     -19.906  21.337  18.412  0.00  0.00    -0.776 OA
ATOM     64  H   UNK d   0     -20.575  20.635  18.147  0.00  0.00     0.167 HD
ENDBRANCH  61  63
ENDBRANCH  60  61
ENDBRANCH  18  60
BRANCH  14  65
ATOM     65  C   UNK d   0     -19.734  24.893  21.378  0.00  0.00     0.052 C 
BRANCH  65  66
ATOM     66  C   UNK d   0     -19.951  26.057  22.278  0.00  0.00     0.115 C 
BRANCH  66  67
ATOM     67  C   UNK d   0     -18.830  26.663  22.940  0.00  0.00     0.139 C 
ATOM     68  O   UNK d   0     -17.692  26.665  22.342  0.00  0.00    -0.650 OA
BRANCH  67  69
ATOM     69  O   UNK d   0     -18.807  27.274  24.193  0.00  0.00    -0.776 OA
ATOM     70  H   UNK d   0     -18.627  28.288  24.194  0.00  0.00     0.167 HD
ENDBRANCH  67  69
ENDBRANCH  66  67
ENDBRANCH  65  66
ENDBRANCH  14  65
ENDBRANCH   6   7
ENDBRANCH   5   6
ENDBRANCH   2   5
TORSDOF 28
ENDMDL
MODEL 15
REMARK VINA RESULT:      -6.7      5.325     10.269
REMARK  28 active torsions:
REMARK  status: ('A' for Active; 'I' for Inactive)
REMARK    1  A    between atoms: C_2  and  O_3 
REMARK    2  A    between atoms: C_2  and  C_4 
REMARK    3  A    between atoms: C_4  and  C_5 
REMARK    4  A    between atoms: C_5  and  C_6 
REMARK    5  A    between atoms: C_7  and  C_8 
REMARK    6  A    between atoms: C_8  and  C_9 
REMARK    7  A    between atoms: C_9  and  O_11 
REMARK    8  A    between atoms: C_28  and  C_29 
REMARK    9  A    between atoms: C_29  and  C_30 
REMARK   10  A    between atoms: C_30  and  O_32 
REMARK   11  A    between atoms: C_33  and  C_34 
REMARK   12  A    between atoms: C_34  and  C_35 
REMARK   13  A    between atoms: C_35  and  C_36 
REMARK   14  A    between atoms: C_36  and  O_38 
REMARK   15  A    between atoms: C_39  and  C_40 
REMARK   16  A    between atoms: C_40  and  C_41 
REMARK   17  A    between atoms: C_41  and  C_42 
REMARK   18  A    between atoms: C_42  and  O_44 
REMARK   19  A    between atoms: C_45  and  C_46 
REMARK   20  A    between atoms: C_46  and  C_47 
REMARK   21  A    between atoms: C_47  and  O_49 
REMARK   22  A    between atoms: C_50  and  C_51 
REMARK   23  A    between atoms: C_51  and  C_52 
REMARK   24  A    between atoms: C_52  and  O_54 
REMARK   25  A    between atoms: C_55  and  C_56 
REMARK   26  A    between atoms: C_56  and  C_57 
REMARK   27  A    between atoms: C_57  and  C_58 
REMARK   28  A    between atoms: C_58  and  O_60 
ROOT
ATOM      1  O   UNK d   0     -21.583  25.329  22.261  0.00  0.00    -0.650 OA
ATOM      2  C   UNK d   0     -20.809  25.574  21.310  0.00  0.00     0.139 C 
ENDROOT
BRANCH   2   3
ATOM      3  O   UNK d   0     -19.513  25.119  21.362  0.00  0.00    -0.776 OA
ATOM      4  H   UNK d   0     -18.778  25.671  21.810  0.00  0.00     0.167 HD
ENDBRANCH   2   3
BRANCH   2   5
ATOM      5  C   UNK d   0     -21.291  26.351  20.133  0.00  0.00     0.115 C 
BRANCH   5   6
ATOM      6  C   UNK d   0     -20.884  25.665  18.857  0.00  0.00     0.052 C 
BRANCH   6   7
ATOM      7  C   UNK d   0     -21.889  24.631  18.407  0.00  0.00    -0.020 A 
ATOM      8  C   UNK d   0     -22.971  24.826  17.699  0.00  0.00    -0.011 A 
ATOM      9  C   UNK d   0     -23.625  23.540  17.521  0.00  0.00     0.067 A 
ATOM     10  C   UNK d   0     -24.773  23.070  16.866  0.00  0.00     0.062 C 
ATOM     11  N   UNK d   0     -22.873  22.618  18.159  0.00  0.00    -0.248 NA
ATOM     12  C   UNK d   0     -25.095  21.741  16.570  0.00  0.00     0.041 A 
ATOM     13  N   UNK d   0     -24.987  20.617  17.305  0.00  0.00    -0.355 N 
ATOM     14  C   UNK d   0     -25.571  21.426  15.284  0.00  0.00    -0.022 A 
ATOM     15  C   UNK d   0     -25.374  19.597  16.515  0.00  0.00     0.042 A 
ATOM     16  H   UNK d   0     -24.661  20.549  18.366  0.00  0.00     0.166 HD
ATOM     17  C   UNK d   0     -25.455  18.216  16.782  0.00  0.00     0.062 C 
ATOM     18  C   UNK d   0     -25.747  20.065  15.241  0.00  0.00    -0.013 A 
ATOM     19  C   UNK d   0     -24.548  17.405  17.415  0.00  0.00     0.067 A 
ATOM     20  N   UNK d   0     -23.536  18.007  18.045  0.00  0.00    -0.248 NA
ATOM     21  C   UNK d   0     -24.368  15.973  17.587  0.00  0.00    -0.011 A 
ATOM     22  C   UNK d   0     -22.707  17.072  18.616  0.00  0.00     0.066 A 
ATOM     23  C   UNK d   0     -21.629  17.563  19.338  0.00  0.00     0.062 C 
ATOM     24  C   UNK d   0     -23.287  15.785  18.287  0.00  0.00    -0.020 A 
ATOM     25  C   UNK d   0     -21.331  18.902  19.635  0.00  0.00     0.041 A 
ATOM     26  N   UNK d   0     -21.424  20.017  18.900  0.00  0.00    -0.355 N 
ATOM     27  C   UNK d   0     -20.857  19.217  20.927  0.00  0.00    -0.022 A 
ATOM     28  C   UNK d   0     -21.030  21.034  19.682  0.00  0.00     0.042 A 
ATOM     29  H   UNK d   0     -21.741  20.082  17.830  0.00  0.00     0.166 HD
ATOM     30  C   UNK d   0     -20.936  22.411  19.427  0.00  0.00     0.062 C 
ATOM     31  C   UNK d   0     -20.665  20.564  20.966  0.00  0.00    -0.013 A 
ATOM     32  C   UNK d   0     -21.814  23.210  18.712  0.00  0.00     0.066 A 
BRANCH   8  33
ATOM     33  C   UNK d   0     -23.464  26.112  17.170  0.00  0.00     0.151 C 
BRANCH  33  34
ATOM     34  C   UNK d   0     -23.236  26.258  15.721  0.00  0.00     0.143 C 
ATOM     35  O   UNK d   0     -22.113  26.072  15.231  0.00  0.00    -0.650 OA
BRANCH  34  36
ATOM     36  O   UNK d   0     -24.287  26.606  14.904  0.00  0.00    -0.776 OA
ATOM     37  H   UNK d   0     -25.176  26.088  14.926  0.00  0.00     0.167 HD
ENDBRANCH  34  36
ENDBRANCH  33  34
ENDBRANCH   8  33
BRANCH  31  38
ATOM     38  C   UNK d   0     -20.177  21.362  22.153  0.00  0.00     0.151 C 
BRANCH  38  39
ATOM     39  C   UNK d   0     -18.778  21.718  22.053  0.00  0.00     0.143 C 
ATOM     40  O   UNK d   0     -18.277  22.641  22.719  0.00  0.00    -0.650 OA
BRANCH  39  41
ATOM     41  O   UNK d   0     -17.949  21.009  21.183  0.00  0.00    -0.776 OA
ATOM     42  H   UNK d   0     -16.941  21.068  21.356  0.00  0.00     0.167 HD
ENDBRANCH  39  41
ENDBRANCH  38  39
ENDBRANCH  31  38
BRANCH  27  43
ATOM     43  C   UNK d   0     -20.585  18.305  22.097  0.00  0.00     0.052 C 
BRANCH  43  44
ATOM     44  C   UNK d   0     -19.274  17.596  22.001  0.00  0.00     0.115 C 
BRANCH  44  45
ATOM     45  C   UNK d   0     -18.384  18.211  23.021  0.00  0.00     0.139 C 
ATOM     46  O   UNK d   0     -18.863  18.453  24.156  0.00  0.00    -0.650 OA
BRANCH  45  47
ATOM     47  O   UNK d   0     -17.063  18.517  22.773  0.00  0.00    -0.776 OA
ATOM     48  H   UNK d   0     -16.770  19.373  22.275  0.00  0.00     0.167 HD
ENDBRANCH  45  47
ENDBRANCH  44  45
ENDBRANCH  43  44
ENDBRANCH  27  43
BRANCH  24  49
ATOM     49  C   UNK d   0     -22.752  14.485  18.726  0.00  0.00     0.052 C 
BRANCH  49  50
ATOM     50  C   UNK d   0     -23.395  14.064  20.023  0.00  0.00     0.115 C 
BRANCH  50  51
ATOM     51  C   UNK d   0     -22.584  14.160  21.229  0.00  0.00     0.139 C 
ATOM     52  O   UNK d   0     -22.359  15.250  21.807  0.00  0.00    -0.650 OA
BRANCH  51  53
ATOM     53  O   UNK d   0     -22.028  13.014  21.775  0.00  0.00    -0.776 OA
ATOM     54  H   UNK d   0     -21.038  12.872  21.674  0.00  0.00     0.167 HD
ENDBRANCH  51  53
ENDBRANCH  50  51
ENDBRANCH  49  50
ENDBRANCH  24  49
BRANCH  21  55
ATOM     55  C   UNK d   0     -25.298  14.943  17.037  0.00  0.00     0.151 C 
BRANCH  55  56
ATOM     56  C   UNK d   0     -25.659  15.216  15.638  0.00  0.00     0.143 C 
ATOM     57  O   UNK d   0     -26.839  15.338  15.256  0.00  0.00    -0.650 OA
BRANCH  56  58
ATOM     58  O   UNK d   0     -24.623  15.339  14.713  0.00  0.00    -0.776 OA
ATOM     59  H   UNK d   0     -23.717  14.938  15.017  0.00  0.00     0.167 HD
ENDBRANCH  56  58
ENDBRANCH  55  56
ENDBRANCH  21  55
BRANCH  18  60
ATOM     60  C   UNK d   0     -26.240  19.295  14.040  0.00  0.00     0.151 C 
BRANCH  60  61
ATOM     61  C   UNK d   0     -27.687  19.121  14.238  0.00  0.00     0.143 C 
ATOM     62  O   UNK d   0     -28.388  19.656  15.097  0.00  0.00    -0.650 OA
BRANCH  61  63
ATOM     63  O   UNK d   0     -28.317  18.237  13.330  0.00  0.00    -0.776 OA
ATOM     64  H   UNK d   0     -29.313  18.108  13.339  0.00  0.00     0.167 HD
ENDBRANCH  61  63
ENDBRANCH  60  61
ENDBRANCH  18  60
BRANCH  14  65
ATOM     65  C   UNK d   0     -25.961  22.316  14.138  0.00  0.00     0.052 C 
BRANCH  65  66
ATOM     66  C   UNK d   0     -24.976  22.294  13.023  0.00  0.00     0.115 C 
BRANCH  66  67
ATOM     67  C   UNK d   0     -23.669  22.855  13.218  0.00  0.00     0.139 C 
ATOM     68  O   UNK d   0     -22.687  22.057  13.451  0.00  0.00    -0.650 OA
BRANCH  67  69
ATOM     69  O   UNK d   0     -23.304  24.200  13.189  0.00  0.00    -0.776 OA
ATOM     70  H   UNK d   0     -22.922  24.580  14.067  0.00  0.00     0.167 HD
ENDBRANCH  67  69
ENDBRANCH  66  67
ENDBRANCH  65  66
ENDBRANCH  14  65
ENDBRANCH   6   7
ENDBRANCH   5   6
ENDBRANCH   2   5
TORSDOF 28
ENDMDL
MODEL 16
REMARK VINA RESULT:      -6.7      6.300     11.665
REMARK  28 active torsions:
REMARK  status: ('A' for Active; 'I' for Inactive)
REMARK    1  A    between atoms: C_2  and  O_3 
REMARK    2  A    between atoms: C_2  and  C_4 
REMARK    3  A    between atoms: C_4  and  C_5 
REMARK    4  A    between atoms: C_5  and  C_6 
REMARK    5  A    between atoms: C_7  and  C_8 
REMARK    6  A    between atoms: C_8  and  C_9 
REMARK    7  A    between atoms: C_9  and  O_11 
REMARK    8  A    between atoms: C_28  and  C_29 
REMARK    9  A    between atoms: C_29  and  C_30 
REMARK   10  A    between atoms: C_30  and  O_32 
REMARK   11  A    between atoms: C_33  and  C_34 
REMARK   12  A    between atoms: C_34  and  C_35 
REMARK   13  A    between atoms: C_35  and  C_36 
REMARK   14  A    between atoms: C_36  and  O_38 
REMARK   15  A    between atoms: C_39  and  C_40 
REMARK   16  A    between atoms: C_40  and  C_41 
REMARK   17  A    between atoms: C_41  and  C_42 
REMARK   18  A    between atoms: C_42  and  O_44 
REMARK   19  A    between atoms: C_45  and  C_46 
REMARK   20  A    between atoms: C_46  and  C_47 
REMARK   21  A    between atoms: C_47  and  O_49 
REMARK   22  A    between atoms: C_50  and  C_51 
REMARK   23  A    between atoms: C_51  and  C_52 
REMARK   24  A    between atoms: C_52  and  O_54 
REMARK   25  A    between atoms: C_55  and  C_56 
REMARK   26  A    between atoms: C_56  and  C_57 
REMARK   27  A    between atoms: C_57  and  C_58 
REMARK   28  A    between atoms: C_58  and  O_60 
ROOT
ATOM      1  O   UNK d   0     -19.280  19.093  23.537  0.00  0.00    -0.650 OA
ATOM      2  C   UNK d   0     -18.629  18.132  23.070  0.00  0.00     0.139 C 
ENDROOT
BRANCH   2   3
ATOM      3  O   UNK d   0     -17.311  18.314  22.727  0.00  0.00    -0.776 OA
ATOM      4  H   UNK d   0     -16.616  18.584  23.427  0.00  0.00     0.167 HD
ENDBRANCH   2   3
BRANCH   2   5
ATOM      5  C   UNK d   0     -19.282  16.804  22.887  0.00  0.00     0.115 C 
BRANCH   5   6
ATOM      6  C   UNK d   0     -20.776  16.943  22.996  0.00  0.00     0.052 C 
BRANCH   6   7
ATOM      7  C   UNK d   0     -21.466  16.859  21.655  0.00  0.00    -0.020 A 
ATOM      8  C   UNK d   0     -21.956  15.794  21.074  0.00  0.00    -0.011 A 
ATOM      9  C   UNK d   0     -22.514  16.201  19.796  0.00  0.00     0.067 A 
ATOM     10  C   UNK d   0     -23.183  15.570  18.736  0.00  0.00     0.062 C 
ATOM     11  N   UNK d   0     -22.315  17.531  19.677  0.00  0.00    -0.248 NA
ATOM     12  C   UNK d   0     -23.898  16.182  17.700  0.00  0.00     0.041 A 
ATOM     13  N   UNK d   0     -23.620  17.266  16.952  0.00  0.00    -0.355 N 
ATOM     14  C   UNK d   0     -25.162  15.672  17.352  0.00  0.00    -0.022 A 
ATOM     15  C   UNK d   0     -24.678  17.462  16.143  0.00  0.00     0.042 A 
ATOM     16  H   UNK d   0     -22.686  17.869  16.981  0.00  0.00     0.166 HD
ATOM     17  C   UNK d   0     -24.910  18.449  15.164  0.00  0.00     0.062 C 
ATOM     18  C   UNK d   0     -25.665  16.482  16.365  0.00  0.00    -0.013 A 
ATOM     19  C   UNK d   0     -24.690  19.801  15.235  0.00  0.00     0.067 A 
ATOM     20  N   UNK d   0     -23.986  20.246  16.278  0.00  0.00    -0.248 NA
ATOM     21  C   UNK d   0     -25.052  20.961  14.437  0.00  0.00    -0.011 A 
ATOM     22  C   UNK d   0     -23.861  21.613  16.222  0.00  0.00     0.066 A 
ATOM     23  C   UNK d   0     -23.116  22.206  17.230  0.00  0.00     0.062 C 
ATOM     24  C   UNK d   0     -24.568  22.018  15.023  0.00  0.00    -0.020 A 
ATOM     25  C   UNK d   0     -22.395  21.572  18.254  0.00  0.00     0.041 A 
ATOM     26  N   UNK d   0     -22.678  20.503  19.008  0.00  0.00    -0.355 N 
ATOM     27  C   UNK d   0     -21.125  22.082  18.600  0.00  0.00    -0.022 A 
ATOM     28  C   UNK d   0     -21.628  20.311  19.822  0.00  0.00     0.042 A 
ATOM     29  H   UNK d   0     -23.621  19.905  18.985  0.00  0.00     0.166 HD
ATOM     30  C   UNK d   0     -21.388  19.339  20.806  0.00  0.00     0.062 C 
ATOM     31  C   UNK d   0     -20.632  21.290  19.591  0.00  0.00    -0.013 A 
ATOM     32  C   UNK d   0     -21.690  17.987  20.763  0.00  0.00     0.066 A 
BRANCH   8  33
ATOM     33  C   UNK d   0     -21.949  14.417  21.601  0.00  0.00     0.151 C 
BRANCH  33  34
ATOM     34  C   UNK d   0     -23.182  14.080  22.336  0.00  0.00     0.143 C 
ATOM     35  O   UNK d   0     -24.082  13.420  21.799  0.00  0.00    -0.650 OA
BRANCH  34  36
ATOM     36  O   UNK d   0     -23.332  14.509  23.634  0.00  0.00    -0.776 OA
ATOM     37  H   UNK d   0     -22.958  13.964  24.423  0.00  0.00     0.167 HD
ENDBRANCH  34  36
ENDBRANCH  33  34
ENDBRANCH   8  33
BRANCH  31  38
ATOM     38  C   UNK d   0     -19.291  21.442  20.270  0.00  0.00     0.151 C 
BRANCH  38  39
ATOM     39  C   UNK d   0     -18.228  20.746  19.576  0.00  0.00     0.143 C 
ATOM     40  O   UNK d   0     -17.794  21.124  18.474  0.00  0.00    -0.650 OA
BRANCH  39  41
ATOM     41  O   UNK d   0     -17.660  19.611  20.154  0.00  0.00    -0.776 OA
ATOM     42  H   UNK d   0     -18.216  18.751  20.125  0.00  0.00     0.167 HD
ENDBRANCH  39  41
ENDBRANCH  38  39
ENDBRANCH  31  38
BRANCH  27  43
ATOM     43  C   UNK d   0     -20.382  23.268  18.037  0.00  0.00     0.052 C 
BRANCH  43  44
ATOM     44  C   UNK d   0     -20.719  24.554  18.720  0.00  0.00     0.115 C 
BRANCH  44  45
ATOM     45  C   UNK d   0     -20.320  25.644  17.792  0.00  0.00     0.139 C 
ATOM     46  O   UNK d   0     -20.891  26.757  17.905  0.00  0.00    -0.650 OA
BRANCH  45  47
ATOM     47  O   UNK d   0     -19.352  25.484  16.824  0.00  0.00    -0.776 OA
ATOM     48  H   UNK d   0     -18.830  24.603  16.694  0.00  0.00     0.167 HD
ENDBRANCH  45  47
ENDBRANCH  44  45
ENDBRANCH  43  44
ENDBRANCH  27  43
BRANCH  24  49
ATOM     49  C   UNK d   0     -24.667  23.404  14.533  0.00  0.00     0.052 C 
BRANCH  49  50
ATOM     50  C   UNK d   0     -23.294  23.966  14.268  0.00  0.00     0.115 C 
BRANCH  50  51
ATOM     51  C   UNK d   0     -22.879  25.112  15.066  0.00  0.00     0.139 C 
ATOM     52  O   UNK d   0     -23.649  25.691  15.870  0.00  0.00    -0.650 OA
BRANCH  51  53
ATOM     53  O   UNK d   0     -21.587  25.601  14.947  0.00  0.00    -0.776 OA
ATOM     54  H   UNK d   0     -20.859  24.959  14.684  0.00  0.00     0.167 HD
ENDBRANCH  51  53
ENDBRANCH  50  51
ENDBRANCH  49  50
ENDBRANCH  24  49
BRANCH  21  55
ATOM     55  C   UNK d   0     -25.841  20.892  13.172  0.00  0.00     0.151 C 
BRANCH  55  56
ATOM     56  C   UNK d   0     -27.183  20.330  13.388  0.00  0.00     0.143 C 
ATOM     57  O   UNK d   0     -28.039  20.885  14.105  0.00  0.00    -0.650 OA
BRANCH  56  58
ATOM     58  O   UNK d   0     -27.492  19.126  12.757  0.00  0.00    -0.776 OA
ATOM     59  H   UNK d   0     -27.703  18.340  13.397  0.00  0.00     0.167 HD
ENDBRANCH  56  58
ENDBRANCH  55  56
ENDBRANCH  21  55
BRANCH  18  60
ATOM     60  C   UNK d   0     -27.008  16.304  15.702  0.00  0.00     0.151 C 
BRANCH  60  61
ATOM     61  C   UNK d   0     -27.883  17.337  16.277  0.00  0.00     0.143 C 
ATOM     62  O   UNK d   0     -28.021  17.613  17.469  0.00  0.00    -0.650 OA
BRANCH  61  63
ATOM     63  O   UNK d   0     -28.636  18.081  15.336  0.00  0.00    -0.776 OA
ATOM     64  H   UNK d   0     -28.711  17.782  14.380  0.00  0.00     0.167 HD
ENDBRANCH  61  63
ENDBRANCH  60  61
ENDBRANCH  18  60
BRANCH  14  65
ATOM     65  C   UNK d   0     -25.879  14.432  17.806  0.00  0.00     0.052 C 
BRANCH  65  66
ATOM     66  C   UNK d   0     -26.802  14.680  18.946  0.00  0.00     0.115 C 
BRANCH  66  67
ATOM     67  C   UNK d   0     -28.195  14.355  18.817  0.00  0.00     0.139 C 
ATOM     68  O   UNK d   0     -28.527  13.120  18.679  0.00  0.00    -0.650 OA
BRANCH  67  69
ATOM     69  O   UNK d   0     -29.280  15.231  18.820  0.00  0.00    -0.776 OA
ATOM     70  H   UNK d   0     -29.178  16.072  18.234  0.00  0.00     0.167 HD
ENDBRANCH  67  69
ENDBRANCH  66  67
ENDBRANCH  65  66
ENDBRANCH  14  65
ENDBRANCH   6   7
ENDBRANCH   5   6
ENDBRANCH   2   5
TORSDOF 28
ENDMDL
MODEL 17
REMARK VINA RESULT:      -6.6      6.804     10.692
REMARK  28 active torsions:
REMARK  status: ('A' for Active; 'I' for Inactive)
REMARK    1  A    between atoms: C_2  and  O_3 
REMARK    2  A    between atoms: C_2  and  C_4 
REMARK    3  A    between atoms: C_4  and  C_5 
REMARK    4  A    between atoms: C_5  and  C_6 
REMARK    5  A    between atoms: C_7  and  C_8 
REMARK    6  A    between atoms: C_8  and  C_9 
REMARK    7  A    between atoms: C_9  and  O_11 
REMARK    8  A    between atoms: C_28  and  C_29 
REMARK    9  A    between atoms: C_29  and  C_30 
REMARK   10  A    between atoms: C_30  and  O_32 
REMARK   11  A    between atoms: C_33  and  C_34 
REMARK   12  A    between atoms: C_34  and  C_35 
REMARK   13  A    between atoms: C_35  and  C_36 
REMARK   14  A    between atoms: C_36  and  O_38 
REMARK   15  A    between atoms: C_39  and  C_40 
REMARK   16  A    between atoms: C_40  and  C_41 
REMARK   17  A    between atoms: C_41  and  C_42 
REMARK   18  A    between atoms: C_42  and  O_44 
REMARK   19  A    between atoms: C_45  and  C_46 
REMARK   20  A    between atoms: C_46  and  C_47 
REMARK   21  A    between atoms: C_47  and  O_49 
REMARK   22  A    between atoms: C_50  and  C_51 
REMARK   23  A    between atoms: C_51  and  C_52 
REMARK   24  A    between atoms: C_52  and  O_54 
REMARK   25  A    between atoms: C_55  and  C_56 
REMARK   26  A    between atoms: C_56  and  C_57 
REMARK   27  A    between atoms: C_57  and  C_58 
REMARK   28  A    between atoms: C_58  and  O_60 
ROOT
ATOM      1  O   UNK d   0     -25.130  14.615  22.720  0.00  0.00    -0.650 OA
ATOM      2  C   UNK d   0     -24.082  14.084  22.290  0.00  0.00     0.139 C 
ENDROOT
BRANCH   2   3
ATOM      3  O   UNK d   0     -24.168  13.097  21.338  0.00  0.00    -0.776 OA
ATOM      4  H   UNK d   0     -23.726  13.207  20.423  0.00  0.00     0.167 HD
ENDBRANCH   2   3
BRANCH   2   5
ATOM      5  C   UNK d   0     -22.755  14.521  22.809  0.00  0.00     0.115 C 
BRANCH   5   6
ATOM      6  C   UNK d   0     -21.839  14.864  21.666  0.00  0.00     0.052 C 
BRANCH   6   7
ATOM      7  C   UNK d   0     -22.109  16.237  21.097  0.00  0.00    -0.020 A 
ATOM      8  C   UNK d   0     -21.690  17.388  21.556  0.00  0.00    -0.011 A 
ATOM      9  C   UNK d   0     -22.209  18.430  20.686  0.00  0.00     0.067 A 
ATOM     10  C   UNK d   0     -22.115  19.828  20.613  0.00  0.00     0.062 C 
ATOM     11  N   UNK d   0     -22.938  17.823  19.726  0.00  0.00    -0.248 NA
ATOM     12  C   UNK d   0     -22.459  20.645  19.531  0.00  0.00     0.041 A 
ATOM     13  N   UNK d   0     -23.520  20.618  18.702  0.00  0.00    -0.355 N 
ATOM     14  C   UNK d   0     -21.573  21.665  19.138  0.00  0.00    -0.022 A 
ATOM     15  C   UNK d   0     -23.326  21.589  17.789  0.00  0.00     0.042 A 
ATOM     16  H   UNK d   0     -24.399  19.940  18.772  0.00  0.00     0.166 HD
ATOM     17  C   UNK d   0     -24.124  21.992  16.700  0.00  0.00     0.062 C 
ATOM     18  C   UNK d   0     -22.115  22.266  18.030  0.00  0.00    -0.013 A 
ATOM     19  C   UNK d   0     -24.765  21.218  15.767  0.00  0.00     0.067 A 
ATOM     20  N   UNK d   0     -24.821  19.905  16.006  0.00  0.00    -0.248 NA
ATOM     21  C   UNK d   0     -25.432  21.450  14.497  0.00  0.00    -0.011 A 
ATOM     22  C   UNK d   0     -25.475  19.262  14.984  0.00  0.00     0.066 A 
ATOM     23  C   UNK d   0     -25.639  17.891  15.122  0.00  0.00     0.062 C 
ATOM     24  C   UNK d   0     -25.842  20.301  14.042  0.00  0.00    -0.020 A 
ATOM     25  C   UNK d   0     -25.297  17.091  16.224  0.00  0.00     0.041 A 
ATOM     26  N   UNK d   0     -24.235  17.108  17.038  0.00  0.00    -0.355 N 
ATOM     27  C   UNK d   0     -26.190  16.071  16.620  0.00  0.00    -0.022 A 
ATOM     28  C   UNK d   0     -24.423  16.136  17.944  0.00  0.00     0.042 A 
ATOM     29  H   UNK d   0     -23.348  17.784  16.960  0.00  0.00     0.166 HD
ATOM     30  C   UNK d   0     -23.633  15.718  19.026  0.00  0.00     0.062 C 
ATOM     31  C   UNK d   0     -25.645  15.462  17.708  0.00  0.00    -0.013 A 
ATOM     32  C   UNK d   0     -22.917  16.503  19.916  0.00  0.00     0.066 A 
BRANCH   8  33
ATOM     33  C   UNK d   0     -20.848  17.613  22.745  0.00  0.00     0.151 C 
BRANCH  33  34
ATOM     34  C   UNK d   0     -19.416  17.382  22.481  0.00  0.00     0.143 C 
ATOM     35  O   UNK d   0     -18.942  17.550  21.349  0.00  0.00    -0.650 OA
BRANCH  34  36
ATOM     36  O   UNK d   0     -18.597  16.974  23.509  0.00  0.00    -0.776 OA
ATOM     37  H   UNK d   0     -18.939  16.344  24.247  0.00  0.00     0.167 HD
ENDBRANCH  34  36
ENDBRANCH  33  34
ENDBRANCH   8  33
BRANCH  31  38
ATOM     38  C   UNK d   0     -26.252  14.319  18.487  0.00  0.00     0.151 C 
BRANCH  38  39
ATOM     39  C   UNK d   0     -26.974  14.760  19.661  0.00  0.00     0.143 C 
ATOM     40  O   UNK d   0     -27.445  15.906  19.761  0.00  0.00    -0.650 OA
BRANCH  39  41
ATOM     41  O   UNK d   0     -27.157  13.878  20.725  0.00  0.00    -0.776 OA
ATOM     42  H   UNK d   0     -27.246  12.884  20.491  0.00  0.00     0.167 HD
ENDBRANCH  39  41
ENDBRANCH  38  39
ENDBRANCH  31  38
BRANCH  27  43
ATOM     43  C   UNK d   0     -27.509  15.664  16.013  0.00  0.00     0.052 C 
BRANCH  43  44
ATOM     44  C   UNK d   0     -28.658  16.497  16.483  0.00  0.00     0.115 C 
BRANCH  44  45
ATOM     45  C   UNK d   0     -29.892  15.723  16.187  0.00  0.00     0.139 C 
ATOM     46  O   UNK d   0     -29.955  14.534  16.586  0.00  0.00    -0.650 OA
BRANCH  45  47
ATOM     47  O   UNK d   0     -30.962  16.257  15.503  0.00  0.00    -0.776 OA
ATOM     48  H   UNK d   0     -30.858  16.992  14.784  0.00  0.00     0.167 HD
ENDBRANCH  45  47
ENDBRANCH  44  45
ENDBRANCH  43  44
ENDBRANCH  27  43
BRANCH  24  49
ATOM     49  C   UNK d   0     -26.600  20.080  12.799  0.00  0.00     0.052 C 
BRANCH  49  50
ATOM     50  C   UNK d   0     -28.068  20.336  13.028  0.00  0.00     0.115 C 
BRANCH  50  51
ATOM     51  C   UNK d   0     -28.905  19.182  13.328  0.00  0.00     0.139 C 
ATOM     52  O   UNK d   0     -30.109  19.289  13.661  0.00  0.00    -0.650 OA
BRANCH  51  53
ATOM     53  O   UNK d   0     -28.369  17.906  13.250  0.00  0.00    -0.776 OA
ATOM     54  H   UNK d   0     -27.617  17.668  13.873  0.00  0.00     0.167 HD
ENDBRANCH  51  53
ENDBRANCH  50  51
ENDBRANCH  49  50
ENDBRANCH  24  49
BRANCH  21  55
ATOM     55  C   UNK d   0     -25.594  22.796  13.873  0.00  0.00     0.151 C 
BRANCH  55  56
ATOM     56  C   UNK d   0     -24.305  23.372  13.460  0.00  0.00     0.143 C 
ATOM     57  O   UNK d   0     -24.019  24.574  13.625  0.00  0.00    -0.650 OA
BRANCH  56  58
ATOM     58  O   UNK d   0     -23.376  22.522  12.862  0.00  0.00    -0.776 OA
ATOM     59  H   UNK d   0     -23.258  21.606  13.331  0.00  0.00     0.167 HD
ENDBRANCH  56  58
ENDBRANCH  55  56
ENDBRANCH  21  55
BRANCH  18  60
ATOM     60  C   UNK d   0     -21.487  23.410  17.273  0.00  0.00     0.151 C 
BRANCH  60  61
ATOM     61  C   UNK d   0     -20.650  22.795  16.232  0.00  0.00     0.143 C 
ATOM     62  O   UNK d   0     -19.440  22.573  16.287  0.00  0.00    -0.650 OA
BRANCH  61  63
ATOM     63  O   UNK d   0     -21.334  22.426  15.049  0.00  0.00    -0.776 OA
ATOM     64  H   UNK d   0     -21.430  23.070  14.283  0.00  0.00     0.167 HD
ENDBRANCH  61  63
ENDBRANCH  60  61
ENDBRANCH  18  60
BRANCH  14  65
ATOM     65  C   UNK d   0     -20.314  22.172  19.783  0.00  0.00     0.052 C 
BRANCH  65  66
ATOM     66  C   UNK d   0     -19.096  21.446  19.331  0.00  0.00     0.115 C 
BRANCH  66  67
ATOM     67  C   UNK d   0     -18.371  20.626  20.260  0.00  0.00     0.139 C 
ATOM     68  O   UNK d   0     -18.437  20.912  21.512  0.00  0.00    -0.650 OA
BRANCH  67  69
ATOM     69  O   UNK d   0     -17.572  19.519  19.978  0.00  0.00    -0.776 OA
ATOM     70  H   UNK d   0     -16.687  19.717  19.490  0.00  0.00     0.167 HD
ENDBRANCH  67  69
ENDBRANCH  66  67
ENDBRANCH  65  66
ENDBRANCH  14  65
ENDBRANCH   6   7
ENDBRANCH   5   6
ENDBRANCH   2   5
TORSDOF 28
ENDMDL
MODEL 18
REMARK VINA RESULT:      -6.6      6.002     11.423
REMARK  28 active torsions:
REMARK  status: ('A' for Active; 'I' for Inactive)
REMARK    1  A    between atoms: C_2  and  O_3 
REMARK    2  A    between atoms: C_2  and  C_4 
REMARK    3  A    between atoms: C_4  and  C_5 
REMARK    4  A    between atoms: C_5  and  C_6 
REMARK    5  A    between atoms: C_7  and  C_8 
REMARK    6  A    between atoms: C_8  and  C_9 
REMARK    7  A    between atoms: C_9  and  O_11 
REMARK    8  A    between atoms: C_28  and  C_29 
REMARK    9  A    between atoms: C_29  and  C_30 
REMARK   10  A    between atoms: C_30  and  O_32 
REMARK   11  A    between atoms: C_33  and  C_34 
REMARK   12  A    between atoms: C_34  and  C_35 
REMARK   13  A    between atoms: C_35  and  C_36 
REMARK   14  A    between atoms: C_36  and  O_38 
REMARK   15  A    between atoms: C_39  and  C_40 
REMARK   16  A    between atoms: C_40  and  C_41 
REMARK   17  A    between atoms: C_41  and  C_42 
REMARK   18  A    between atoms: C_42  and  O_44 
REMARK   19  A    between atoms: C_45  and  C_46 
REMARK   20  A    between atoms: C_46  and  C_47 
REMARK   21  A    between atoms: C_47  and  O_49 
REMARK   22  A    between atoms: C_50  and  C_51 
REMARK   23  A    between atoms: C_51  and  C_52 
REMARK   24  A    between atoms: C_52  and  O_54 
REMARK   25  A    between atoms: C_55  and  C_56 
REMARK   26  A    between atoms: C_56  and  C_57 
REMARK   27  A    between atoms: C_57  and  C_58 
REMARK   28  A    between atoms: C_58  and  O_60 
ROOT
ATOM      1  O   UNK d   0     -26.738  14.722  20.030  0.00  0.00    -0.650 OA
ATOM      2  C   UNK d   0     -26.284  14.023  19.096  0.00  0.00     0.139 C 
ENDROOT
BRANCH   2   3
ATOM      3  O   UNK d   0     -26.829  14.140  17.840  0.00  0.00    -0.776 OA
ATOM      4  H   UNK d   0     -26.856  13.344  17.200  0.00  0.00     0.167 HD
ENDBRANCH   2   3
BRANCH   2   5
ATOM      5  C   UNK d   0     -25.164  13.072  19.349  0.00  0.00     0.115 C 
BRANCH   5   6
ATOM      6  C   UNK d   0     -23.945  13.491  18.574  0.00  0.00     0.052 C 
BRANCH   6   7
ATOM      7  C   UNK d   0     -23.508  14.900  18.894  0.00  0.00    -0.020 A 
ATOM      8  C   UNK d   0     -22.918  15.325  19.983  0.00  0.00    -0.011 A 
ATOM      9  C   UNK d   0     -22.700  16.755  19.841  0.00  0.00     0.067 A 
ATOM     10  C   UNK d   0     -22.116  17.771  20.614  0.00  0.00     0.062 C 
ATOM     11  N   UNK d   0     -23.193  17.118  18.639  0.00  0.00    -0.248 NA
ATOM     12  C   UNK d   0     -21.747  19.052  20.189  0.00  0.00     0.041 A 
ATOM     13  N   UNK d   0     -22.378  19.940  19.397  0.00  0.00    -0.355 N 
ATOM     14  C   UNK d   0     -20.489  19.557  20.564  0.00  0.00    -0.022 A 
ATOM     15  C   UNK d   0     -21.550  20.991  19.254  0.00  0.00     0.042 A 
ATOM     16  H   UNK d   0     -23.397  19.834  18.964  0.00  0.00     0.166 HD
ATOM     17  C   UNK d   0     -21.713  22.191  18.534  0.00  0.00     0.062 C 
ATOM     18  C   UNK d   0     -20.355  20.787  19.971  0.00  0.00    -0.013 A 
ATOM     19  C   UNK d   0     -22.196  22.376  17.264  0.00  0.00     0.067 A 
ATOM     20  N   UNK d   0     -22.777  21.325  16.679  0.00  0.00    -0.248 NA
ATOM     21  C   UNK d   0     -22.238  23.473  16.311  0.00  0.00    -0.011 A 
ATOM     22  C   UNK d   0     -23.195  21.655  15.413  0.00  0.00     0.066 A 
ATOM     23  C   UNK d   0     -23.853  20.662  14.703  0.00  0.00     0.062 C 
ATOM     24  C   UNK d   0     -22.820  23.043  15.229  0.00  0.00    -0.020 A 
ATOM     25  C   UNK d   0     -24.226  19.386  15.153  0.00  0.00     0.041 A 
ATOM     26  N   UNK d   0     -23.592  18.497  15.927  0.00  0.00    -0.355 N 
ATOM     27  C   UNK d   0     -25.491  18.882  14.779  0.00  0.00    -0.022 A 
ATOM     28  C   UNK d   0     -24.413  17.444  16.064  0.00  0.00     0.042 A 
ATOM     29  H   UNK d   0     -22.564  18.601  16.353  0.00  0.00     0.166 HD
ATOM     30  C   UNK d   0     -24.259  16.240  16.769  0.00  0.00     0.062 C 
ATOM     31  C   UNK d   0     -25.618  17.654  15.352  0.00  0.00    -0.013 A 
ATOM     32  C   UNK d   0     -23.692  16.048  18.019  0.00  0.00     0.066 A 
BRANCH   8  33
ATOM     33  C   UNK d   0     -22.539  14.517  21.157  0.00  0.00     0.151 C 
BRANCH  33  34
ATOM     34  C   UNK d   0     -23.533  14.587  22.243  0.00  0.00     0.143 C 
ATOM     35  O   UNK d   0     -23.358  13.975  23.306  0.00  0.00    -0.650 OA
BRANCH  34  36
ATOM     36  O   UNK d   0     -24.670  15.341  22.070  0.00  0.00    -0.776 OA
ATOM     37  H   UNK d   0     -24.854  15.836  21.186  0.00  0.00     0.167 HD
ENDBRANCH  34  36
ENDBRANCH  33  34
ENDBRANCH   8  33
BRANCH  31  38
ATOM     38  C   UNK d   0     -26.815  16.738  15.243  0.00  0.00     0.151 C 
BRANCH  38  39
ATOM     39  C   UNK d   0     -27.840  17.036  16.220  0.00  0.00     0.143 C 
ATOM     40  O   UNK d   0     -29.033  16.727  16.048  0.00  0.00    -0.650 OA
BRANCH  39  41
ATOM     41  O   UNK d   0     -27.494  17.692  17.400  0.00  0.00    -0.776 OA
ATOM     42  H   UNK d   0     -26.596  18.186  17.407  0.00  0.00     0.167 HD
ENDBRANCH  39  41
ENDBRANCH  38  39
ENDBRANCH  31  38
BRANCH  27  43
ATOM     43  C   UNK d   0     -26.556  19.510  13.916  0.00  0.00     0.052 C 
BRANCH  43  44
ATOM     44  C   UNK d   0     -27.486  20.398  14.678  0.00  0.00     0.115 C 
BRANCH  44  45
ATOM     45  C   UNK d   0     -27.936  21.452  13.732  0.00  0.00     0.139 C 
ATOM     46  O   UNK d   0     -27.571  21.367  12.533  0.00  0.00    -0.650 OA
BRANCH  45  47
ATOM     47  O   UNK d   0     -28.736  22.507  14.114  0.00  0.00    -0.776 OA
ATOM     48  H   UNK d   0     -29.737  22.570  13.867  0.00  0.00     0.167 HD
ENDBRANCH  45  47
ENDBRANCH  44  45
ENDBRANCH  43  44
ENDBRANCH  27  43
BRANCH  24  49
ATOM     49  C   UNK d   0     -23.105  23.839  14.022  0.00  0.00     0.052 C 
BRANCH  49  50
ATOM     50  C   UNK d   0     -24.476  24.458  14.115  0.00  0.00     0.115 C 
BRANCH  50  51
ATOM     51  C   UNK d   0     -25.424  24.135  13.057  0.00  0.00     0.139 C 
ATOM     52  O   UNK d   0     -26.458  24.812  12.846  0.00  0.00    -0.650 OA
BRANCH  51  53
ATOM     53  O   UNK d   0     -25.195  23.038  12.241  0.00  0.00    -0.776 OA
ATOM     54  H   UNK d   0     -25.715  22.196  12.418  0.00  0.00     0.167 HD
ENDBRANCH  51  53
ENDBRANCH  50  51
ENDBRANCH  49  50
ENDBRANCH  24  49
BRANCH  21  55
ATOM     55  C   UNK d   0     -21.695  24.837  16.584  0.00  0.00     0.151 C 
BRANCH  55  56
ATOM     56  C   UNK d   0     -20.231  24.830  16.725  0.00  0.00     0.143 C 
ATOM     57  O   UNK d   0     -19.630  25.539  17.555  0.00  0.00    -0.650 OA
BRANCH  56  58
ATOM     58  O   UNK d   0     -19.502  23.989  15.886  0.00  0.00    -0.776 OA
ATOM     59  H   UNK d   0     -18.763  23.436  16.357  0.00  0.00     0.167 HD
ENDBRANCH  56  58
ENDBRANCH  55  56
ENDBRANCH  21  55
BRANCH  18  60
ATOM     60  C   UNK d   0     -19.147  21.683  20.101  0.00  0.00     0.151 C 
BRANCH  60  61
ATOM     61  C   UNK d   0     -18.245  21.304  19.002  0.00  0.00     0.143 C 
ATOM     62  O   UNK d   0     -18.336  21.634  17.820  0.00  0.00    -0.650 OA
BRANCH  61  63
ATOM     63  O   UNK d   0     -17.161  20.472  19.373  0.00  0.00    -0.776 OA
ATOM     64  H   UNK d   0     -17.309  19.512  19.628  0.00  0.00     0.167 HD
ENDBRANCH  61  63
ENDBRANCH  60  61
ENDBRANCH  18  60
BRANCH  14  65
ATOM     65  C   UNK d   0     -19.456  19.013  21.510  0.00  0.00     0.052 C 
BRANCH  65  66
ATOM     66  C   UNK d   0     -19.656  19.467  22.913  0.00  0.00     0.115 C 
BRANCH  66  67
ATOM     67  C   UNK d   0     -18.644  19.203  23.897  0.00  0.00     0.139 C 
ATOM     68  O   UNK d   0     -18.016  18.082  23.847  0.00  0.00    -0.650 OA
BRANCH  67  69
ATOM     69  O   UNK d   0     -18.233  20.031  24.941  0.00  0.00    -0.776 OA
ATOM     70  H   UNK d   0     -18.961  20.285  25.624  0.00  0.00     0.167 HD
ENDBRANCH  67  69
ENDBRANCH  66  67
ENDBRANCH  65  66
ENDBRANCH  14  65
ENDBRANCH   6   7
ENDBRANCH   5   6
ENDBRANCH   2   5
TORSDOF 28
ENDMDL
MODEL 19
REMARK VINA RESULT:      -6.6      5.620     10.874
REMARK  28 active torsions:
REMARK  status: ('A' for Active; 'I' for Inactive)
REMARK    1  A    between atoms: C_2  and  O_3 
REMARK    2  A    between atoms: C_2  and  C_4 
REMARK    3  A    between atoms: C_4  and  C_5 
REMARK    4  A    between atoms: C_5  and  C_6 
REMARK    5  A    between atoms: C_7  and  C_8 
REMARK    6  A    between atoms: C_8  and  C_9 
REMARK    7  A    between atoms: C_9  and  O_11 
REMARK    8  A    between atoms: C_28  and  C_29 
REMARK    9  A    between atoms: C_29  and  C_30 
REMARK   10  A    between atoms: C_30  and  O_32 
REMARK   11  A    between atoms: C_33  and  C_34 
REMARK   12  A    between atoms: C_34  and  C_35 
REMARK   13  A    between atoms: C_35  and  C_36 
REMARK   14  A    between atoms: C_36  and  O_38 
REMARK   15  A    between atoms: C_39  and  C_40 
REMARK   16  A    between atoms: C_40  and  C_41 
REMARK   17  A    between atoms: C_41  and  C_42 
REMARK   18  A    between atoms: C_42  and  O_44 
REMARK   19  A    between atoms: C_45  and  C_46 
REMARK   20  A    between atoms: C_46  and  C_47 
REMARK   21  A    between atoms: C_47  and  O_49 
REMARK   22  A    between atoms: C_50  and  C_51 
REMARK   23  A    between atoms: C_51  and  C_52 
REMARK   24  A    between atoms: C_52  and  O_54 
REMARK   25  A    between atoms: C_55  and  C_56 
REMARK   26  A    between atoms: C_56  and  C_57 
REMARK   27  A    between atoms: C_57  and  C_58 
REMARK   28  A    between atoms: C_58  and  O_60 
ROOT
ATOM      1  O   UNK d   0     -19.424  25.000  16.950  0.00  0.00    -0.650 OA
ATOM      2  C   UNK d   0     -20.378  25.679  17.390  0.00  0.00     0.139 C 
ENDROOT
BRANCH   2   3
ATOM      3  O   UNK d   0     -21.344  26.126  16.521  0.00  0.00    -0.776 OA
ATOM      4  H   UNK d   0     -22.020  25.480  16.107  0.00  0.00     0.167 HD
ENDBRANCH   2   3
BRANCH   2   5
ATOM      5  C   UNK d   0     -20.462  25.998  18.844  0.00  0.00     0.115 C 
BRANCH   5   6
ATOM      6  C   UNK d   0     -21.672  25.341  19.450  0.00  0.00     0.052 C 
BRANCH   6   7
ATOM      7  C   UNK d   0     -21.562  23.835  19.478  0.00  0.00    -0.020 A 
ATOM      8  C   UNK d   0     -20.766  23.107  20.217  0.00  0.00    -0.011 A 
ATOM      9  C   UNK d   0     -21.010  21.711  19.893  0.00  0.00     0.067 A 
ATOM     10  C   UNK d   0     -20.521  20.470  20.328  0.00  0.00     0.062 C 
ATOM     11  N   UNK d   0     -21.967  21.683  18.942  0.00  0.00    -0.248 NA
ATOM     12  C   UNK d   0     -21.081  19.209  20.094  0.00  0.00     0.041 A 
ATOM     13  N   UNK d   0     -21.617  18.670  18.982  0.00  0.00    -0.355 N 
ATOM     14  C   UNK d   0     -21.190  18.303  21.165  0.00  0.00    -0.022 A 
ATOM     15  C   UNK d   0     -22.071  17.449  19.322  0.00  0.00     0.042 A 
ATOM     16  H   UNK d   0     -21.656  19.136  17.973  0.00  0.00     0.166 HD
ATOM     17  C   UNK d   0     -22.715  16.465  18.545  0.00  0.00     0.062 C 
ATOM     18  C   UNK d   0     -21.822  17.184  20.683  0.00  0.00    -0.013 A 
ATOM     19  C   UNK d   0     -23.734  16.612  17.640  0.00  0.00     0.067 A 
ATOM     20  N   UNK d   0     -24.048  17.859  17.279  0.00  0.00    -0.248 NA
ATOM     21  C   UNK d   0     -24.636  15.721  16.928  0.00  0.00    -0.011 A 
ATOM     22  C   UNK d   0     -25.090  17.849  16.385  0.00  0.00     0.066 A 
ATOM     23  C   UNK d   0     -25.495  19.082  15.896  0.00  0.00     0.062 C 
ATOM     24  C   UNK d   0     -25.430  16.451  16.199  0.00  0.00    -0.020 A 
ATOM     25  C   UNK d   0     -24.911  20.336  16.134  0.00  0.00     0.041 A 
ATOM     26  N   UNK d   0     -24.392  20.877  17.242  0.00  0.00    -0.355 N 
ATOM     27  C   UNK d   0     -24.797  21.243  15.058  0.00  0.00    -0.022 A 
ATOM     28  C   UNK d   0     -23.946  22.098  16.908  0.00  0.00     0.042 A 
ATOM     29  H   UNK d   0     -24.363  20.412  18.258  0.00  0.00     0.166 HD
ATOM     30  C   UNK d   0     -23.312  23.091  17.672  0.00  0.00     0.062 C 
ATOM     31  C   UNK d   0     -24.187  22.360  15.538  0.00  0.00    -0.013 A 
ATOM     32  C   UNK d   0     -22.342  22.929  18.648  0.00  0.00     0.066 A 
BRANCH   8  33
ATOM     33  C   UNK d   0     -19.784  23.592  21.205  0.00  0.00     0.151 C 
BRANCH  33  34
ATOM     34  C   UNK d   0     -20.306  23.574  22.584  0.00  0.00     0.143 C 
ATOM     35  O   UNK d   0     -20.725  24.610  23.120  0.00  0.00    -0.650 OA
BRANCH  34  36
ATOM     36  O   UNK d   0     -20.323  22.389  23.283  0.00  0.00    -0.776 OA
ATOM     37  H   UNK d   0     -21.091  21.714  23.170  0.00  0.00     0.167 HD
ENDBRANCH  34  36
ENDBRANCH  33  34
ENDBRANCH   8  33
BRANCH  31  38
ATOM     38  C   UNK d   0     -23.841  23.598  14.745  0.00  0.00     0.151 C 
BRANCH  38  39
ATOM     39  C   UNK d   0     -22.547  23.510  14.103  0.00  0.00     0.143 C 
ATOM     40  O   UNK d   0     -21.525  24.024  14.591  0.00  0.00    -0.650 OA
BRANCH  39  41
ATOM     41  O   UNK d   0     -22.426  22.827  12.893  0.00  0.00    -0.776 OA
ATOM     42  H   UNK d   0     -23.099  23.066  12.158  0.00  0.00     0.167 HD
ENDBRANCH  39  41
ENDBRANCH  38  39
ENDBRANCH  31  38
BRANCH  27  43
ATOM     43  C   UNK d   0     -25.240  21.089  13.624  0.00  0.00     0.052 C 
BRANCH  43  44
ATOM     44  C   UNK d   0     -26.724  21.134  13.455  0.00  0.00     0.115 C 
BRANCH  44  45
ATOM     45  C   UNK d   0     -27.101  22.570  13.403  0.00  0.00     0.139 C 
ATOM     46  O   UNK d   0     -27.971  22.983  14.210  0.00  0.00    -0.650 OA
BRANCH  45  47
ATOM     47  O   UNK d   0     -26.535  23.460  12.516  0.00  0.00    -0.776 OA
ATOM     48  H   UNK d   0     -26.234  23.189  11.566  0.00  0.00     0.167 HD
ENDBRANCH  45  47
ENDBRANCH  44  45
ENDBRANCH  43  44
ENDBRANCH  27  43
BRANCH  24  49
ATOM     49  C   UNK d   0     -26.474  15.954  15.287  0.00  0.00     0.052 C 
BRANCH  49  50
ATOM     50  C   UNK d   0     -27.840  16.345  15.792  0.00  0.00     0.115 C 
BRANCH  50  51
ATOM     51  C   UNK d   0     -28.210  15.894  17.126  0.00  0.00     0.139 C 
ATOM     52  O   UNK d   0     -28.467  16.687  18.062  0.00  0.00    -0.650 OA
BRANCH  51  53
ATOM     53  O   UNK d   0     -28.286  14.535  17.395  0.00  0.00    -0.776 OA
ATOM     54  H   UNK d   0     -27.549  14.116  17.935  0.00  0.00     0.167 HD
ENDBRANCH  51  53
ENDBRANCH  50  51
ENDBRANCH  49  50
ENDBRANCH  24  49
BRANCH  21  55
ATOM     55  C   UNK d   0     -24.608  14.234  17.049  0.00  0.00     0.151 C 
BRANCH  55  56
ATOM     56  C   UNK d   0     -24.877  13.786  18.424  0.00  0.00     0.143 C 
ATOM     57  O   UNK d   0     -25.941  14.043  19.021  0.00  0.00    -0.650 OA
BRANCH  56  58
ATOM     58  O   UNK d   0     -23.890  13.045  19.070  0.00  0.00    -0.776 OA
ATOM     59  H   UNK d   0     -23.622  13.398  20.006  0.00  0.00     0.167 HD
ENDBRANCH  56  58
ENDBRANCH  55  56
ENDBRANCH  21  55
BRANCH  18  60
ATOM     60  C   UNK d   0     -22.153  15.959  21.499  0.00  0.00     0.151 C 
BRANCH  60  61
ATOM     61  C   UNK d   0     -23.578  16.076  21.844  0.00  0.00     0.143 C 
ATOM     62  O   UNK d   0     -24.129  17.022  22.408  0.00  0.00    -0.650 OA
BRANCH  61  63
ATOM     63  O   UNK d   0     -24.380  14.969  21.478  0.00  0.00    -0.776 OA
ATOM     64  H   UNK d   0     -24.174  14.429  20.656  0.00  0.00     0.167 HD
ENDBRANCH  61  63
ENDBRANCH  60  61
ENDBRANCH  18  60
BRANCH  14  65
ATOM     65  C   UNK d   0     -20.661  18.375  22.569  0.00  0.00     0.052 C 
BRANCH  65  66
ATOM     66  C   UNK d   0     -19.254  17.906  22.685  0.00  0.00     0.115 C 
BRANCH  66  67
ATOM     67  C   UNK d   0     -18.195  18.863  22.841  0.00  0.00     0.139 C 
ATOM     68  O   UNK d   0     -18.498  20.059  23.206  0.00  0.00    -0.650 OA
BRANCH  67  69
ATOM     69  O   UNK d   0     -16.830  18.664  22.642  0.00  0.00    -0.776 OA
ATOM     70  H   UNK d   0     -16.205  19.166  23.290  0.00  0.00     0.167 HD
ENDBRANCH  67  69
ENDBRANCH  66  67
ENDBRANCH  65  66
ENDBRANCH  14  65
ENDBRANCH   6   7
ENDBRANCH   5   6
ENDBRANCH   2   5
TORSDOF 28
ENDMDL
MODEL 20
REMARK VINA RESULT:      -6.5      5.226     12.894
REMARK  28 active torsions:
REMARK  status: ('A' for Active; 'I' for Inactive)
REMARK    1  A    between atoms: C_2  and  O_3 
REMARK    2  A    between atoms: C_2  and  C_4 
REMARK    3  A    between atoms: C_4  and  C_5 
REMARK    4  A    between atoms: C_5  and  C_6 
REMARK    5  A    between atoms: C_7  and  C_8 
REMARK    6  A    between atoms: C_8  and  C_9 
REMARK    7  A    between atoms: C_9  and  O_11 
REMARK    8  A    between atoms: C_28  and  C_29 
REMARK    9  A    between atoms: C_29  and  C_30 
REMARK   10  A    between atoms: C_30  and  O_32 
REMARK   11  A    between atoms: C_33  and  C_34 
REMARK   12  A    between atoms: C_34  and  C_35 
REMARK   13  A    between atoms: C_35  and  C_36 
REMARK   14  A    between atoms: C_36  and  O_38 
REMARK   15  A    between atoms: C_39  and  C_40 
REMARK   16  A    between atoms: C_40  and  C_41 
REMARK   17  A    between atoms: C_41  and  C_42 
REMARK   18  A    between atoms: C_42  and  O_44 
REMARK   19  A    between atoms: C_45  and  C_46 
REMARK   20  A    between atoms: C_46  and  C_47 
REMARK   21  A    between atoms: C_47  and  O_49 
REMARK   22  A    between atoms: C_50  and  C_51 
REMARK   23  A    between atoms: C_51  and  C_52 
REMARK   24  A    between atoms: C_52  and  O_54 
REMARK   25  A    between atoms: C_55  and  C_56 
REMARK   26  A    between atoms: C_56  and  C_57 
REMARK   27  A    between atoms: C_57  and  C_58 
REMARK   28  A    between atoms: C_58  and  O_60 
ROOT
ATOM      1  O   UNK d   0     -25.529  26.543  13.621  0.00  0.00    -0.650 OA
ATOM      2  C   UNK d   0     -25.113  25.382  13.409  0.00  0.00     0.139 C 
ENDROOT
BRANCH   2   3
ATOM      3  O   UNK d   0     -25.441  24.753  12.232  0.00  0.00    -0.776 OA
ATOM      4  H   UNK d   0     -26.416  24.599  11.970  0.00  0.00     0.167 HD
ENDBRANCH   2   3
BRANCH   2   5
ATOM      5  C   UNK d   0     -24.272  24.692  14.427  0.00  0.00     0.115 C 
BRANCH   5   6
ATOM      6  C   UNK d   0     -23.633  23.468  13.828  0.00  0.00     0.052 C 
BRANCH   6   7
ATOM      7  C   UNK d   0     -23.664  22.281  14.760  0.00  0.00    -0.020 A 
ATOM      8  C   UNK d   0     -24.426  21.221  14.678  0.00  0.00    -0.011 A 
ATOM      9  C   UNK d   0     -24.106  20.354  15.800  0.00  0.00     0.067 A 
ATOM     10  C   UNK d   0     -24.532  19.100  16.266  0.00  0.00     0.062 C 
ATOM     11  N   UNK d   0     -23.141  20.968  16.518  0.00  0.00    -0.248 NA
ATOM     12  C   UNK d   0     -23.904  18.293  17.221  0.00  0.00     0.041 A 
ATOM     13  N   UNK d   0     -23.332  18.598  18.401  0.00  0.00    -0.355 N 
ATOM     14  C   UNK d   0     -23.755  16.919  16.958  0.00  0.00    -0.022 A 
ATOM     15  C   UNK d   0     -22.816  17.454  18.890  0.00  0.00     0.042 A 
ATOM     16  H   UNK d   0     -23.310  19.598  18.887  0.00  0.00     0.166 HD
ATOM     17  C   UNK d   0     -22.116  17.207  20.087  0.00  0.00     0.062 C 
ATOM     18  C   UNK d   0     -23.062  16.380  18.013  0.00  0.00    -0.013 A 
ATOM     19  C   UNK d   0     -21.099  17.930  20.656  0.00  0.00     0.067 A 
ATOM     20  N   UNK d   0     -20.849  19.135  20.137  0.00  0.00    -0.248 NA
ATOM     21  C   UNK d   0     -20.146  17.723  21.734  0.00  0.00    -0.011 A 
ATOM     22  C   UNK d   0     -19.801  19.729  20.795  0.00  0.00     0.066 A 
ATOM     23  C   UNK d   0     -19.458  21.008  20.380  0.00  0.00     0.062 C 
ATOM     24  C   UNK d   0     -19.386  18.778  21.807  0.00  0.00    -0.020 A 
ATOM     25  C   UNK d   0     -20.109  21.807  19.427  0.00  0.00     0.041 A 
ATOM     26  N   UNK d   0     -20.665  21.506  18.247  0.00  0.00    -0.355 N 
ATOM     27  C   UNK d   0     -20.262  23.185  19.694  0.00  0.00    -0.022 A 
ATOM     28  C   UNK d   0     -21.172  22.647  17.753  0.00  0.00     0.042 A 
ATOM     29  H   UNK d   0     -20.677  20.503  17.755  0.00  0.00     0.166 HD
ATOM     30  C   UNK d   0     -21.863  22.909  16.560  0.00  0.00     0.062 C 
ATOM     31  C   UNK d   0     -20.934  23.724  18.640  0.00  0.00    -0.013 A 
ATOM     32  C   UNK d   0     -22.831  22.131  15.944  0.00  0.00     0.066 A 
BRANCH   8  33
ATOM     33  C   UNK d   0     -25.439  20.937  13.645  0.00  0.00     0.151 C 
BRANCH  33  34
ATOM     34  C   UNK d   0     -26.664  21.739  13.812  0.00  0.00     0.143 C 
ATOM     35  O   UNK d   0     -27.249  21.789  14.904  0.00  0.00    -0.650 OA
BRANCH  34  36
ATOM     36  O   UNK d   0     -27.164  22.440  12.739  0.00  0.00    -0.776 OA
ATOM     37  H   UNK d   0     -26.539  22.904  12.065  0.00  0.00     0.167 HD
ENDBRANCH  34  36
ENDBRANCH  33  34
ENDBRANCH   8  33
BRANCH  31  38
ATOM     38  C   UNK d   0     -21.339  25.171  18.488  0.00  0.00     0.151 C 
BRANCH  38  39
ATOM     39  C   UNK d   0     -20.327  25.972  17.832  0.00  0.00     0.143 C 
ATOM     40  O   UNK d   0     -20.231  27.199  18.008  0.00  0.00    -0.650 OA
BRANCH  39  41
ATOM     41  O   UNK d   0     -19.420  25.358  16.969  0.00  0.00    -0.776 OA
ATOM     42  H   UNK d   0     -19.782  24.600  16.381  0.00  0.00     0.167 HD
ENDBRANCH  39  41
ENDBRANCH  38  39
ENDBRANCH  31  38
BRANCH  27  43
ATOM     43  C   UNK d   0     -19.801  23.988  20.884  0.00  0.00     0.052 C 
BRANCH  43  44
ATOM     44  C   UNK d   0     -20.743  23.921  22.042  0.00  0.00     0.115 C 
BRANCH  44  45
ATOM     45  C   UNK d   0     -20.167  24.781  23.109  0.00  0.00     0.139 C 
ATOM     46  O   UNK d   0     -20.850  25.749  23.523  0.00  0.00    -0.650 OA
BRANCH  45  47
ATOM     47  O   UNK d   0     -18.924  24.554  23.660  0.00  0.00    -0.776 OA
ATOM     48  H   UNK d   0     -18.527  23.608  23.778  0.00  0.00     0.167 HD
ENDBRANCH  45  47
ENDBRANCH  44  45
ENDBRANCH  43  44
ENDBRANCH  27  43
BRANCH  24  49
ATOM     49  C   UNK d   0     -18.310  19.007  22.786  0.00  0.00     0.052 C 
BRANCH  49  50
ATOM     50  C   UNK d   0     -18.848  19.720  24.000  0.00  0.00     0.115 C 
BRANCH  50  51
ATOM     51  C   UNK d   0     -18.673  21.165  24.054  0.00  0.00     0.139 C 
ATOM     52  O   UNK d   0     -17.924  21.786  23.263  0.00  0.00    -0.650 OA
BRANCH  51  53
ATOM     53  O   UNK d   0     -19.352  21.903  25.011  0.00  0.00    -0.776 OA
ATOM     54  H   UNK d   0     -18.947  22.769  25.319  0.00  0.00     0.167 HD
ENDBRANCH  51  53
ENDBRANCH  50  51
ENDBRANCH  49  50
ENDBRANCH  24  49
BRANCH  21  55
ATOM     55  C   UNK d   0     -20.096  16.494  22.581  0.00  0.00     0.151 C 
BRANCH  55  56
ATOM     56  C   UNK d   0     -21.226  16.426  23.520  0.00  0.00     0.143 C 
ATOM     57  O   UNK d   0     -22.196  15.661  23.354  0.00  0.00    -0.650 OA
BRANCH  56  58
ATOM     58  O   UNK d   0     -21.193  17.259  24.637  0.00  0.00    -0.776 OA
ATOM     59  H   UNK d   0     -20.572  16.939  25.402  0.00  0.00     0.167 HD
ENDBRANCH  56  58
ENDBRANCH  55  56
ENDBRANCH  21  55
BRANCH  18  60
ATOM     60  C   UNK d   0     -22.673  14.928  18.140  0.00  0.00     0.151 C 
BRANCH  60  61
ATOM     61  C   UNK d   0     -23.614  14.341  19.106  0.00  0.00     0.143 C 
ATOM     62  O   UNK d   0     -24.835  14.499  19.143  0.00  0.00    -0.650 OA
BRANCH  61  63
ATOM     63  O   UNK d   0     -23.027  13.508  20.089  0.00  0.00    -0.776 OA
ATOM     64  H   UNK d   0     -23.093  13.732  21.066  0.00  0.00     0.167 HD
ENDBRANCH  61  63
ENDBRANCH  60  61
ENDBRANCH  18  60
BRANCH  14  65
ATOM     65  C   UNK d   0     -24.298  16.068  15.845  0.00  0.00     0.052 C 
BRANCH  65  66
ATOM     66  C   UNK d   0     -25.726  15.699  16.039  0.00  0.00     0.115 C 
BRANCH  66  67
ATOM     67  C   UNK d   0     -26.679  15.970  15.000  0.00  0.00     0.139 C 
ATOM     68  O   UNK d   0     -27.777  16.563  15.312  0.00  0.00    -0.650 OA
BRANCH  67  69
ATOM     69  O   UNK d   0     -26.571  15.666  13.643  0.00  0.00    -0.776 OA
ATOM     70  H   UNK d   0     -26.687  16.459  12.996  0.00  0.00     0.167 HD
ENDBRANCH  67  69
ENDBRANCH  66  67
ENDBRANCH  65  66
ENDBRANCH  14  65
ENDBRANCH   6   7
ENDBRANCH   5   6
ENDBRANCH   2   5
TORSDOF 28
ENDMDL
