MODEL 1
REMARK VINA RESULT:     -10.7      0.000      0.000
REMARK  28 active torsions:
REMARK  status: ('A' for Active; 'I' for Inactive)
REMARK    1  A    between atoms: C_2  and  O_3 
REMARK    2  A    between atoms: C_2  and  C_4 
REMARK    3  A    between atoms: C_4  and  C_5 
REMARK    4  A    between atoms: C_5  and  C_6 
REMARK    5  A    between atoms: C_7  and  C_8 
REMARK    6  A    between atoms: C_8  and  C_9 
REMARK    7  A    between atoms: C_9  and  O_11 
REMARK    8  A    between atoms: C_28  and  C_29 
REMARK    9  A    between atoms: C_29  and  C_30 
REMARK   10  A    between atoms: C_30  and  O_32 
REMARK   11  A    between atoms: C_33  and  C_34 
REMARK   12  A    between atoms: C_34  and  C_35 
REMARK   13  A    between atoms: C_35  and  C_36 
REMARK   14  A    between atoms: C_36  and  O_38 
REMARK   15  A    between atoms: C_39  and  C_40 
REMARK   16  A    between atoms: C_40  and  C_41 
REMARK   17  A    between atoms: C_41  and  C_42 
REMARK   18  A    between atoms: C_42  and  O_44 
REMARK   19  A    between atoms: C_45  and  C_46 
REMARK   20  A    between atoms: C_46  and  C_47 
REMARK   21  A    between atoms: C_47  and  O_49 
REMARK   22  A    between atoms: C_50  and  C_51 
REMARK   23  A    between atoms: C_51  and  C_52 
REMARK   24  A    between atoms: C_52  and  O_54 
REMARK   25  A    between atoms: C_55  and  C_56 
REMARK   26  A    between atoms: C_56  and  C_57 
REMARK   27  A    between atoms: C_57  and  C_58 
REMARK   28  A    between atoms: C_58  and  O_60 
ROOT
ATOM      1  O   UNK d   0     -12.984 -20.732  -6.252  0.00  0.00    -0.650 OA
ATOM      2  C   UNK d   0     -12.679 -19.658  -6.818  0.00  0.00     0.139 C 
ENDROOT
BRANCH   2   3
ATOM      3  O   UNK d   0     -11.599 -19.628  -7.667  0.00  0.00    -0.776 OA
ATOM      4  H   UNK d   0     -11.448 -18.840  -8.300  0.00  0.00     0.167 HD
ENDBRANCH   2   3
BRANCH   2   5
ATOM      5  C   UNK d   0     -13.483 -18.428  -6.571  0.00  0.00     0.115 C 
BRANCH   5   6
ATOM      6  C   UNK d   0     -13.111 -17.359  -7.563  0.00  0.00     0.052 C 
BRANCH   6   7
ATOM      7  C   UNK d   0     -12.890 -16.014  -6.912  0.00  0.00    -0.020 A 
ATOM      8  C   UNK d   0     -13.668 -14.964  -6.966  0.00  0.00    -0.011 A 
ATOM      9  C   UNK d   0     -13.040 -13.904  -6.196  0.00  0.00     0.067 A 
ATOM     10  C   UNK d   0     -13.354 -12.580  -5.850  0.00  0.00     0.062 C 
ATOM     11  N   UNK d   0     -11.879 -14.394  -5.712  0.00  0.00    -0.248 NA
ATOM     12  C   UNK d   0     -12.751 -11.797  -4.860  0.00  0.00     0.041 A 
ATOM     13  N   UNK d   0     -11.457 -11.637  -4.522  0.00  0.00    -0.355 N 
ATOM     14  C   UNK d   0     -13.568 -11.058  -3.985  0.00  0.00    -0.022 A 
ATOM     15  C   UNK d   0     -11.433 -10.821  -3.451  0.00  0.00     0.042 A 
ATOM     16  H   UNK d   0     -10.577 -12.075  -5.043  0.00  0.00     0.166 HD
ATOM     17  C   UNK d   0     -10.345 -10.329  -2.702  0.00  0.00     0.062 C 
ATOM     18  C   UNK d   0     -12.738 -10.438  -3.085  0.00  0.00    -0.013 A 
ATOM     19  C   UNK d   0      -9.243 -11.001  -2.238  0.00  0.00     0.067 A 
ATOM     20  N   UNK d   0      -9.048 -12.237  -2.705  0.00  0.00    -0.248 NA
ATOM     21  C   UNK d   0      -8.166 -10.721  -1.304  0.00  0.00    -0.011 A 
ATOM     22  C   UNK d   0      -7.921 -12.786  -2.143  0.00  0.00     0.066 A 
ATOM     23  C   UNK d   0      -7.578 -14.060  -2.570  0.00  0.00     0.062 C 
ATOM     24  C   UNK d   0      -7.398 -11.771  -1.249  0.00  0.00    -0.020 A 
ATOM     25  C   UNK d   0      -8.189 -14.825  -3.576  0.00  0.00     0.041 A 
ATOM     26  N   UNK d   0      -9.476 -14.996  -3.902  0.00  0.00    -0.355 N 
ATOM     27  C   UNK d   0      -7.368 -15.562  -4.456  0.00  0.00    -0.022 A 
ATOM     28  C   UNK d   0      -9.503 -15.816  -4.964  0.00  0.00     0.042 A 
ATOM     29  H   UNK d   0     -10.359 -14.563  -3.371  0.00  0.00     0.166 HD
ATOM     30  C   UNK d   0     -10.578 -16.321  -5.713  0.00  0.00     0.062 C 
ATOM     31  C   UNK d   0      -8.191 -16.192  -5.339  0.00  0.00    -0.013 A 
ATOM     32  C   UNK d   0     -11.730 -15.660  -6.107  0.00  0.00     0.066 A 
BRANCH   8  33
ATOM     33  C   UNK d   0     -14.954 -14.851  -7.680  0.00  0.00     0.151 C 
BRANCH  33  34
ATOM     34  C   UNK d   0     -14.786 -14.681  -9.134  0.00  0.00     0.143 C 
ATOM     35  O   UNK d   0     -14.046 -13.798  -9.591  0.00  0.00    -0.650 OA
BRANCH  34  36
ATOM     36  O   UNK d   0     -15.464 -15.514  -9.994  0.00  0.00    -0.776 OA
ATOM     37  H   UNK d   0     -15.573 -15.280 -10.990  0.00  0.00     0.167 HD
ENDBRANCH  34  36
ENDBRANCH  33  34
ENDBRANCH   8  33
BRANCH  31  38
ATOM     38  C   UNK d   0      -7.760 -17.087  -6.477  0.00  0.00     0.151 C 
BRANCH  38  39
ATOM     39  C   UNK d   0      -7.510 -16.356  -7.701  0.00  0.00     0.143 C 
ATOM     40  O   UNK d   0      -8.314 -16.350  -8.649  0.00  0.00    -0.650 OA
BRANCH  39  41
ATOM     41  O   UNK d   0      -6.328 -15.628  -7.836  0.00  0.00    -0.776 OA
ATOM     42  H   UNK d   0      -5.656 -15.964  -8.534  0.00  0.00     0.167 HD
ENDBRANCH  39  41
ENDBRANCH  38  39
ENDBRANCH  31  38
BRANCH  27  43
ATOM     43  C   UNK d   0      -5.865 -15.688  -4.486  0.00  0.00     0.052 C 
BRANCH  43  44
ATOM     44  C   UNK d   0      -5.334 -16.663  -3.486  0.00  0.00     0.115 C 
BRANCH  44  45
ATOM     45  C   UNK d   0      -4.499 -15.883  -2.535  0.00  0.00     0.139 C 
ATOM     46  O   UNK d   0      -4.030 -14.785  -2.924  0.00  0.00    -0.650 OA
BRANCH  45  47
ATOM     47  O   UNK d   0      -4.228 -16.311  -1.254  0.00  0.00    -0.776 OA
ATOM     48  H   UNK d   0      -3.627 -17.126  -1.051  0.00  0.00     0.167 HD
ENDBRANCH  45  47
ENDBRANCH  44  45
ENDBRANCH  43  44
ENDBRANCH  27  43
BRANCH  24  49
ATOM     49  C   UNK d   0      -6.166 -11.906  -0.454  0.00  0.00     0.052 C 
BRANCH  49  50
ATOM     50  C   UNK d   0      -6.402 -12.805   0.732  0.00  0.00     0.115 C 
BRANCH  50  51
ATOM     51  C   UNK d   0      -5.741 -14.103   0.724  0.00  0.00     0.139 C 
ATOM     52  O   UNK d   0      -6.325 -15.158   0.381  0.00  0.00    -0.650 OA
BRANCH  51  53
ATOM     53  O   UNK d   0      -4.413 -14.199   1.110  0.00  0.00    -0.776 OA
ATOM     54  H   UNK d   0      -4.069 -15.093   1.414  0.00  0.00     0.167 HD
ENDBRANCH  51  53
ENDBRANCH  50  51
ENDBRANCH  49  50
ENDBRANCH  24  49
BRANCH  21  55
ATOM     55  C   UNK d   0      -8.014  -9.432  -0.566  0.00  0.00     0.151 C 
BRANCH  55  56
ATOM     56  C   UNK d   0      -6.696  -8.820  -0.793  0.00  0.00     0.143 C 
ATOM     57  O   UNK d   0      -5.888  -8.595   0.131  0.00  0.00    -0.650 OA
BRANCH  56  58
ATOM     58  O   UNK d   0      -6.352  -8.484  -2.101  0.00  0.00    -0.776 OA
ATOM     59  H   UNK d   0      -5.434  -8.014  -2.204  0.00  0.00     0.167 HD
ENDBRANCH  56  58
ENDBRANCH  55  56
ENDBRANCH  21  55
BRANCH  18  60
ATOM     60  C   UNK d   0     -13.197  -9.546  -1.958  0.00  0.00     0.151 C 
BRANCH  60  61
ATOM     61  C   UNK d   0     -13.317  -8.198  -2.533  0.00  0.00     0.143 C 
ATOM     62  O   UNK d   0     -12.495  -7.618  -3.242  0.00  0.00    -0.650 OA
BRANCH  61  63
ATOM     63  O   UNK d   0     -14.518  -7.516  -2.223  0.00  0.00    -0.776 OA
ATOM     64  H   UNK d   0     -14.647  -7.072  -1.331  0.00  0.00     0.167 HD
ENDBRANCH  61  63
ENDBRANCH  60  61
ENDBRANCH  18  60
BRANCH  14  65
ATOM     65  C   UNK d   0     -15.051 -10.818  -3.996  0.00  0.00     0.052 C 
BRANCH  65  66
ATOM     66  C   UNK d   0     -15.460  -9.749  -4.946  0.00  0.00     0.115 C 
BRANCH  66  67
ATOM     67  C   UNK d   0     -16.684  -9.032  -4.726  0.00  0.00     0.139 C 
ATOM     68  O   UNK d   0     -16.626  -7.873  -4.172  0.00  0.00    -0.650 OA
BRANCH  67  69
ATOM     69  O   UNK d   0     -17.980  -9.438  -5.043  0.00  0.00    -0.776 OA
ATOM     70  H   UNK d   0     -18.267  -9.295  -6.022  0.00  0.00     0.167 HD
ENDBRANCH  67  69
ENDBRANCH  66  67
ENDBRANCH  65  66
ENDBRANCH  14  65
ENDBRANCH   6   7
ENDBRANCH   5   6
ENDBRANCH   2   5
TORSDOF 28
ENDMDL
MODEL 2
REMARK VINA RESULT:     -10.4      1.735      7.734
REMARK  28 active torsions:
REMARK  status: ('A' for Active; 'I' for Inactive)
REMARK    1  A    between atoms: C_2  and  O_3 
REMARK    2  A    between atoms: C_2  and  C_4 
REMARK    3  A    between atoms: C_4  and  C_5 
REMARK    4  A    between atoms: C_5  and  C_6 
REMARK    5  A    between atoms: C_7  and  C_8 
REMARK    6  A    between atoms: C_8  and  C_9 
REMARK    7  A    between atoms: C_9  and  O_11 
REMARK    8  A    between atoms: C_28  and  C_29 
REMARK    9  A    between atoms: C_29  and  C_30 
REMARK   10  A    between atoms: C_30  and  O_32 
REMARK   11  A    between atoms: C_33  and  C_34 
REMARK   12  A    between atoms: C_34  and  C_35 
REMARK   13  A    between atoms: C_35  and  C_36 
REMARK   14  A    between atoms: C_36  and  O_38 
REMARK   15  A    between atoms: C_39  and  C_40 
REMARK   16  A    between atoms: C_40  and  C_41 
REMARK   17  A    between atoms: C_41  and  C_42 
REMARK   18  A    between atoms: C_42  and  O_44 
REMARK   19  A    between atoms: C_45  and  C_46 
REMARK   20  A    between atoms: C_46  and  C_47 
REMARK   21  A    between atoms: C_47  and  O_49 
REMARK   22  A    between atoms: C_50  and  C_51 
REMARK   23  A    between atoms: C_51  and  C_52 
REMARK   24  A    between atoms: C_52  and  O_54 
REMARK   25  A    between atoms: C_55  and  C_56 
REMARK   26  A    between atoms: C_56  and  C_57 
REMARK   27  A    between atoms: C_57  and  C_58 
REMARK   28  A    between atoms: C_58  and  O_60 
ROOT
ATOM      1  O   UNK d   0     -15.234  -9.691  -6.712  0.00  0.00    -0.650 OA
ATOM      2  C   UNK d   0     -16.158 -10.275  -6.103  0.00  0.00     0.139 C 
ENDROOT
BRANCH   2   3
ATOM      3  O   UNK d   0     -17.202  -9.538  -5.597  0.00  0.00    -0.776 OA
ATOM      4  H   UNK d   0     -17.703  -9.840  -4.759  0.00  0.00     0.167 HD
ENDBRANCH   2   3
BRANCH   2   5
ATOM      5  C   UNK d   0     -16.122 -11.755  -5.929  0.00  0.00     0.115 C 
BRANCH   5   6
ATOM      6  C   UNK d   0     -15.387 -12.393  -7.077  0.00  0.00     0.052 C 
BRANCH   6   7
ATOM      7  C   UNK d   0     -14.201 -13.211  -6.625  0.00  0.00    -0.020 A 
ATOM      8  C   UNK d   0     -13.843 -14.398  -7.043  0.00  0.00    -0.011 A 
ATOM      9  C   UNK d   0     -12.647 -14.785  -6.315  0.00  0.00     0.067 A 
ATOM     10  C   UNK d   0     -11.780 -15.888  -6.306  0.00  0.00     0.062 C 
ATOM     11  N   UNK d   0     -12.348 -13.776  -5.469  0.00  0.00    -0.248 NA
ATOM     12  C   UNK d   0     -10.508 -15.962  -5.726  0.00  0.00     0.041 A 
ATOM     13  N   UNK d   0     -10.048 -15.520  -4.541  0.00  0.00    -0.355 N 
ATOM     14  C   UNK d   0      -9.456 -16.535  -6.464  0.00  0.00    -0.022 A 
ATOM     15  C   UNK d   0      -8.729 -15.791  -4.511  0.00  0.00     0.042 A 
ATOM     16  H   UNK d   0     -10.646 -15.045  -3.733  0.00  0.00     0.166 HD
ATOM     17  C   UNK d   0      -7.768 -15.543  -3.510  0.00  0.00     0.062 C 
ATOM     18  C   UNK d   0      -8.321 -16.426  -5.699  0.00  0.00    -0.013 A 
ATOM     19  C   UNK d   0      -7.571 -14.407  -2.766  0.00  0.00     0.067 A 
ATOM     20  N   UNK d   0      -8.516 -13.467  -2.836  0.00  0.00    -0.248 NA
ATOM     21  C   UNK d   0      -6.537 -13.909  -1.874  0.00  0.00    -0.011 A 
ATOM     22  C   UNK d   0      -8.175 -12.389  -2.056  0.00  0.00     0.066 A 
ATOM     23  C   UNK d   0      -9.092 -11.349  -2.007  0.00  0.00     0.062 C 
ATOM     24  C   UNK d   0      -6.895 -12.726  -1.465  0.00  0.00    -0.020 A 
ATOM     25  C   UNK d   0     -10.369 -11.300  -2.586  0.00  0.00     0.041 A 
ATOM     26  N   UNK d   0     -10.824 -11.726  -3.770  0.00  0.00    -0.355 N 
ATOM     27  C   UNK d   0     -11.425 -10.729  -1.843  0.00  0.00    -0.022 A 
ATOM     28  C   UNK d   0     -12.137 -11.449  -3.806  0.00  0.00     0.042 A 
ATOM     29  H   UNK d   0     -10.219 -12.194  -4.585  0.00  0.00     0.166 HD
ATOM     30  C   UNK d   0     -13.102 -11.682  -4.799  0.00  0.00     0.062 C 
ATOM     31  C   UNK d   0     -12.548 -10.820  -2.607  0.00  0.00    -0.013 A 
ATOM     32  C   UNK d   0     -13.245 -12.798  -5.607  0.00  0.00     0.066 A 
BRANCH   8  33
ATOM     33  C   UNK d   0     -14.521 -15.217  -8.065  0.00  0.00     0.151 C 
BRANCH  33  34
ATOM     34  C   UNK d   0     -15.704 -15.922  -7.539  0.00  0.00     0.143 C 
ATOM     35  O   UNK d   0     -15.696 -16.417  -6.402  0.00  0.00    -0.650 OA
BRANCH  34  36
ATOM     36  O   UNK d   0     -16.829 -16.033  -8.323  0.00  0.00    -0.776 OA
ATOM     37  H   UNK d   0     -17.482 -16.821  -8.212  0.00  0.00     0.167 HD
ENDBRANCH  34  36
ENDBRANCH  33  34
ENDBRANCH   8  33
BRANCH  31  38
ATOM     38  C   UNK d   0     -13.931 -10.351  -2.220  0.00  0.00     0.151 C 
BRANCH  38  39
ATOM     39  C   UNK d   0     -14.351  -9.176  -2.953  0.00  0.00     0.143 C 
ATOM     40  O   UNK d   0     -15.549  -8.886  -3.115  0.00  0.00    -0.650 OA
BRANCH  39  41
ATOM     41  O   UNK d   0     -13.388  -8.329  -3.503  0.00  0.00    -0.776 OA
ATOM     42  H   UNK d   0     -13.519  -8.057  -4.482  0.00  0.00     0.167 HD
ENDBRANCH  39  41
ENDBRANCH  38  39
ENDBRANCH  31  38
BRANCH  27  43
ATOM     43  C   UNK d   0     -11.405 -10.113  -0.466  0.00  0.00     0.052 C 
BRANCH  43  44
ATOM     44  C   UNK d   0     -10.619  -8.844  -0.398  0.00  0.00     0.115 C 
BRANCH  44  45
ATOM     45  C   UNK d   0     -11.590  -7.759  -0.100  0.00  0.00     0.139 C 
ATOM     46  O   UNK d   0     -12.682  -7.755  -0.720  0.00  0.00    -0.650 OA
BRANCH  45  47
ATOM     47  O   UNK d   0     -11.343  -6.769   0.827  0.00  0.00    -0.776 OA
ATOM     48  H   UNK d   0     -11.049  -5.815   0.563  0.00  0.00     0.167 HD
ENDBRANCH  45  47
ENDBRANCH  44  45
ENDBRANCH  43  44
ENDBRANCH  27  43
BRANCH  24  49
ATOM     49  C   UNK d   0      -6.157 -11.875  -0.516  0.00  0.00     0.052 C 
BRANCH  49  50
ATOM     50  C   UNK d   0      -5.602 -10.663  -1.220  0.00  0.00     0.115 C 
BRANCH  50  51
ATOM     51  C   UNK d   0      -5.957  -9.359  -0.677  0.00  0.00     0.139 C 
ATOM     52  O   UNK d   0      -5.758  -9.048   0.521  0.00  0.00    -0.650 OA
BRANCH  51  53
ATOM     53  O   UNK d   0      -6.541  -8.409  -1.501  0.00  0.00    -0.776 OA
ATOM     54  H   UNK d   0      -7.544  -8.381  -1.558  0.00  0.00     0.167 HD
ENDBRANCH  51  53
ENDBRANCH  50  51
ENDBRANCH  49  50
ENDBRANCH  24  49
BRANCH  21  55
ATOM     55  C   UNK d   0      -5.303 -14.670  -1.520  0.00  0.00     0.151 C 
BRANCH  55  56
ATOM     56  C   UNK d   0      -4.288 -14.600  -2.583  0.00  0.00     0.143 C 
ATOM     57  O   UNK d   0      -4.302 -15.350  -3.579  0.00  0.00    -0.650 OA
BRANCH  56  58
ATOM     58  O   UNK d   0      -3.277 -13.650  -2.454  0.00  0.00    -0.776 OA
ATOM     59  H   UNK d   0      -3.464 -12.905  -1.759  0.00  0.00     0.167 HD
ENDBRANCH  56  58
ENDBRANCH  55  56
ENDBRANCH  21  55
BRANCH  18  60
ATOM     60  C   UNK d   0      -6.952 -16.908  -6.111  0.00  0.00     0.151 C 
BRANCH  60  61
ATOM     61  C   UNK d   0      -6.370 -15.825  -6.919  0.00  0.00     0.143 C 
ATOM     62  O   UNK d   0      -6.420 -15.704  -8.143  0.00  0.00    -0.650 OA
BRANCH  61  63
ATOM     63  O   UNK d   0      -5.684 -14.828  -6.185  0.00  0.00    -0.776 OA
ATOM     64  H   UNK d   0      -4.964 -14.273  -6.612  0.00  0.00     0.167 HD
ENDBRANCH  61  63
ENDBRANCH  60  61
ENDBRANCH  18  60
BRANCH  14  65
ATOM     65  C   UNK d   0      -9.462 -17.257  -7.781  0.00  0.00     0.052 C 
BRANCH  65  66
ATOM     66  C   UNK d   0     -10.291 -18.492  -7.764  0.00  0.00     0.115 C 
BRANCH  66  67
ATOM     67  C   UNK d   0     -10.289 -19.367  -8.903  0.00  0.00     0.139 C 
ATOM     68  O   UNK d   0      -9.861 -20.570  -8.752  0.00  0.00    -0.650 OA
BRANCH  67  69
ATOM     69  O   UNK d   0     -10.704 -19.077 -10.202  0.00  0.00    -0.776 OA
ATOM     70  H   UNK d   0     -11.721 -18.978 -10.336  0.00  0.00     0.167 HD
ENDBRANCH  67  69
ENDBRANCH  66  67
ENDBRANCH  65  66
ENDBRANCH  14  65
ENDBRANCH   6   7
ENDBRANCH   5   6
ENDBRANCH   2   5
TORSDOF 28
ENDMDL
MODEL 3
REMARK VINA RESULT:     -10.3     28.306     32.744
REMARK  28 active torsions:
REMARK  status: ('A' for Active; 'I' for Inactive)
REMARK    1  A    between atoms: C_2  and  O_3 
REMARK    2  A    between atoms: C_2  and  C_4 
REMARK    3  A    between atoms: C_4  and  C_5 
REMARK    4  A    between atoms: C_5  and  C_6 
REMARK    5  A    between atoms: C_7  and  C_8 
REMARK    6  A    between atoms: C_8  and  C_9 
REMARK    7  A    between atoms: C_9  and  O_11 
REMARK    8  A    between atoms: C_28  and  C_29 
REMARK    9  A    between atoms: C_29  and  C_30 
REMARK   10  A    between atoms: C_30  and  O_32 
REMARK   11  A    between atoms: C_33  and  C_34 
REMARK   12  A    between atoms: C_34  and  C_35 
REMARK   13  A    between atoms: C_35  and  C_36 
REMARK   14  A    between atoms: C_36  and  O_38 
REMARK   15  A    between atoms: C_39  and  C_40 
REMARK   16  A    between atoms: C_40  and  C_41 
REMARK   17  A    between atoms: C_41  and  C_42 
REMARK   18  A    between atoms: C_42  and  O_44 
REMARK   19  A    between atoms: C_45  and  C_46 
REMARK   20  A    between atoms: C_46  and  C_47 
REMARK   21  A    between atoms: C_47  and  O_49 
REMARK   22  A    between atoms: C_50  and  C_51 
REMARK   23  A    between atoms: C_51  and  C_52 
REMARK   24  A    between atoms: C_52  and  O_54 
REMARK   25  A    between atoms: C_55  and  C_56 
REMARK   26  A    between atoms: C_56  and  C_57 
REMARK   27  A    between atoms: C_57  and  C_58 
REMARK   28  A    between atoms: C_58  and  O_60 
ROOT
ATOM      1  O   UNK d   0     -30.929 -18.450  13.807  0.00  0.00    -0.650 OA
ATOM      2  C   UNK d   0     -31.213 -18.961  14.913  0.00  0.00     0.139 C 
ENDROOT
BRANCH   2   3
ATOM      3  O   UNK d   0     -30.906 -18.282  16.067  0.00  0.00    -0.776 OA
ATOM      4  H   UNK d   0     -30.176 -17.567  16.080  0.00  0.00     0.167 HD
ENDBRANCH   2   3
BRANCH   2   5
ATOM      5  C   UNK d   0     -31.878 -20.293  14.973  0.00  0.00     0.115 C 
BRANCH   5   6
ATOM      6  C   UNK d   0     -31.458 -21.135  13.798  0.00  0.00     0.052 C 
BRANCH   6   7
ATOM      7  C   UNK d   0     -32.629 -21.597  12.966  0.00  0.00    -0.020 A 
ATOM      8  C   UNK d   0     -32.773 -22.748  12.359  0.00  0.00    -0.011 A 
ATOM      9  C   UNK d   0     -34.056 -22.734  11.676  0.00  0.00     0.067 A 
ATOM     10  C   UNK d   0     -34.795 -23.633  10.891  0.00  0.00     0.062 C 
ATOM     11  N   UNK d   0     -34.624 -21.534  11.916  0.00  0.00    -0.248 NA
ATOM     12  C   UNK d   0     -36.148 -23.543  10.547  0.00  0.00     0.041 A 
ATOM     13  N   UNK d   0     -36.893 -22.495  10.148  0.00  0.00    -0.355 N 
ATOM     14  C   UNK d   0     -36.957 -24.688  10.662  0.00  0.00    -0.022 A 
ATOM     15  C   UNK d   0     -38.156 -22.944  10.013  0.00  0.00     0.042 A 
ATOM     16  H   UNK d   0     -36.531 -21.463   9.946  0.00  0.00     0.166 HD
ATOM     17  C   UNK d   0     -39.328 -22.269   9.621  0.00  0.00     0.062 C 
ATOM     18  C   UNK d   0     -38.235 -24.315  10.327  0.00  0.00    -0.013 A 
ATOM     19  C   UNK d   0     -39.789 -21.039  10.016  0.00  0.00     0.067 A 
ATOM     20  N   UNK d   0     -38.945 -20.272  10.711  0.00  0.00    -0.248 NA
ATOM     21  C   UNK d   0     -41.033 -20.299   9.888  0.00  0.00    -0.011 A 
ATOM     22  C   UNK d   0     -39.548 -19.085  11.048  0.00  0.00     0.066 A 
ATOM     23  C   UNK d   0     -38.767 -18.173  11.744  0.00  0.00     0.062 C 
ATOM     24  C   UNK d   0     -40.887 -19.158  10.498  0.00  0.00    -0.020 A 
ATOM     25  C   UNK d   0     -37.406 -18.277  12.068  0.00  0.00     0.041 A 
ATOM     26  N   UNK d   0     -36.668 -19.315  12.480  0.00  0.00    -0.355 N 
ATOM     27  C   UNK d   0     -36.594 -17.128  11.949  0.00  0.00    -0.022 A 
ATOM     28  C   UNK d   0     -35.411 -18.868  12.623  0.00  0.00     0.042 A 
ATOM     29  H   UNK d   0     -37.036 -20.349  12.692  0.00  0.00     0.166 HD
ATOM     30  C   UNK d   0     -34.237 -19.526  13.022  0.00  0.00     0.062 C 
ATOM     31  C   UNK d   0     -35.330 -17.493  12.297  0.00  0.00    -0.013 A 
ATOM     32  C   UNK d   0     -33.817 -20.803  12.686  0.00  0.00     0.066 A 
BRANCH   8  33
ATOM     33  C   UNK d   0     -31.816 -23.870  12.351  0.00  0.00     0.151 C 
BRANCH  33  34
ATOM     34  C   UNK d   0     -31.024 -23.936  11.109  0.00  0.00     0.143 C 
ATOM     35  O   UNK d   0     -29.854 -23.530  11.078  0.00  0.00    -0.650 OA
BRANCH  34  36
ATOM     36  O   UNK d   0     -31.597 -24.454   9.971  0.00  0.00    -0.776 OA
ATOM     37  H   UNK d   0     -31.026 -24.703   9.152  0.00  0.00     0.167 HD
ENDBRANCH  34  36
ENDBRANCH  33  34
ENDBRANCH   8  33
BRANCH  31  38
ATOM     38  C   UNK d   0     -34.114 -16.596  12.309  0.00  0.00     0.151 C 
BRANCH  38  39
ATOM     39  C   UNK d   0     -33.596 -16.336  10.982  0.00  0.00     0.143 C 
ATOM     40  O   UNK d   0     -32.867 -15.360  10.733  0.00  0.00    -0.650 OA
BRANCH  39  41
ATOM     41  O   UNK d   0     -33.917 -17.202   9.938  0.00  0.00    -0.776 OA
ATOM     42  H   UNK d   0     -33.984 -18.198  10.169  0.00  0.00     0.167 HD
ENDBRANCH  39  41
ENDBRANCH  38  39
ENDBRANCH  31  38
BRANCH  27  43
ATOM     43  C   UNK d   0     -36.969 -15.729  11.528  0.00  0.00     0.052 C 
BRANCH  43  44
ATOM     44  C   UNK d   0     -37.111 -15.576  10.049  0.00  0.00     0.115 C 
BRANCH  44  45
ATOM     45  C   UNK d   0     -38.200 -14.589   9.827  0.00  0.00     0.139 C 
ATOM     46  O   UNK d   0     -38.841 -14.647   8.749  0.00  0.00    -0.650 OA
BRANCH  45  47
ATOM     47  O   UNK d   0     -38.535 -13.625  10.753  0.00  0.00    -0.776 OA
ATOM     48  H   UNK d   0     -39.437 -13.621  11.257  0.00  0.00     0.167 HD
ENDBRANCH  45  47
ENDBRANCH  44  45
ENDBRANCH  43  44
ENDBRANCH  27  43
BRANCH  24  49
ATOM     49  C   UNK d   0     -41.890 -18.083  10.581  0.00  0.00     0.052 C 
BRANCH  49  50
ATOM     50  C   UNK d   0     -41.321 -16.792  10.051  0.00  0.00     0.115 C 
BRANCH  50  51
ATOM     51  C   UNK d   0     -41.481 -15.605  10.880  0.00  0.00     0.139 C 
ATOM     52  O   UNK d   0     -41.663 -14.462  10.397  0.00  0.00    -0.650 OA
BRANCH  51  53
ATOM     53  O   UNK d   0     -41.432 -15.720  12.261  0.00  0.00    -0.776 OA
ATOM     54  H   UNK d   0     -41.435 -14.877  12.808  0.00  0.00     0.167 HD
ENDBRANCH  51  53
ENDBRANCH  50  51
ENDBRANCH  49  50
ENDBRANCH  24  49
BRANCH  21  55
ATOM     55  C   UNK d   0     -42.237 -20.807   9.166  0.00  0.00     0.151 C 
BRANCH  55  56
ATOM     56  C   UNK d   0     -42.042 -20.817   7.708  0.00  0.00     0.143 C 
ATOM     57  O   UNK d   0     -41.959 -19.773   7.032  0.00  0.00    -0.650 OA
BRANCH  56  58
ATOM     58  O   UNK d   0     -41.950 -22.054   7.074  0.00  0.00    -0.776 OA
ATOM     59  H   UNK d   0     -41.443 -22.045   6.170  0.00  0.00     0.167 HD
ENDBRANCH  56  58
ENDBRANCH  55  56
ENDBRANCH  21  55
BRANCH  18  60
ATOM     60  C   UNK d   0     -39.431 -25.234  10.322  0.00  0.00     0.151 C 
BRANCH  60  61
ATOM     61  C   UNK d   0     -40.003 -25.161  11.675  0.00  0.00     0.143 C 
ATOM     62  O   UNK d   0     -39.650 -25.802  12.665  0.00  0.00    -0.650 OA
BRANCH  61  63
ATOM     63  O   UNK d   0     -41.072 -24.246  11.828  0.00  0.00    -0.776 OA
ATOM     64  H   UNK d   0     -40.975 -23.426  12.400  0.00  0.00     0.167 HD
ENDBRANCH  61  63
ENDBRANCH  60  61
ENDBRANCH  18  60
BRANCH  14  65
ATOM     65  C   UNK d   0     -36.599 -26.116  10.964  0.00  0.00     0.052 C 
BRANCH  65  66
ATOM     66  C   UNK d   0     -35.805 -26.758   9.882  0.00  0.00     0.115 C 
BRANCH  66  67
ATOM     67  C   UNK d   0     -34.393 -26.953  10.055  0.00  0.00     0.139 C 
ATOM     68  O   UNK d   0     -33.634 -26.889   9.019  0.00  0.00    -0.650 OA
BRANCH  67  69
ATOM     69  O   UNK d   0     -33.706 -27.213  11.240  0.00  0.00    -0.776 OA
ATOM     70  H   UNK d   0     -32.703 -27.425  11.139  0.00  0.00     0.167 HD
ENDBRANCH  67  69
ENDBRANCH  66  67
ENDBRANCH  65  66
ENDBRANCH  14  65
ENDBRANCH   6   7
ENDBRANCH   5   6
ENDBRANCH   2   5
TORSDOF 28
ENDMDL
MODEL 4
REMARK VINA RESULT:     -10.3      1.405      7.506
REMARK  28 active torsions:
REMARK  status: ('A' for Active; 'I' for Inactive)
REMARK    1  A    between atoms: C_2  and  O_3 
REMARK    2  A    between atoms: C_2  and  C_4 
REMARK    3  A    between atoms: C_4  and  C_5 
REMARK    4  A    between atoms: C_5  and  C_6 
REMARK    5  A    between atoms: C_7  and  C_8 
REMARK    6  A    between atoms: C_8  and  C_9 
REMARK    7  A    between atoms: C_9  and  O_11 
REMARK    8  A    between atoms: C_28  and  C_29 
REMARK    9  A    between atoms: C_29  and  C_30 
REMARK   10  A    between atoms: C_30  and  O_32 
REMARK   11  A    between atoms: C_33  and  C_34 
REMARK   12  A    between atoms: C_34  and  C_35 
REMARK   13  A    between atoms: C_35  and  C_36 
REMARK   14  A    between atoms: C_36  and  O_38 
REMARK   15  A    between atoms: C_39  and  C_40 
REMARK   16  A    between atoms: C_40  and  C_41 
REMARK   17  A    between atoms: C_41  and  C_42 
REMARK   18  A    between atoms: C_42  and  O_44 
REMARK   19  A    between atoms: C_45  and  C_46 
REMARK   20  A    between atoms: C_46  and  C_47 
REMARK   21  A    between atoms: C_47  and  O_49 
REMARK   22  A    between atoms: C_50  and  C_51 
REMARK   23  A    between atoms: C_51  and  C_52 
REMARK   24  A    between atoms: C_52  and  O_54 
REMARK   25  A    between atoms: C_55  and  C_56 
REMARK   26  A    between atoms: C_56  and  C_57 
REMARK   27  A    between atoms: C_57  and  C_58 
REMARK   28  A    between atoms: C_58  and  O_60 
ROOT
ATOM      1  O   UNK d   0     -17.063  -9.364  -5.879  0.00  0.00    -0.650 OA
ATOM      2  C   UNK d   0     -16.114 -10.048  -5.437  0.00  0.00     0.139 C 
ENDROOT
BRANCH   2   3
ATOM      3  O   UNK d   0     -15.971 -10.205  -4.079  0.00  0.00    -0.776 OA
ATOM      4  H   UNK d   0     -16.771 -10.111  -3.450  0.00  0.00     0.167 HD
ENDBRANCH   2   3
BRANCH   2   5
ATOM      5  C   UNK d   0     -15.149 -10.684  -6.377  0.00  0.00     0.115 C 
BRANCH   5   6
ATOM      6  C   UNK d   0     -15.497 -12.135  -6.573  0.00  0.00     0.052 C 
BRANCH   6   7
ATOM      7  C   UNK d   0     -14.317 -13.051  -6.349  0.00  0.00    -0.020 A 
ATOM      8  C   UNK d   0     -14.154 -14.268  -6.802  0.00  0.00    -0.011 A 
ATOM      9  C   UNK d   0     -12.872 -14.753  -6.321  0.00  0.00     0.067 A 
ATOM     10  C   UNK d   0     -12.118 -15.929  -6.459  0.00  0.00     0.062 C 
ATOM     11  N   UNK d   0     -12.324 -13.769  -5.578  0.00  0.00    -0.248 NA
ATOM     12  C   UNK d   0     -10.766 -16.110  -6.146  0.00  0.00     0.041 A 
ATOM     13  N   UNK d   0     -10.038 -15.702  -5.089  0.00  0.00    -0.355 N 
ATOM     14  C   UNK d   0      -9.938 -16.778  -7.067  0.00  0.00    -0.022 A 
ATOM     15  C   UNK d   0      -8.769 -16.087  -5.319  0.00  0.00     0.042 A 
ATOM     16  H   UNK d   0     -10.418 -15.170  -4.190  0.00  0.00     0.166 HD
ATOM     17  C   UNK d   0      -7.608 -15.918  -4.539  0.00  0.00     0.062 C 
ATOM     18  C   UNK d   0      -8.667 -16.765  -6.550  0.00  0.00    -0.013 A 
ATOM     19  C   UNK d   0      -7.168 -14.799  -3.879  0.00  0.00     0.067 A 
ATOM     20  N   UNK d   0      -8.025 -13.779  -3.780  0.00  0.00    -0.248 NA
ATOM     21  C   UNK d   0      -5.936 -14.388  -3.226  0.00  0.00    -0.011 A 
ATOM     22  C   UNK d   0      -7.442 -12.731  -3.111  0.00  0.00     0.066 A 
ATOM     23  C   UNK d   0      -8.238 -11.614  -2.904  0.00  0.00     0.062 C 
ATOM     24  C   UNK d   0      -6.102 -13.175  -2.783  0.00  0.00    -0.020 A 
ATOM     25  C   UNK d   0      -9.598 -11.456  -3.215  0.00  0.00     0.041 A 
ATOM     26  N   UNK d   0     -10.318 -11.849  -4.272  0.00  0.00    -0.355 N 
ATOM     27  C   UNK d   0     -10.429 -10.790  -2.288  0.00  0.00    -0.022 A 
ATOM     28  C   UNK d   0     -11.583 -11.458  -4.050  0.00  0.00     0.042 A 
ATOM     29  H   UNK d   0      -9.933 -12.374  -5.180  0.00  0.00     0.166 HD
ATOM     30  C   UNK d   0     -12.746 -11.612  -4.821  0.00  0.00     0.062 C 
ATOM     31  C   UNK d   0     -11.687 -10.787  -2.808  0.00  0.00    -0.013 A 
ATOM     32  C   UNK d   0     -13.144 -12.717  -5.556  0.00  0.00     0.066 A 
BRANCH   8  33
ATOM     33  C   UNK d   0     -15.092 -15.031  -7.646  0.00  0.00     0.151 C 
BRANCH  33  34
ATOM     34  C   UNK d   0     -14.853 -14.835  -9.087  0.00  0.00     0.143 C 
ATOM     35  O   UNK d   0     -14.080 -13.954  -9.489  0.00  0.00    -0.650 OA
BRANCH  34  36
ATOM     36  O   UNK d   0     -15.499 -15.641  -9.995  0.00  0.00    -0.776 OA
ATOM     37  H   UNK d   0     -16.404 -15.369 -10.402  0.00  0.00     0.167 HD
ENDBRANCH  34  36
ENDBRANCH  33  34
ENDBRANCH   8  33
BRANCH  31  38
ATOM     38  C   UNK d   0     -12.917 -10.195  -2.162  0.00  0.00     0.151 C 
BRANCH  38  39
ATOM     39  C   UNK d   0     -13.073  -8.783  -2.439  0.00  0.00     0.143 C 
ATOM     40  O   UNK d   0     -12.848  -7.908  -1.584  0.00  0.00    -0.650 OA
BRANCH  39  41
ATOM     41  O   UNK d   0     -13.490  -8.374  -3.705  0.00  0.00    -0.776 OA
ATOM     42  H   UNK d   0     -13.812  -9.108  -4.344  0.00  0.00     0.167 HD
ENDBRANCH  39  41
ENDBRANCH  38  39
ENDBRANCH  31  38
BRANCH  27  43
ATOM     43  C   UNK d   0     -10.078 -10.168  -0.959  0.00  0.00     0.052 C 
BRANCH  43  44
ATOM     44  C   UNK d   0      -9.473  -8.808  -1.085  0.00  0.00     0.115 C 
BRANCH  44  45
ATOM     45  C   UNK d   0      -8.064  -8.925  -0.625  0.00  0.00     0.139 C 
ATOM     46  O   UNK d   0      -7.856  -9.320   0.549  0.00  0.00    -0.650 OA
BRANCH  45  47
ATOM     47  O   UNK d   0      -6.987  -8.626  -1.431  0.00  0.00    -0.776 OA
ATOM     48  H   UNK d   0      -6.776  -9.145  -2.299  0.00  0.00     0.167 HD
ENDBRANCH  45  47
ENDBRANCH  44  45
ENDBRANCH  43  44
ENDBRANCH  27  43
BRANCH  24  49
ATOM     49  C   UNK d   0      -5.117 -12.386  -2.023  0.00  0.00     0.052 C 
BRANCH  49  50
ATOM     50  C   UNK d   0      -5.705 -11.935  -0.711  0.00  0.00     0.115 C 
BRANCH  50  51
ATOM     51  C   UNK d   0      -5.873 -12.946   0.324  0.00  0.00     0.139 C 
ATOM     52  O   UNK d   0      -6.992 -13.424   0.628  0.00  0.00    -0.650 OA
BRANCH  51  53
ATOM     53  O   UNK d   0      -4.765 -13.410   1.016  0.00  0.00    -0.776 OA
ATOM     54  H   UNK d   0      -4.664 -13.150   1.982  0.00  0.00     0.167 HD
ENDBRANCH  51  53
ENDBRANCH  50  51
ENDBRANCH  49  50
ENDBRANCH  24  49
BRANCH  21  55
ATOM     55  C   UNK d   0      -4.724 -15.251  -3.109  0.00  0.00     0.151 C 
BRANCH  55  56
ATOM     56  C   UNK d   0      -4.746 -16.071  -1.888  0.00  0.00     0.143 C 
ATOM     57  O   UNK d   0      -3.980 -17.038  -1.711  0.00  0.00    -0.650 OA
BRANCH  56  58
ATOM     58  O   UNK d   0      -5.669 -15.736  -0.899  0.00  0.00    -0.776 OA
ATOM     59  H   UNK d   0      -6.661 -15.886  -1.158  0.00  0.00     0.167 HD
ENDBRANCH  56  58
ENDBRANCH  55  56
ENDBRANCH  21  55
BRANCH  18  60
ATOM     60  C   UNK d   0      -7.455 -17.367  -7.217  0.00  0.00     0.151 C 
BRANCH  60  61
ATOM     61  C   UNK d   0      -6.870 -16.294  -8.035  0.00  0.00     0.143 C 
ATOM     62  O   UNK d   0      -7.210 -15.956  -9.169  0.00  0.00    -0.650 OA
BRANCH  61  63
ATOM     63  O   UNK d   0      -5.802 -15.590  -7.430  0.00  0.00    -0.776 OA
ATOM     64  H   UNK d   0      -5.931 -15.097  -6.564  0.00  0.00     0.167 HD
ENDBRANCH  61  63
ENDBRANCH  60  61
ENDBRANCH  18  60
BRANCH  14  65
ATOM     65  C   UNK d   0     -10.272 -17.507  -8.338  0.00  0.00     0.052 C 
BRANCH  65  66
ATOM     66  C   UNK d   0     -10.755 -18.894  -8.103  0.00  0.00     0.115 C 
BRANCH  66  67
ATOM     67  C   UNK d   0     -10.824 -19.818  -9.200  0.00  0.00     0.139 C 
ATOM     68  O   UNK d   0     -10.052 -20.847  -9.186  0.00  0.00    -0.650 OA
BRANCH  67  69
ATOM     69  O   UNK d   0     -11.648 -19.749 -10.323  0.00  0.00    -0.776 OA
ATOM     70  H   UNK d   0     -11.191 -19.446 -11.195  0.00  0.00     0.167 HD
ENDBRANCH  67  69
ENDBRANCH  66  67
ENDBRANCH  65  66
ENDBRANCH  14  65
ENDBRANCH   6   7
ENDBRANCH   5   6
ENDBRANCH   2   5
TORSDOF 28
ENDMDL
MODEL 5
REMARK VINA RESULT:     -10.2      1.869      3.119
REMARK  28 active torsions:
REMARK  status: ('A' for Active; 'I' for Inactive)
REMARK    1  A    between atoms: C_2  and  O_3 
REMARK    2  A    between atoms: C_2  and  C_4 
REMARK    3  A    between atoms: C_4  and  C_5 
REMARK    4  A    between atoms: C_5  and  C_6 
REMARK    5  A    between atoms: C_7  and  C_8 
REMARK    6  A    between atoms: C_8  and  C_9 
REMARK    7  A    between atoms: C_9  and  O_11 
REMARK    8  A    between atoms: C_28  and  C_29 
REMARK    9  A    between atoms: C_29  and  C_30 
REMARK   10  A    between atoms: C_30  and  O_32 
REMARK   11  A    between atoms: C_33  and  C_34 
REMARK   12  A    between atoms: C_34  and  C_35 
REMARK   13  A    between atoms: C_35  and  C_36 
REMARK   14  A    between atoms: C_36  and  O_38 
REMARK   15  A    between atoms: C_39  and  C_40 
REMARK   16  A    between atoms: C_40  and  C_41 
REMARK   17  A    between atoms: C_41  and  C_42 
REMARK   18  A    between atoms: C_42  and  O_44 
REMARK   19  A    between atoms: C_45  and  C_46 
REMARK   20  A    between atoms: C_46  and  C_47 
REMARK   21  A    between atoms: C_47  and  O_49 
REMARK   22  A    between atoms: C_50  and  C_51 
REMARK   23  A    between atoms: C_51  and  C_52 
REMARK   24  A    between atoms: C_52  and  O_54 
REMARK   25  A    between atoms: C_55  and  C_56 
REMARK   26  A    between atoms: C_56  and  C_57 
REMARK   27  A    between atoms: C_57  and  C_58 
REMARK   28  A    between atoms: C_58  and  O_60 
ROOT
ATOM      1  O   UNK d   0     -16.710 -17.975  -8.243  0.00  0.00    -0.650 OA
ATOM      2  C   UNK d   0     -15.708 -17.273  -7.976  0.00  0.00     0.139 C 
ENDROOT
BRANCH   2   3
ATOM      3  O   UNK d   0     -14.459 -17.720  -8.334  0.00  0.00    -0.776 OA
ATOM      4  H   UNK d   0     -14.268 -18.718  -8.448  0.00  0.00     0.167 HD
ENDBRANCH   2   3
BRANCH   2   5
ATOM      5  C   UNK d   0     -15.874 -15.968  -7.277  0.00  0.00     0.115 C 
BRANCH   5   6
ATOM      6  C   UNK d   0     -15.038 -14.912  -7.948  0.00  0.00     0.052 C 
BRANCH   6   7
ATOM      7  C   UNK d   0     -14.270 -14.064  -6.962  0.00  0.00    -0.020 A 
ATOM      8  C   UNK d   0     -14.583 -12.873  -6.520  0.00  0.00    -0.011 A 
ATOM      9  C   UNK d   0     -13.543 -12.454  -5.596  0.00  0.00     0.067 A 
ATOM     10  C   UNK d   0     -13.296 -11.332  -4.790  0.00  0.00     0.062 C 
ATOM     11  N   UNK d   0     -12.632 -13.449  -5.539  0.00  0.00    -0.248 NA
ATOM     12  C   UNK d   0     -12.371 -11.225  -3.745  0.00  0.00     0.041 A 
ATOM     13  N   UNK d   0     -11.097 -11.647  -3.643  0.00  0.00    -0.355 N 
ATOM     14  C   UNK d   0     -12.777 -10.636  -2.534  0.00  0.00    -0.022 A 
ATOM     15  C   UNK d   0     -10.686 -11.348  -2.396  0.00  0.00     0.042 A 
ATOM     16  H   UNK d   0     -10.493 -12.130  -4.443  0.00  0.00     0.166 HD
ATOM     17  C   UNK d   0      -9.445 -11.567  -1.766  0.00  0.00     0.062 C 
ATOM     18  C   UNK d   0     -11.713 -10.713  -1.671  0.00  0.00    -0.013 A 
ATOM     19  C   UNK d   0      -8.660 -12.692  -1.774  0.00  0.00     0.067 A 
ATOM     20  N   UNK d   0      -8.991 -13.653  -2.640  0.00  0.00    -0.248 NA
ATOM     21  C   UNK d   0      -7.498 -13.160  -1.037  0.00  0.00    -0.011 A 
ATOM     22  C   UNK d   0      -8.129 -14.717  -2.522  0.00  0.00     0.066 A 
ATOM     23  C   UNK d   0      -8.335 -15.776  -3.393  0.00  0.00     0.062 C 
ATOM     24  C   UNK d   0      -7.195 -14.347  -1.477  0.00  0.00    -0.020 A 
ATOM     25  C   UNK d   0      -9.262 -15.858  -4.444  0.00  0.00     0.041 A 
ATOM     26  N   UNK d   0     -10.533 -15.452  -4.540  0.00  0.00    -0.355 N 
ATOM     27  C   UNK d   0      -8.852 -16.446  -5.661  0.00  0.00    -0.022 A 
ATOM     28  C   UNK d   0     -10.948 -15.757  -5.780  0.00  0.00     0.042 A 
ATOM     29  H   UNK d   0     -11.142 -14.977  -3.732  0.00  0.00     0.166 HD
ATOM     30  C   UNK d   0     -12.182 -15.554  -6.417  0.00  0.00     0.062 C 
ATOM     31  C   UNK d   0      -9.912 -16.386  -6.512  0.00  0.00    -0.013 A 
ATOM     32  C   UNK d   0     -13.012 -14.447  -6.338  0.00  0.00     0.066 A 
BRANCH   8  33
ATOM     33  C   UNK d   0     -15.770 -12.077  -6.884  0.00  0.00     0.151 C 
BRANCH  33  34
ATOM     34  C   UNK d   0     -15.820 -10.777  -6.191  0.00  0.00     0.143 C 
ATOM     35  O   UNK d   0     -15.331  -9.762  -6.707  0.00  0.00    -0.650 OA
BRANCH  34  36
ATOM     36  O   UNK d   0     -16.417 -10.694  -4.955  0.00  0.00    -0.776 OA
ATOM     37  H   UNK d   0     -17.362 -11.067  -4.791  0.00  0.00     0.167 HD
ENDBRANCH  34  36
ENDBRANCH  33  34
ENDBRANCH   8  33
BRANCH  31  38
ATOM     38  C   UNK d   0      -9.939 -16.882  -7.939  0.00  0.00     0.151 C 
BRANCH  38  39
ATOM     39  C   UNK d   0     -10.376 -18.258  -8.046  0.00  0.00     0.143 C 
ATOM     40  O   UNK d   0     -11.578 -18.573  -8.095  0.00  0.00    -0.650 OA
BRANCH  39  41
ATOM     41  O   UNK d   0      -9.426 -19.277  -8.100  0.00  0.00    -0.776 OA
ATOM     42  H   UNK d   0      -9.090 -19.643  -7.203  0.00  0.00     0.167 HD
ENDBRANCH  39  41
ENDBRANCH  38  39
ENDBRANCH  31  38
BRANCH  27  43
ATOM     43  C   UNK d   0      -7.521 -17.050  -6.033  0.00  0.00     0.052 C 
BRANCH  43  44
ATOM     44  C   UNK d   0      -6.689 -16.160  -6.897  0.00  0.00     0.115 C 
BRANCH  44  45
ATOM     45  C   UNK d   0      -5.913 -15.284  -5.981  0.00  0.00     0.139 C 
ATOM     46  O   UNK d   0      -4.829 -15.721  -5.520  0.00  0.00    -0.650 OA
BRANCH  45  47
ATOM     47  O   UNK d   0      -6.329 -14.019  -5.626  0.00  0.00    -0.776 OA
ATOM     48  H   UNK d   0      -6.758 -13.807  -4.710  0.00  0.00     0.167 HD
ENDBRANCH  45  47
ENDBRANCH  44  45
ENDBRANCH  43  44
ENDBRANCH  27  43
BRANCH  24  49
ATOM     49  C   UNK d   0      -6.060 -15.174  -1.033  0.00  0.00     0.052 C 
BRANCH  49  50
ATOM     50  C   UNK d   0      -5.023 -15.271  -2.123  0.00  0.00     0.115 C 
BRANCH  50  51
ATOM     51  C   UNK d   0      -4.366 -14.035  -2.527  0.00  0.00     0.139 C 
ATOM     52  O   UNK d   0      -3.248 -13.686  -2.080  0.00  0.00    -0.650 OA
BRANCH  51  53
ATOM     53  O   UNK d   0      -4.986 -13.195  -3.439  0.00  0.00    -0.776 OA
ATOM     54  H   UNK d   0      -5.881 -12.808  -3.198  0.00  0.00     0.167 HD
ENDBRANCH  51  53
ENDBRANCH  50  51
ENDBRANCH  49  50
ENDBRANCH  24  49
BRANCH  21  55
ATOM     55  C   UNK d   0      -6.809 -12.370   0.026  0.00  0.00     0.151 C 
BRANCH  55  56
ATOM     56  C   UNK d   0      -6.184 -11.151  -0.511  0.00  0.00     0.143 C 
ATOM     57  O   UNK d   0      -5.690 -11.093  -1.654  0.00  0.00    -0.650 OA
BRANCH  56  58
ATOM     58  O   UNK d   0      -6.153 -10.023   0.308  0.00  0.00    -0.776 OA
ATOM     59  H   UNK d   0      -5.405  -9.343   0.085  0.00  0.00     0.167 HD
ENDBRANCH  56  58
ENDBRANCH  55  56
ENDBRANCH  21  55
BRANCH  18  60
ATOM     60  C   UNK d   0     -11.713 -10.205  -0.250  0.00  0.00     0.151 C 
BRANCH  60  61
ATOM     61  C   UNK d   0     -11.140  -8.852  -0.305  0.00  0.00     0.143 C 
ATOM     62  O   UNK d   0      -9.949  -8.553  -0.394  0.00  0.00    -0.650 OA
BRANCH  61  63
ATOM     63  O   UNK d   0     -12.082  -7.796  -0.248  0.00  0.00    -0.776 OA
ATOM     64  H   UNK d   0     -12.534  -7.459  -1.079  0.00  0.00     0.167 HD
ENDBRANCH  61  63
ENDBRANCH  60  61
ENDBRANCH  18  60
BRANCH  14  65
ATOM     65  C   UNK d   0     -14.049  -9.924  -2.168  0.00  0.00     0.052 C 
BRANCH  65  66
ATOM     66  C   UNK d   0     -14.195  -8.608  -2.845  0.00  0.00     0.115 C 
BRANCH  66  67
ATOM     67  C   UNK d   0     -15.466  -7.940  -2.836  0.00  0.00     0.139 C 
ATOM     68  O   UNK d   0     -15.896  -7.455  -1.726  0.00  0.00    -0.650 OA
BRANCH  67  69
ATOM     69  O   UNK d   0     -16.331  -7.738  -3.910  0.00  0.00    -0.776 OA
ATOM     70  H   UNK d   0     -17.337  -7.789  -3.691  0.00  0.00     0.167 HD
ENDBRANCH  67  69
ENDBRANCH  66  67
ENDBRANCH  65  66
ENDBRANCH  14  65
ENDBRANCH   6   7
ENDBRANCH   5   6
ENDBRANCH   2   5
TORSDOF 28
ENDMDL
MODEL 6
REMARK VINA RESULT:     -10.2     27.716     31.531
REMARK  28 active torsions:
REMARK  status: ('A' for Active; 'I' for Inactive)
REMARK    1  A    between atoms: C_2  and  O_3 
REMARK    2  A    between atoms: C_2  and  C_4 
REMARK    3  A    between atoms: C_4  and  C_5 
REMARK    4  A    between atoms: C_5  and  C_6 
REMARK    5  A    between atoms: C_7  and  C_8 
REMARK    6  A    between atoms: C_8  and  C_9 
REMARK    7  A    between atoms: C_9  and  O_11 
REMARK    8  A    between atoms: C_28  and  C_29 
REMARK    9  A    between atoms: C_29  and  C_30 
REMARK   10  A    between atoms: C_30  and  O_32 
REMARK   11  A    between atoms: C_33  and  C_34 
REMARK   12  A    between atoms: C_34  and  C_35 
REMARK   13  A    between atoms: C_35  and  C_36 
REMARK   14  A    between atoms: C_36  and  O_38 
REMARK   15  A    between atoms: C_39  and  C_40 
REMARK   16  A    between atoms: C_40  and  C_41 
REMARK   17  A    between atoms: C_41  and  C_42 
REMARK   18  A    between atoms: C_42  and  O_44 
REMARK   19  A    between atoms: C_45  and  C_46 
REMARK   20  A    between atoms: C_46  and  C_47 
REMARK   21  A    between atoms: C_47  and  O_49 
REMARK   22  A    between atoms: C_50  and  C_51 
REMARK   23  A    between atoms: C_51  and  C_52 
REMARK   24  A    between atoms: C_52  and  O_54 
REMARK   25  A    between atoms: C_55  and  C_56 
REMARK   26  A    between atoms: C_56  and  C_57 
REMARK   27  A    between atoms: C_57  and  C_58 
REMARK   28  A    between atoms: C_58  and  O_60 
ROOT
ATOM      1  O   UNK d   0     -29.083 -16.210  14.968  0.00  0.00    -0.650 OA
ATOM      2  C   UNK d   0     -29.851 -15.845  14.051  0.00  0.00     0.139 C 
ENDROOT
BRANCH   2   3
ATOM      3  O   UNK d   0     -29.404 -14.943  13.116  0.00  0.00    -0.776 OA
ATOM      4  H   UNK d   0     -28.418 -14.675  13.071  0.00  0.00     0.167 HD
ENDBRANCH   2   3
BRANCH   2   5
ATOM      5  C   UNK d   0     -31.239 -16.385  13.978  0.00  0.00     0.115 C 
BRANCH   5   6
ATOM      6  C   UNK d   0     -32.006 -15.693  12.884  0.00  0.00     0.052 C 
BRANCH   6   7
ATOM      7  C   UNK d   0     -33.334 -16.353  12.599  0.00  0.00    -0.020 A 
ATOM      8  C   UNK d   0     -34.506 -15.779  12.501  0.00  0.00    -0.011 A 
ATOM      9  C   UNK d   0     -35.488 -16.816  12.228  0.00  0.00     0.067 A 
ATOM     10  C   UNK d   0     -36.872 -16.864  11.999  0.00  0.00     0.062 C 
ATOM     11  N   UNK d   0     -34.827 -17.991  12.182  0.00  0.00    -0.248 NA
ATOM     12  C   UNK d   0     -37.607 -17.932  11.474  0.00  0.00     0.041 A 
ATOM     13  N   UNK d   0     -37.544 -19.256  11.716  0.00  0.00    -0.355 N 
ATOM     14  C   UNK d   0     -38.561 -17.675  10.473  0.00  0.00    -0.022 A 
ATOM     15  C   UNK d   0     -38.429 -19.845  10.889  0.00  0.00     0.042 A 
ATOM     16  H   UNK d   0     -36.902 -19.761  12.470  0.00  0.00     0.166 HD
ATOM     17  C   UNK d   0     -38.765 -21.204  10.730  0.00  0.00     0.062 C 
ATOM     18  C   UNK d   0     -39.085 -18.885  10.094  0.00  0.00    -0.013 A 
ATOM     19  C   UNK d   0     -37.937 -22.294  10.649  0.00  0.00     0.067 A 
ATOM     20  N   UNK d   0     -36.651 -22.099  10.953  0.00  0.00    -0.248 NA
ATOM     21  C   UNK d   0     -38.083 -23.693  10.285  0.00  0.00    -0.011 A 
ATOM     22  C   UNK d   0     -35.946 -23.270  10.812  0.00  0.00     0.066 A 
ATOM     23  C   UNK d   0     -34.598 -23.220  11.134  0.00  0.00     0.062 C 
ATOM     24  C   UNK d   0     -36.914 -24.258  10.379  0.00  0.00    -0.020 A 
ATOM     25  C   UNK d   0     -33.881 -22.140  11.673  0.00  0.00     0.041 A 
ATOM     26  N   UNK d   0     -33.933 -20.826  11.422  0.00  0.00    -0.355 N 
ATOM     27  C   UNK d   0     -32.926 -22.399  12.681  0.00  0.00    -0.022 A 
ATOM     28  C   UNK d   0     -33.045 -20.238  12.239  0.00  0.00     0.042 A 
ATOM     29  H   UNK d   0     -34.571 -20.321  10.656  0.00  0.00     0.166 HD
ATOM     30  C   UNK d   0     -32.694 -18.888  12.401  0.00  0.00     0.062 C 
ATOM     31  C   UNK d   0     -32.393 -21.201  13.045  0.00  0.00    -0.013 A 
ATOM     32  C   UNK d   0     -33.527 -17.781  12.397  0.00  0.00     0.066 A 
BRANCH   8  33
ATOM     33  C   UNK d   0     -34.802 -14.342  12.645  0.00  0.00     0.151 C 
BRANCH  33  34
ATOM     34  C   UNK d   0     -34.966 -13.661  11.347  0.00  0.00     0.143 C 
ATOM     35  O   UNK d   0     -35.146 -14.309  10.307  0.00  0.00    -0.650 OA
BRANCH  34  36
ATOM     36  O   UNK d   0     -34.917 -12.287  11.295  0.00  0.00    -0.776 OA
ATOM     37  H   UNK d   0     -35.184 -11.711  12.105  0.00  0.00     0.167 HD
ENDBRANCH  34  36
ENDBRANCH  33  34
ENDBRANCH   8  33
BRANCH  31  38
ATOM     38  C   UNK d   0     -31.338 -20.980  14.103  0.00  0.00     0.151 C 
BRANCH  38  39
ATOM     39  C   UNK d   0     -31.865 -20.365  15.302  0.00  0.00     0.143 C 
ATOM     40  O   UNK d   0     -32.945 -20.715  15.810  0.00  0.00    -0.650 OA
BRANCH  39  41
ATOM     41  O   UNK d   0     -31.147 -19.343  15.922  0.00  0.00    -0.776 OA
ATOM     42  H   UNK d   0     -30.265 -19.606  16.372  0.00  0.00     0.167 HD
ENDBRANCH  39  41
ENDBRANCH  38  39
ENDBRANCH  31  38
BRANCH  27  43
ATOM     43  C   UNK d   0     -32.512 -23.714  13.293  0.00  0.00     0.052 C 
BRANCH  43  44
ATOM     44  C   UNK d   0     -31.133 -24.138  12.903  0.00  0.00     0.115 C 
BRANCH  44  45
ATOM     45  C   UNK d   0     -31.265 -24.893  11.629  0.00  0.00     0.139 C 
ATOM     46  O   UNK d   0     -31.011 -24.291  10.556  0.00  0.00    -0.650 OA
BRANCH  45  47
ATOM     47  O   UNK d   0     -31.647 -26.216  11.580  0.00  0.00    -0.776 OA
ATOM     48  H   UNK d   0     -31.090 -26.942  11.102  0.00  0.00     0.167 HD
ENDBRANCH  45  47
ENDBRANCH  44  45
ENDBRANCH  43  44
ENDBRANCH  27  43
BRANCH  24  49
ATOM     49  C   UNK d   0     -36.615 -25.679  10.137  0.00  0.00     0.052 C 
BRANCH  49  50
ATOM     50  C   UNK d   0     -36.406 -26.401  11.443  0.00  0.00     0.115 C 
BRANCH  50  51
ATOM     51  C   UNK d   0     -35.312 -27.360  11.506  0.00  0.00     0.139 C 
ATOM     52  O   UNK d   0     -34.196 -27.148  10.976  0.00  0.00    -0.650 OA
BRANCH  51  53
ATOM     53  O   UNK d   0     -35.491 -28.563  12.172  0.00  0.00    -0.776 OA
ATOM     54  H   UNK d   0     -35.284 -29.414  11.680  0.00  0.00     0.167 HD
ENDBRANCH  51  53
ENDBRANCH  50  51
ENDBRANCH  49  50
ENDBRANCH  24  49
BRANCH  21  55
ATOM     55  C   UNK d   0     -39.378 -24.321   9.886  0.00  0.00     0.151 C 
BRANCH  55  56
ATOM     56  C   UNK d   0     -40.187 -24.706  11.052  0.00  0.00     0.143 C 
ATOM     57  O   UNK d   0     -39.908 -25.685  11.773  0.00  0.00    -0.650 OA
BRANCH  56  58
ATOM     58  O   UNK d   0     -41.308 -23.933  11.349  0.00  0.00    -0.776 OA
ATOM     59  H   UNK d   0     -41.295 -22.976  10.954  0.00  0.00     0.167 HD
ENDBRANCH  56  58
ENDBRANCH  55  56
ENDBRANCH  21  55
BRANCH  18  60
ATOM     60  C   UNK d   0     -40.142 -19.076   9.035  0.00  0.00     0.151 C 
BRANCH  60  61
ATOM     61  C   UNK d   0     -39.418 -19.375   7.790  0.00  0.00     0.143 C 
ATOM     62  O   UNK d   0     -39.004 -18.565   6.960  0.00  0.00    -0.650 OA
BRANCH  61  63
ATOM     63  O   UNK d   0     -39.182 -20.749   7.545  0.00  0.00    -0.776 OA
ATOM     64  H   UNK d   0     -38.304 -21.175   7.782  0.00  0.00     0.167 HD
ENDBRANCH  61  63
ENDBRANCH  60  61
ENDBRANCH  18  60
BRANCH  14  65
ATOM     65  C   UNK d   0     -39.080 -16.376   9.924  0.00  0.00     0.052 C 
BRANCH  65  66
ATOM     66  C   UNK d   0     -40.042 -15.701  10.836  0.00  0.00     0.115 C 
BRANCH  66  67
ATOM     67  C   UNK d   0     -41.422 -15.589  10.459  0.00  0.00     0.139 C 
ATOM     68  O   UNK d   0     -42.170 -16.631  10.550  0.00  0.00    -0.650 OA
BRANCH  67  69
ATOM     69  O   UNK d   0     -42.088 -14.458   9.987  0.00  0.00    -0.776 OA
ATOM     70  H   UNK d   0     -41.773 -14.101   9.074  0.00  0.00     0.167 HD
ENDBRANCH  67  69
ENDBRANCH  66  67
ENDBRANCH  65  66
ENDBRANCH  14  65
ENDBRANCH   6   7
ENDBRANCH   5   6
ENDBRANCH   2   5
TORSDOF 28
ENDMDL
MODEL 7
REMARK VINA RESULT:      -9.9     27.500     31.658
REMARK  28 active torsions:
REMARK  status: ('A' for Active; 'I' for Inactive)
REMARK    1  A    between atoms: C_2  and  O_3 
REMARK    2  A    between atoms: C_2  and  C_4 
REMARK    3  A    between atoms: C_4  and  C_5 
REMARK    4  A    between atoms: C_5  and  C_6 
REMARK    5  A    between atoms: C_7  and  C_8 
REMARK    6  A    between atoms: C_8  and  C_9 
REMARK    7  A    between atoms: C_9  and  O_11 
REMARK    8  A    between atoms: C_28  and  C_29 
REMARK    9  A    between atoms: C_29  and  C_30 
REMARK   10  A    between atoms: C_30  and  O_32 
REMARK   11  A    between atoms: C_33  and  C_34 
REMARK   12  A    between atoms: C_34  and  C_35 
REMARK   13  A    between atoms: C_35  and  C_36 
REMARK   14  A    between atoms: C_36  and  O_38 
REMARK   15  A    between atoms: C_39  and  C_40 
REMARK   16  A    between atoms: C_40  and  C_41 
REMARK   17  A    between atoms: C_41  and  C_42 
REMARK   18  A    between atoms: C_42  and  O_44 
REMARK   19  A    between atoms: C_45  and  C_46 
REMARK   20  A    between atoms: C_46  and  C_47 
REMARK   21  A    between atoms: C_47  and  O_49 
REMARK   22  A    between atoms: C_50  and  C_51 
REMARK   23  A    between atoms: C_51  and  C_52 
REMARK   24  A    between atoms: C_52  and  O_54 
REMARK   25  A    between atoms: C_55  and  C_56 
REMARK   26  A    between atoms: C_56  and  C_57 
REMARK   27  A    between atoms: C_57  and  C_58 
REMARK   28  A    between atoms: C_58  and  O_60 
ROOT
ATOM      1  O   UNK d   0     -31.562 -24.541   9.603  0.00  0.00    -0.650 OA
ATOM      2  C   UNK d   0     -31.566 -24.679  10.846  0.00  0.00     0.139 C 
ENDROOT
BRANCH   2   3
ATOM      3  O   UNK d   0     -32.041 -25.847  11.393  0.00  0.00    -0.776 OA
ATOM      4  H   UNK d   0     -31.418 -26.491  11.884  0.00  0.00     0.167 HD
ENDBRANCH   2   3
BRANCH   2   5
ATOM      5  C   UNK d   0     -31.060 -23.584  11.722  0.00  0.00     0.115 C 
BRANCH   5   6
ATOM      6  C   UNK d   0     -31.915 -23.471  12.955  0.00  0.00     0.052 C 
BRANCH   6   7
ATOM      7  C   UNK d   0     -32.735 -22.203  12.980  0.00  0.00    -0.020 A 
ATOM      8  C   UNK d   0     -32.518 -21.126  13.689  0.00  0.00    -0.011 A 
ATOM      9  C   UNK d   0     -33.574 -20.174  13.388  0.00  0.00     0.067 A 
ATOM     10  C   UNK d   0     -33.902 -18.867  13.781  0.00  0.00     0.062 C 
ATOM     11  N   UNK d   0     -34.395 -20.758  12.489  0.00  0.00    -0.248 NA
ATOM     12  C   UNK d   0     -34.814 -18.002  13.167  0.00  0.00     0.041 A 
ATOM     13  N   UNK d   0     -36.047 -18.220  12.670  0.00  0.00    -0.355 N 
ATOM     14  C   UNK d   0     -34.439 -16.664  12.944  0.00  0.00    -0.022 A 
ATOM     15  C   UNK d   0     -36.459 -17.058  12.129  0.00  0.00     0.042 A 
ATOM     16  H   UNK d   0     -36.621 -19.172  12.717  0.00  0.00     0.166 HD
ATOM     17  C   UNK d   0     -37.666 -16.731  11.480  0.00  0.00     0.062 C 
ATOM     18  C   UNK d   0     -35.478 -16.059  12.281  0.00  0.00    -0.013 A 
ATOM     19  C   UNK d   0     -38.352 -17.439  10.526  0.00  0.00     0.067 A 
ATOM     20  N   UNK d   0     -37.956 -18.695  10.304  0.00  0.00    -0.248 NA
ATOM     21  C   UNK d   0     -39.458 -17.172   9.621  0.00  0.00    -0.011 A 
ATOM     22  C   UNK d   0     -38.721 -19.268   9.318  0.00  0.00     0.066 A 
ATOM     23  C   UNK d   0     -38.441 -20.592   9.012  0.00  0.00     0.062 C 
ATOM     24  C   UNK d   0     -39.666 -18.246   8.914  0.00  0.00    -0.020 A 
ATOM     25  C   UNK d   0     -37.529 -21.448   9.649  0.00  0.00     0.041 A 
ATOM     26  N   UNK d   0     -36.298 -21.234  10.130  0.00  0.00    -0.355 N 
ATOM     27  C   UNK d   0     -37.908 -22.789   9.877  0.00  0.00    -0.022 A 
ATOM     28  C   UNK d   0     -35.881 -22.394  10.662  0.00  0.00     0.042 A 
ATOM     29  H   UNK d   0     -35.718 -20.280  10.073  0.00  0.00     0.166 HD
ATOM     30  C   UNK d   0     -34.679 -22.736  11.302  0.00  0.00     0.062 C 
ATOM     31  C   UNK d   0     -36.871 -23.394  10.518  0.00  0.00    -0.013 A 
ATOM     32  C   UNK d   0     -33.945 -21.980  12.202  0.00  0.00     0.066 A 
BRANCH   8  33
ATOM     33  C   UNK d   0     -31.410 -20.897  14.635  0.00  0.00     0.151 C 
BRANCH  33  34
ATOM     34  C   UNK d   0     -30.937 -19.501  14.633  0.00  0.00     0.143 C 
ATOM     35  O   UNK d   0     -30.925 -18.832  15.676  0.00  0.00    -0.650 OA
BRANCH  34  36
ATOM     36  O   UNK d   0     -30.505 -18.935  13.456  0.00  0.00    -0.776 OA
ATOM     37  H   UNK d   0     -29.745 -18.242  13.444  0.00  0.00     0.167 HD
ENDBRANCH  34  36
ENDBRANCH  33  34
ENDBRANCH   8  33
BRANCH  31  38
ATOM     38  C   UNK d   0     -36.826 -24.832  10.979  0.00  0.00     0.151 C 
BRANCH  38  39
ATOM     39  C   UNK d   0     -35.549 -25.464  10.725  0.00  0.00     0.143 C 
ATOM     40  O   UNK d   0     -35.081 -25.584   9.579  0.00  0.00    -0.650 OA
BRANCH  39  41
ATOM     41  O   UNK d   0     -34.804 -25.959  11.795  0.00  0.00    -0.776 OA
ATOM     42  H   UNK d   0     -35.260 -25.962  12.713  0.00  0.00     0.167 HD
ENDBRANCH  39  41
ENDBRANCH  38  39
ENDBRANCH  31  38
BRANCH  27  43
ATOM     43  C   UNK d   0     -39.189 -23.497   9.513  0.00  0.00     0.052 C 
BRANCH  43  44
ATOM     44  C   UNK d   0     -40.163 -23.573  10.643  0.00  0.00     0.115 C 
BRANCH  44  45
ATOM     45  C   UNK d   0     -40.886 -22.275  10.668  0.00  0.00     0.139 C 
ATOM     46  O   UNK d   0     -41.672 -22.016   9.723  0.00  0.00    -0.650 OA
BRANCH  45  47
ATOM     47  O   UNK d   0     -40.733 -21.353  11.682  0.00  0.00    -0.776 OA
ATOM     48  H   UNK d   0     -41.380 -20.561  11.821  0.00  0.00     0.167 HD
ENDBRANCH  45  47
ENDBRANCH  44  45
ENDBRANCH  43  44
ENDBRANCH  27  43
BRANCH  24  49
ATOM     49  C   UNK d   0     -40.719 -18.427   7.900  0.00  0.00     0.052 C 
BRANCH  49  50
ATOM     50  C   UNK d   0     -40.223 -17.988   6.546  0.00  0.00     0.115 C 
BRANCH  50  51
ATOM     51  C   UNK d   0     -41.068 -17.069   5.795  0.00  0.00     0.139 C 
ATOM     52  O   UNK d   0     -40.653 -15.967   5.364  0.00  0.00    -0.650 OA
BRANCH  51  53
ATOM     53  O   UNK d   0     -42.388 -17.405   5.537  0.00  0.00    -0.776 OA
ATOM     54  H   UNK d   0     -42.579 -18.303   5.126  0.00  0.00     0.167 HD
ENDBRANCH  51  53
ENDBRANCH  50  51
ENDBRANCH  49  50
ENDBRANCH  24  49
BRANCH  21  55
ATOM     55  C   UNK d   0     -40.193 -15.875   9.560  0.00  0.00     0.151 C 
BRANCH  55  56
ATOM     56  C   UNK d   0     -41.296 -15.820  10.532  0.00  0.00     0.143 C 
ATOM     57  O   UNK d   0     -41.850 -14.753  10.863  0.00  0.00    -0.650 OA
BRANCH  56  58
ATOM     58  O   UNK d   0     -41.725 -17.020  11.095  0.00  0.00    -0.776 OA
ATOM     59  H   UNK d   0     -42.499 -17.487  10.589  0.00  0.00     0.167 HD
ENDBRANCH  56  58
ENDBRANCH  55  56
ENDBRANCH  21  55
BRANCH  18  60
ATOM     60  C   UNK d   0     -35.497 -14.618  11.835  0.00  0.00     0.151 C 
BRANCH  60  61
ATOM     61  C   UNK d   0     -35.186 -14.636  10.398  0.00  0.00     0.143 C 
ATOM     62  O   UNK d   0     -34.117 -14.949   9.874  0.00  0.00    -0.650 OA
BRANCH  61  63
ATOM     63  O   UNK d   0     -36.249 -14.248   9.547  0.00  0.00    -0.776 OA
ATOM     64  H   UNK d   0     -36.386 -14.689   8.654  0.00  0.00     0.167 HD
ENDBRANCH  61  63
ENDBRANCH  60  61
ENDBRANCH  18  60
BRANCH  14  65
ATOM     65  C   UNK d   0     -33.227 -15.898  13.391  0.00  0.00     0.052 C 
BRANCH  65  66
ATOM     66  C   UNK d   0     -32.182 -15.796  12.338  0.00  0.00     0.115 C 
BRANCH  66  67
ATOM     67  C   UNK d   0     -31.444 -14.574  12.183  0.00  0.00     0.139 C 
ATOM     68  O   UNK d   0     -30.714 -14.170  13.161  0.00  0.00    -0.650 OA
BRANCH  67  69
ATOM     69  O   UNK d   0     -31.411 -13.733  11.072  0.00  0.00    -0.776 OA
ATOM     70  H   UNK d   0     -30.681 -13.005  11.082  0.00  0.00     0.167 HD
ENDBRANCH  67  69
ENDBRANCH  66  67
ENDBRANCH  65  66
ENDBRANCH  14  65
ENDBRANCH   6   7
ENDBRANCH   5   6
ENDBRANCH   2   5
TORSDOF 28
ENDMDL
MODEL 8
REMARK VINA RESULT:      -9.8     28.368     32.125
REMARK  28 active torsions:
REMARK  status: ('A' for Active; 'I' for Inactive)
REMARK    1  A    between atoms: C_2  and  O_3 
REMARK    2  A    between atoms: C_2  and  C_4 
REMARK    3  A    between atoms: C_4  and  C_5 
REMARK    4  A    between atoms: C_5  and  C_6 
REMARK    5  A    between atoms: C_7  and  C_8 
REMARK    6  A    between atoms: C_8  and  C_9 
REMARK    7  A    between atoms: C_9  and  O_11 
REMARK    8  A    between atoms: C_28  and  C_29 
REMARK    9  A    between atoms: C_29  and  C_30 
REMARK   10  A    between atoms: C_30  and  O_32 
REMARK   11  A    between atoms: C_33  and  C_34 
REMARK   12  A    between atoms: C_34  and  C_35 
REMARK   13  A    between atoms: C_35  and  C_36 
REMARK   14  A    between atoms: C_36  and  O_38 
REMARK   15  A    between atoms: C_39  and  C_40 
REMARK   16  A    between atoms: C_40  and  C_41 
REMARK   17  A    between atoms: C_41  and  C_42 
REMARK   18  A    between atoms: C_42  and  O_44 
REMARK   19  A    between atoms: C_45  and  C_46 
REMARK   20  A    between atoms: C_46  and  C_47 
REMARK   21  A    between atoms: C_47  and  O_49 
REMARK   22  A    between atoms: C_50  and  C_51 
REMARK   23  A    between atoms: C_51  and  C_52 
REMARK   24  A    between atoms: C_52  and  O_54 
REMARK   25  A    between atoms: C_55  and  C_56 
REMARK   26  A    between atoms: C_56  and  C_57 
REMARK   27  A    between atoms: C_57  and  C_58 
REMARK   28  A    between atoms: C_58  and  O_60 
ROOT
ATOM      1  O   UNK d   0     -34.238 -13.880  12.524  0.00  0.00    -0.650 OA
ATOM      2  C   UNK d   0     -34.782 -13.440  11.486  0.00  0.00     0.139 C 
ENDROOT
BRANCH   2   3
ATOM      3  O   UNK d   0     -34.811 -12.084  11.265  0.00  0.00    -0.776 OA
ATOM      4  H   UNK d   0     -35.611 -11.519  11.557  0.00  0.00     0.167 HD
ENDBRANCH   2   3
BRANCH   2   5
ATOM      5  C   UNK d   0     -35.391 -14.380  10.504  0.00  0.00     0.115 C 
BRANCH   5   6
ATOM      6  C   UNK d   0     -36.884 -14.199  10.472  0.00  0.00     0.052 C 
BRANCH   6   7
ATOM      7  C   UNK d   0     -37.629 -15.513  10.455  0.00  0.00    -0.020 A 
ATOM      8  C   UNK d   0     -38.908 -15.703  10.255  0.00  0.00    -0.011 A 
ATOM      9  C   UNK d   0     -39.163 -17.132  10.339  0.00  0.00     0.067 A 
ATOM     10  C   UNK d   0     -40.281 -17.970  10.204  0.00  0.00     0.062 C 
ATOM     11  N   UNK d   0     -37.985 -17.735  10.599  0.00  0.00    -0.248 NA
ATOM     12  C   UNK d   0     -40.283 -19.360  10.043  0.00  0.00     0.041 A 
ATOM     13  N   UNK d   0     -39.565 -20.323  10.651  0.00  0.00    -0.355 N 
ATOM     14  C   UNK d   0     -41.111 -19.930   9.059  0.00  0.00    -0.022 A 
ATOM     15  C   UNK d   0     -39.911 -21.489  10.073  0.00  0.00     0.042 A 
ATOM     16  H   UNK d   0     -38.843 -20.184  11.485  0.00  0.00     0.166 HD
ATOM     17  C   UNK d   0     -39.465 -22.802  10.327  0.00  0.00     0.062 C 
ATOM     18  C   UNK d   0     -40.878 -21.283   9.070  0.00  0.00    -0.013 A 
ATOM     19  C   UNK d   0     -38.186 -23.256  10.520  0.00  0.00     0.067 A 
ATOM     20  N   UNK d   0     -37.236 -22.333  10.691  0.00  0.00    -0.248 NA
ATOM     21  C   UNK d   0     -37.536 -24.555  10.580  0.00  0.00    -0.011 A 
ATOM     22  C   UNK d   0     -36.012 -22.934  10.857  0.00  0.00     0.066 A 
ATOM     23  C   UNK d   0     -34.936 -22.089  11.083  0.00  0.00     0.062 C 
ATOM     24  C   UNK d   0     -36.264 -24.360  10.773  0.00  0.00    -0.020 A 
ATOM     25  C   UNK d   0     -34.957 -20.696  11.254  0.00  0.00     0.041 A 
ATOM     26  N   UNK d   0     -35.659 -19.737  10.639  0.00  0.00    -0.355 N 
ATOM     27  C   UNK d   0     -34.128 -20.125  12.244  0.00  0.00    -0.022 A 
ATOM     28  C   UNK d   0     -35.310 -18.572  11.208  0.00  0.00     0.042 A 
ATOM     29  H   UNK d   0     -36.377 -19.877   9.794  0.00  0.00     0.166 HD
ATOM     30  C   UNK d   0     -35.738 -17.259  10.959  0.00  0.00     0.062 C 
ATOM     31  C   UNK d   0     -34.346 -18.782  12.223  0.00  0.00    -0.013 A 
ATOM     32  C   UNK d   0     -37.021 -16.816  10.680  0.00  0.00     0.066 A 
BRANCH   8  33
ATOM     33  C   UNK d   0     -39.926 -14.669   9.995  0.00  0.00     0.151 C 
BRANCH  33  34
ATOM     34  C   UNK d   0     -41.182 -14.908  10.728  0.00  0.00     0.143 C 
ATOM     35  O   UNK d   0     -42.278 -14.832  10.155  0.00  0.00    -0.650 OA
BRANCH  34  36
ATOM     36  O   UNK d   0     -41.134 -15.219  12.068  0.00  0.00    -0.776 OA
ATOM     37  H   UNK d   0     -40.278 -15.071  12.620  0.00  0.00     0.167 HD
ENDBRANCH  34  36
ENDBRANCH  33  34
ENDBRANCH   8  33
BRANCH  31  38
ATOM     38  C   UNK d   0     -33.690 -17.758  13.119  0.00  0.00     0.151 C 
BRANCH  38  39
ATOM     39  C   UNK d   0     -32.401 -17.323  12.625  0.00  0.00     0.143 C 
ATOM     40  O   UNK d   0     -31.331 -17.692  13.141  0.00  0.00    -0.650 OA
BRANCH  39  41
ATOM     41  O   UNK d   0     -32.341 -16.459  11.531  0.00  0.00    -0.776 OA
ATOM     42  H   UNK d   0     -31.614 -16.647  10.834  0.00  0.00     0.167 HD
ENDBRANCH  39  41
ENDBRANCH  38  39
ENDBRANCH  31  38
BRANCH  27  43
ATOM     43  C   UNK d   0     -33.159 -20.795  13.186  0.00  0.00     0.052 C 
BRANCH  43  44
ATOM     44  C   UNK d   0     -31.839 -21.100  12.556  0.00  0.00     0.115 C 
BRANCH  44  45
ATOM     45  C   UNK d   0     -31.636 -22.567  12.686  0.00  0.00     0.139 C 
ATOM     46  O   UNK d   0     -30.679 -23.089  12.063  0.00  0.00    -0.650 OA
BRANCH  45  47
ATOM     47  O   UNK d   0     -32.446 -23.368  13.461  0.00  0.00    -0.776 OA
ATOM     48  H   UNK d   0     -32.875 -24.239  13.109  0.00  0.00     0.167 HD
ENDBRANCH  45  47
ENDBRANCH  44  45
ENDBRANCH  43  44
ENDBRANCH  27  43
BRANCH  24  49
ATOM     49  C   UNK d   0     -35.239 -25.405  10.934  0.00  0.00     0.052 C 
BRANCH  49  50
ATOM     50  C   UNK d   0     -34.241 -25.340   9.806  0.00  0.00     0.115 C 
BRANCH  50  51
ATOM     51  C   UNK d   0     -32.845 -25.132  10.165  0.00  0.00     0.139 C 
ATOM     52  O   UNK d   0     -32.033 -24.545   9.412  0.00  0.00    -0.650 OA
BRANCH  51  53
ATOM     53  O   UNK d   0     -32.373 -25.596  11.384  0.00  0.00    -0.776 OA
ATOM     54  H   UNK d   0     -32.008 -24.926  12.038  0.00  0.00     0.167 HD
ENDBRANCH  51  53
ENDBRANCH  50  51
ENDBRANCH  49  50
ENDBRANCH  24  49
BRANCH  21  55
ATOM     55  C   UNK d   0     -38.256 -25.856  10.442  0.00  0.00     0.151 C 
BRANCH  55  56
ATOM     56  C   UNK d   0     -38.832 -26.305  11.719  0.00  0.00     0.143 C 
ATOM     57  O   UNK d   0     -38.228 -27.063  12.502  0.00  0.00    -0.650 OA
BRANCH  56  58
ATOM     58  O   UNK d   0     -40.109 -25.853  12.050  0.00  0.00    -0.776 OA
ATOM     59  H   UNK d   0     -40.680 -26.522  12.597  0.00  0.00     0.167 HD
ENDBRANCH  56  58
ENDBRANCH  55  56
ENDBRANCH  21  55
BRANCH  18  60
ATOM     60  C   UNK d   0     -41.551 -22.283   8.164  0.00  0.00     0.151 C 
BRANCH  60  61
ATOM     61  C   UNK d   0     -40.572 -22.598   7.112  0.00  0.00     0.143 C 
ATOM     62  O   UNK d   0     -40.682 -23.447   6.227  0.00  0.00    -0.650 OA
BRANCH  61  63
ATOM     63  O   UNK d   0     -39.385 -21.827   7.143  0.00  0.00    -0.776 OA
ATOM     64  H   UNK d   0     -38.948 -21.585   8.014  0.00  0.00     0.167 HD
ENDBRANCH  61  63
ENDBRANCH  60  61
ENDBRANCH  18  60
BRANCH  14  65
ATOM     65  C   UNK d   0     -42.168 -19.312   8.188  0.00  0.00     0.052 C 
BRANCH  65  66
ATOM     66  C   UNK d   0     -41.643 -18.858   6.872  0.00  0.00     0.115 C 
BRANCH  66  67
ATOM     67  C   UNK d   0     -41.633 -17.458   6.554  0.00  0.00     0.139 C 
ATOM     68  O   UNK d   0     -41.799 -17.106   5.329  0.00  0.00    -0.650 OA
BRANCH  67  69
ATOM     69  O   UNK d   0     -41.461 -16.386   7.429  0.00  0.00    -0.776 OA
ATOM     70  H   UNK d   0     -41.960 -16.456   8.327  0.00  0.00     0.167 HD
ENDBRANCH  67  69
ENDBRANCH  66  67
ENDBRANCH  65  66
ENDBRANCH  14  65
ENDBRANCH   6   7
ENDBRANCH   5   6
ENDBRANCH   2   5
TORSDOF 28
ENDMDL
MODEL 9
REMARK VINA RESULT:      -9.7      1.627      8.472
REMARK  28 active torsions:
REMARK  status: ('A' for Active; 'I' for Inactive)
REMARK    1  A    between atoms: C_2  and  O_3 
REMARK    2  A    between atoms: C_2  and  C_4 
REMARK    3  A    between atoms: C_4  and  C_5 
REMARK    4  A    between atoms: C_5  and  C_6 
REMARK    5  A    between atoms: C_7  and  C_8 
REMARK    6  A    between atoms: C_8  and  C_9 
REMARK    7  A    between atoms: C_9  and  O_11 
REMARK    8  A    between atoms: C_28  and  C_29 
REMARK    9  A    between atoms: C_29  and  C_30 
REMARK   10  A    between atoms: C_30  and  O_32 
REMARK   11  A    between atoms: C_33  and  C_34 
REMARK   12  A    between atoms: C_34  and  C_35 
REMARK   13  A    between atoms: C_35  and  C_36 
REMARK   14  A    between atoms: C_36  and  O_38 
REMARK   15  A    between atoms: C_39  and  C_40 
REMARK   16  A    between atoms: C_40  and  C_41 
REMARK   17  A    between atoms: C_41  and  C_42 
REMARK   18  A    between atoms: C_42  and  O_44 
REMARK   19  A    between atoms: C_45  and  C_46 
REMARK   20  A    between atoms: C_46  and  C_47 
REMARK   21  A    between atoms: C_47  and  O_49 
REMARK   22  A    between atoms: C_50  and  C_51 
REMARK   23  A    between atoms: C_51  and  C_52 
REMARK   24  A    between atoms: C_52  and  O_54 
REMARK   25  A    between atoms: C_55  and  C_56 
REMARK   26  A    between atoms: C_56  and  C_57 
REMARK   27  A    between atoms: C_57  and  C_58 
REMARK   28  A    between atoms: C_58  and  O_60 
ROOT
ATOM      1  O   UNK d   0      -7.208 -16.027  -8.407  0.00  0.00    -0.650 OA
ATOM      2  C   UNK d   0      -6.747 -16.723  -7.476  0.00  0.00     0.139 C 
ENDROOT
BRANCH   2   3
ATOM      3  O   UNK d   0      -5.492 -16.449  -6.988  0.00  0.00    -0.776 OA
ATOM      4  H   UNK d   0      -5.244 -16.661  -6.019  0.00  0.00     0.167 HD
ENDBRANCH   2   3
BRANCH   2   5
ATOM      5  C   UNK d   0      -7.554 -17.838  -6.904  0.00  0.00     0.115 C 
BRANCH   5   6
ATOM      6  C   UNK d   0      -7.339 -17.924  -5.417  0.00  0.00     0.052 C 
BRANCH   6   7
ATOM      7  C   UNK d   0      -7.891 -16.727  -4.680  0.00  0.00    -0.020 A 
ATOM      8  C   UNK d   0      -7.353 -16.095  -3.669  0.00  0.00    -0.011 A 
ATOM      9  C   UNK d   0      -8.251 -15.016  -3.290  0.00  0.00     0.067 A 
ATOM     10  C   UNK d   0      -8.254 -13.991  -2.332  0.00  0.00     0.062 C 
ATOM     11  N   UNK d   0      -9.314 -15.070  -4.120  0.00  0.00    -0.248 NA
ATOM     12  C   UNK d   0      -9.085 -12.865  -2.298  0.00  0.00     0.041 A 
ATOM     13  N   UNK d   0     -10.405 -12.731  -2.527  0.00  0.00    -0.355 N 
ATOM     14  C   UNK d   0      -8.514 -11.606  -2.040  0.00  0.00    -0.022 A 
ATOM     15  C   UNK d   0     -10.685 -11.418  -2.429  0.00  0.00     0.042 A 
ATOM     16  H   UNK d   0     -11.128 -13.551  -2.734  0.00  0.00     0.166 HD
ATOM     17  C   UNK d   0     -11.907 -10.731  -2.574  0.00  0.00     0.062 C 
ATOM     18  C   UNK d   0      -9.524 -10.680  -2.125  0.00  0.00    -0.013 A 
ATOM     19  C   UNK d   0     -12.872 -10.884  -3.536  0.00  0.00     0.067 A 
ATOM     20  N   UNK d   0     -12.763 -11.945  -4.340  0.00  0.00    -0.248 NA
ATOM     21  C   UNK d   0     -14.054 -10.148  -3.957  0.00  0.00    -0.011 A 
ATOM     22  C   UNK d   0     -13.786 -11.956  -5.256  0.00  0.00     0.066 A 
ATOM     23  C   UNK d   0     -13.816 -13.030  -6.134  0.00  0.00     0.062 C 
ATOM     24  C   UNK d   0     -14.581 -10.779  -4.966  0.00  0.00    -0.020 A 
ATOM     25  C   UNK d   0     -12.980 -14.157  -6.143  0.00  0.00     0.041 A 
ATOM     26  N   UNK d   0     -11.665 -14.288  -5.930  0.00  0.00    -0.355 N 
ATOM     27  C   UNK d   0     -13.554 -15.421  -6.397  0.00  0.00    -0.022 A 
ATOM     28  C   UNK d   0     -11.381 -15.596  -6.036  0.00  0.00     0.042 A 
ATOM     29  H   UNK d   0     -10.938 -13.463  -5.733  0.00  0.00     0.166 HD
ATOM     30  C   UNK d   0     -10.169 -16.292  -5.903  0.00  0.00     0.062 C 
ATOM     31  C   UNK d   0     -12.550 -16.338  -6.331  0.00  0.00    -0.013 A 
ATOM     32  C   UNK d   0      -9.158 -16.077  -4.981  0.00  0.00     0.066 A 
BRANCH   8  33
ATOM     33  C   UNK d   0      -6.070 -16.406  -3.012  0.00  0.00     0.151 C 
BRANCH  33  34
ATOM     34  C   UNK d   0      -4.992 -15.477  -3.397  0.00  0.00     0.143 C 
ATOM     35  O   UNK d   0      -4.947 -14.991  -4.536  0.00  0.00    -0.650 OA
BRANCH  34  36
ATOM     36  O   UNK d   0      -4.023 -15.148  -2.477  0.00  0.00    -0.776 OA
ATOM     37  H   UNK d   0      -3.051 -14.971  -2.765  0.00  0.00     0.167 HD
ENDBRANCH  34  36
ENDBRANCH  33  34
ENDBRANCH   8  33
BRANCH  31  38
ATOM     38  C   UNK d   0     -12.691 -17.830  -6.523  0.00  0.00     0.151 C 
BRANCH  38  39
ATOM     39  C   UNK d   0     -12.326 -18.262  -7.855  0.00  0.00     0.143 C 
ATOM     40  O   UNK d   0     -11.178 -18.116  -8.311  0.00  0.00    -0.650 OA
BRANCH  39  41
ATOM     41  O   UNK d   0     -13.286 -18.865  -8.668  0.00  0.00    -0.776 OA
ATOM     42  H   UNK d   0     -13.545 -19.830  -8.437  0.00  0.00     0.167 HD
ENDBRANCH  39  41
ENDBRANCH  38  39
ENDBRANCH  31  38
BRANCH  27  43
ATOM     43  C   UNK d   0     -14.988 -15.780  -6.696  0.00  0.00     0.052 C 
BRANCH  43  44
ATOM     44  C   UNK d   0     -15.298 -15.810  -8.158  0.00  0.00     0.115 C 
BRANCH  44  45
ATOM     45  C   UNK d   0     -16.286 -16.902  -8.360  0.00  0.00     0.139 C 
ATOM     46  O   UNK d   0     -15.856 -18.041  -8.667  0.00  0.00    -0.650 OA
BRANCH  45  47
ATOM     47  O   UNK d   0     -17.644 -16.715  -8.218  0.00  0.00    -0.776 OA
ATOM     48  H   UNK d   0     -18.297 -16.723  -9.019  0.00  0.00     0.167 HD
ENDBRANCH  45  47
ENDBRANCH  44  45
ENDBRANCH  43  44
ENDBRANCH  27  43
BRANCH  24  49
ATOM     49  C   UNK d   0     -15.814 -10.401  -5.678  0.00  0.00     0.052 C 
BRANCH  49  50
ATOM     50  C   UNK d   0     -15.519  -9.347  -6.715  0.00  0.00     0.115 C 
BRANCH  50  51
ATOM     51  C   UNK d   0     -16.273  -8.104  -6.632  0.00  0.00     0.139 C 
ATOM     52  O   UNK d   0     -17.008  -7.822  -5.657  0.00  0.00    -0.650 OA
BRANCH  51  53
ATOM     53  O   UNK d   0     -16.191  -7.181  -7.664  0.00  0.00    -0.776 OA
ATOM     54  H   UNK d   0     -16.984  -7.077  -8.273  0.00  0.00     0.167 HD
ENDBRANCH  51  53
ENDBRANCH  50  51
ENDBRANCH  49  50
ENDBRANCH  24  49
BRANCH  21  55
ATOM     55  C   UNK d   0     -14.534  -8.895  -3.303  0.00  0.00     0.151 C 
BRANCH  55  56
ATOM     56  C   UNK d   0     -15.262  -9.169  -2.055  0.00  0.00     0.143 C 
ATOM     57  O   UNK d   0     -14.689  -9.328  -0.960  0.00  0.00    -0.650 OA
BRANCH  56  58
ATOM     58  O   UNK d   0     -16.652  -9.249  -2.119  0.00  0.00    -0.776 OA
ATOM     59  H   UNK d   0     -17.036  -9.422  -3.066  0.00  0.00     0.167 HD
ENDBRANCH  56  58
ENDBRANCH  55  56
ENDBRANCH  21  55
BRANCH  18  60
ATOM     60  C   UNK d   0      -9.355  -9.195  -1.926  0.00  0.00     0.151 C 
BRANCH  60  61
ATOM     61  C   UNK d   0      -9.741  -8.927  -0.532  0.00  0.00     0.143 C 
ATOM     62  O   UNK d   0     -10.881  -8.925  -0.065  0.00  0.00    -0.650 OA
BRANCH  61  63
ATOM     63  O   UNK d   0      -8.668  -8.645   0.348  0.00  0.00    -0.776 OA
ATOM     64  H   UNK d   0      -8.671  -7.820   0.921  0.00  0.00     0.167 HD
ENDBRANCH  61  63
ENDBRANCH  60  61
ENDBRANCH  18  60
BRANCH  14  65
ATOM     65  C   UNK d   0      -7.120 -11.226  -1.627  0.00  0.00     0.052 C 
BRANCH  65  66
ATOM     66  C   UNK d   0      -6.860 -11.452  -0.180  0.00  0.00     0.115 C 
BRANCH  66  67
ATOM     67  C   UNK d   0      -5.912 -12.451   0.225  0.00  0.00     0.139 C 
ATOM     68  O   UNK d   0      -5.409 -13.220  -0.674  0.00  0.00    -0.650 OA
BRANCH  67  69
ATOM     69  O   UNK d   0      -5.444 -12.710   1.513  0.00  0.00    -0.776 OA
ATOM     70  H   UNK d   0      -4.481 -12.401   1.710  0.00  0.00     0.167 HD
ENDBRANCH  67  69
ENDBRANCH  66  67
ENDBRANCH  65  66
ENDBRANCH  14  65
ENDBRANCH   6   7
ENDBRANCH   5   6
ENDBRANCH   2   5
TORSDOF 28
ENDMDL
MODEL 10
REMARK VINA RESULT:      -9.7     27.358     30.157
REMARK  28 active torsions:
REMARK  status: ('A' for Active; 'I' for Inactive)
REMARK    1  A    between atoms: C_2  and  O_3 
REMARK    2  A    between atoms: C_2  and  C_4 
REMARK    3  A    between atoms: C_4  and  C_5 
REMARK    4  A    between atoms: C_5  and  C_6 
REMARK    5  A    between atoms: C_7  and  C_8 
REMARK    6  A    between atoms: C_8  and  C_9 
REMARK    7  A    between atoms: C_9  and  O_11 
REMARK    8  A    between atoms: C_28  and  C_29 
REMARK    9  A    between atoms: C_29  and  C_30 
REMARK   10  A    between atoms: C_30  and  O_32 
REMARK   11  A    between atoms: C_33  and  C_34 
REMARK   12  A    between atoms: C_34  and  C_35 
REMARK   13  A    between atoms: C_35  and  C_36 
REMARK   14  A    between atoms: C_36  and  O_38 
REMARK   15  A    between atoms: C_39  and  C_40 
REMARK   16  A    between atoms: C_40  and  C_41 
REMARK   17  A    between atoms: C_41  and  C_42 
REMARK   18  A    between atoms: C_42  and  O_44 
REMARK   19  A    between atoms: C_45  and  C_46 
REMARK   20  A    between atoms: C_46  and  C_47 
REMARK   21  A    between atoms: C_47  and  O_49 
REMARK   22  A    between atoms: C_50  and  C_51 
REMARK   23  A    between atoms: C_51  and  C_52 
REMARK   24  A    between atoms: C_52  and  O_54 
REMARK   25  A    between atoms: C_55  and  C_56 
REMARK   26  A    between atoms: C_56  and  C_57 
REMARK   27  A    between atoms: C_57  and  C_58 
REMARK   28  A    between atoms: C_58  and  O_60 
ROOT
ATOM      1  O   UNK d   0     -39.401 -24.321   9.897  0.00  0.00    -0.650 OA
ATOM      2  C   UNK d   0     -40.264 -23.488  10.254  0.00  0.00     0.139 C 
ENDROOT
BRANCH   2   3
ATOM      3  O   UNK d   0     -41.080 -23.779  11.320  0.00  0.00    -0.776 OA
ATOM      4  H   UNK d   0     -40.689 -24.008  12.236  0.00  0.00     0.167 HD
ENDBRANCH   2   3
BRANCH   2   5
ATOM      5  C   UNK d   0     -40.402 -22.195   9.525  0.00  0.00     0.115 C 
BRANCH   5   6
ATOM      6  C   UNK d   0     -39.271 -22.028   8.547  0.00  0.00     0.052 C 
BRANCH   6   7
ATOM      7  C   UNK d   0     -38.362 -20.876   8.901  0.00  0.00    -0.020 A 
ATOM      8  C   UNK d   0     -38.449 -19.636   8.491  0.00  0.00    -0.011 A 
ATOM      9  C   UNK d   0     -37.351 -18.893   9.087  0.00  0.00     0.067 A 
ATOM     10  C   UNK d   0     -36.902 -17.563   9.070  0.00  0.00     0.062 C 
ATOM     11  N   UNK d   0     -36.643 -19.759   9.841  0.00  0.00    -0.248 NA
ATOM     12  C   UNK d   0     -35.978 -16.970   9.937  0.00  0.00     0.041 A 
ATOM     13  N   UNK d   0     -34.804 -17.418  10.423  0.00  0.00    -0.355 N 
ATOM     14  C   UNK d   0     -36.271 -15.708  10.486  0.00  0.00    -0.022 A 
ATOM     15  C   UNK d   0     -34.349 -16.477  11.271  0.00  0.00     0.042 A 
ATOM     16  H   UNK d   0     -34.298 -18.372  10.156  0.00  0.00     0.166 HD
ATOM     17  C   UNK d   0     -33.173 -16.437  12.046  0.00  0.00     0.062 C 
ATOM     18  C   UNK d   0     -35.242 -15.390  11.337  0.00  0.00    -0.013 A 
ATOM     19  C   UNK d   0     -32.612 -17.426  12.813  0.00  0.00     0.067 A 
ATOM     20  N   UNK d   0     -33.113 -18.656  12.675  0.00  0.00    -0.248 NA
ATOM     21  C   UNK d   0     -31.560 -17.502  13.813  0.00  0.00    -0.011 A 
ATOM     22  C   UNK d   0     -32.465 -19.531  13.513  0.00  0.00     0.066 A 
ATOM     23  C   UNK d   0     -32.862 -20.858  13.444  0.00  0.00     0.062 C 
ATOM     24  C   UNK d   0     -31.482 -18.736  14.221  0.00  0.00    -0.020 A 
ATOM     25  C   UNK d   0     -33.784 -21.436  12.557  0.00  0.00     0.041 A 
ATOM     26  N   UNK d   0     -34.957 -20.997  12.086  0.00  0.00    -0.355 N 
ATOM     27  C   UNK d   0     -33.487 -22.700  12.004  0.00  0.00    -0.022 A 
ATOM     28  C   UNK d   0     -35.417 -21.938  11.246  0.00  0.00     0.042 A 
ATOM     29  H   UNK d   0     -35.470 -20.043  12.363  0.00  0.00     0.166 HD
ATOM     30  C   UNK d   0     -36.590 -21.995  10.477  0.00  0.00     0.062 C 
ATOM     31  C   UNK d   0     -34.515 -23.025  11.173  0.00  0.00    -0.013 A 
ATOM     32  C   UNK d   0     -37.200 -20.969   9.771  0.00  0.00     0.066 A 
BRANCH   8  33
ATOM     33  C   UNK d   0     -39.465 -19.073   7.583  0.00  0.00     0.151 C 
BRANCH  33  34
ATOM     34  C   UNK d   0     -40.522 -18.334   8.297  0.00  0.00     0.143 C 
ATOM     35  O   UNK d   0     -41.221 -17.497   7.708  0.00  0.00    -0.650 OA
BRANCH  34  36
ATOM     36  O   UNK d   0     -40.730 -18.577   9.635  0.00  0.00    -0.776 OA
ATOM     37  H   UNK d   0     -41.676 -18.729  10.009  0.00  0.00     0.167 HD
ENDBRANCH  34  36
ENDBRANCH  33  34
ENDBRANCH   8  33
BRANCH  31  38
ATOM     38  C   UNK d   0     -34.629 -24.285  10.347  0.00  0.00     0.151 C 
BRANCH  38  39
ATOM     39  C   UNK d   0     -35.308 -25.355  11.046  0.00  0.00     0.143 C 
ATOM     40  O   UNK d   0     -36.541 -25.511  10.989  0.00  0.00    -0.650 OA
BRANCH  39  41
ATOM     41  O   UNK d   0     -34.567 -26.252  11.815  0.00  0.00    -0.776 OA
ATOM     42  H   UNK d   0     -34.771 -27.248  11.686  0.00  0.00     0.167 HD
ENDBRANCH  39  41
ENDBRANCH  38  39
ENDBRANCH  31  38
BRANCH  27  43
ATOM     43  C   UNK d   0     -32.291 -23.590  12.233  0.00  0.00     0.052 C 
BRANCH  43  44
ATOM     44  C   UNK d   0     -31.547 -23.916  10.979  0.00  0.00     0.115 C 
BRANCH  44  45
ATOM     45  C   UNK d   0     -30.972 -25.273  11.167  0.00  0.00     0.139 C 
ATOM     46  O   UNK d   0     -29.725 -25.402  11.091  0.00  0.00    -0.650 OA
BRANCH  45  47
ATOM     47  O   UNK d   0     -31.746 -26.384  11.423  0.00  0.00    -0.776 OA
ATOM     48  H   UNK d   0     -32.762 -26.413  11.242  0.00  0.00     0.167 HD
ENDBRANCH  45  47
ENDBRANCH  44  45
ENDBRANCH  43  44
ENDBRANCH  27  43
BRANCH  24  49
ATOM     49  C   UNK d   0     -30.522 -19.266  15.205  0.00  0.00     0.052 C 
BRANCH  49  50
ATOM     50  C   UNK d   0     -30.891 -18.813  16.594  0.00  0.00     0.115 C 
BRANCH  50  51
ATOM     51  C   UNK d   0     -32.156 -19.291  17.135  0.00  0.00     0.139 C 
ATOM     52  O   UNK d   0     -32.653 -20.398  16.818  0.00  0.00    -0.650 OA
BRANCH  51  53
ATOM     53  O   UNK d   0     -32.857 -18.506  18.038  0.00  0.00    -0.776 OA
ATOM     54  H   UNK d   0     -32.938 -18.829  18.986  0.00  0.00     0.167 HD
ENDBRANCH  51  53
ENDBRANCH  50  51
ENDBRANCH  49  50
ENDBRANCH  24  49
BRANCH  21  55
ATOM     55  C   UNK d   0     -30.739 -16.335  14.252  0.00  0.00     0.151 C 
BRANCH  55  56
ATOM     56  C   UNK d   0     -30.915 -15.173  13.367  0.00  0.00     0.143 C 
ATOM     57  O   UNK d   0     -31.686 -14.231  13.636  0.00  0.00    -0.650 OA
BRANCH  56  58
ATOM     58  O   UNK d   0     -30.180 -15.142  12.183  0.00  0.00    -0.776 OA
ATOM     59  H   UNK d   0     -29.163 -15.305  12.297  0.00  0.00     0.167 HD
ENDBRANCH  56  58
ENDBRANCH  55  56
ENDBRANCH  21  55
BRANCH  18  60
ATOM     60  C   UNK d   0     -35.153 -14.121  12.148  0.00  0.00     0.151 C 
BRANCH  60  61
ATOM     61  C   UNK d   0     -34.313 -13.200  11.366  0.00  0.00     0.143 C 
ATOM     62  O   UNK d   0     -33.171 -13.405  10.956  0.00  0.00    -0.650 OA
BRANCH  61  63
ATOM     63  O   UNK d   0     -34.908 -11.951  11.066  0.00  0.00    -0.776 OA
ATOM     64  H   UNK d   0     -35.602 -11.549  11.670  0.00  0.00     0.167 HD
ENDBRANCH  61  63
ENDBRANCH  60  61
ENDBRANCH  18  60
BRANCH  14  65
ATOM     65  C   UNK d   0     -37.388 -14.747  10.194  0.00  0.00     0.052 C 
BRANCH  65  66
ATOM     66  C   UNK d   0     -38.721 -15.264  10.605  0.00  0.00     0.115 C 
BRANCH  66  67
ATOM     67  C   UNK d   0     -39.890 -14.893   9.857  0.00  0.00     0.139 C 
ATOM     68  O   UNK d   0     -40.915 -14.455  10.497  0.00  0.00    -0.650 OA
BRANCH  67  69
ATOM     69  O   UNK d   0     -40.071 -14.947   8.475  0.00  0.00    -0.776 OA
ATOM     70  H   UNK d   0     -39.485 -15.630   7.973  0.00  0.00     0.167 HD
ENDBRANCH  67  69
ENDBRANCH  66  67
ENDBRANCH  65  66
ENDBRANCH  14  65
ENDBRANCH   6   7
ENDBRANCH   5   6
ENDBRANCH   2   5
TORSDOF 28
ENDMDL
MODEL 11
REMARK VINA RESULT:      -9.3      1.928     10.420
REMARK  28 active torsions:
REMARK  status: ('A' for Active; 'I' for Inactive)
REMARK    1  A    between atoms: C_2  and  O_3 
REMARK    2  A    between atoms: C_2  and  C_4 
REMARK    3  A    between atoms: C_4  and  C_5 
REMARK    4  A    between atoms: C_5  and  C_6 
REMARK    5  A    between atoms: C_7  and  C_8 
REMARK    6  A    between atoms: C_8  and  C_9 
REMARK    7  A    between atoms: C_9  and  O_11 
REMARK    8  A    between atoms: C_28  and  C_29 
REMARK    9  A    between atoms: C_29  and  C_30 
REMARK   10  A    between atoms: C_30  and  O_32 
REMARK   11  A    between atoms: C_33  and  C_34 
REMARK   12  A    between atoms: C_34  and  C_35 
REMARK   13  A    between atoms: C_35  and  C_36 
REMARK   14  A    between atoms: C_36  and  O_38 
REMARK   15  A    between atoms: C_39  and  C_40 
REMARK   16  A    between atoms: C_40  and  C_41 
REMARK   17  A    between atoms: C_41  and  C_42 
REMARK   18  A    between atoms: C_42  and  O_44 
REMARK   19  A    between atoms: C_45  and  C_46 
REMARK   20  A    between atoms: C_46  and  C_47 
REMARK   21  A    between atoms: C_47  and  O_49 
REMARK   22  A    between atoms: C_50  and  C_51 
REMARK   23  A    between atoms: C_51  and  C_52 
REMARK   24  A    between atoms: C_52  and  O_54 
REMARK   25  A    between atoms: C_55  and  C_56 
REMARK   26  A    between atoms: C_56  and  C_57 
REMARK   27  A    between atoms: C_57  and  C_58 
REMARK   28  A    between atoms: C_58  and  O_60 
ROOT
ATOM      1  O   UNK d   0     -12.180  -7.842  -0.269  0.00  0.00    -0.650 OA
ATOM      2  C   UNK d   0     -11.998  -8.650  -1.206  0.00  0.00     0.139 C 
ENDROOT
BRANCH   2   3
ATOM      3  O   UNK d   0     -12.668  -8.468  -2.392  0.00  0.00    -0.776 OA
ATOM      4  H   UNK d   0     -13.612  -8.836  -2.527  0.00  0.00     0.167 HD
ENDBRANCH   2   3
BRANCH   2   5
ATOM      5  C   UNK d   0     -11.064  -9.799  -1.033  0.00  0.00     0.115 C 
BRANCH   5   6
ATOM      6  C   UNK d   0      -9.717  -9.462  -1.611  0.00  0.00     0.052 C 
BRANCH   6   7
ATOM      7  C   UNK d   0      -9.135 -10.591  -2.427  0.00  0.00    -0.020 A 
ATOM      8  C   UNK d   0      -7.873 -10.905  -2.571  0.00  0.00    -0.011 A 
ATOM      9  C   UNK d   0      -7.799 -12.057  -3.454  0.00  0.00     0.067 A 
ATOM     10  C   UNK d   0      -6.780 -12.869  -3.976  0.00  0.00     0.062 C 
ATOM     11  N   UNK d   0      -9.063 -12.375  -3.805  0.00  0.00    -0.248 NA
ATOM     12  C   UNK d   0      -6.923 -14.115  -4.595  0.00  0.00     0.041 A 
ATOM     13  N   UNK d   0      -7.815 -14.557  -5.502  0.00  0.00    -0.355 N 
ATOM     14  C   UNK d   0      -6.060 -15.162  -4.225  0.00  0.00    -0.022 A 
ATOM     15  C   UNK d   0      -7.545 -15.859  -5.711  0.00  0.00     0.042 A 
ATOM     16  H   UNK d   0      -8.607 -13.955  -6.000  0.00  0.00     0.166 HD
ATOM     17  C   UNK d   0      -8.168 -16.797  -6.559  0.00  0.00     0.062 C 
ATOM     18  C   UNK d   0      -6.451 -16.275  -4.927  0.00  0.00    -0.013 A 
ATOM     19  C   UNK d   0      -9.506 -17.024  -6.758  0.00  0.00     0.067 A 
ATOM     20  N   UNK d   0     -10.354 -16.128  -6.247  0.00  0.00    -0.248 NA
ATOM     21  C   UNK d   0     -10.306 -18.050  -7.405  0.00  0.00    -0.011 A 
ATOM     22  C   UNK d   0     -11.651 -16.494  -6.511  0.00  0.00     0.066 A 
ATOM     23  C   UNK d   0     -12.639 -15.628  -6.067  0.00  0.00     0.062 C 
ATOM     24  C   UNK d   0     -11.561 -17.736  -7.253  0.00  0.00    -0.020 A 
ATOM     25  C   UNK d   0     -12.474 -14.374  -5.459  0.00  0.00     0.041 A 
ATOM     26  N   UNK d   0     -11.597 -13.939  -4.546  0.00  0.00    -0.355 N 
ATOM     27  C   UNK d   0     -13.338 -13.322  -5.834  0.00  0.00    -0.022 A 
ATOM     28  C   UNK d   0     -11.870 -12.642  -4.330  0.00  0.00     0.042 A 
ATOM     29  H   UNK d   0     -10.808 -14.547  -4.039  0.00  0.00     0.166 HD
ATOM     30  C   UNK d   0     -11.264 -11.701  -3.483  0.00  0.00     0.062 C 
ATOM     31  C   UNK d   0     -12.962 -12.223  -5.125  0.00  0.00    -0.013 A 
ATOM     32  C   UNK d   0      -9.914 -11.531  -3.220  0.00  0.00     0.066 A 
BRANCH   8  33
ATOM     33  C   UNK d   0      -6.717 -10.222  -1.962  0.00  0.00     0.151 C 
BRANCH  33  34
ATOM     34  C   UNK d   0      -6.468 -10.651  -0.574  0.00  0.00     0.143 C 
ATOM     35  O   UNK d   0      -5.817 -11.678  -0.332  0.00  0.00    -0.650 OA
BRANCH  34  36
ATOM     36  O   UNK d   0      -6.968  -9.900   0.465  0.00  0.00    -0.776 OA
ATOM     37  H   UNK d   0      -6.499  -9.877   1.381  0.00  0.00     0.167 HD
ENDBRANCH  34  36
ENDBRANCH  33  34
ENDBRANCH   8  33
BRANCH  31  38
ATOM     38  C   UNK d   0     -13.592 -10.852  -5.206  0.00  0.00     0.151 C 
BRANCH  38  39
ATOM     39  C   UNK d   0     -14.713 -10.695  -4.303  0.00  0.00     0.143 C 
ATOM     40  O   UNK d   0     -14.563 -10.537  -3.079  0.00  0.00    -0.650 OA
BRANCH  39  41
ATOM     41  O   UNK d   0     -16.011 -10.718  -4.811  0.00  0.00    -0.776 OA
ATOM     42  H   UNK d   0     -16.469  -9.812  -4.950  0.00  0.00     0.167 HD
ENDBRANCH  39  41
ENDBRANCH  38  39
ENDBRANCH  31  38
BRANCH  27  43
ATOM     43  C   UNK d   0     -14.481 -13.326  -6.818  0.00  0.00     0.052 C 
BRANCH  43  44
ATOM     44  C   UNK d   0     -14.361 -14.391  -7.859  0.00  0.00     0.115 C 
BRANCH  44  45
ATOM     45  C   UNK d   0     -15.647 -15.136  -7.855  0.00  0.00     0.139 C 
ATOM     46  O   UNK d   0     -16.125 -15.498  -8.959  0.00  0.00    -0.650 OA
BRANCH  45  47
ATOM     47  O   UNK d   0     -16.327 -15.447  -6.697  0.00  0.00    -0.776 OA
ATOM     48  H   UNK d   0     -16.753 -16.372  -6.529  0.00  0.00     0.167 HD
ENDBRANCH  45  47
ENDBRANCH  44  45
ENDBRANCH  43  44
ENDBRANCH  27  43
BRANCH  24  49
ATOM     49  C   UNK d   0     -12.713 -18.483  -7.786  0.00  0.00     0.052 C 
BRANCH  49  50
ATOM     50  C   UNK d   0     -13.566 -19.006  -6.659  0.00  0.00     0.115 C 
BRANCH  50  51
ATOM     51  C   UNK d   0     -13.395 -20.405  -6.290  0.00  0.00     0.139 C 
ATOM     52  O   UNK d   0     -14.188 -21.005  -5.526  0.00  0.00    -0.650 OA
BRANCH  51  53
ATOM     53  O   UNK d   0     -12.316 -21.119  -6.789  0.00  0.00    -0.776 OA
ATOM     54  H   UNK d   0     -11.768 -21.663  -6.146  0.00  0.00     0.167 HD
ENDBRANCH  51  53
ENDBRANCH  50  51
ENDBRANCH  49  50
ENDBRANCH  24  49
BRANCH  21  55
ATOM     55  C   UNK d   0      -9.734 -19.235  -8.110  0.00  0.00     0.151 C 
BRANCH  55  56
ATOM     56  C   UNK d   0     -10.489 -19.570  -9.327  0.00  0.00     0.143 C 
ATOM     57  O   UNK d   0     -11.170 -20.609  -9.435  0.00  0.00    -0.650 OA
BRANCH  56  58
ATOM     58  O   UNK d   0     -10.430 -18.675 -10.395  0.00  0.00    -0.776 OA
ATOM     59  H   UNK d   0      -9.721 -17.926 -10.297  0.00  0.00     0.167 HD
ENDBRANCH  56  58
ENDBRANCH  55  56
ENDBRANCH  21  55
BRANCH  18  60
ATOM     60  C   UNK d   0      -5.800 -17.632  -4.829  0.00  0.00     0.151 C 
BRANCH  60  61
ATOM     61  C   UNK d   0      -6.718 -18.464  -4.036  0.00  0.00     0.143 C 
ATOM     62  O   UNK d   0      -6.684 -19.687  -3.903  0.00  0.00    -0.650 OA
BRANCH  61  63
ATOM     63  O   UNK d   0      -7.743 -17.756  -3.363  0.00  0.00    -0.776 OA
ATOM     64  H   UNK d   0      -7.533 -17.151  -2.589  0.00  0.00     0.167 HD
ENDBRANCH  61  63
ENDBRANCH  60  61
ENDBRANCH  18  60
BRANCH  14  65
ATOM     65  C   UNK d   0      -4.845 -15.166  -3.341  0.00  0.00     0.052 C 
BRANCH  65  66
ATOM     66  C   UNK d   0      -5.102 -15.758  -2.001  0.00  0.00     0.115 C 
BRANCH  66  67
ATOM     67  C   UNK d   0      -6.221 -15.303  -1.225  0.00  0.00     0.139 C 
ATOM     68  O   UNK d   0      -7.393 -15.738  -1.524  0.00  0.00    -0.650 OA
BRANCH  67  69
ATOM     69  O   UNK d   0      -6.209 -14.417  -0.148  0.00  0.00    -0.776 OA
ATOM     70  H   UNK d   0      -7.040 -13.815  -0.053  0.00  0.00     0.167 HD
ENDBRANCH  67  69
ENDBRANCH  66  67
ENDBRANCH  65  66
ENDBRANCH  14  65
ENDBRANCH   6   7
ENDBRANCH   5   6
ENDBRANCH   2   5
TORSDOF 28
ENDMDL
MODEL 12
REMARK VINA RESULT:      -9.2      1.955      8.538
REMARK  28 active torsions:
REMARK  status: ('A' for Active; 'I' for Inactive)
REMARK    1  A    between atoms: C_2  and  O_3 
REMARK    2  A    between atoms: C_2  and  C_4 
REMARK    3  A    between atoms: C_4  and  C_5 
REMARK    4  A    between atoms: C_5  and  C_6 
REMARK    5  A    between atoms: C_7  and  C_8 
REMARK    6  A    between atoms: C_8  and  C_9 
REMARK    7  A    between atoms: C_9  and  O_11 
REMARK    8  A    between atoms: C_28  and  C_29 
REMARK    9  A    between atoms: C_29  and  C_30 
REMARK   10  A    between atoms: C_30  and  O_32 
REMARK   11  A    between atoms: C_33  and  C_34 
REMARK   12  A    between atoms: C_34  and  C_35 
REMARK   13  A    between atoms: C_35  and  C_36 
REMARK   14  A    between atoms: C_36  and  O_38 
REMARK   15  A    between atoms: C_39  and  C_40 
REMARK   16  A    between atoms: C_40  and  C_41 
REMARK   17  A    between atoms: C_41  and  C_42 
REMARK   18  A    between atoms: C_42  and  O_44 
REMARK   19  A    between atoms: C_45  and  C_46 
REMARK   20  A    between atoms: C_46  and  C_47 
REMARK   21  A    between atoms: C_47  and  O_49 
REMARK   22  A    between atoms: C_50  and  C_51 
REMARK   23  A    between atoms: C_51  and  C_52 
REMARK   24  A    between atoms: C_52  and  O_54 
REMARK   25  A    between atoms: C_55  and  C_56 
REMARK   26  A    between atoms: C_56  and  C_57 
REMARK   27  A    between atoms: C_57  and  C_58 
REMARK   28  A    between atoms: C_58  and  O_60 
ROOT
ATOM      1  O   UNK d   0      -7.425 -16.071  -8.696  0.00  0.00    -0.650 OA
ATOM      2  C   UNK d   0      -7.837 -16.979  -7.939  0.00  0.00     0.139 C 
ENDROOT
BRANCH   2   3
ATOM      3  O   UNK d   0      -8.871 -17.784  -8.353  0.00  0.00    -0.776 OA
ATOM      4  H   UNK d   0      -9.616 -17.420  -8.950  0.00  0.00     0.167 HD
ENDBRANCH   2   3
BRANCH   2   5
ATOM      5  C   UNK d   0      -7.210 -17.180  -6.602  0.00  0.00     0.115 C 
BRANCH   5   6
ATOM      6  C   UNK d   0      -8.251 -17.597  -5.599  0.00  0.00     0.052 C 
BRANCH   6   7
ATOM      7  C   UNK d   0      -8.838 -16.425  -4.849  0.00  0.00    -0.020 A 
ATOM      8  C   UNK d   0      -8.369 -15.854  -3.769  0.00  0.00    -0.011 A 
ATOM      9  C   UNK d   0      -9.274 -14.775  -3.408  0.00  0.00     0.067 A 
ATOM     10  C   UNK d   0      -9.333 -13.797  -2.403  0.00  0.00     0.062 C 
ATOM     11  N   UNK d   0     -10.269 -14.764  -4.319  0.00  0.00    -0.248 NA
ATOM     12  C   UNK d   0     -10.143 -12.656  -2.378  0.00  0.00     0.041 A 
ATOM     13  N   UNK d   0     -11.438 -12.481  -2.701  0.00  0.00    -0.355 N 
ATOM     14  C   UNK d   0      -9.571 -11.423  -2.014  0.00  0.00    -0.022 A 
ATOM     15  C   UNK d   0     -11.700 -11.168  -2.560  0.00  0.00     0.042 A 
ATOM     16  H   UNK d   0     -12.158 -13.273  -3.005  0.00  0.00     0.166 HD
ATOM     17  C   UNK d   0     -12.894 -10.448  -2.766  0.00  0.00     0.062 C 
ATOM     18  C   UNK d   0     -10.553 -10.472  -2.131  0.00  0.00    -0.013 A 
ATOM     19  C   UNK d   0     -13.783 -10.532  -3.807  0.00  0.00     0.067 A 
ATOM     20  N   UNK d   0     -13.631 -11.555  -4.651  0.00  0.00    -0.248 NA
ATOM     21  C   UNK d   0     -14.913  -9.751  -4.281  0.00  0.00    -0.011 A 
ATOM     22  C   UNK d   0     -14.578 -11.499  -5.644  0.00  0.00     0.066 A 
ATOM     23  C   UNK d   0     -14.559 -12.529  -6.573  0.00  0.00     0.062 C 
ATOM     24  C   UNK d   0     -15.372 -10.320  -5.359  0.00  0.00    -0.020 A 
ATOM     25  C   UNK d   0     -13.746 -13.672  -6.573  0.00  0.00     0.041 A 
ATOM     26  N   UNK d   0     -12.455 -13.844  -6.266  0.00  0.00    -0.355 N 
ATOM     27  C   UNK d   0     -14.322 -14.910  -6.934  0.00  0.00    -0.022 A 
ATOM     28  C   UNK d   0     -12.188 -15.151  -6.415  0.00  0.00     0.042 A 
ATOM     29  H   UNK d   0     -11.730 -13.045  -5.971  0.00  0.00     0.166 HD
ATOM     30  C   UNK d   0     -11.004 -15.879  -6.222  0.00  0.00     0.062 C 
ATOM     31  C   UNK d   0     -13.344 -15.851  -6.836  0.00  0.00    -0.013 A 
ATOM     32  C   UNK d   0     -10.064 -15.732  -5.214  0.00  0.00     0.066 A 
BRANCH   8  33
ATOM     33  C   UNK d   0      -7.148 -16.225  -3.030  0.00  0.00     0.151 C 
BRANCH  33  34
ATOM     34  C   UNK d   0      -6.188 -15.112  -2.920  0.00  0.00     0.143 C 
ATOM     35  O   UNK d   0      -5.618 -14.662  -3.924  0.00  0.00    -0.650 OA
BRANCH  34  36
ATOM     36  O   UNK d   0      -5.921 -14.570  -1.684  0.00  0.00    -0.776 OA
ATOM     37  H   UNK d   0      -5.309 -13.749  -1.581  0.00  0.00     0.167 HD
ENDBRANCH  34  36
ENDBRANCH  33  34
ENDBRANCH   8  33
BRANCH  31  38
ATOM     38  C   UNK d   0     -13.497 -17.329  -7.112  0.00  0.00     0.151 C 
BRANCH  38  39
ATOM     39  C   UNK d   0     -14.513 -17.951  -6.290  0.00  0.00     0.143 C 
ATOM     40  O   UNK d   0     -15.270 -18.837  -6.723  0.00  0.00    -0.650 OA
BRANCH  39  41
ATOM     41  O   UNK d   0     -14.660 -17.552  -4.961  0.00  0.00    -0.776 OA
ATOM     42  H   UNK d   0     -14.277 -16.636  -4.709  0.00  0.00     0.167 HD
ENDBRANCH  39  41
ENDBRANCH  38  39
ENDBRANCH  31  38
BRANCH  27  43
ATOM     43  C   UNK d   0     -15.735 -15.221  -7.361  0.00  0.00     0.052 C 
BRANCH  43  44
ATOM     44  C   UNK d   0     -15.887 -15.365  -8.841  0.00  0.00     0.115 C 
BRANCH  44  45
ATOM     45  C   UNK d   0     -16.689 -16.595  -9.068  0.00  0.00     0.139 C 
ATOM     46  O   UNK d   0     -16.305 -17.397  -9.954  0.00  0.00    -0.650 OA
BRANCH  45  47
ATOM     47  O   UNK d   0     -17.825 -16.891  -8.345  0.00  0.00    -0.776 OA
ATOM     48  H   UNK d   0     -18.776 -16.673  -8.683  0.00  0.00     0.167 HD
ENDBRANCH  45  47
ENDBRANCH  44  45
ENDBRANCH  43  44
ENDBRANCH  27  43
BRANCH  24  49
ATOM     49  C   UNK d   0     -16.537  -9.880  -6.144  0.00  0.00     0.052 C 
BRANCH  49  50
ATOM     50  C   UNK d   0     -16.385  -8.435  -6.545  0.00  0.00     0.115 C 
BRANCH  50  51
ATOM     51  C   UNK d   0     -15.493  -8.144  -7.659  0.00  0.00     0.139 C 
ATOM     52  O   UNK d   0     -15.802  -7.359  -8.586  0.00  0.00    -0.650 OA
BRANCH  51  53
ATOM     53  O   UNK d   0     -14.247  -8.751  -7.717  0.00  0.00    -0.776 OA
ATOM     54  H   UNK d   0     -13.982  -9.364  -6.967  0.00  0.00     0.167 HD
ENDBRANCH  51  53
ENDBRANCH  50  51
ENDBRANCH  49  50
ENDBRANCH  24  49
BRANCH  21  55
ATOM     55  C   UNK d   0     -15.420  -8.520  -3.605  0.00  0.00     0.151 C 
BRANCH  55  56
ATOM     56  C   UNK d   0     -16.424  -8.829  -2.576  0.00  0.00     0.143 C 
ATOM     57  O   UNK d   0     -16.132  -8.991  -1.375  0.00  0.00    -0.650 OA
BRANCH  56  58
ATOM     58  O   UNK d   0     -17.753  -8.943  -2.979  0.00  0.00    -0.776 OA
ATOM     59  H   UNK d   0     -18.140  -9.904  -2.943  0.00  0.00     0.167 HD
ENDBRANCH  56  58
ENDBRANCH  55  56
ENDBRANCH  21  55
BRANCH  18  60
ATOM     60  C   UNK d   0     -10.372  -9.002  -1.845  0.00  0.00     0.151 C 
BRANCH  60  61
ATOM     61  C   UNK d   0     -10.544  -8.849  -0.392  0.00  0.00     0.143 C 
ATOM     62  O   UNK d   0      -9.670  -8.591   0.435  0.00  0.00    -0.650 OA
BRANCH  61  63
ATOM     63  O   UNK d   0     -11.868  -9.021   0.079  0.00  0.00    -0.776 OA
ATOM     64  H   UNK d   0     -12.168  -9.894   0.476  0.00  0.00     0.167 HD
ENDBRANCH  61  63
ENDBRANCH  60  61
ENDBRANCH  18  60
BRANCH  14  65
ATOM     65  C   UNK d   0      -8.207 -11.096  -1.475  0.00  0.00     0.052 C 
BRANCH  65  66
ATOM     66  C   UNK d   0      -7.153 -11.087  -2.526  0.00  0.00     0.115 C 
BRANCH  66  67
ATOM     67  C   UNK d   0      -5.769 -11.111  -2.146  0.00  0.00     0.139 C 
ATOM     68  O   UNK d   0      -5.351 -10.243  -1.294  0.00  0.00    -0.650 OA
BRANCH  67  69
ATOM     69  O   UNK d   0      -4.776 -11.982  -2.593  0.00  0.00    -0.776 OA
ATOM     70  H   UNK d   0      -3.937 -11.538  -2.992  0.00  0.00     0.167 HD
ENDBRANCH  67  69
ENDBRANCH  66  67
ENDBRANCH  65  66
ENDBRANCH  14  65
ENDBRANCH   6   7
ENDBRANCH   5   6
ENDBRANCH   2   5
TORSDOF 28
ENDMDL
MODEL 13
REMARK VINA RESULT:      -9.1      1.955      8.504
REMARK  28 active torsions:
REMARK  status: ('A' for Active; 'I' for Inactive)
REMARK    1  A    between atoms: C_2  and  O_3 
REMARK    2  A    between atoms: C_2  and  C_4 
REMARK    3  A    between atoms: C_4  and  C_5 
REMARK    4  A    between atoms: C_5  and  C_6 
REMARK    5  A    between atoms: C_7  and  C_8 
REMARK    6  A    between atoms: C_8  and  C_9 
REMARK    7  A    between atoms: C_9  and  O_11 
REMARK    8  A    between atoms: C_28  and  C_29 
REMARK    9  A    between atoms: C_29  and  C_30 
REMARK   10  A    between atoms: C_30  and  O_32 
REMARK   11  A    between atoms: C_33  and  C_34 
REMARK   12  A    between atoms: C_34  and  C_35 
REMARK   13  A    between atoms: C_35  and  C_36 
REMARK   14  A    between atoms: C_36  and  O_38 
REMARK   15  A    between atoms: C_39  and  C_40 
REMARK   16  A    between atoms: C_40  and  C_41 
REMARK   17  A    between atoms: C_41  and  C_42 
REMARK   18  A    between atoms: C_42  and  O_44 
REMARK   19  A    between atoms: C_45  and  C_46 
REMARK   20  A    between atoms: C_46  and  C_47 
REMARK   21  A    between atoms: C_47  and  O_49 
REMARK   22  A    between atoms: C_50  and  C_51 
REMARK   23  A    between atoms: C_51  and  C_52 
REMARK   24  A    between atoms: C_52  and  O_54 
REMARK   25  A    between atoms: C_55  and  C_56 
REMARK   26  A    between atoms: C_56  and  C_57 
REMARK   27  A    between atoms: C_57  and  C_58 
REMARK   28  A    between atoms: C_58  and  O_60 
ROOT
ATOM      1  O   UNK d   0     -11.183 -21.148  -8.371  0.00  0.00    -0.650 OA
ATOM      2  C   UNK d   0     -10.315 -20.252  -8.471  0.00  0.00     0.139 C 
ENDROOT
BRANCH   2   3
ATOM      3  O   UNK d   0     -10.300 -19.451  -9.587  0.00  0.00    -0.776 OA
ATOM      4  H   UNK d   0     -10.747 -19.749 -10.456  0.00  0.00     0.167 HD
ENDBRANCH   2   3
BRANCH   2   5
ATOM      5  C   UNK d   0      -9.309 -20.061  -7.388  0.00  0.00     0.115 C 
BRANCH   5   6
ATOM      6  C   UNK d   0      -8.432 -18.879  -7.699  0.00  0.00     0.052 C 
BRANCH   6   7
ATOM      7  C   UNK d   0      -8.653 -17.725  -6.751  0.00  0.00    -0.020 A 
ATOM      8  C   UNK d   0      -7.833 -17.274  -5.836  0.00  0.00    -0.011 A 
ATOM      9  C   UNK d   0      -8.482 -16.159  -5.167  0.00  0.00     0.067 A 
ATOM     10  C   UNK d   0      -8.146 -15.258  -4.145  0.00  0.00     0.062 C 
ATOM     11  N   UNK d   0      -9.697 -16.003  -5.734  0.00  0.00    -0.248 NA
ATOM     12  C   UNK d   0      -8.798 -14.063  -3.821  0.00  0.00     0.041 A 
ATOM     13  N   UNK d   0     -10.108 -13.765  -3.730  0.00  0.00    -0.355 N 
ATOM     14  C   UNK d   0      -8.028 -12.909  -3.588  0.00  0.00    -0.022 A 
ATOM     15  C   UNK d   0     -10.189 -12.450  -3.452  0.00  0.00     0.042 A 
ATOM     16  H   UNK d   0     -10.958 -14.473  -3.840  0.00  0.00     0.166 HD
ATOM     17  C   UNK d   0     -11.315 -11.626  -3.253  0.00  0.00     0.062 C 
ATOM     18  C   UNK d   0      -8.905 -11.879  -3.356  0.00  0.00    -0.013 A 
ATOM     19  C   UNK d   0     -12.477 -11.563  -3.979  0.00  0.00     0.067 A 
ATOM     20  N   UNK d   0     -12.681 -12.528  -4.879  0.00  0.00    -0.248 NA
ATOM     21  C   UNK d   0     -13.616 -10.663  -4.051  0.00  0.00    -0.011 A 
ATOM     22  C   UNK d   0     -13.870 -12.325  -5.535  0.00  0.00     0.066 A 
ATOM     23  C   UNK d   0     -14.226 -13.280  -6.476  0.00  0.00     0.062 C 
ATOM     24  C   UNK d   0     -14.426 -11.112  -4.967  0.00  0.00    -0.020 A 
ATOM     25  C   UNK d   0     -13.564 -14.480  -6.777  0.00  0.00     0.041 A 
ATOM     26  N   UNK d   0     -12.262 -14.773  -6.882  0.00  0.00    -0.355 N 
ATOM     27  C   UNK d   0     -14.338 -15.638  -7.007  0.00  0.00    -0.022 A 
ATOM     28  C   UNK d   0     -12.179 -16.082  -7.168  0.00  0.00     0.042 A 
ATOM     29  H   UNK d   0     -11.410 -14.057  -6.782  0.00  0.00     0.166 HD
ATOM     30  C   UNK d   0     -11.067 -16.912  -7.378  0.00  0.00     0.062 C 
ATOM     31  C   UNK d   0     -13.469 -16.657  -7.254  0.00  0.00    -0.013 A 
ATOM     32  C   UNK d   0      -9.861 -16.914  -6.695  0.00  0.00     0.066 A 
BRANCH   8  33
ATOM     33  C   UNK d   0      -6.490 -17.793  -5.520  0.00  0.00     0.151 C 
BRANCH  33  34
ATOM     34  C   UNK d   0      -6.361 -18.225  -4.116  0.00  0.00     0.143 C 
ATOM     35  O   UNK d   0      -5.764 -17.525  -3.287  0.00  0.00    -0.650 OA
BRANCH  34  36
ATOM     36  O   UNK d   0      -6.911 -19.424  -3.726  0.00  0.00    -0.776 OA
ATOM     37  H   UNK d   0      -7.487 -19.983  -4.370  0.00  0.00     0.167 HD
ENDBRANCH  34  36
ENDBRANCH  33  34
ENDBRANCH   8  33
BRANCH  31  38
ATOM     38  C   UNK d   0     -13.839 -18.093  -7.542  0.00  0.00     0.151 C 
BRANCH  38  39
ATOM     39  C   UNK d   0     -13.888 -18.911  -6.348  0.00  0.00     0.143 C 
ATOM     40  O   UNK d   0     -14.677 -18.679  -5.415  0.00  0.00    -0.650 OA
BRANCH  39  41
ATOM     41  O   UNK d   0     -13.027 -20.001  -6.227  0.00  0.00    -0.776 OA
ATOM     42  H   UNK d   0     -12.651 -20.190  -5.293  0.00  0.00     0.167 HD
ENDBRANCH  39  41
ENDBRANCH  38  39
ENDBRANCH  31  38
BRANCH  27  43
ATOM     43  C   UNK d   0     -15.836 -15.807  -7.001  0.00  0.00     0.052 C 
BRANCH  43  44
ATOM     44  C   UNK d   0     -16.471 -15.492  -8.317  0.00  0.00     0.115 C 
BRANCH  44  45
ATOM     45  C   UNK d   0     -17.010 -16.772  -8.846  0.00  0.00     0.139 C 
ATOM     46  O   UNK d   0     -17.064 -17.757  -8.068  0.00  0.00    -0.650 OA
BRANCH  45  47
ATOM     47  O   UNK d   0     -17.454 -16.917 -10.142  0.00  0.00    -0.776 OA
ATOM     48  H   UNK d   0     -16.863 -16.710 -10.963  0.00  0.00     0.167 HD
ENDBRANCH  45  47
ENDBRANCH  44  45
ENDBRANCH  43  44
ENDBRANCH  27  43
BRANCH  24  49
ATOM     49  C   UNK d   0     -15.724 -10.526  -5.341  0.00  0.00     0.052 C 
BRANCH  49  50
ATOM     50  C   UNK d   0     -15.589  -9.719  -6.607  0.00  0.00     0.115 C 
BRANCH  50  51
ATOM     51  C   UNK d   0     -16.269  -8.432  -6.650  0.00  0.00     0.139 C 
ATOM     52  O   UNK d   0     -16.199  -7.663  -7.638  0.00  0.00    -0.650 OA
BRANCH  51  53
ATOM     53  O   UNK d   0     -17.028  -8.019  -5.566  0.00  0.00    -0.776 OA
ATOM     54  H   UNK d   0     -17.177  -7.034  -5.437  0.00  0.00     0.167 HD
ENDBRANCH  51  53
ENDBRANCH  50  51
ENDBRANCH  49  50
ENDBRANCH  24  49
BRANCH  21  55
ATOM     55  C   UNK d   0     -13.779  -9.451  -3.195  0.00  0.00     0.151 C 
BRANCH  55  56
ATOM     56  C   UNK d   0     -14.539  -9.740  -1.969  0.00  0.00     0.143 C 
ATOM     57  O   UNK d   0     -14.041 -10.328  -0.989  0.00  0.00    -0.650 OA
BRANCH  56  58
ATOM     58  O   UNK d   0     -15.870  -9.330  -1.919  0.00  0.00    -0.776 OA
ATOM     59  H   UNK d   0     -16.475  -9.722  -2.663  0.00  0.00     0.167 HD
ENDBRANCH  56  58
ENDBRANCH  55  56
ENDBRANCH  21  55
BRANCH  18  60
ATOM     60  C   UNK d   0      -8.507 -10.453  -3.067  0.00  0.00     0.151 C 
BRANCH  60  61
ATOM     61  C   UNK d   0      -8.526 -10.316  -1.603  0.00  0.00     0.143 C 
ATOM     62  O   UNK d   0      -7.693 -10.749  -0.806  0.00  0.00    -0.650 OA
BRANCH  61  63
ATOM     63  O   UNK d   0      -9.633  -9.606  -1.079  0.00  0.00    -0.776 OA
ATOM     64  H   UNK d   0      -9.775  -8.635  -1.294  0.00  0.00     0.167 HD
ENDBRANCH  61  63
ENDBRANCH  60  61
ENDBRANCH  18  60
BRANCH  14  65
ATOM     65  C   UNK d   0      -6.541 -12.729  -3.471  0.00  0.00     0.052 C 
BRANCH  65  66
ATOM     66  C   UNK d   0      -5.984 -13.292  -2.212  0.00  0.00     0.115 C 
BRANCH  66  67
ATOM     67  C   UNK d   0      -5.054 -14.384  -2.271  0.00  0.00     0.139 C 
ATOM     68  O   UNK d   0      -4.305 -14.497  -3.310  0.00  0.00    -0.650 OA
BRANCH  67  69
ATOM     69  O   UNK d   0      -4.845 -15.379  -1.317  0.00  0.00    -0.776 OA
ATOM     70  H   UNK d   0      -5.589 -16.087  -1.237  0.00  0.00     0.167 HD
ENDBRANCH  67  69
ENDBRANCH  66  67
ENDBRANCH  65  66
ENDBRANCH  14  65
ENDBRANCH   6   7
ENDBRANCH   5   6
ENDBRANCH   2   5
TORSDOF 28
ENDMDL
MODEL 14
REMARK VINA RESULT:      -9.1      1.463      7.848
REMARK  28 active torsions:
REMARK  status: ('A' for Active; 'I' for Inactive)
REMARK    1  A    between atoms: C_2  and  O_3 
REMARK    2  A    between atoms: C_2  and  C_4 
REMARK    3  A    between atoms: C_4  and  C_5 
REMARK    4  A    between atoms: C_5  and  C_6 
REMARK    5  A    between atoms: C_7  and  C_8 
REMARK    6  A    between atoms: C_8  and  C_9 
REMARK    7  A    between atoms: C_9  and  O_11 
REMARK    8  A    between atoms: C_28  and  C_29 
REMARK    9  A    between atoms: C_29  and  C_30 
REMARK   10  A    between atoms: C_30  and  O_32 
REMARK   11  A    between atoms: C_33  and  C_34 
REMARK   12  A    between atoms: C_34  and  C_35 
REMARK   13  A    between atoms: C_35  and  C_36 
REMARK   14  A    between atoms: C_36  and  O_38 
REMARK   15  A    between atoms: C_39  and  C_40 
REMARK   16  A    between atoms: C_40  and  C_41 
REMARK   17  A    between atoms: C_41  and  C_42 
REMARK   18  A    between atoms: C_42  and  O_44 
REMARK   19  A    between atoms: C_45  and  C_46 
REMARK   20  A    between atoms: C_46  and  C_47 
REMARK   21  A    between atoms: C_47  and  O_49 
REMARK   22  A    between atoms: C_50  and  C_51 
REMARK   23  A    between atoms: C_51  and  C_52 
REMARK   24  A    between atoms: C_52  and  O_54 
REMARK   25  A    between atoms: C_55  and  C_56 
REMARK   26  A    between atoms: C_56  and  C_57 
REMARK   27  A    between atoms: C_57  and  C_58 
REMARK   28  A    between atoms: C_58  and  O_60 
ROOT
ATOM      1  O   UNK d   0      -7.574  -8.946   1.232  0.00  0.00    -0.650 OA
ATOM      2  C   UNK d   0      -7.298  -8.865   0.015  0.00  0.00     0.139 C 
ENDROOT
BRANCH   2   3
ATOM      3  O   UNK d   0      -6.017  -9.133  -0.405  0.00  0.00    -0.776 OA
ATOM      4  H   UNK d   0      -5.723 -10.087  -0.624  0.00  0.00     0.167 HD
ENDBRANCH   2   3
BRANCH   2   5
ATOM      5  C   UNK d   0      -8.351  -8.480  -0.968  0.00  0.00     0.115 C 
BRANCH   5   6
ATOM      6  C   UNK d   0      -9.711  -8.847  -0.439  0.00  0.00     0.052 C 
BRANCH   6   7
ATOM      7  C   UNK d   0     -10.458  -9.784  -1.358  0.00  0.00    -0.020 A 
ATOM      8  C   UNK d   0     -11.693  -9.675  -1.776  0.00  0.00    -0.011 A 
ATOM      9  C   UNK d   0     -11.974 -10.815  -2.632  0.00  0.00     0.067 A 
ATOM     10  C   UNK d   0     -13.067 -11.269  -3.388  0.00  0.00     0.062 C 
ATOM     11  N   UNK d   0     -10.856 -11.570  -2.675  0.00  0.00    -0.248 NA
ATOM     12  C   UNK d   0     -13.059 -12.255  -4.380  0.00  0.00     0.041 A 
ATOM     13  N   UNK d   0     -12.454 -13.457  -4.431  0.00  0.00    -0.355 N 
ATOM     14  C   UNK d   0     -13.732 -12.008  -5.591  0.00  0.00    -0.022 A 
ATOM     15  C   UNK d   0     -12.719 -13.975  -5.646  0.00  0.00     0.042 A 
ATOM     16  H   UNK d   0     -11.868 -13.938  -3.618  0.00  0.00     0.166 HD
ATOM     17  C   UNK d   0     -12.333 -15.203  -6.219  0.00  0.00     0.062 C 
ATOM     18  C   UNK d   0     -13.518 -13.095  -6.401  0.00  0.00    -0.013 A 
ATOM     19  C   UNK d   0     -11.104 -15.811  -6.208  0.00  0.00     0.067 A 
ATOM     20  N   UNK d   0     -10.181 -15.295  -5.392  0.00  0.00    -0.248 NA
ATOM     21  C   UNK d   0     -10.486 -16.930  -6.900  0.00  0.00    -0.011 A 
ATOM     22  C   UNK d   0      -9.004 -15.995  -5.500  0.00  0.00     0.066 A 
ATOM     23  C   UNK d   0      -7.967 -15.587  -4.675  0.00  0.00     0.062 C 
ATOM     24  C   UNK d   0      -9.256 -17.030  -6.484  0.00  0.00    -0.020 A 
ATOM     25  C   UNK d   0      -7.998 -14.603  -3.675  0.00  0.00     0.041 A 
ATOM     26  N   UNK d   0      -8.587 -13.402  -3.630  0.00  0.00    -0.355 N 
ATOM     27  C   UNK d   0      -7.326 -14.854  -2.459  0.00  0.00    -0.022 A 
ATOM     28  C   UNK d   0      -8.317 -12.879  -2.424  0.00  0.00     0.042 A 
ATOM     29  H   UNK d   0      -9.168 -12.915  -4.452  0.00  0.00     0.166 HD
ATOM     30  C   UNK d   0      -8.687 -11.656  -1.844  0.00  0.00     0.062 C 
ATOM     31  C   UNK d   0      -7.523 -13.769  -1.661  0.00  0.00    -0.013 A 
ATOM     32  C   UNK d   0      -9.907 -11.004  -1.929  0.00  0.00     0.066 A 
BRANCH   8  33
ATOM     33  C   UNK d   0     -12.648  -8.601  -1.447  0.00  0.00     0.151 C 
BRANCH  33  34
ATOM     34  C   UNK d   0     -13.871  -9.105  -0.796  0.00  0.00     0.143 C 
ATOM     35  O   UNK d   0     -14.982  -8.634  -1.079  0.00  0.00    -0.650 OA
BRANCH  34  36
ATOM     36  O   UNK d   0     -13.775 -10.110   0.137  0.00  0.00    -0.776 OA
ATOM     37  H   UNK d   0     -14.608 -10.619   0.463  0.00  0.00     0.167 HD
ENDBRANCH  34  36
ENDBRANCH  33  34
ENDBRANCH   8  33
BRANCH  31  38
ATOM     38  C   UNK d   0      -7.002 -13.591  -0.254  0.00  0.00     0.151 C 
BRANCH  38  39
ATOM     39  C   UNK d   0      -6.049 -12.507  -0.142  0.00  0.00     0.143 C 
ATOM     40  O   UNK d   0      -5.809 -11.941   0.939  0.00  0.00    -0.650 OA
BRANCH  39  41
ATOM     41  O   UNK d   0      -5.367 -12.073  -1.278  0.00  0.00    -0.776 OA
ATOM     42  H   UNK d   0      -5.550 -12.581  -2.149  0.00  0.00     0.167 HD
ENDBRANCH  39  41
ENDBRANCH  38  39
ENDBRANCH  31  38
BRANCH  27  43
ATOM     43  C   UNK d   0      -6.521 -16.058  -2.040  0.00  0.00     0.052 C 
BRANCH  43  44
ATOM     44  C   UNK d   0      -5.081 -15.748  -1.788  0.00  0.00     0.115 C 
BRANCH  44  45
ATOM     45  C   UNK d   0      -4.582 -15.040  -2.995  0.00  0.00     0.139 C 
ATOM     46  O   UNK d   0      -4.034 -13.920  -2.840  0.00  0.00    -0.650 OA
BRANCH  45  47
ATOM     47  O   UNK d   0      -4.691 -15.561  -4.266  0.00  0.00    -0.776 OA
ATOM     48  H   UNK d   0      -5.560 -15.505  -4.822  0.00  0.00     0.167 HD
ENDBRANCH  45  47
ENDBRANCH  44  45
ENDBRANCH  43  44
ENDBRANCH  27  43
BRANCH  24  49
ATOM     49  C   UNK d   0      -8.280 -18.053  -6.896  0.00  0.00     0.052 C 
BRANCH  49  50
ATOM     50  C   UNK d   0      -7.580 -17.630  -8.162  0.00  0.00     0.115 C 
BRANCH  50  51
ATOM     51  C   UNK d   0      -6.679 -16.489  -8.074  0.00  0.00     0.139 C 
ATOM     52  O   UNK d   0      -6.750 -15.508  -8.852  0.00  0.00    -0.650 OA
BRANCH  51  53
ATOM     53  O   UNK d   0      -5.693 -16.466  -7.099  0.00  0.00    -0.776 OA
ATOM     54  H   UNK d   0      -5.953 -16.194  -6.167  0.00  0.00     0.167 HD
ENDBRANCH  51  53
ENDBRANCH  50  51
ENDBRANCH  49  50
ENDBRANCH  24  49
BRANCH  21  55
ATOM     55  C   UNK d   0     -11.190 -17.785  -7.900  0.00  0.00     0.151 C 
BRANCH  55  56
ATOM     56  C   UNK d   0     -11.910 -18.899  -7.264  0.00  0.00     0.143 C 
ATOM     57  O   UNK d   0     -12.993 -18.748  -6.666  0.00  0.00    -0.650 OA
BRANCH  56  58
ATOM     58  O   UNK d   0     -11.342 -20.169  -7.344  0.00  0.00    -0.776 OA
ATOM     59  H   UNK d   0     -10.353 -20.186  -7.653  0.00  0.00     0.167 HD
ENDBRANCH  56  58
ENDBRANCH  55  56
ENDBRANCH  21  55
BRANCH  18  60
ATOM     60  C   UNK d   0     -14.055 -13.247  -7.803  0.00  0.00     0.151 C 
BRANCH  60  61
ATOM     61  C   UNK d   0     -15.026 -14.351  -7.745  0.00  0.00     0.143 C 
ATOM     62  O   UNK d   0     -15.947 -14.488  -6.940  0.00  0.00    -0.650 OA
BRANCH  61  63
ATOM     63  O   UNK d   0     -14.862 -15.349  -8.736  0.00  0.00    -0.776 OA
ATOM     64  H   UNK d   0     -15.657 -15.792  -9.162  0.00  0.00     0.167 HD
ENDBRANCH  61  63
ENDBRANCH  60  61
ENDBRANCH  18  60
BRANCH  14  65
ATOM     65  C   UNK d   0     -14.635 -10.878  -5.998  0.00  0.00     0.052 C 
BRANCH  65  66
ATOM     66  C   UNK d   0     -15.853 -10.772  -5.151  0.00  0.00     0.115 C 
BRANCH  66  67
ATOM     67  C   UNK d   0     -16.243  -9.497  -4.620  0.00  0.00     0.139 C 
ATOM     68  O   UNK d   0     -17.473  -9.137  -4.726  0.00  0.00    -0.650 OA
BRANCH  67  69
ATOM     69  O   UNK d   0     -15.436  -8.557  -3.980  0.00  0.00    -0.776 OA
ATOM     70  H   UNK d   0     -14.472  -8.858  -3.776  0.00  0.00     0.167 HD
ENDBRANCH  67  69
ENDBRANCH  66  67
ENDBRANCH  65  66
ENDBRANCH  14  65
ENDBRANCH   6   7
ENDBRANCH   5   6
ENDBRANCH   2   5
TORSDOF 28
ENDMDL
MODEL 15
REMARK VINA RESULT:      -9.1      1.239      7.945
REMARK  28 active torsions:
REMARK  status: ('A' for Active; 'I' for Inactive)
REMARK    1  A    between atoms: C_2  and  O_3 
REMARK    2  A    between atoms: C_2  and  C_4 
REMARK    3  A    between atoms: C_4  and  C_5 
REMARK    4  A    between atoms: C_5  and  C_6 
REMARK    5  A    between atoms: C_7  and  C_8 
REMARK    6  A    between atoms: C_8  and  C_9 
REMARK    7  A    between atoms: C_9  and  O_11 
REMARK    8  A    between atoms: C_28  and  C_29 
REMARK    9  A    between atoms: C_29  and  C_30 
REMARK   10  A    between atoms: C_30  and  O_32 
REMARK   11  A    between atoms: C_33  and  C_34 
REMARK   12  A    between atoms: C_34  and  C_35 
REMARK   13  A    between atoms: C_35  and  C_36 
REMARK   14  A    between atoms: C_36  and  O_38 
REMARK   15  A    between atoms: C_39  and  C_40 
REMARK   16  A    between atoms: C_40  and  C_41 
REMARK   17  A    between atoms: C_41  and  C_42 
REMARK   18  A    between atoms: C_42  and  O_44 
REMARK   19  A    between atoms: C_45  and  C_46 
REMARK   20  A    between atoms: C_46  and  C_47 
REMARK   21  A    between atoms: C_47  and  O_49 
REMARK   22  A    between atoms: C_50  and  C_51 
REMARK   23  A    between atoms: C_51  and  C_52 
REMARK   24  A    between atoms: C_52  and  O_54 
REMARK   25  A    between atoms: C_55  and  C_56 
REMARK   26  A    between atoms: C_56  and  C_57 
REMARK   27  A    between atoms: C_57  and  C_58 
REMARK   28  A    between atoms: C_58  and  O_60 
ROOT
ATOM      1  O   UNK d   0     -16.701  -7.730  -4.067  0.00  0.00    -0.650 OA
ATOM      2  C   UNK d   0     -16.810  -8.861  -4.593  0.00  0.00     0.139 C 
ENDROOT
BRANCH   2   3
ATOM      3  O   UNK d   0     -18.060  -9.345  -4.896  0.00  0.00    -0.776 OA
ATOM      4  H   UNK d   0     -18.899  -8.790  -4.717  0.00  0.00     0.167 HD
ENDBRANCH   2   3
BRANCH   2   5
ATOM      5  C   UNK d   0     -15.593  -9.670  -4.884  0.00  0.00     0.115 C 
BRANCH   5   6
ATOM      6  C   UNK d   0     -15.231 -10.510  -3.690  0.00  0.00     0.052 C 
BRANCH   6   7
ATOM      7  C   UNK d   0     -13.740 -10.684  -3.532  0.00  0.00    -0.020 A 
ATOM      8  C   UNK d   0     -12.892  -9.848  -2.990  0.00  0.00    -0.011 A 
ATOM      9  C   UNK d   0     -11.568 -10.442  -3.072  0.00  0.00     0.067 A 
ATOM     10  C   UNK d   0     -10.271 -10.085  -2.671  0.00  0.00     0.062 C 
ATOM     11  N   UNK d   0     -11.702 -11.637  -3.684  0.00  0.00    -0.248 NA
ATOM     12  C   UNK d   0      -9.150 -10.918  -2.588  0.00  0.00     0.041 A 
ATOM     13  N   UNK d   0      -8.689 -11.869  -3.423  0.00  0.00    -0.355 N 
ATOM     14  C   UNK d   0      -8.337 -10.854  -1.442  0.00  0.00    -0.022 A 
ATOM     15  C   UNK d   0      -7.610 -12.416  -2.831  0.00  0.00     0.042 A 
ATOM     16  H   UNK d   0      -9.107 -12.136  -4.418  0.00  0.00     0.166 HD
ATOM     17  C   UNK d   0      -6.753 -13.446  -3.268  0.00  0.00     0.062 C 
ATOM     18  C   UNK d   0      -7.358 -11.805  -1.588  0.00  0.00    -0.013 A 
ATOM     19  C   UNK d   0      -7.073 -14.651  -3.837  0.00  0.00     0.067 A 
ATOM     20  N   UNK d   0      -8.341 -14.821  -4.221  0.00  0.00    -0.248 NA
ATOM     21  C   UNK d   0      -6.366 -15.883  -4.145  0.00  0.00    -0.011 A 
ATOM     22  C   UNK d   0      -8.514 -16.074  -4.756  0.00  0.00     0.066 A 
ATOM     23  C   UNK d   0      -9.783 -16.371  -5.232  0.00  0.00     0.062 C 
ATOM     24  C   UNK d   0      -7.215 -16.713  -4.678  0.00  0.00    -0.020 A 
ATOM     25  C   UNK d   0     -10.892 -15.516  -5.317  0.00  0.00     0.041 A 
ATOM     26  N   UNK d   0     -11.358 -14.581  -4.481  0.00  0.00    -0.355 N 
ATOM     27  C   UNK d   0     -11.705 -15.578  -6.470  0.00  0.00    -0.022 A 
ATOM     28  C   UNK d   0     -12.440 -14.040  -5.065  0.00  0.00     0.042 A 
ATOM     29  H   UNK d   0     -10.944 -14.321  -3.476  0.00  0.00     0.166 HD
ATOM     30  C   UNK d   0     -13.307 -13.022  -4.638  0.00  0.00     0.062 C 
ATOM     31  C   UNK d   0     -12.686 -14.647  -6.319  0.00  0.00    -0.013 A 
ATOM     32  C   UNK d   0     -12.985 -11.843  -3.986  0.00  0.00     0.066 A 
BRANCH   8  33
ATOM     33  C   UNK d   0     -13.200  -8.532  -2.400  0.00  0.00     0.151 C 
BRANCH  33  34
ATOM     34  C   UNK d   0     -13.290  -8.573  -0.930  0.00  0.00     0.143 C 
ATOM     35  O   UNK d   0     -14.314  -8.987  -0.366  0.00  0.00    -0.650 OA
BRANCH  34  36
ATOM     36  O   UNK d   0     -12.224  -8.143  -0.175  0.00  0.00    -0.776 OA
ATOM     37  H   UNK d   0     -11.511  -8.802   0.167  0.00  0.00     0.167 HD
ENDBRANCH  34  36
ENDBRANCH  33  34
ENDBRANCH   8  33
BRANCH  31  38
ATOM     38  C   UNK d   0     -13.785 -14.341  -7.310  0.00  0.00     0.151 C 
BRANCH  38  39
ATOM     39  C   UNK d   0     -14.819 -15.354  -7.333  0.00  0.00     0.143 C 
ATOM     40  O   UNK d   0     -15.463 -15.625  -8.362  0.00  0.00    -0.650 OA
BRANCH  39  41
ATOM     41  O   UNK d   0     -15.113 -16.060  -6.167  0.00  0.00    -0.776 OA
ATOM     42  H   UNK d   0     -16.104 -16.226  -5.965  0.00  0.00     0.167 HD
ENDBRANCH  39  41
ENDBRANCH  38  39
ENDBRANCH  31  38
BRANCH  27  43
ATOM     43  C   UNK d   0     -11.585 -16.470  -7.680  0.00  0.00     0.052 C 
BRANCH  43  44
ATOM     44  C   UNK d   0     -11.936 -17.896  -7.400  0.00  0.00     0.115 C 
BRANCH  44  45
ATOM     45  C   UNK d   0     -10.947 -18.728  -8.133  0.00  0.00     0.139 C 
ATOM     46  O   UNK d   0     -10.510 -19.762  -7.569  0.00  0.00    -0.650 OA
BRANCH  45  47
ATOM     47  O   UNK d   0     -10.498 -18.416  -9.398  0.00  0.00    -0.776 OA
ATOM     48  H   UNK d   0      -9.592 -17.953  -9.573  0.00  0.00     0.167 HD
ENDBRANCH  45  47
ENDBRANCH  44  45
ENDBRANCH  43  44
ENDBRANCH  27  43
BRANCH  24  49
ATOM     49  C   UNK d   0      -6.912 -18.066  -5.175  0.00  0.00     0.052 C 
BRANCH  49  50
ATOM     50  C   UNK d   0      -7.473 -18.253  -6.561  0.00  0.00     0.115 C 
BRANCH  50  51
ATOM     51  C   UNK d   0      -7.153 -17.233  -7.551  0.00  0.00     0.139 C 
ATOM     52  O   UNK d   0      -6.017 -16.709  -7.639  0.00  0.00    -0.650 OA
BRANCH  51  53
ATOM     53  O   UNK d   0      -8.129 -16.809  -8.440  0.00  0.00    -0.776 OA
ATOM     54  H   UNK d   0      -9.091 -16.882  -8.160  0.00  0.00     0.167 HD
ENDBRANCH  51  53
ENDBRANCH  50  51
ENDBRANCH  49  50
ENDBRANCH  24  49
BRANCH  21  55
ATOM     55  C   UNK d   0      -4.913 -16.100  -3.877  0.00  0.00     0.151 C 
BRANCH  55  56
ATOM     56  C   UNK d   0      -4.496 -15.518  -2.592  0.00  0.00     0.143 C 
ATOM     57  O   UNK d   0      -4.861 -15.978  -1.493  0.00  0.00    -0.650 OA
BRANCH  56  58
ATOM     58  O   UNK d   0      -3.656 -14.406  -2.626  0.00  0.00    -0.776 OA
ATOM     59  H   UNK d   0      -2.808 -14.482  -2.035  0.00  0.00     0.167 HD
ENDBRANCH  56  58
ENDBRANCH  55  56
ENDBRANCH  21  55
BRANCH  18  60
ATOM     60  C   UNK d   0      -6.270 -12.087  -0.581  0.00  0.00     0.151 C 
BRANCH  60  61
ATOM     61  C   UNK d   0      -6.671 -13.320   0.112  0.00  0.00     0.143 C 
ATOM     62  O   UNK d   0      -7.818 -13.701   0.346  0.00  0.00    -0.650 OA
BRANCH  61  63
ATOM     63  O   UNK d   0      -5.603 -14.142   0.547  0.00  0.00    -0.776 OA
ATOM     64  H   UNK d   0      -5.343 -14.185   1.516  0.00  0.00     0.167 HD
ENDBRANCH  61  63
ENDBRANCH  60  61
ENDBRANCH  18  60
BRANCH  14  65
ATOM     65  C   UNK d   0      -8.357  -9.905  -0.277  0.00  0.00     0.052 C 
BRANCH  65  66
ATOM     66  C   UNK d   0      -7.521  -8.694  -0.499  0.00  0.00     0.115 C 
BRANCH  66  67
ATOM     67  C   UNK d   0      -6.098  -8.770  -0.324  0.00  0.00     0.139 C 
ATOM     68  O   UNK d   0      -5.627  -8.797   0.872  0.00  0.00    -0.650 OA
BRANCH  67  69
ATOM     69  O   UNK d   0      -5.118  -8.820  -1.315  0.00  0.00    -0.776 OA
ATOM     70  H   UNK d   0      -5.435  -8.600  -2.270  0.00  0.00     0.167 HD
ENDBRANCH  67  69
ENDBRANCH  66  67
ENDBRANCH  65  66
ENDBRANCH  14  65
ENDBRANCH   6   7
ENDBRANCH   5   6
ENDBRANCH   2   5
TORSDOF 28
ENDMDL
MODEL 16
REMARK VINA RESULT:      -8.9      1.496      8.363
REMARK  28 active torsions:
REMARK  status: ('A' for Active; 'I' for Inactive)
REMARK    1  A    between atoms: C_2  and  O_3 
REMARK    2  A    between atoms: C_2  and  C_4 
REMARK    3  A    between atoms: C_4  and  C_5 
REMARK    4  A    between atoms: C_5  and  C_6 
REMARK    5  A    between atoms: C_7  and  C_8 
REMARK    6  A    between atoms: C_8  and  C_9 
REMARK    7  A    between atoms: C_9  and  O_11 
REMARK    8  A    between atoms: C_28  and  C_29 
REMARK    9  A    between atoms: C_29  and  C_30 
REMARK   10  A    between atoms: C_30  and  O_32 
REMARK   11  A    between atoms: C_33  and  C_34 
REMARK   12  A    between atoms: C_34  and  C_35 
REMARK   13  A    between atoms: C_35  and  C_36 
REMARK   14  A    between atoms: C_36  and  O_38 
REMARK   15  A    between atoms: C_39  and  C_40 
REMARK   16  A    between atoms: C_40  and  C_41 
REMARK   17  A    between atoms: C_41  and  C_42 
REMARK   18  A    between atoms: C_42  and  O_44 
REMARK   19  A    between atoms: C_45  and  C_46 
REMARK   20  A    between atoms: C_46  and  C_47 
REMARK   21  A    between atoms: C_47  and  O_49 
REMARK   22  A    between atoms: C_50  and  C_51 
REMARK   23  A    between atoms: C_51  and  C_52 
REMARK   24  A    between atoms: C_52  and  O_54 
REMARK   25  A    between atoms: C_55  and  C_56 
REMARK   26  A    between atoms: C_56  and  C_57 
REMARK   27  A    between atoms: C_57  and  C_58 
REMARK   28  A    between atoms: C_58  and  O_60 
ROOT
ATOM      1  O   UNK d   0      -3.941 -14.312  -2.863  0.00  0.00    -0.650 OA
ATOM      2  C   UNK d   0      -4.485 -15.398  -2.563  0.00  0.00     0.139 C 
ENDROOT
BRANCH   2   3
ATOM      3  O   UNK d   0      -4.741 -15.680  -1.242  0.00  0.00    -0.776 OA
ATOM      4  H   UNK d   0      -4.449 -15.042  -0.500  0.00  0.00     0.167 HD
ENDBRANCH   2   3
BRANCH   2   5
ATOM      5  C   UNK d   0      -4.849 -16.373  -3.629  0.00  0.00     0.115 C 
BRANCH   5   6
ATOM      6  C   UNK d   0      -6.080 -17.140  -3.232  0.00  0.00     0.052 C 
BRANCH   6   7
ATOM      7  C   UNK d   0      -7.313 -16.686  -3.976  0.00  0.00    -0.020 A 
ATOM      8  C   UNK d   0      -7.913 -17.290  -4.970  0.00  0.00    -0.011 A 
ATOM      9  C   UNK d   0      -9.049 -16.475  -5.366  0.00  0.00     0.067 A 
ATOM     10  C   UNK d   0     -10.076 -16.564  -6.318  0.00  0.00     0.062 C 
ATOM     11  N   UNK d   0      -9.062 -15.389  -4.564  0.00  0.00    -0.248 NA
ATOM     12  C   UNK d   0     -11.253 -15.809  -6.368  0.00  0.00     0.041 A 
ATOM     13  N   UNK d   0     -11.473 -14.495  -6.173  0.00  0.00    -0.355 N 
ATOM     14  C   UNK d   0     -12.474 -16.467  -6.604  0.00  0.00    -0.022 A 
ATOM     15  C   UNK d   0     -12.802 -14.303  -6.271  0.00  0.00     0.042 A 
ATOM     16  H   UNK d   0     -10.701 -13.715  -5.989  0.00  0.00     0.166 HD
ATOM     17  C   UNK d   0     -13.566 -13.125  -6.153  0.00  0.00     0.062 C 
ATOM     18  C   UNK d   0     -13.463 -15.517  -6.540  0.00  0.00    -0.013 A 
ATOM     19  C   UNK d   0     -13.473 -12.127  -5.217  0.00  0.00     0.067 A 
ATOM     20  N   UNK d   0     -12.404 -12.146  -4.417  0.00  0.00    -0.248 NA
ATOM     21  C   UNK d   0     -14.282 -10.985  -4.824  0.00  0.00    -0.011 A 
ATOM     22  C   UNK d   0     -12.456 -11.100  -3.528  0.00  0.00     0.066 A 
ATOM     23  C   UNK d   0     -11.383 -10.978  -2.657  0.00  0.00     0.062 C 
ATOM     24  C   UNK d   0     -13.684 -10.391  -3.832  0.00  0.00    -0.020 A 
ATOM     25  C   UNK d   0     -10.204 -11.738  -2.633  0.00  0.00     0.041 A 
ATOM     26  N   UNK d   0      -9.988 -13.047  -2.812  0.00  0.00    -0.355 N 
ATOM     27  C   UNK d   0      -8.979 -11.076  -2.400  0.00  0.00    -0.022 A 
ATOM     28  C   UNK d   0      -8.664 -13.242  -2.705  0.00  0.00     0.042 A 
ATOM     29  H   UNK d   0     -10.765 -13.831  -2.986  0.00  0.00     0.166 HD
ATOM     30  C   UNK d   0      -7.892 -14.409  -2.811  0.00  0.00     0.062 C 
ATOM     31  C   UNK d   0      -7.999 -12.020  -2.445  0.00  0.00    -0.013 A 
ATOM     32  C   UNK d   0      -8.043 -15.457  -3.706  0.00  0.00     0.066 A 
BRANCH   8  33
ATOM     33  C   UNK d   0      -7.522 -18.567  -5.595  0.00  0.00     0.151 C 
BRANCH  33  34
ATOM     34  C   UNK d   0      -7.646 -18.545  -7.064  0.00  0.00     0.143 C 
ATOM     35  O   UNK d   0      -8.395 -19.338  -7.651  0.00  0.00    -0.650 OA
BRANCH  34  36
ATOM     36  O   UNK d   0      -6.916 -17.631  -7.789  0.00  0.00    -0.776 OA
ATOM     37  H   UNK d   0      -6.493 -16.808  -7.339  0.00  0.00     0.167 HD
ENDBRANCH  34  36
ENDBRANCH  33  34
ENDBRANCH   8  33
BRANCH  31  38
ATOM     38  C   UNK d   0      -6.518 -11.777  -2.266  0.00  0.00     0.151 C 
BRANCH  38  39
ATOM     39  C   UNK d   0      -6.078 -11.978  -0.902  0.00  0.00     0.143 C 
ATOM     40  O   UNK d   0      -5.981 -13.109  -0.393  0.00  0.00    -0.650 OA
BRANCH  39  41
ATOM     41  O   UNK d   0      -5.746 -10.874  -0.118  0.00  0.00    -0.776 OA
ATOM     42  H   UNK d   0      -5.106 -11.039   0.665  0.00  0.00     0.167 HD
ENDBRANCH  39  41
ENDBRANCH  38  39
ENDBRANCH  31  38
BRANCH  27  43
ATOM     43  C   UNK d   0      -8.713  -9.615  -2.141  0.00  0.00     0.052 C 
BRANCH  43  44
ATOM     44  C   UNK d   0      -8.846  -9.236  -0.702  0.00  0.00     0.115 C 
BRANCH  44  45
ATOM     45  C   UNK d   0      -7.555  -8.616  -0.305  0.00  0.00     0.139 C 
ATOM     46  O   UNK d   0      -7.269  -8.575   0.917  0.00  0.00    -0.650 OA
BRANCH  45  47
ATOM     47  O   UNK d   0      -6.664  -8.095  -1.218  0.00  0.00    -0.776 OA
ATOM     48  H   UNK d   0      -5.775  -8.561  -1.463  0.00  0.00     0.167 HD
ENDBRANCH  45  47
ENDBRANCH  44  45
ENDBRANCH  43  44
ENDBRANCH  27  43
BRANCH  24  49
ATOM     49  C   UNK d   0     -14.139  -9.167  -3.151  0.00  0.00     0.052 C 
BRANCH  49  50
ATOM     50  C   UNK d   0     -15.152  -9.505  -2.087  0.00  0.00     0.115 C 
BRANCH  50  51
ATOM     51  C   UNK d   0     -16.249  -8.566  -1.892  0.00  0.00     0.139 C 
ATOM     52  O   UNK d   0     -16.066  -7.336  -1.733  0.00  0.00    -0.650 OA
BRANCH  51  53
ATOM     53  O   UNK d   0     -17.555  -9.031  -1.877  0.00  0.00    -0.776 OA
ATOM     54  H   UNK d   0     -17.917  -9.403  -1.016  0.00  0.00     0.167 HD
ENDBRANCH  51  53
ENDBRANCH  50  51
ENDBRANCH  49  50
ENDBRANCH  24  49
BRANCH  21  55
ATOM     55  C   UNK d   0     -15.566 -10.605  -5.483  0.00  0.00     0.151 C 
BRANCH  55  56
ATOM     56  C   UNK d   0     -15.407  -9.444  -6.373  0.00  0.00     0.143 C 
ATOM     57  O   UNK d   0     -16.239  -8.517  -6.428  0.00  0.00    -0.650 OA
BRANCH  56  58
ATOM     58  O   UNK d   0     -14.272  -9.397  -7.181  0.00  0.00    -0.776 OA
ATOM     59  H   UNK d   0     -13.443  -8.957  -6.742  0.00  0.00     0.167 HD
ENDBRANCH  56  58
ENDBRANCH  55  56
ENDBRANCH  21  55
BRANCH  18  60
ATOM     60  C   UNK d   0     -14.936 -15.788  -6.727  0.00  0.00     0.151 C 
BRANCH  60  61
ATOM     61  C   UNK d   0     -15.145 -15.900  -8.178  0.00  0.00     0.143 C 
ATOM     62  O   UNK d   0     -15.866 -16.708  -8.764  0.00  0.00    -0.650 OA
BRANCH  61  63
ATOM     63  O   UNK d   0     -14.428 -14.966  -8.964  0.00  0.00    -0.776 OA
ATOM     64  H   UNK d   0     -13.897 -15.261  -9.765  0.00  0.00     0.167 HD
ENDBRANCH  61  63
ENDBRANCH  60  61
ENDBRANCH  18  60
BRANCH  14  65
ATOM     65  C   UNK d   0     -12.764 -17.893  -6.978  0.00  0.00     0.052 C 
BRANCH  65  66
ATOM     66  C   UNK d   0     -11.696 -18.502  -7.815  0.00  0.00     0.115 C 
BRANCH  66  67
ATOM     67  C   UNK d   0     -12.017 -19.588  -8.698  0.00  0.00     0.139 C 
ATOM     68  O   UNK d   0     -12.030 -20.783  -8.223  0.00  0.00    -0.650 OA
BRANCH  67  69
ATOM     69  O   UNK d   0     -12.330 -19.521 -10.056  0.00  0.00    -0.776 OA
ATOM     70  H   UNK d   0     -13.333 -19.464 -10.282  0.00  0.00     0.167 HD
ENDBRANCH  67  69
ENDBRANCH  66  67
ENDBRANCH  65  66
ENDBRANCH  14  65
ENDBRANCH   6   7
ENDBRANCH   5   6
ENDBRANCH   2   5
TORSDOF 28
ENDMDL
MODEL 17
REMARK VINA RESULT:      -8.7      1.450      7.552
REMARK  28 active torsions:
REMARK  status: ('A' for Active; 'I' for Inactive)
REMARK    1  A    between atoms: C_2  and  O_3 
REMARK    2  A    between atoms: C_2  and  C_4 
REMARK    3  A    between atoms: C_4  and  C_5 
REMARK    4  A    between atoms: C_5  and  C_6 
REMARK    5  A    between atoms: C_7  and  C_8 
REMARK    6  A    between atoms: C_8  and  C_9 
REMARK    7  A    between atoms: C_9  and  O_11 
REMARK    8  A    between atoms: C_28  and  C_29 
REMARK    9  A    between atoms: C_29  and  C_30 
REMARK   10  A    between atoms: C_30  and  O_32 
REMARK   11  A    between atoms: C_33  and  C_34 
REMARK   12  A    between atoms: C_34  and  C_35 
REMARK   13  A    between atoms: C_35  and  C_36 
REMARK   14  A    between atoms: C_36  and  O_38 
REMARK   15  A    between atoms: C_39  and  C_40 
REMARK   16  A    between atoms: C_40  and  C_41 
REMARK   17  A    between atoms: C_41  and  C_42 
REMARK   18  A    between atoms: C_42  and  O_44 
REMARK   19  A    between atoms: C_45  and  C_46 
REMARK   20  A    between atoms: C_46  and  C_47 
REMARK   21  A    between atoms: C_47  and  O_49 
REMARK   22  A    between atoms: C_50  and  C_51 
REMARK   23  A    between atoms: C_51  and  C_52 
REMARK   24  A    between atoms: C_52  and  O_54 
REMARK   25  A    between atoms: C_55  and  C_56 
REMARK   26  A    between atoms: C_56  and  C_57 
REMARK   27  A    between atoms: C_57  and  C_58 
REMARK   28  A    between atoms: C_58  and  O_60 
ROOT
ATOM      1  O   UNK d   0     -12.211  -8.197  -0.617  0.00  0.00    -0.650 OA
ATOM      2  C   UNK d   0     -13.330  -8.660  -0.932  0.00  0.00     0.139 C 
ENDROOT
BRANCH   2   3
ATOM      3  O   UNK d   0     -13.873  -9.677  -0.185  0.00  0.00    -0.776 OA
ATOM      4  H   UNK d   0     -14.703 -10.182  -0.504  0.00  0.00     0.167 HD
ENDBRANCH   2   3
BRANCH   2   5
ATOM      5  C   UNK d   0     -14.062  -8.111  -2.108  0.00  0.00     0.115 C 
BRANCH   5   6
ATOM      6  C   UNK d   0     -13.230  -8.260  -3.353  0.00  0.00     0.052 C 
BRANCH   6   7
ATOM      7  C   UNK d   0     -12.996  -9.705  -3.725  0.00  0.00    -0.020 A 
ATOM      8  C   UNK d   0     -13.861 -10.551  -4.223  0.00  0.00    -0.011 A 
ATOM      9  C   UNK d   0     -13.182 -11.823  -4.409  0.00  0.00     0.067 A 
ATOM     10  C   UNK d   0     -13.525 -13.090  -4.906  0.00  0.00     0.062 C 
ATOM     11  N   UNK d   0     -11.909 -11.662  -3.993  0.00  0.00    -0.248 NA
ATOM     12  C   UNK d   0     -12.653 -14.123  -5.268  0.00  0.00     0.041 A 
ATOM     13  N   UNK d   0     -11.544 -14.597  -4.669  0.00  0.00    -0.355 N 
ATOM     14  C   UNK d   0     -12.868 -14.802  -6.481  0.00  0.00    -0.022 A 
ATOM     15  C   UNK d   0     -11.045 -15.553  -5.475  0.00  0.00     0.042 A 
ATOM     16  H   UNK d   0     -11.132 -14.275  -3.687  0.00  0.00     0.166 HD
ATOM     17  C   UNK d   0      -9.905 -16.368  -5.329  0.00  0.00     0.062 C 
ATOM     18  C   UNK d   0     -11.849 -15.710  -6.621  0.00  0.00    -0.013 A 
ATOM     19  C   UNK d   0      -8.639 -16.016  -4.933  0.00  0.00     0.067 A 
ATOM     20  N   UNK d   0      -8.483 -14.791  -4.425  0.00  0.00    -0.248 NA
ATOM     21  C   UNK d   0      -7.332 -16.652  -4.928  0.00  0.00    -0.011 A 
ATOM     22  C   UNK d   0      -7.168 -14.579  -4.090  0.00  0.00     0.066 A 
ATOM     23  C   UNK d   0      -6.869 -13.353  -3.513  0.00  0.00     0.062 C 
ATOM     24  C   UNK d   0      -6.475 -15.804  -4.437  0.00  0.00    -0.020 A 
ATOM     25  C   UNK d   0      -7.762 -12.335  -3.146  0.00  0.00     0.041 A 
ATOM     26  N   UNK d   0      -8.856 -11.853  -3.749  0.00  0.00    -0.355 N 
ATOM     27  C   UNK d   0      -7.548 -11.657  -1.926  0.00  0.00    -0.022 A 
ATOM     28  C   UNK d   0      -9.350 -10.893  -2.951  0.00  0.00     0.042 A 
ATOM     29  H   UNK d   0      -9.262 -12.170  -4.740  0.00  0.00     0.166 HD
ATOM     30  C   UNK d   0     -10.478 -10.069  -3.089  0.00  0.00     0.062 C 
ATOM     31  C   UNK d   0      -8.548 -10.743  -1.795  0.00  0.00    -0.013 A 
ATOM     32  C   UNK d   0     -11.732 -10.410  -3.570  0.00  0.00     0.066 A 
BRANCH   8  33
ATOM     33  C   UNK d   0     -15.276 -10.286  -4.540  0.00  0.00     0.151 C 
BRANCH  33  34
ATOM     34  C   UNK d   0     -15.474  -9.832  -5.929  0.00  0.00     0.143 C 
ATOM     35  O   UNK d   0     -14.506  -9.558  -6.653  0.00  0.00    -0.650 OA
BRANCH  34  36
ATOM     36  O   UNK d   0     -16.752  -9.711  -6.424  0.00  0.00    -0.776 OA
ATOM     37  H   UNK d   0     -17.239 -10.513  -6.847  0.00  0.00     0.167 HD
ENDBRANCH  34  36
ENDBRANCH  33  34
ENDBRANCH   8  33
BRANCH  31  38
ATOM     38  C   UNK d   0      -8.741  -9.794  -0.636  0.00  0.00     0.151 C 
BRANCH  38  39
ATOM     39  C   UNK d   0      -7.579  -8.969  -0.386  0.00  0.00     0.143 C 
ATOM     40  O   UNK d   0      -7.054  -8.880   0.738  0.00  0.00    -0.650 OA
BRANCH  39  41
ATOM     41  O   UNK d   0      -7.015  -8.242  -1.434  0.00  0.00    -0.776 OA
ATOM     42  H   UNK d   0      -6.148  -7.734  -1.230  0.00  0.00     0.167 HD
ENDBRANCH  39  41
ENDBRANCH  38  39
ENDBRANCH  31  38
BRANCH  27  43
ATOM     43  C   UNK d   0      -6.451 -11.840  -0.908  0.00  0.00     0.052 C 
BRANCH  43  44
ATOM     44  C   UNK d   0      -6.833 -12.750   0.214  0.00  0.00     0.115 C 
BRANCH  44  45
ATOM     45  C   UNK d   0      -5.877 -12.484   1.321  0.00  0.00     0.139 C 
ATOM     46  O   UNK d   0      -4.900 -13.260   1.458  0.00  0.00    -0.650 OA
BRANCH  45  47
ATOM     47  O   UNK d   0      -6.018 -11.424   2.191  0.00  0.00    -0.776 OA
ATOM     48  H   UNK d   0      -5.232 -10.809   2.456  0.00  0.00     0.167 HD
ENDBRANCH  45  47
ENDBRANCH  44  45
ENDBRANCH  43  44
ENDBRANCH  27  43
BRANCH  24  49
ATOM     49  C   UNK d   0      -5.040 -16.050  -4.216  0.00  0.00     0.052 C 
BRANCH  49  50
ATOM     50  C   UNK d   0      -4.566 -15.319  -2.986  0.00  0.00     0.115 C 
BRANCH  50  51
ATOM     51  C   UNK d   0      -4.459 -16.089  -1.754  0.00  0.00     0.139 C 
ATOM     52  O   UNK d   0      -3.859 -17.187  -1.693  0.00  0.00    -0.650 OA
BRANCH  51  53
ATOM     53  O   UNK d   0      -5.040 -15.607  -0.591  0.00  0.00    -0.776 OA
ATOM     54  H   UNK d   0      -5.750 -14.900  -0.672  0.00  0.00     0.167 HD
ENDBRANCH  51  53
ENDBRANCH  50  51
ENDBRANCH  49  50
ENDBRANCH  24  49
BRANCH  21  55
ATOM     55  C   UNK d   0      -7.078 -18.042  -5.409  0.00  0.00     0.151 C 
BRANCH  55  56
ATOM     56  C   UNK d   0      -7.386 -18.195  -6.840  0.00  0.00     0.143 C 
ATOM     57  O   UNK d   0      -6.877 -17.475  -7.721  0.00  0.00    -0.650 OA
BRANCH  56  58
ATOM     58  O   UNK d   0      -8.287 -19.193  -7.206  0.00  0.00    -0.776 OA
ATOM     59  H   UNK d   0      -9.271 -18.881  -7.296  0.00  0.00     0.167 HD
ENDBRANCH  56  58
ENDBRANCH  55  56
ENDBRANCH  21  55
BRANCH  18  60
ATOM     60  C   UNK d   0     -11.683 -16.649  -7.790  0.00  0.00     0.151 C 
BRANCH  60  61
ATOM     61  C   UNK d   0     -12.099 -17.974  -7.305  0.00  0.00     0.143 C 
ATOM     62  O   UNK d   0     -13.183 -18.275  -6.806  0.00  0.00    -0.650 OA
BRANCH  61  63
ATOM     63  O   UNK d   0     -11.129 -18.997  -7.440  0.00  0.00    -0.776 OA
ATOM     64  H   UNK d   0     -10.358 -19.068  -6.800  0.00  0.00     0.167 HD
ENDBRANCH  61  63
ENDBRANCH  60  61
ENDBRANCH  18  60
BRANCH  14  65
ATOM     65  C   UNK d   0     -14.006 -14.726  -7.459  0.00  0.00     0.052 C 
BRANCH  65  66
ATOM     66  C   UNK d   0     -15.221 -15.448  -6.994  0.00  0.00     0.115 C 
BRANCH  66  67
ATOM     67  C   UNK d   0     -15.850 -16.410  -7.855  0.00  0.00     0.139 C 
ATOM     68  O   UNK d   0     -17.116 -16.602  -7.738  0.00  0.00    -0.650 OA
BRANCH  67  69
ATOM     69  O   UNK d   0     -15.251 -17.194  -8.840  0.00  0.00    -0.776 OA
ATOM     70  H   UNK d   0     -14.336 -17.599  -8.595  0.00  0.00     0.167 HD
ENDBRANCH  67  69
ENDBRANCH  66  67
ENDBRANCH  65  66
ENDBRANCH  14  65
ENDBRANCH   6   7
ENDBRANCH   5   6
ENDBRANCH   2   5
TORSDOF 28
ENDMDL
MODEL 18
REMARK VINA RESULT:      -8.6      2.102     10.488
REMARK  28 active torsions:
REMARK  status: ('A' for Active; 'I' for Inactive)
REMARK    1  A    between atoms: C_2  and  O_3 
REMARK    2  A    between atoms: C_2  and  C_4 
REMARK    3  A    between atoms: C_4  and  C_5 
REMARK    4  A    between atoms: C_5  and  C_6 
REMARK    5  A    between atoms: C_7  and  C_8 
REMARK    6  A    between atoms: C_8  and  C_9 
REMARK    7  A    between atoms: C_9  and  O_11 
REMARK    8  A    between atoms: C_28  and  C_29 
REMARK    9  A    between atoms: C_29  and  C_30 
REMARK   10  A    between atoms: C_30  and  O_32 
REMARK   11  A    between atoms: C_33  and  C_34 
REMARK   12  A    between atoms: C_34  and  C_35 
REMARK   13  A    between atoms: C_35  and  C_36 
REMARK   14  A    between atoms: C_36  and  O_38 
REMARK   15  A    between atoms: C_39  and  C_40 
REMARK   16  A    between atoms: C_40  and  C_41 
REMARK   17  A    between atoms: C_41  and  C_42 
REMARK   18  A    between atoms: C_42  and  O_44 
REMARK   19  A    between atoms: C_45  and  C_46 
REMARK   20  A    between atoms: C_46  and  C_47 
REMARK   21  A    between atoms: C_47  and  O_49 
REMARK   22  A    between atoms: C_50  and  C_51 
REMARK   23  A    between atoms: C_51  and  C_52 
REMARK   24  A    between atoms: C_52  and  O_54 
REMARK   25  A    between atoms: C_55  and  C_56 
REMARK   26  A    between atoms: C_56  and  C_57 
REMARK   27  A    between atoms: C_57  and  C_58 
REMARK   28  A    between atoms: C_58  and  O_60 
ROOT
ATOM      1  O   UNK d   0     -11.855  -9.553  -0.232  0.00  0.00    -0.650 OA
ATOM      2  C   UNK d   0     -11.063  -8.589  -0.143  0.00  0.00     0.139 C 
ENDROOT
BRANCH   2   3
ATOM      3  O   UNK d   0     -11.445  -7.465   0.549  0.00  0.00    -0.776 OA
ATOM      4  H   UNK d   0     -11.434  -7.446   1.571  0.00  0.00     0.167 HD
ENDBRANCH   2   3
BRANCH   2   5
ATOM      5  C   UNK d   0      -9.719  -8.662  -0.785  0.00  0.00     0.115 C 
BRANCH   5   6
ATOM      6  C   UNK d   0      -8.914  -9.777  -0.175  0.00  0.00     0.052 C 
BRANCH   6   7
ATOM      7  C   UNK d   0      -8.449 -10.785  -1.198  0.00  0.00    -0.020 A 
ATOM      8  C   UNK d   0      -7.220 -11.155  -1.452  0.00  0.00    -0.011 A 
ATOM      9  C   UNK d   0      -7.264 -12.139  -2.520  0.00  0.00     0.067 A 
ATOM     10  C   UNK d   0      -6.328 -12.917  -3.220  0.00  0.00     0.062 C 
ATOM     11  N   UNK d   0      -8.559 -12.304  -2.861  0.00  0.00    -0.248 NA
ATOM     12  C   UNK d   0      -6.586 -14.025  -4.035  0.00  0.00     0.041 A 
ATOM     13  N   UNK d   0      -7.540 -14.241  -4.961  0.00  0.00    -0.355 N 
ATOM     14  C   UNK d   0      -5.792 -15.177  -3.889  0.00  0.00    -0.022 A 
ATOM     15  C   UNK d   0      -7.376 -15.503  -5.400  0.00  0.00     0.042 A 
ATOM     16  H   UNK d   0      -8.301 -13.509  -5.311  0.00  0.00     0.166 HD
ATOM     17  C   UNK d   0      -8.097 -16.234  -6.365  0.00  0.00     0.062 C 
ATOM     18  C   UNK d   0      -6.291 -16.122  -4.751  0.00  0.00    -0.013 A 
ATOM     19  C   UNK d   0      -9.455 -16.331  -6.537  0.00  0.00     0.067 A 
ATOM     20  N   UNK d   0     -10.214 -15.480  -5.842  0.00  0.00    -0.248 NA
ATOM     21  C   UNK d   0     -10.353 -17.172  -7.311  0.00  0.00    -0.011 A 
ATOM     22  C   UNK d   0     -11.544 -15.705  -6.104  0.00  0.00     0.066 A 
ATOM     23  C   UNK d   0     -12.447 -14.863  -5.473  0.00  0.00     0.062 C 
ATOM     24  C   UNK d   0     -11.574 -16.804  -7.049  0.00  0.00    -0.020 A 
ATOM     25  C   UNK d   0     -12.167 -13.748  -4.668  0.00  0.00     0.041 A 
ATOM     26  N   UNK d   0     -11.228 -13.538  -3.737  0.00  0.00    -0.355 N 
ATOM     27  C   UNK d   0     -12.961 -12.590  -4.819  0.00  0.00    -0.022 A 
ATOM     28  C   UNK d   0     -11.395 -12.283  -3.291  0.00  0.00     0.042 A 
ATOM     29  H   UNK d   0     -10.471 -14.278  -3.379  0.00  0.00     0.166 HD
ATOM     30  C   UNK d   0     -10.691 -11.546  -2.326  0.00  0.00     0.062 C 
ATOM     31  C   UNK d   0     -12.479 -11.658  -3.951  0.00  0.00    -0.013 A 
ATOM     32  C   UNK d   0      -9.323 -11.518  -2.101  0.00  0.00     0.066 A 
BRANCH   8  33
ATOM     33  C   UNK d   0      -5.995 -10.670  -0.790  0.00  0.00     0.151 C 
BRANCH  33  34
ATOM     34  C   UNK d   0      -5.866  -9.202  -0.833  0.00  0.00     0.143 C 
ATOM     35  O   UNK d   0      -5.446  -8.571   0.147  0.00  0.00    -0.650 OA
BRANCH  34  36
ATOM     36  O   UNK d   0      -6.219  -8.527  -1.978  0.00  0.00    -0.776 OA
ATOM     37  H   UNK d   0      -6.619  -9.020  -2.788  0.00  0.00     0.167 HD
ENDBRANCH  34  36
ENDBRANCH  33  34
ENDBRANCH   8  33
BRANCH  31  38
ATOM     38  C   UNK d   0     -13.006 -10.254  -3.768  0.00  0.00     0.151 C 
BRANCH  38  39
ATOM     39  C   UNK d   0     -14.183 -10.201  -2.928  0.00  0.00     0.143 C 
ATOM     40  O   UNK d   0     -15.243  -9.669  -3.301  0.00  0.00    -0.650 OA
BRANCH  39  41
ATOM     41  O   UNK d   0     -14.142 -10.764  -1.653  0.00  0.00    -0.776 OA
ATOM     42  H   UNK d   0     -15.041 -10.904  -1.181  0.00  0.00     0.167 HD
ENDBRANCH  39  41
ENDBRANCH  38  39
ENDBRANCH  31  38
BRANCH  27  43
ATOM     43  C   UNK d   0     -14.135 -12.345  -5.734  0.00  0.00     0.052 C 
BRANCH  43  44
ATOM     44  C   UNK d   0     -13.733 -11.907  -7.105  0.00  0.00     0.115 C 
BRANCH  44  45
ATOM     45  C   UNK d   0     -14.105 -10.473  -7.218  0.00  0.00     0.139 C 
ATOM     46  O   UNK d   0     -13.603  -9.804  -8.156  0.00  0.00    -0.650 OA
BRANCH  45  47
ATOM     47  O   UNK d   0     -14.974  -9.855  -6.346  0.00  0.00    -0.776 OA
ATOM     48  H   UNK d   0     -15.557  -9.046  -6.615  0.00  0.00     0.167 HD
ENDBRANCH  45  47
ENDBRANCH  44  45
ENDBRANCH  43  44
ENDBRANCH  27  43
BRANCH  24  49
ATOM     49  C   UNK d   0     -12.797 -17.365  -7.647  0.00  0.00     0.052 C 
BRANCH  49  50
ATOM     50  C   UNK d   0     -13.374 -18.434  -6.755  0.00  0.00     0.115 C 
BRANCH  50  51
ATOM     51  C   UNK d   0     -14.694 -18.188  -6.191  0.00  0.00     0.139 C 
ATOM     52  O   UNK d   0     -15.072 -17.050  -5.827  0.00  0.00    -0.650 OA
BRANCH  51  53
ATOM     53  O   UNK d   0     -15.583 -19.242  -6.039  0.00  0.00    -0.776 OA
ATOM     54  H   UNK d   0     -16.558 -19.068  -6.203  0.00  0.00     0.167 HD
ENDBRANCH  51  53
ENDBRANCH  50  51
ENDBRANCH  49  50
ENDBRANCH  24  49
BRANCH  21  55
ATOM     55  C   UNK d   0      -9.896 -18.253  -8.233  0.00  0.00     0.151 C 
BRANCH  55  56
ATOM     56  C   UNK d   0      -9.516 -19.474  -7.507  0.00  0.00     0.143 C 
ATOM     57  O   UNK d   0     -10.312 -20.411  -7.299  0.00  0.00    -0.650 OA
BRANCH  56  58
ATOM     58  O   UNK d   0      -8.207 -19.571  -7.039  0.00  0.00    -0.776 OA
ATOM     59  H   UNK d   0      -8.062 -20.270  -6.290  0.00  0.00     0.167 HD
ENDBRANCH  56  58
ENDBRANCH  55  56
ENDBRANCH  21  55
BRANCH  18  60
ATOM     60  C   UNK d   0      -5.742 -17.517  -4.915  0.00  0.00     0.151 C 
BRANCH  60  61
ATOM     61  C   UNK d   0      -6.607 -18.390  -4.107  0.00  0.00     0.143 C 
ATOM     62  O   UNK d   0      -6.542 -19.615  -4.010  0.00  0.00    -0.650 OA
BRANCH  61  63
ATOM     63  O   UNK d   0      -7.615 -17.722  -3.370  0.00  0.00    -0.776 OA
ATOM     64  H   UNK d   0      -8.588 -17.877  -3.565  0.00  0.00     0.167 HD
ENDBRANCH  61  63
ENDBRANCH  60  61
ENDBRANCH  18  60
BRANCH  14  65
ATOM     65  C   UNK d   0      -4.552 -15.417  -3.076  0.00  0.00     0.052 C 
BRANCH  65  66
ATOM     66  C   UNK d   0      -4.838 -15.971  -1.726  0.00  0.00     0.115 C 
BRANCH  66  67
ATOM     67  C   UNK d   0      -5.510 -15.159  -0.751  0.00  0.00     0.139 C 
ATOM     68  O   UNK d   0      -6.745 -15.406  -0.493  0.00  0.00    -0.650 OA
BRANCH  67  69
ATOM     69  O   UNK d   0      -4.984 -14.096  -0.018  0.00  0.00    -0.776 OA
ATOM     70  H   UNK d   0      -4.738 -14.305   0.961  0.00  0.00     0.167 HD
ENDBRANCH  67  69
ENDBRANCH  66  67
ENDBRANCH  65  66
ENDBRANCH  14  65
ENDBRANCH   6   7
ENDBRANCH   5   6
ENDBRANCH   2   5
TORSDOF 28
ENDMDL
MODEL 19
REMARK VINA RESULT:      -8.5      1.565     10.117
REMARK  28 active torsions:
REMARK  status: ('A' for Active; 'I' for Inactive)
REMARK    1  A    between atoms: C_2  and  O_3 
REMARK    2  A    between atoms: C_2  and  C_4 
REMARK    3  A    between atoms: C_4  and  C_5 
REMARK    4  A    between atoms: C_5  and  C_6 
REMARK    5  A    between atoms: C_7  and  C_8 
REMARK    6  A    between atoms: C_8  and  C_9 
REMARK    7  A    between atoms: C_9  and  O_11 
REMARK    8  A    between atoms: C_28  and  C_29 
REMARK    9  A    between atoms: C_29  and  C_30 
REMARK   10  A    between atoms: C_30  and  O_32 
REMARK   11  A    between atoms: C_33  and  C_34 
REMARK   12  A    between atoms: C_34  and  C_35 
REMARK   13  A    between atoms: C_35  and  C_36 
REMARK   14  A    between atoms: C_36  and  O_38 
REMARK   15  A    between atoms: C_39  and  C_40 
REMARK   16  A    between atoms: C_40  and  C_41 
REMARK   17  A    between atoms: C_41  and  C_42 
REMARK   18  A    between atoms: C_42  and  O_44 
REMARK   19  A    between atoms: C_45  and  C_46 
REMARK   20  A    between atoms: C_46  and  C_47 
REMARK   21  A    between atoms: C_47  and  O_49 
REMARK   22  A    between atoms: C_50  and  C_51 
REMARK   23  A    between atoms: C_51  and  C_52 
REMARK   24  A    between atoms: C_52  and  O_54 
REMARK   25  A    between atoms: C_55  and  C_56 
REMARK   26  A    between atoms: C_56  and  C_57 
REMARK   27  A    between atoms: C_57  and  C_58 
REMARK   28  A    between atoms: C_58  and  O_60 
ROOT
ATOM      1  O   UNK d   0     -14.427  -9.669  -0.199  0.00  0.00    -0.650 OA
ATOM      2  C   UNK d   0     -14.429  -8.741  -1.038  0.00  0.00     0.139 C 
ENDROOT
BRANCH   2   3
ATOM      3  O   UNK d   0     -15.621  -8.156  -1.392  0.00  0.00    -0.776 OA
ATOM      4  H   UNK d   0     -15.872  -7.224  -1.054  0.00  0.00     0.167 HD
ENDBRANCH   2   3
BRANCH   2   5
ATOM      5  C   UNK d   0     -13.149  -8.280  -1.647  0.00  0.00     0.115 C 
BRANCH   5   6
ATOM      6  C   UNK d   0     -11.999  -8.583  -0.727  0.00  0.00     0.052 C 
BRANCH   6   7
ATOM      7  C   UNK d   0     -11.063  -9.626  -1.290  0.00  0.00    -0.020 A 
ATOM      8  C   UNK d   0      -9.809  -9.826  -0.976  0.00  0.00    -0.011 A 
ATOM      9  C   UNK d   0      -9.319 -10.931  -1.783  0.00  0.00     0.067 A 
ATOM     10  C   UNK d   0      -8.110 -11.633  -1.912  0.00  0.00     0.062 C 
ATOM     11  N   UNK d   0     -10.340 -11.340  -2.565  0.00  0.00    -0.248 NA
ATOM     12  C   UNK d   0      -7.907 -12.861  -2.551  0.00  0.00     0.041 A 
ATOM     13  N   UNK d   0      -8.373 -13.339  -3.720  0.00  0.00    -0.355 N 
ATOM     14  C   UNK d   0      -7.138 -13.846  -1.905  0.00  0.00    -0.022 A 
ATOM     15  C   UNK d   0      -7.927 -14.605  -3.829  0.00  0.00     0.042 A 
ATOM     16  H   UNK d   0      -8.990 -12.786  -4.463  0.00  0.00     0.166 HD
ATOM     17  C   UNK d   0      -8.118 -15.556  -4.850  0.00  0.00     0.062 C 
ATOM     18  C   UNK d   0      -7.149 -14.958  -2.709  0.00  0.00    -0.013 A 
ATOM     19  C   UNK d   0      -9.270 -15.887  -5.516  0.00  0.00     0.067 A 
ATOM     20  N   UNK d   0     -10.324 -15.086  -5.335  0.00  0.00    -0.248 NA
ATOM     21  C   UNK d   0      -9.689 -16.949  -6.415  0.00  0.00    -0.011 A 
ATOM     22  C   UNK d   0     -11.402 -15.550  -6.049  0.00  0.00     0.066 A 
ATOM     23  C   UNK d   0     -12.559 -14.788  -5.981  0.00  0.00     0.062 C 
ATOM     24  C   UNK d   0     -10.939 -16.749  -6.719  0.00  0.00    -0.020 A 
ATOM     25  C   UNK d   0     -12.739 -13.550  -5.344  0.00  0.00     0.041 A 
ATOM     26  N   UNK d   0     -12.288 -13.080  -4.175  0.00  0.00    -0.355 N 
ATOM     27  C   UNK d   0     -13.507 -12.561  -5.995  0.00  0.00    -0.022 A 
ATOM     28  C   UNK d   0     -12.739 -11.821  -4.060  0.00  0.00     0.042 A 
ATOM     29  H   UNK d   0     -11.678 -13.640  -3.424  0.00  0.00     0.166 HD
ATOM     30  C   UNK d   0     -12.565 -10.867  -3.046  0.00  0.00     0.062 C 
ATOM     31  C   UNK d   0     -13.512 -11.463  -5.190  0.00  0.00    -0.013 A 
ATOM     32  C   UNK d   0     -11.418 -10.595  -2.316  0.00  0.00     0.066 A 
BRANCH   8  33
ATOM     33  C   UNK d   0      -9.013  -9.074   0.012  0.00  0.00     0.151 C 
BRANCH  33  34
ATOM     34  C   UNK d   0      -7.589  -8.981  -0.354  0.00  0.00     0.143 C 
ATOM     35  O   UNK d   0      -6.720  -9.556   0.317  0.00  0.00    -0.650 OA
BRANCH  34  36
ATOM     36  O   UNK d   0      -7.222  -8.244  -1.456  0.00  0.00    -0.776 OA
ATOM     37  H   UNK d   0      -7.295  -7.217  -1.461  0.00  0.00     0.167 HD
ENDBRANCH  34  36
ENDBRANCH  33  34
ENDBRANCH   8  33
BRANCH  31  38
ATOM     38  C   UNK d   0     -14.197 -10.148  -5.480  0.00  0.00     0.151 C 
BRANCH  38  39
ATOM     39  C   UNK d   0     -15.589 -10.141  -5.084  0.00  0.00     0.143 C 
ATOM     40  O   UNK d   0     -16.516 -10.203  -5.910  0.00  0.00    -0.650 OA
BRANCH  39  41
ATOM     41  O   UNK d   0     -15.916 -10.062  -3.731  0.00  0.00    -0.776 OA
ATOM     42  H   UNK d   0     -15.800 -10.916  -3.177  0.00  0.00     0.167 HD
ENDBRANCH  39  41
ENDBRANCH  38  39
ENDBRANCH  31  38
BRANCH  27  43
ATOM     43  C   UNK d   0     -14.221 -12.621  -7.323  0.00  0.00     0.052 C 
BRANCH  43  44
ATOM     44  C   UNK d   0     -15.459 -13.457  -7.290  0.00  0.00     0.115 C 
BRANCH  44  45
ATOM     45  C   UNK d   0     -15.261 -14.548  -8.280  0.00  0.00     0.139 C 
ATOM     46  O   UNK d   0     -16.114 -15.468  -8.325  0.00  0.00    -0.650 OA
BRANCH  45  47
ATOM     47  O   UNK d   0     -14.190 -14.585  -9.147  0.00  0.00    -0.776 OA
ATOM     48  H   UNK d   0     -13.584 -15.414  -9.254  0.00  0.00     0.167 HD
ENDBRANCH  45  47
ENDBRANCH  44  45
ENDBRANCH  43  44
ENDBRANCH  27  43
BRANCH  24  49
ATOM     49  C   UNK d   0     -11.752 -17.567  -7.635  0.00  0.00     0.052 C 
BRANCH  49  50
ATOM     50  C   UNK d   0     -12.850 -18.268  -6.877  0.00  0.00     0.115 C 
BRANCH  50  51
ATOM     51  C   UNK d   0     -13.944 -18.828  -7.659  0.00  0.00     0.139 C 
ATOM     52  O   UNK d   0     -14.276 -20.035  -7.590  0.00  0.00    -0.650 OA
BRANCH  51  53
ATOM     53  O   UNK d   0     -14.659 -18.012  -8.522  0.00  0.00    -0.776 OA
ATOM     54  H   UNK d   0     -15.649 -18.164  -8.610  0.00  0.00     0.167 HD
ENDBRANCH  51  53
ENDBRANCH  50  51
ENDBRANCH  49  50
ENDBRANCH  24  49
BRANCH  21  55
ATOM     55  C   UNK d   0      -8.796 -18.052  -6.878  0.00  0.00     0.151 C 
BRANCH  55  56
ATOM     56  C   UNK d   0      -7.591 -17.540  -7.548  0.00  0.00     0.143 C 
ATOM     57  O   UNK d   0      -7.605 -17.087  -8.709  0.00  0.00    -0.650 OA
BRANCH  56  58
ATOM     58  O   UNK d   0      -6.391 -17.572  -6.839  0.00  0.00    -0.776 OA
ATOM     59  H   UNK d   0      -5.541 -17.427  -7.413  0.00  0.00     0.167 HD
ENDBRANCH  56  58
ENDBRANCH  55  56
ENDBRANCH  21  55
BRANCH  18  60
ATOM     60  C   UNK d   0      -6.452 -16.259  -2.395  0.00  0.00     0.151 C 
BRANCH  60  61
ATOM     61  C   UNK d   0      -5.527 -16.501  -3.512  0.00  0.00     0.143 C 
ATOM     62  O   UNK d   0      -4.747 -15.694  -4.018  0.00  0.00    -0.650 OA
BRANCH  61  63
ATOM     63  O   UNK d   0      -5.555 -17.813  -4.044  0.00  0.00    -0.776 OA
ATOM     64  H   UNK d   0      -4.748 -18.409  -3.998  0.00  0.00     0.167 HD
ENDBRANCH  61  63
ENDBRANCH  60  61
ENDBRANCH  18  60
BRANCH  14  65
ATOM     65  C   UNK d   0      -6.322 -13.783  -0.645  0.00  0.00     0.052 C 
BRANCH  65  66
ATOM     66  C   UNK d   0      -5.153 -12.869  -0.755  0.00  0.00     0.115 C 
BRANCH  66  67
ATOM     67  C   UNK d   0      -4.416 -12.801  -1.985  0.00  0.00     0.139 C 
ATOM     68  O   UNK d   0      -4.520 -11.740  -2.704  0.00  0.00    -0.650 OA
BRANCH  67  69
ATOM     69  O   UNK d   0      -3.570 -13.768  -2.528  0.00  0.00    -0.776 OA
ATOM     70  H   UNK d   0      -3.027 -14.320  -1.849  0.00  0.00     0.167 HD
ENDBRANCH  67  69
ENDBRANCH  66  67
ENDBRANCH  65  66
ENDBRANCH  14  65
ENDBRANCH   6   7
ENDBRANCH   5   6
ENDBRANCH   2   5
TORSDOF 28
ENDMDL
MODEL 20
REMARK VINA RESULT:      -8.3      1.727      8.124
REMARK  28 active torsions:
REMARK  status: ('A' for Active; 'I' for Inactive)
REMARK    1  A    between atoms: C_2  and  O_3 
REMARK    2  A    between atoms: C_2  and  C_4 
REMARK    3  A    between atoms: C_4  and  C_5 
REMARK    4  A    between atoms: C_5  and  C_6 
REMARK    5  A    between atoms: C_7  and  C_8 
REMARK    6  A    between atoms: C_8  and  C_9 
REMARK    7  A    between atoms: C_9  and  O_11 
REMARK    8  A    between atoms: C_28  and  C_29 
REMARK    9  A    between atoms: C_29  and  C_30 
REMARK   10  A    between atoms: C_30  and  O_32 
REMARK   11  A    between atoms: C_33  and  C_34 
REMARK   12  A    between atoms: C_34  and  C_35 
REMARK   13  A    between atoms: C_35  and  C_36 
REMARK   14  A    between atoms: C_36  and  O_38 
REMARK   15  A    between atoms: C_39  and  C_40 
REMARK   16  A    between atoms: C_40  and  C_41 
REMARK   17  A    between atoms: C_41  and  C_42 
REMARK   18  A    between atoms: C_42  and  O_44 
REMARK   19  A    between atoms: C_45  and  C_46 
REMARK   20  A    between atoms: C_46  and  C_47 
REMARK   21  A    between atoms: C_47  and  O_49 
REMARK   22  A    between atoms: C_50  and  C_51 
REMARK   23  A    between atoms: C_51  and  C_52 
REMARK   24  A    between atoms: C_52  and  O_54 
REMARK   25  A    between atoms: C_55  and  C_56 
REMARK   26  A    between atoms: C_56  and  C_57 
REMARK   27  A    between atoms: C_57  and  C_58 
REMARK   28  A    between atoms: C_58  and  O_60 
ROOT
ATOM      1  O   UNK d   0      -6.653 -10.516  -0.672  0.00  0.00    -0.650 OA
ATOM      2  C   UNK d   0      -6.646  -9.478  -1.371  0.00  0.00     0.139 C 
ENDROOT
BRANCH   2   3
ATOM      3  O   UNK d   0      -5.557  -8.641  -1.324  0.00  0.00    -0.776 OA
ATOM      4  H   UNK d   0      -4.725  -8.826  -1.888  0.00  0.00     0.167 HD
ENDBRANCH   2   3
BRANCH   2   5
ATOM      5  C   UNK d   0      -7.810  -9.157  -2.246  0.00  0.00     0.115 C 
BRANCH   5   6
ATOM      6  C   UNK d   0      -9.096  -9.458  -1.526  0.00  0.00     0.052 C 
BRANCH   6   7
ATOM      7  C   UNK d   0     -10.021 -10.339  -2.331  0.00  0.00    -0.020 A 
ATOM      8  C   UNK d   0     -11.277 -10.121  -2.625  0.00  0.00    -0.011 A 
ATOM      9  C   UNK d   0     -11.753 -11.248  -3.410  0.00  0.00     0.067 A 
ATOM     10  C   UNK d   0     -12.956 -11.611  -4.034  0.00  0.00     0.062 C 
ATOM     11  N   UNK d   0     -10.722 -12.109  -3.541  0.00  0.00    -0.248 NA
ATOM     12  C   UNK d   0     -13.146 -12.616  -4.989  0.00  0.00     0.041 A 
ATOM     13  N   UNK d   0     -12.666 -13.872  -5.061  0.00  0.00    -0.355 N 
ATOM     14  C   UNK d   0     -13.916 -12.332  -6.132  0.00  0.00    -0.022 A 
ATOM     15  C   UNK d   0     -13.104 -14.390  -6.224  0.00  0.00     0.042 A 
ATOM     16  H   UNK d   0     -12.045 -14.389  -4.296  0.00  0.00     0.166 HD
ATOM     17  C   UNK d   0     -12.898 -15.662  -6.792  0.00  0.00     0.062 C 
ATOM     18  C   UNK d   0     -13.891 -13.454  -6.923  0.00  0.00    -0.013 A 
ATOM     19  C   UNK d   0     -11.737 -16.387  -6.887  0.00  0.00     0.067 A 
ATOM     20  N   UNK d   0     -10.690 -15.945  -6.186  0.00  0.00    -0.248 NA
ATOM     21  C   UNK d   0     -11.303 -17.577  -7.600  0.00  0.00    -0.011 A 
ATOM     22  C   UNK d   0      -9.602 -16.758  -6.390  0.00  0.00     0.066 A 
ATOM     23  C   UNK d   0      -8.450 -16.434  -5.689  0.00  0.00     0.062 C 
ATOM     24  C   UNK d   0     -10.052 -17.786  -7.308  0.00  0.00    -0.020 A 
ATOM     25  C   UNK d   0      -8.284 -15.428  -4.725  0.00  0.00     0.041 A 
ATOM     26  N   UNK d   0      -8.749 -14.174  -4.661  0.00  0.00    -0.355 N 
ATOM     27  C   UNK d   0      -7.515 -15.715  -3.576  0.00  0.00    -0.022 A 
ATOM     28  C   UNK d   0      -8.305 -13.653  -3.506  0.00  0.00     0.042 A 
ATOM     29  H   UNK d   0      -9.363 -13.653  -5.435  0.00  0.00     0.166 HD
ATOM     30  C   UNK d   0      -8.495 -12.386  -2.933  0.00  0.00     0.062 C 
ATOM     31  C   UNK d   0      -7.524 -14.597  -2.799  0.00  0.00    -0.013 A 
ATOM     32  C   UNK d   0      -9.650 -11.620  -2.915  0.00  0.00     0.066 A 
BRANCH   8  33
ATOM     33  C   UNK d   0     -12.086  -8.951  -2.236  0.00  0.00     0.151 C 
BRANCH  33  34
ATOM     34  C   UNK d   0     -12.903  -9.197  -1.034  0.00  0.00     0.143 C 
ATOM     35  O   UNK d   0     -14.040  -8.715  -0.927  0.00  0.00    -0.650 OA
BRANCH  34  36
ATOM     36  O   UNK d   0     -12.393  -9.971  -0.018  0.00  0.00    -0.776 OA
ATOM     37  H   UNK d   0     -11.794  -9.565   0.714  0.00  0.00     0.167 HD
ENDBRANCH  34  36
ENDBRANCH  33  34
ENDBRANCH   8  33
BRANCH  31  38
ATOM     38  C   UNK d   0      -6.843 -14.438  -1.460  0.00  0.00     0.151 C 
BRANCH  38  39
ATOM     39  C   UNK d   0      -5.536 -13.826  -1.563  0.00  0.00     0.143 C 
ATOM     40  O   UNK d   0      -5.120 -13.318  -2.620  0.00  0.00    -0.650 OA
BRANCH  39  41
ATOM     41  O   UNK d   0      -4.702 -13.796  -0.446  0.00  0.00    -0.776 OA
ATOM     42  H   UNK d   0      -5.063 -13.320   0.387  0.00  0.00     0.167 HD
ENDBRANCH  39  41
ENDBRANCH  38  39
ENDBRANCH  31  38
BRANCH  27  43
ATOM     43  C   UNK d   0      -6.787 -16.982  -3.201  0.00  0.00     0.052 C 
BRANCH  43  44
ATOM     44  C   UNK d   0      -5.321 -16.926  -3.482  0.00  0.00     0.115 C 
BRANCH  44  45
ATOM     45  C   UNK d   0      -5.166 -16.264  -4.803  0.00  0.00     0.139 C 
ATOM     46  O   UNK d   0      -5.367 -16.949  -5.836  0.00  0.00    -0.650 OA
BRANCH  45  47
ATOM     47  O   UNK d   0      -4.820 -14.936  -4.937  0.00  0.00    -0.776 OA
ATOM     48  H   UNK d   0      -5.257 -14.184  -4.381  0.00  0.00     0.167 HD
ENDBRANCH  45  47
ENDBRANCH  44  45
ENDBRANCH  43  44
ENDBRANCH  27  43
BRANCH  24  49
ATOM     49  C   UNK d   0      -9.225 -18.909  -7.784  0.00  0.00     0.052 C 
BRANCH  49  50
ATOM     50  C   UNK d   0      -9.761 -20.215  -7.256  0.00  0.00     0.115 C 
BRANCH  50  51
ATOM     51  C   UNK d   0     -10.091 -21.242  -8.234  0.00  0.00     0.139 C 
ATOM     52  O   UNK d   0     -10.442 -22.400  -7.907  0.00  0.00    -0.650 OA
BRANCH  51  53
ATOM     53  O   UNK d   0     -10.018 -20.950  -9.588  0.00  0.00    -0.776 OA
ATOM     54  H   UNK d   0     -10.795 -20.476 -10.014  0.00  0.00     0.167 HD
ENDBRANCH  51  53
ENDBRANCH  50  51
ENDBRANCH  49  50
ENDBRANCH  24  49
BRANCH  21  55
ATOM     55  C   UNK d   0     -12.186 -18.383  -8.494  0.00  0.00     0.151 C 
BRANCH  55  56
ATOM     56  C   UNK d   0     -13.345 -18.933  -7.775  0.00  0.00     0.143 C 
ATOM     57  O   UNK d   0     -13.233 -19.741  -6.832  0.00  0.00    -0.650 OA
BRANCH  56  58
ATOM     58  O   UNK d   0     -14.614 -18.522  -8.179  0.00  0.00    -0.776 OA
ATOM     59  H   UNK d   0     -14.951 -17.648  -7.738  0.00  0.00     0.167 HD
ENDBRANCH  56  58
ENDBRANCH  55  56
ENDBRANCH  21  55
BRANCH  18  60
ATOM     60  C   UNK d   0     -14.583 -13.586  -8.257  0.00  0.00     0.151 C 
BRANCH  60  61
ATOM     61  C   UNK d   0     -15.467 -14.756  -8.139  0.00  0.00     0.143 C 
ATOM     62  O   UNK d   0     -16.299 -14.972  -7.258  0.00  0.00    -0.650 OA
BRANCH  61  63
ATOM     63  O   UNK d   0     -15.324 -15.724  -9.162  0.00  0.00    -0.776 OA
ATOM     64  H   UNK d   0     -15.350 -15.461 -10.132  0.00  0.00     0.167 HD
ENDBRANCH  61  63
ENDBRANCH  60  61
ENDBRANCH  18  60
BRANCH  14  65
ATOM     65  C   UNK d   0     -14.745 -11.130  -6.483  0.00  0.00     0.052 C 
BRANCH  65  66
ATOM     66  C   UNK d   0     -15.971 -11.005  -5.649  0.00  0.00     0.115 C 
BRANCH  66  67
ATOM     67  C   UNK d   0     -16.406  -9.708  -5.213  0.00  0.00     0.139 C 
ATOM     68  O   UNK d   0     -16.303  -8.720  -6.029  0.00  0.00    -0.650 OA
BRANCH  67  69
ATOM     69  O   UNK d   0     -16.947  -9.361  -3.976  0.00  0.00    -0.776 OA
ATOM     70  H   UNK d   0     -17.474  -8.476  -3.949  0.00  0.00     0.167 HD
ENDBRANCH  67  69
ENDBRANCH  66  67
ENDBRANCH  65  66
ENDBRANCH  14  65
ENDBRANCH   6   7
ENDBRANCH   5   6
ENDBRANCH   2   5
TORSDOF 28
ENDMDL
