MODEL 1
REMARK VINA RESULT:      -9.2      0.000      0.000
REMARK  16 active torsions:
REMARK  status: ('A' for Active; 'I' for Inactive)
REMARK    1  A    between atoms: C_6  and  C_7 
REMARK    2  A    between atoms: C_7  and  C_8 
REMARK    3  A    between atoms: C_8  and  C_9 
REMARK    4  A    between atoms: C_9  and  O_11 
REMARK    5  A    between atoms: C_16  and  C_17 
REMARK    6  A    between atoms: C_17  and  C_18 
REMARK    7  A    between atoms: C_18  and  C_19 
REMARK    8  A    between atoms: C_19  and  O_21 
REMARK    9  A    between atoms: C_28  and  C_29 
REMARK   10  A    between atoms: C_29  and  C_30 
REMARK   11  A    between atoms: C_30  and  C_31 
REMARK   12  A    between atoms: C_31  and  O_33 
REMARK   13  A    between atoms: C_42  and  C_43 
REMARK   14  A    between atoms: C_43  and  C_44 
REMARK   15  A    between atoms: C_44  and  C_45 
REMARK   16  A    between atoms: C_45  and  O_47 
ROOT
HETATM    1  C   UNK     0      -6.061 -21.006   3.066  0.00  0.00     0.051 C 
HETATM    2  C   UNK     0      -5.433 -21.636   1.840  0.00  0.00    -0.031 A 
HETATM    3  C   UNK     0      -5.666 -22.878   1.272  0.00  0.00     0.021 A 
HETATM    4  N   UNK     0      -4.853 -23.033   0.199  0.00  0.00    -0.361 N 
HETATM    5  C   UNK     0      -4.113 -21.912   0.067  0.00  0.00     0.022 A 
HETATM    6  C   UNK     0      -4.449 -21.018   1.079  0.00  0.00    -0.027 A 
HETATM    7  C   UNK     0      -3.137 -21.538  -1.004  0.00  0.00     0.115 C 
HETATM    8  C   UNK     0      -3.536 -21.858  -2.433  0.00  0.00     0.021 A 
HETATM    9  N   UNK     0      -4.757 -21.816  -2.990  0.00  0.00    -0.361 N 
HETATM   10  C   UNK     0      -4.656 -22.270  -4.257  0.00  0.00     0.022 A 
HETATM   11  C   UNK     0      -3.332 -22.605  -4.527  0.00  0.00    -0.027 A 
HETATM   12  C   UNK     0      -2.621 -22.348  -3.382  0.00  0.00    -0.031 A 
HETATM   13  C   UNK     0      -1.134 -22.558  -3.211  0.00  0.00     0.051 C 
HETATM   14  C   UNK     0      -5.806 -22.456  -5.242  0.00  0.00     0.115 C 
HETATM   15  C   UNK     0      -6.864 -23.443  -4.775  0.00  0.00     0.021 A 
HETATM   16  N   UNK     0      -7.602 -23.385  -3.651  0.00  0.00    -0.361 N 
HETATM   17  C   UNK     0      -8.365 -24.477  -3.570  0.00  0.00     0.022 A 
HETATM   18  C   UNK     0      -8.120 -25.281  -4.701  0.00  0.00    -0.027 A 
HETATM   19  C   UNK     0      -7.178 -24.622  -5.448  0.00  0.00    -0.031 A 
HETATM   20  C   UNK     0      -6.651 -25.128  -6.778  0.00  0.00     0.051 C 
HETATM   21  C   UNK     0      -9.311 -24.923  -2.478  0.00  0.00     0.115 C 
HETATM   22  C   UNK     0      -8.948 -24.572  -1.054  0.00  0.00     0.022 A 
HETATM   23  N   UNK     0      -7.741 -24.601  -0.475  0.00  0.00    -0.361 N 
HETATM   24  C   UNK     0      -7.852 -24.071   0.760  0.00  0.00     0.021 A 
HETATM   25  C   UNK     0      -9.165 -23.702   0.985  0.00  0.00    -0.031 A 
HETATM   26  C   UNK     0      -9.787 -23.104   2.230  0.00  0.00     0.051 C 
HETATM   27  C   UNK     0      -9.886 -24.013  -0.162  0.00  0.00    -0.027 A 
HETATM   28  C   UNK     0      -6.741 -23.807   1.761  0.00  0.00     0.115 C 
HETATM   29  H   UNK     0      -4.780 -23.948  -0.433  0.00  0.00     0.165 HD
HETATM   30  H   UNK     0      -5.683 -21.419  -2.507  0.00  0.00     0.165 HD
HETATM   31  H   UNK     0      -7.621 -22.533  -2.922  0.00  0.00     0.165 HD
HETATM   32  H   UNK     0      -6.807 -25.036  -0.916  0.00  0.00     0.165 HD
ENDROOT
BRANCH   6  33
HETATM   33  C   UNK     0      -3.910 -19.642   1.374  0.00  0.00     0.051 C 
BRANCH  33  34
HETATM   34  C   UNK     0      -4.804 -18.579   0.781  0.00  0.00     0.114 C 
BRANCH  34  35
HETATM   35  C   UNK     0      -4.428 -17.279   1.408  0.00  0.00     0.139 C 
HETATM   36  O   UNK     0      -5.228 -16.299   1.371  0.00  0.00    -0.650 OA
BRANCH  35  37
HETATM   37  O   UNK     0      -3.213 -17.081   2.052  0.00  0.00    -0.776 OA
HETATM   38  H   UNK     0      -3.059 -16.306   2.677  0.00  0.00     0.167 HD
ENDBRANCH  35  37
ENDBRANCH  34  35
ENDBRANCH  33  34
ENDBRANCH   6  33
BRANCH  27  39
HETATM   39  C   UNK     0     -11.358 -23.823  -0.271  0.00  0.00     0.051 C 
BRANCH  39  40
HETATM   40  C   UNK     0     -11.857 -22.732  -1.107  0.00  0.00     0.114 C 
BRANCH  40  41
HETATM   41  C   UNK     0     -12.519 -22.969  -2.369  0.00  0.00     0.139 C 
HETATM   42  O   UNK     0     -12.786 -22.072  -3.181  0.00  0.00    -0.650 OA
BRANCH  41  43
HETATM   43  O   UNK     0     -12.893 -24.299  -2.714  0.00  0.00    -0.776 OA
HETATM   44  H   UNK     0     -13.821 -24.383  -3.113  0.00  0.00     0.167 HD
ENDBRANCH  41  43
ENDBRANCH  40  41
ENDBRANCH  39  40
ENDBRANCH  27  39
BRANCH  11  45
HETATM   45  C   UNK     0      -2.738 -23.144  -5.801  0.00  0.00     0.051 C 
BRANCH  45  46
HETATM   46  C   UNK     0      -2.799 -22.198  -6.945  0.00  0.00     0.114 C 
BRANCH  46  47
HETATM   47  C   UNK     0      -3.418 -22.929  -8.088  0.00  0.00     0.139 C 
HETATM   48  O   UNK     0      -3.504 -24.163  -8.025  0.00  0.00    -0.650 OA
BRANCH  47  49
HETATM   49  O   UNK     0      -3.880 -22.251  -9.188  0.00  0.00    -0.776 OA
HETATM   50  H   UNK     0      -4.286 -21.310  -9.117  0.00  0.00     0.167 HD
ENDBRANCH  47  49
ENDBRANCH  46  47
ENDBRANCH  45  46
ENDBRANCH  11  45
BRANCH  18  51
HETATM   51  C   UNK     0      -8.763 -26.596  -5.060  0.00  0.00     0.051 C 
BRANCH  51  52
HETATM   52  C   UNK     0     -10.077 -26.254  -5.745  0.00  0.00     0.114 C 
BRANCH  52  53
HETATM   53  C   UNK     0     -11.225 -26.916  -5.095  0.00  0.00     0.139 C 
HETATM   54  O   UNK     0     -11.164 -28.121  -4.805  0.00  0.00    -0.650 OA
BRANCH  53  55
HETATM   55  O   UNK     0     -12.358 -26.191  -4.815  0.00  0.00    -0.776 OA
HETATM   56  H   UNK     0     -12.730 -25.453  -5.365  0.00  0.00     0.167 HD
ENDBRANCH  53  55
ENDBRANCH  52  53
ENDBRANCH  51  52
ENDBRANCH  18  51
TORSDOF 16
ENDMDL
MODEL 2
REMARK VINA RESULT:      -8.7      4.370     11.176
REMARK  16 active torsions:
REMARK  status: ('A' for Active; 'I' for Inactive)
REMARK    1  A    between atoms: C_6  and  C_7 
REMARK    2  A    between atoms: C_7  and  C_8 
REMARK    3  A    between atoms: C_8  and  C_9 
REMARK    4  A    between atoms: C_9  and  O_11 
REMARK    5  A    between atoms: C_16  and  C_17 
REMARK    6  A    between atoms: C_17  and  C_18 
REMARK    7  A    between atoms: C_18  and  C_19 
REMARK    8  A    between atoms: C_19  and  O_21 
REMARK    9  A    between atoms: C_28  and  C_29 
REMARK   10  A    between atoms: C_29  and  C_30 
REMARK   11  A    between atoms: C_30  and  C_31 
REMARK   12  A    between atoms: C_31  and  O_33 
REMARK   13  A    between atoms: C_42  and  C_43 
REMARK   14  A    between atoms: C_43  and  C_44 
REMARK   15  A    between atoms: C_44  and  C_45 
REMARK   16  A    between atoms: C_45  and  O_47 
ROOT
HETATM    1  C   UNK     0      -7.038 -24.466   0.017  0.00  0.00     0.051 C 
HETATM    2  C   UNK     0      -8.225 -23.839   0.719  0.00  0.00    -0.031 A 
HETATM    3  C   UNK     0      -8.273 -23.153   1.923  0.00  0.00     0.021 A 
HETATM    4  N   UNK     0      -9.555 -22.797   2.176  0.00  0.00    -0.361 N 
HETATM    5  C   UNK     0     -10.323 -23.233   1.156  0.00  0.00     0.022 A 
HETATM    6  C   UNK     0      -9.523 -23.891   0.228  0.00  0.00    -0.027 A 
HETATM    7  C   UNK     0     -11.783 -23.019   0.905  0.00  0.00     0.115 C 
HETATM    8  C   UNK     0     -12.323 -21.625   1.172  0.00  0.00     0.021 A 
HETATM    9  N   UNK     0     -11.719 -20.442   0.979  0.00  0.00    -0.361 N 
HETATM   10  C   UNK     0     -12.537 -19.473   1.442  0.00  0.00     0.022 A 
HETATM   11  C   UNK     0     -13.704 -20.047   1.938  0.00  0.00    -0.027 A 
HETATM   12  C   UNK     0     -13.576 -21.402   1.771  0.00  0.00    -0.031 A 
HETATM   13  C   UNK     0     -14.611 -22.433   2.164  0.00  0.00     0.051 C 
HETATM   14  C   UNK     0     -12.231 -17.979   1.483  0.00  0.00     0.115 C 
HETATM   15  C   UNK     0     -11.021 -17.622   2.332  0.00  0.00     0.021 A 
HETATM   16  N   UNK     0      -9.756 -18.057   2.183  0.00  0.00    -0.361 N 
HETATM   17  C   UNK     0      -9.004 -17.568   3.172  0.00  0.00     0.022 A 
HETATM   18  C   UNK     0      -9.817 -16.768   4.000  0.00  0.00    -0.027 A 
HETATM   19  C   UNK     0     -11.077 -16.809   3.462  0.00  0.00    -0.031 A 
HETATM   20  C   UNK     0     -12.261 -16.048   4.029  0.00  0.00     0.051 C 
HETATM   21  C   UNK     0      -7.548 -17.812   3.498  0.00  0.00     0.115 C 
HETATM   22  C   UNK     0      -6.986 -19.181   3.196  0.00  0.00     0.022 A 
HETATM   23  N   UNK     0      -7.566 -20.375   3.374  0.00  0.00    -0.361 N 
HETATM   24  C   UNK     0      -6.768 -21.319   2.836  0.00  0.00     0.021 A 
HETATM   25  C   UNK     0      -5.641 -20.719   2.307  0.00  0.00    -0.031 A 
HETATM   26  C   UNK     0      -4.444 -21.362   1.637  0.00  0.00     0.051 C 
HETATM   27  C   UNK     0      -5.757 -19.351   2.526  0.00  0.00    -0.027 A 
HETATM   28  C   UNK     0      -7.042 -22.807   2.712  0.00  0.00     0.115 C 
HETATM   29  H   UNK     0      -9.914 -22.274   3.093  0.00  0.00     0.165 HD
HETATM   30  H   UNK     0     -10.737 -20.284   0.471  0.00  0.00     0.165 HD
HETATM   31  H   UNK     0      -9.374 -18.684   1.336  0.00  0.00     0.165 HD
HETATM   32  H   UNK     0      -8.526 -20.567   3.921  0.00  0.00     0.165 HD
ENDROOT
BRANCH   6  33
HETATM   33  C   UNK     0      -9.894 -24.560  -1.071  0.00  0.00     0.051 C 
BRANCH  33  34
HETATM   34  C   UNK     0     -10.050 -26.050  -0.880  0.00  0.00     0.114 C 
BRANCH  34  35
HETATM   35  C   UNK     0      -9.531 -26.715  -2.110  0.00  0.00     0.139 C 
HETATM   36  O   UNK     0      -8.362 -26.464  -2.525  0.00  0.00    -0.650 OA
BRANCH  35  37
HETATM   37  O   UNK     0     -10.283 -27.622  -2.846  0.00  0.00    -0.776 OA
HETATM   38  H   UNK     0      -9.858 -28.374  -3.363  0.00  0.00     0.167 HD
ENDBRANCH  35  37
ENDBRANCH  34  35
ENDBRANCH  33  34
ENDBRANCH   6  33
BRANCH  27  39
HETATM   39  C   UNK     0      -4.695 -18.378   2.155  0.00  0.00     0.051 C 
BRANCH  39  40
HETATM   40  C   UNK     0      -4.597 -17.955   0.758  0.00  0.00     0.114 C 
BRANCH  40  41
HETATM   41  C   UNK     0      -5.400 -16.879   0.221  0.00  0.00     0.139 C 
HETATM   42  O   UNK     0      -5.156 -15.681   0.416  0.00  0.00    -0.650 OA
BRANCH  41  43
HETATM   43  O   UNK     0      -6.535 -17.197  -0.578  0.00  0.00    -0.776 OA
HETATM   44  H   UNK     0      -6.314 -17.511  -1.515  0.00  0.00     0.167 HD
ENDBRANCH  41  43
ENDBRANCH  40  41
ENDBRANCH  39  40
ENDBRANCH  27  39
BRANCH  11  45
HETATM   45  C   UNK     0     -14.903 -19.368   2.545  0.00  0.00     0.051 C 
BRANCH  45  46
HETATM   46  C   UNK     0     -15.911 -18.917   1.552  0.00  0.00     0.114 C 
BRANCH  46  47
HETATM   47  C   UNK     0     -17.183 -19.632   1.859  0.00  0.00     0.139 C 
HETATM   48  O   UNK     0     -17.894 -19.208   2.781  0.00  0.00    -0.650 OA
BRANCH  47  49
HETATM   49  O   UNK     0     -17.560 -20.737   1.138  0.00  0.00    -0.776 OA
HETATM   50  H   UNK     0     -17.969 -21.566   1.585  0.00  0.00     0.167 HD
ENDBRANCH  47  49
ENDBRANCH  46  47
ENDBRANCH  45  46
ENDBRANCH  11  45
BRANCH  18  51
HETATM   51  C   UNK     0      -9.410 -15.990   5.224  0.00  0.00     0.051 C 
BRANCH  51  52
HETATM   52  C   UNK     0      -8.847 -14.669   4.722  0.00  0.00     0.114 C 
BRANCH  52  53
HETATM   53  C   UNK     0      -7.432 -14.494   5.102  0.00  0.00     0.139 C 
HETATM   54  O   UNK     0      -6.852 -15.372   5.760  0.00  0.00    -0.650 OA
BRANCH  53  55
HETATM   55  O   UNK     0      -6.763 -13.355   4.726  0.00  0.00    -0.776 OA
HETATM   56  H   UNK     0      -7.012 -12.752   3.977  0.00  0.00     0.167 HD
ENDBRANCH  53  55
ENDBRANCH  52  53
ENDBRANCH  51  52
ENDBRANCH  18  51
TORSDOF 16
ENDMDL
MODEL 3
REMARK VINA RESULT:      -8.7      4.275      9.792
REMARK  16 active torsions:
REMARK  status: ('A' for Active; 'I' for Inactive)
REMARK    1  A    between atoms: C_6  and  C_7 
REMARK    2  A    between atoms: C_7  and  C_8 
REMARK    3  A    between atoms: C_8  and  C_9 
REMARK    4  A    between atoms: C_9  and  O_11 
REMARK    5  A    between atoms: C_16  and  C_17 
REMARK    6  A    between atoms: C_17  and  C_18 
REMARK    7  A    between atoms: C_18  and  C_19 
REMARK    8  A    between atoms: C_19  and  O_21 
REMARK    9  A    between atoms: C_28  and  C_29 
REMARK   10  A    between atoms: C_29  and  C_30 
REMARK   11  A    between atoms: C_30  and  C_31 
REMARK   12  A    between atoms: C_31  and  O_33 
REMARK   13  A    between atoms: C_42  and  C_43 
REMARK   14  A    between atoms: C_43  and  C_44 
REMARK   15  A    between atoms: C_44  and  C_45 
REMARK   16  A    between atoms: C_45  and  O_47 
ROOT
HETATM    1  C   UNK     0     -14.724 -18.684   3.063  0.00  0.00     0.051 C 
HETATM    2  C   UNK     0     -13.708 -19.359   2.164  0.00  0.00    -0.031 A 
HETATM    3  C   UNK     0     -12.467 -18.906   1.745  0.00  0.00     0.021 A 
HETATM    4  N   UNK     0     -11.916 -19.829   0.921  0.00  0.00    -0.361 N 
HETATM    5  C   UNK     0     -12.775 -20.863   0.812  0.00  0.00     0.022 A 
HETATM    6  C   UNK     0     -13.908 -20.601   1.575  0.00  0.00    -0.027 A 
HETATM    7  C   UNK     0     -12.607 -22.170   0.101  0.00  0.00     0.115 C 
HETATM    8  C   UNK     0     -11.259 -22.854   0.243  0.00  0.00     0.021 A 
HETATM    9  N   UNK     0     -10.446 -22.886   1.310  0.00  0.00    -0.361 N 
HETATM   10  C   UNK     0      -9.314 -23.531   0.955  0.00  0.00     0.022 A 
HETATM   11  C   UNK     0      -9.406 -23.934  -0.374  0.00  0.00    -0.027 A 
HETATM   12  C   UNK     0     -10.629 -23.512  -0.828  0.00  0.00    -0.031 A 
HETATM   13  C   UNK     0     -11.167 -23.733  -2.224  0.00  0.00     0.051 C 
HETATM   14  C   UNK     0      -8.085 -23.745   1.834  0.00  0.00     0.115 C 
HETATM   15  C   UNK     0      -7.427 -22.456   2.297  0.00  0.00     0.021 A 
HETATM   16  N   UNK     0      -7.983 -21.460   3.011  0.00  0.00    -0.361 N 
HETATM   17  C   UNK     0      -7.096 -20.472   3.152  0.00  0.00     0.022 A 
HETATM   18  C   UNK     0      -5.901 -20.847   2.506  0.00  0.00    -0.027 A 
HETATM   19  C   UNK     0      -6.121 -22.092   1.976  0.00  0.00    -0.031 A 
HETATM   20  C   UNK     0      -5.070 -22.885   1.221  0.00  0.00     0.051 C 
HETATM   21  C   UNK     0      -7.246 -19.116   3.802  0.00  0.00     0.115 C 
HETATM   22  C   UNK     0      -8.595 -18.442   3.707  0.00  0.00     0.022 A 
HETATM   23  N   UNK     0      -9.429 -18.398   2.659  0.00  0.00    -0.361 N 
HETATM   24  C   UNK     0     -10.580 -17.820   3.058  0.00  0.00     0.021 A 
HETATM   25  C   UNK     0     -10.481 -17.474   4.392  0.00  0.00    -0.031 A 
HETATM   26  C   UNK     0     -11.493 -16.769   5.271  0.00  0.00     0.051 C 
HETATM   27  C   UNK     0      -9.220 -17.862   4.829  0.00  0.00    -0.027 A 
HETATM   28  C   UNK     0     -11.853 -17.632   2.252  0.00  0.00     0.115 C 
HETATM   29  H   UNK     0     -10.942 -19.725   0.390  0.00  0.00     0.165 HD
HETATM   30  H   UNK     0     -10.687 -22.497   2.329  0.00  0.00     0.165 HD
HETATM   31  H   UNK     0      -9.007 -21.473   3.467  0.00  0.00     0.165 HD
HETATM   32  H   UNK     0      -9.196 -18.736   1.616  0.00  0.00     0.165 HD
ENDROOT
BRANCH   6  33
HETATM   33  C   UNK     0     -15.151 -21.429   1.783  0.00  0.00     0.051 C 
BRANCH  33  34
HETATM   34  C   UNK     0     -16.075 -21.315   0.593  0.00  0.00     0.114 C 
BRANCH  34  35
HETATM   35  C   UNK     0     -17.117 -20.303   0.932  0.00  0.00     0.139 C 
HETATM   36  O   UNK     0     -18.084 -20.614   1.686  0.00  0.00    -0.650 OA
BRANCH  35  37
HETATM   37  O   UNK     0     -17.080 -19.000   0.452  0.00  0.00    -0.776 OA
HETATM   38  H   UNK     0     -16.457 -18.720  -0.288  0.00  0.00     0.167 HD
ENDBRANCH  35  37
ENDBRANCH  34  35
ENDBRANCH  33  34
ENDBRANCH   6  33
BRANCH  27  39
HETATM   39  C   UNK     0      -8.719 -17.589   6.204  0.00  0.00     0.051 C 
BRANCH  39  40
HETATM   40  C   UNK     0      -8.257 -16.237   6.518  0.00  0.00     0.114 C 
BRANCH  40  41
HETATM   41  C   UNK     0      -7.728 -15.349   5.507  0.00  0.00     0.139 C 
HETATM   42  O   UNK     0      -6.738 -15.616   4.813  0.00  0.00    -0.650 OA
BRANCH  41  43
HETATM   43  O   UNK     0      -8.367 -14.096   5.284  0.00  0.00    -0.776 OA
HETATM   44  H   UNK     0      -8.968 -14.072   4.469  0.00  0.00     0.167 HD
ENDBRANCH  41  43
ENDBRANCH  40  41
ENDBRANCH  39  40
ENDBRANCH  27  39
BRANCH  11  45
HETATM   45  C   UNK     0      -8.399 -24.689  -1.201  0.00  0.00     0.051 C 
BRANCH  45  46
HETATM   46  C   UNK     0      -8.432 -26.160  -1.001  0.00  0.00     0.114 C 
BRANCH  46  47
HETATM   47  C   UNK     0      -8.981 -26.763  -2.250  0.00  0.00     0.139 C 
HETATM   48  O   UNK     0      -8.328 -26.654  -3.297  0.00  0.00    -0.650 OA
BRANCH  47  49
HETATM   49  O   UNK     0     -10.184 -27.423  -2.241  0.00  0.00    -0.776 OA
HETATM   50  H   UNK     0     -10.265 -28.404  -1.948  0.00  0.00     0.167 HD
ENDBRANCH  47  49
ENDBRANCH  46  47
ENDBRANCH  45  46
ENDBRANCH  11  45
BRANCH  18  51
HETATM   51  C   UNK     0      -4.613 -20.070   2.418  0.00  0.00     0.051 C 
BRANCH  51  52
HETATM   52  C   UNK     0      -3.737 -20.566   3.558  0.00  0.00     0.114 C 
BRANCH  52  53
HETATM   53  C   UNK     0      -2.304 -20.528   3.207  0.00  0.00     0.139 C 
HETATM   54  O   UNK     0      -1.938 -20.820   2.058  0.00  0.00    -0.650 OA
BRANCH  53  55
HETATM   55  O   UNK     0      -1.380 -20.172   4.160  0.00  0.00    -0.776 OA
HETATM   56  H   UNK     0      -0.426 -19.954   3.995  0.00  0.00     0.167 HD
ENDBRANCH  53  55
ENDBRANCH  52  53
ENDBRANCH  51  52
ENDBRANCH  18  51
TORSDOF 16
ENDMDL
MODEL 4
REMARK VINA RESULT:      -8.6      4.931     10.219
REMARK  16 active torsions:
REMARK  status: ('A' for Active; 'I' for Inactive)
REMARK    1  A    between atoms: C_6  and  C_7 
REMARK    2  A    between atoms: C_7  and  C_8 
REMARK    3  A    between atoms: C_8  and  C_9 
REMARK    4  A    between atoms: C_9  and  O_11 
REMARK    5  A    between atoms: C_16  and  C_17 
REMARK    6  A    between atoms: C_17  and  C_18 
REMARK    7  A    between atoms: C_18  and  C_19 
REMARK    8  A    between atoms: C_19  and  O_21 
REMARK    9  A    between atoms: C_28  and  C_29 
REMARK   10  A    between atoms: C_29  and  C_30 
REMARK   11  A    between atoms: C_30  and  C_31 
REMARK   12  A    between atoms: C_31  and  O_33 
REMARK   13  A    between atoms: C_42  and  C_43 
REMARK   14  A    between atoms: C_43  and  C_44 
REMARK   15  A    between atoms: C_44  and  C_45 
REMARK   16  A    between atoms: C_45  and  O_47 
ROOT
HETATM    1  C   UNK     0     -15.202 -17.973   3.020  0.00  0.00     0.051 C 
HETATM    2  C   UNK     0     -14.184 -18.721   2.184  0.00  0.00    -0.031 A 
HETATM    3  C   UNK     0     -12.902 -18.345   1.815  0.00  0.00     0.021 A 
HETATM    4  N   UNK     0     -12.364 -19.314   1.036  0.00  0.00    -0.361 N 
HETATM    5  C   UNK     0     -13.272 -20.303   0.908  0.00  0.00     0.022 A 
HETATM    6  C   UNK     0     -14.423 -19.963   1.611  0.00  0.00    -0.027 A 
HETATM    7  C   UNK     0     -13.143 -21.632   0.232  0.00  0.00     0.115 C 
HETATM    8  C   UNK     0     -11.843 -22.385   0.451  0.00  0.00     0.021 A 
HETATM    9  N   UNK     0     -11.082 -22.436   1.556  0.00  0.00    -0.361 N 
HETATM   10  C   UNK     0      -9.972 -23.148   1.268  0.00  0.00     0.022 A 
HETATM   11  C   UNK     0     -10.024 -23.576  -0.056  0.00  0.00    -0.027 A 
HETATM   12  C   UNK     0     -11.200 -23.099  -0.576  0.00  0.00    -0.031 A 
HETATM   13  C   UNK     0     -11.684 -23.323  -1.991  0.00  0.00     0.051 C 
HETATM   14  C   UNK     0      -8.798 -23.408   2.208  0.00  0.00     0.115 C 
HETATM   15  C   UNK     0      -8.093 -22.145   2.676  0.00  0.00     0.021 A 
HETATM   16  N   UNK     0      -8.626 -21.105   3.343  0.00  0.00    -0.361 N 
HETATM   17  C   UNK     0      -7.694 -20.164   3.506  0.00  0.00     0.022 A 
HETATM   18  C   UNK     0      -6.493 -20.616   2.925  0.00  0.00    -0.027 A 
HETATM   19  C   UNK     0      -6.755 -21.859   2.410  0.00  0.00    -0.031 A 
HETATM   20  C   UNK     0      -5.715 -22.724   1.722  0.00  0.00     0.051 C 
HETATM   21  C   UNK     0      -7.801 -18.787   4.121  0.00  0.00     0.115 C 
HETATM   22  C   UNK     0      -9.105 -18.045   3.949  0.00  0.00     0.022 A 
HETATM   23  N   UNK     0      -9.886 -17.980   2.862  0.00  0.00    -0.361 N 
HETATM   24  C   UNK     0     -11.021 -17.332   3.194  0.00  0.00     0.021 A 
HETATM   25  C   UNK     0     -10.965 -16.962   4.524  0.00  0.00    -0.031 A 
HETATM   26  C   UNK     0     -11.977 -16.184   5.340  0.00  0.00     0.051 C 
HETATM   27  C   UNK     0      -9.749 -17.407   5.028  0.00  0.00    -0.027 A 
HETATM   28  C   UNK     0     -12.243 -17.094   2.325  0.00  0.00     0.115 C 
HETATM   29  H   UNK     0     -11.362 -19.274   0.550  0.00  0.00     0.165 HD
HETATM   30  H   UNK     0     -11.349 -22.012   2.555  0.00  0.00     0.165 HD
HETATM   31  H   UNK     0      -9.670 -21.053   3.751  0.00  0.00     0.165 HD
HETATM   32  H   UNK     0      -9.624 -18.353   1.838  0.00  0.00     0.165 HD
ENDROOT
BRANCH   6  33
HETATM   33  C   UNK     0     -15.718 -20.719   1.776  0.00  0.00     0.051 C 
BRANCH  33  34
HETATM   34  C   UNK     0     -16.757 -20.219   0.801  0.00  0.00     0.114 C 
BRANCH  34  35
HETATM   35  C   UNK     0     -18.040 -20.078   1.549  0.00  0.00     0.139 C 
HETATM   36  O   UNK     0     -18.083 -19.402   2.618  0.00  0.00    -0.650 OA
BRANCH  35  37
HETATM   37  O   UNK     0     -19.225 -20.665   1.122  0.00  0.00    -0.776 OA
HETATM   38  H   UNK     0     -19.963 -20.129   0.695  0.00  0.00     0.167 HD
ENDBRANCH  35  37
ENDBRANCH  34  35
ENDBRANCH  33  34
ENDBRANCH   6  33
BRANCH  27  39
HETATM   39  C   UNK     0      -9.298 -17.129   6.419  0.00  0.00     0.051 C 
BRANCH  39  40
HETATM   40  C   UNK     0      -8.378 -16.014   6.641  0.00  0.00     0.114 C 
BRANCH  40  41
HETATM   41  C   UNK     0      -7.906 -15.177   5.561  0.00  0.00     0.139 C 
HETATM   42  O   UNK     0      -6.897 -15.433   4.889  0.00  0.00    -0.650 OA
BRANCH  41  43
HETATM   43  O   UNK     0      -8.627 -13.993   5.237  0.00  0.00    -0.776 OA
HETATM   44  H   UNK     0      -9.291 -14.100   4.480  0.00  0.00     0.167 HD
ENDBRANCH  41  43
ENDBRANCH  40  41
ENDBRANCH  39  40
ENDBRANCH  27  39
BRANCH  11  45
HETATM   45  C   UNK     0      -9.023 -24.401  -0.818  0.00  0.00     0.051 C 
BRANCH  45  46
HETATM   46  C   UNK     0      -9.364 -25.845  -0.900  0.00  0.00     0.114 C 
BRANCH  46  47
HETATM   47  C   UNK     0      -8.254 -26.599  -0.250  0.00  0.00     0.139 C 
HETATM   48  O   UNK     0      -8.198 -26.619   0.988  0.00  0.00    -0.650 OA
BRANCH  47  49
HETATM   49  O   UNK     0      -7.314 -27.255  -1.004  0.00  0.00    -0.776 OA
HETATM   50  H   UNK     0      -6.422 -26.818  -1.264  0.00  0.00     0.167 HD
ENDBRANCH  47  49
ENDBRANCH  46  47
ENDBRANCH  45  46
ENDBRANCH  11  45
BRANCH  18  51
HETATM   51  C   UNK     0      -5.162 -19.911   2.882  0.00  0.00     0.051 C 
BRANCH  51  52
HETATM   52  C   UNK     0      -5.208 -18.986   1.675  0.00  0.00     0.114 C 
BRANCH  52  53
HETATM   53  C   UNK     0      -4.850 -17.599   2.031  0.00  0.00     0.139 C 
HETATM   54  O   UNK     0      -3.666 -17.230   1.976  0.00  0.00    -0.650 OA
BRANCH  53  55
HETATM   55  O   UNK     0      -5.832 -16.724   2.427  0.00  0.00    -0.776 OA
HETATM   56  H   UNK     0      -5.690 -15.860   2.895  0.00  0.00     0.167 HD
ENDBRANCH  53  55
ENDBRANCH  52  53
ENDBRANCH  51  52
ENDBRANCH  18  51
TORSDOF 16
ENDMDL
MODEL 5
REMARK VINA RESULT:      -8.6      4.719      9.864
REMARK  16 active torsions:
REMARK  status: ('A' for Active; 'I' for Inactive)
REMARK    1  A    between atoms: C_6  and  C_7 
REMARK    2  A    between atoms: C_7  and  C_8 
REMARK    3  A    between atoms: C_8  and  C_9 
REMARK    4  A    between atoms: C_9  and  O_11 
REMARK    5  A    between atoms: C_16  and  C_17 
REMARK    6  A    between atoms: C_17  and  C_18 
REMARK    7  A    between atoms: C_18  and  C_19 
REMARK    8  A    between atoms: C_19  and  O_21 
REMARK    9  A    between atoms: C_28  and  C_29 
REMARK   10  A    between atoms: C_29  and  C_30 
REMARK   11  A    between atoms: C_30  and  C_31 
REMARK   12  A    between atoms: C_31  and  O_33 
REMARK   13  A    between atoms: C_42  and  C_43 
REMARK   14  A    between atoms: C_43  and  C_44 
REMARK   15  A    between atoms: C_44  and  C_45 
REMARK   16  A    between atoms: C_45  and  O_47 
ROOT
HETATM    1  C   UNK     0     -14.526 -19.162   2.868  0.00  0.00     0.051 C 
HETATM    2  C   UNK     0     -13.374 -19.834   2.150  0.00  0.00    -0.031 A 
HETATM    3  C   UNK     0     -12.262 -19.267   1.547  0.00  0.00     0.021 A 
HETATM    4  N   UNK     0     -11.507 -20.250   1.000  0.00  0.00    -0.361 N 
HETATM    5  C   UNK     0     -12.109 -21.431   1.249  0.00  0.00     0.022 A 
HETATM    6  C   UNK     0     -13.281 -21.208   1.964  0.00  0.00    -0.027 A 
HETATM    7  C   UNK     0     -11.643 -22.820   0.944  0.00  0.00     0.115 C 
HETATM    8  C   UNK     0     -10.177 -23.119   1.204  0.00  0.00     0.021 A 
HETATM    9  N   UNK     0      -9.389 -22.652   2.185  0.00  0.00    -0.361 N 
HETATM   10  C   UNK     0      -8.137 -23.109   1.972  0.00  0.00     0.022 A 
HETATM   11  C   UNK     0      -8.120 -23.901   0.827  0.00  0.00    -0.027 A 
HETATM   12  C   UNK     0      -9.401 -23.911   0.338  0.00  0.00    -0.031 A 
HETATM   13  C   UNK     0      -9.859 -24.651  -0.898  0.00  0.00     0.051 C 
HETATM   14  C   UNK     0      -6.902 -22.777   2.804  0.00  0.00     0.115 C 
HETATM   15  C   UNK     0      -6.557 -21.297   2.831  0.00  0.00     0.021 A 
HETATM   16  N   UNK     0      -7.332 -20.280   3.252  0.00  0.00    -0.361 N 
HETATM   17  C   UNK     0      -6.693 -19.127   3.047  0.00  0.00     0.022 A 
HETATM   18  C   UNK     0      -5.436 -19.406   2.473  0.00  0.00    -0.027 A 
HETATM   19  C   UNK     0      -5.363 -20.769   2.344  0.00  0.00    -0.031 A 
HETATM   20  C   UNK     0      -4.152 -21.501   1.797  0.00  0.00     0.051 C 
HETATM   21  C   UNK     0      -7.153 -17.706   3.278  0.00  0.00     0.115 C 
HETATM   22  C   UNK     0      -8.618 -17.404   3.066  0.00  0.00     0.022 A 
HETATM   23  N   UNK     0      -9.427 -17.858   2.100  0.00  0.00    -0.361 N 
HETATM   24  C   UNK     0     -10.684 -17.454   2.376  0.00  0.00     0.021 A 
HETATM   25  C   UNK     0     -10.682 -16.713   3.542  0.00  0.00    -0.031 A 
HETATM   26  C   UNK     0     -11.837 -16.016   4.231  0.00  0.00     0.051 C 
HETATM   27  C   UNK     0      -9.371 -16.666   4.002  0.00  0.00    -0.027 A 
HETATM   28  C   UNK     0     -11.957 -17.798   1.623  0.00  0.00     0.115 C 
HETATM   29  H   UNK     0     -10.575 -20.098   0.408  0.00  0.00     0.165 HD
HETATM   30  H   UNK     0      -9.724 -22.040   3.058  0.00  0.00     0.165 HD
HETATM   31  H   UNK     0      -8.332 -20.381   3.749  0.00  0.00     0.165 HD
HETATM   32  H   UNK     0      -9.112 -18.432   1.190  0.00  0.00     0.165 HD
ENDROOT
BRANCH   6  33
HETATM   33  C   UNK     0     -14.308 -22.187   2.475  0.00  0.00     0.051 C 
BRANCH  33  34
HETATM   34  C   UNK     0     -15.388 -22.415   1.445  0.00  0.00     0.114 C 
BRANCH  34  35
HETATM   35  C   UNK     0     -15.225 -23.804   0.927  0.00  0.00     0.139 C 
HETATM   36  O   UNK     0     -14.540 -24.019  -0.115  0.00  0.00    -0.650 OA
BRANCH  35  37
HETATM   37  O   UNK     0     -15.799 -24.907   1.547  0.00  0.00    -0.776 OA
HETATM   38  H   UNK     0     -15.940 -25.779   1.063  0.00  0.00     0.167 HD
ENDBRANCH  35  37
ENDBRANCH  34  35
ENDBRANCH  33  34
ENDBRANCH   6  33
BRANCH  27  39
HETATM   39  C   UNK     0      -8.961 -15.893   5.205  0.00  0.00     0.051 C 
BRANCH  39  40
HETATM   40  C   UNK     0      -8.697 -16.624   6.444  0.00  0.00     0.114 C 
BRANCH  40  41
HETATM   41  C   UNK     0      -8.522 -15.953   7.713  0.00  0.00     0.139 C 
HETATM   42  O   UNK     0      -9.397 -15.907   8.588  0.00  0.00    -0.650 OA
BRANCH  41  43
HETATM   43  O   UNK     0      -7.285 -15.304   7.986  0.00  0.00    -0.776 OA
HETATM   44  H   UNK     0      -6.869 -14.841   7.187  0.00  0.00     0.167 HD
ENDBRANCH  41  43
ENDBRANCH  40  41
ENDBRANCH  39  40
ENDBRANCH  27  39
BRANCH  11  45
HETATM   45  C   UNK     0      -6.959 -24.628   0.203  0.00  0.00     0.051 C 
BRANCH  45  46
HETATM   46  C   UNK     0      -6.331 -25.641   1.089  0.00  0.00     0.114 C 
BRANCH  46  47
HETATM   47  C   UNK     0      -6.465 -26.963   0.414  0.00  0.00     0.139 C 
HETATM   48  O   UNK     0      -5.495 -27.733   0.422  0.00  0.00    -0.650 OA
BRANCH  47  49
HETATM   49  O   UNK     0      -7.637 -27.320  -0.205  0.00  0.00    -0.776 OA
HETATM   50  H   UNK     0      -7.675 -27.559  -1.203  0.00  0.00     0.167 HD
ENDBRANCH  47  49
ENDBRANCH  46  47
ENDBRANCH  45  46
ENDBRANCH  11  45
BRANCH  18  51
HETATM   51  C   UNK     0      -4.356 -18.429   2.088  0.00  0.00     0.051 C 
BRANCH  51  52
HETATM   52  C   UNK     0      -4.497 -18.207   0.589  0.00  0.00     0.114 C 
BRANCH  52  53
HETATM   53  C   UNK     0      -5.351 -17.043   0.284  0.00  0.00     0.139 C 
HETATM   54  O   UNK     0      -5.048 -15.919   0.714  0.00  0.00    -0.650 OA
BRANCH  53  55
HETATM   55  O   UNK     0      -6.484 -17.213  -0.475  0.00  0.00    -0.776 OA
HETATM   56  H   UNK     0      -6.905 -16.527  -1.057  0.00  0.00     0.167 HD
ENDBRANCH  53  55
ENDBRANCH  52  53
ENDBRANCH  51  52
ENDBRANCH  18  51
TORSDOF 16
ENDMDL
MODEL 6
REMARK VINA RESULT:      -8.5      4.777     11.386
REMARK  16 active torsions:
REMARK  status: ('A' for Active; 'I' for Inactive)
REMARK    1  A    between atoms: C_6  and  C_7 
REMARK    2  A    between atoms: C_7  and  C_8 
REMARK    3  A    between atoms: C_8  and  C_9 
REMARK    4  A    between atoms: C_9  and  O_11 
REMARK    5  A    between atoms: C_16  and  C_17 
REMARK    6  A    between atoms: C_17  and  C_18 
REMARK    7  A    between atoms: C_18  and  C_19 
REMARK    8  A    between atoms: C_19  and  O_21 
REMARK    9  A    between atoms: C_28  and  C_29 
REMARK   10  A    between atoms: C_29  and  C_30 
REMARK   11  A    between atoms: C_30  and  C_31 
REMARK   12  A    between atoms: C_31  and  O_33 
REMARK   13  A    between atoms: C_42  and  C_43 
REMARK   14  A    between atoms: C_43  and  C_44 
REMARK   15  A    between atoms: C_44  and  C_45 
REMARK   16  A    between atoms: C_45  and  O_47 
ROOT
HETATM    1  C   UNK     0      -5.701 -24.133   0.410  0.00  0.00     0.051 C 
HETATM    2  C   UNK     0      -6.805 -23.576   1.286  0.00  0.00    -0.031 A 
HETATM    3  C   UNK     0      -6.715 -22.759   2.401  0.00  0.00     0.021 A 
HETATM    4  N   UNK     0      -7.960 -22.536   2.886  0.00  0.00    -0.361 N 
HETATM    5  C   UNK     0      -8.841 -23.186   2.099  0.00  0.00     0.022 A 
HETATM    6  C   UNK     0      -8.153 -23.850   1.089  0.00  0.00    -0.027 A 
HETATM    7  C   UNK     0     -10.338 -23.188   2.144  0.00  0.00     0.115 C 
HETATM    8  C   UNK     0     -11.014 -21.850   2.387  0.00  0.00     0.021 A 
HETATM    9  N   UNK     0     -10.640 -20.634   1.958  0.00  0.00    -0.361 N 
HETATM   10  C   UNK     0     -11.484 -19.725   2.490  0.00  0.00     0.022 A 
HETATM   11  C   UNK     0     -12.433 -20.373   3.275  0.00  0.00    -0.027 A 
HETATM   12  C   UNK     0     -12.143 -21.712   3.214  0.00  0.00    -0.031 A 
HETATM   13  C   UNK     0     -12.916 -22.807   3.914  0.00  0.00     0.051 C 
HETATM   14  C   UNK     0     -11.398 -18.210   2.323  0.00  0.00     0.115 C 
HETATM   15  C   UNK     0     -10.111 -17.604   2.857  0.00  0.00     0.021 A 
HETATM   16  N   UNK     0      -8.850 -17.893   2.485  0.00  0.00    -0.361 N 
HETATM   17  C   UNK     0      -7.998 -17.197   3.241  0.00  0.00     0.022 A 
HETATM   18  C   UNK     0      -8.740 -16.408   4.143  0.00  0.00    -0.027 A 
HETATM   19  C   UNK     0     -10.062 -16.671   3.891  0.00  0.00    -0.031 A 
HETATM   20  C   UNK     0     -11.210 -15.999   4.622  0.00  0.00     0.051 C 
HETATM   21  C   UNK     0      -6.487 -17.216   3.272  0.00  0.00     0.115 C 
HETATM   22  C   UNK     0      -5.800 -18.531   2.988  0.00  0.00     0.022 A 
HETATM   23  N   UNK     0      -6.152 -19.756   3.399  0.00  0.00    -0.361 N 
HETATM   24  C   UNK     0      -5.346 -20.653   2.795  0.00  0.00     0.021 A 
HETATM   25  C   UNK     0      -4.446 -19.988   1.984  0.00  0.00    -0.031 A 
HETATM   26  C   UNK     0      -3.324 -20.555   1.140  0.00  0.00     0.051 C 
HETATM   27  C   UNK     0      -4.717 -18.628   2.092  0.00  0.00    -0.027 A 
HETATM   28  C   UNK     0      -5.417 -22.168   2.874  0.00  0.00     0.115 C 
HETATM   29  H   UNK     0      -8.204 -21.953   3.805  0.00  0.00     0.165 HD
HETATM   30  H   UNK     0      -9.811 -20.419   1.240  0.00  0.00     0.165 HD
HETATM   31  H   UNK     0      -8.555 -18.568   1.639  0.00  0.00     0.165 HD
HETATM   32  H   UNK     0      -6.946 -19.997   4.153  0.00  0.00     0.165 HD
ENDROOT
BRANCH   6  33
HETATM   33  C   UNK     0      -8.670 -24.715  -0.032  0.00  0.00     0.051 C 
BRANCH  33  34
HETATM   34  C   UNK     0      -8.850 -26.141   0.432  0.00  0.00     0.114 C 
BRANCH  34  35
HETATM   35  C   UNK     0     -10.157 -26.622  -0.102  0.00  0.00     0.139 C 
HETATM   36  O   UNK     0     -11.014 -25.795  -0.530  0.00  0.00    -0.650 OA
BRANCH  35  37
HETATM   37  O   UNK     0     -10.493 -27.969  -0.157  0.00  0.00    -0.776 OA
HETATM   38  H   UNK     0     -10.616 -28.524   0.675  0.00  0.00     0.167 HD
ENDBRANCH  35  37
ENDBRANCH  34  35
ENDBRANCH  33  34
ENDBRANCH   6  33
BRANCH  27  39
HETATM   39  C   UNK     0      -3.903 -17.584   1.413  0.00  0.00     0.051 C 
BRANCH  39  40
HETATM   40  C   UNK     0      -4.214 -17.257   0.021  0.00  0.00     0.114 C 
BRANCH  40  41
HETATM   41  C   UNK     0      -5.426 -16.564  -0.355  0.00  0.00     0.139 C 
HETATM   42  O   UNK     0      -6.511 -17.133  -0.537  0.00  0.00    -0.650 OA
BRANCH  41  43
HETATM   43  O   UNK     0      -5.388 -15.152  -0.531  0.00  0.00    -0.776 OA
HETATM   44  H   UNK     0      -4.719 -14.833  -1.221  0.00  0.00     0.167 HD
ENDBRANCH  41  43
ENDBRANCH  40  41
ENDBRANCH  39  40
ENDBRANCH  27  39
BRANCH  11  45
HETATM   45  C   UNK     0     -13.574 -19.779   4.056  0.00  0.00     0.051 C 
BRANCH  45  46
HETATM   46  C   UNK     0     -13.201 -19.313   5.416  0.00  0.00     0.114 C 
BRANCH  46  47
HETATM   47  C   UNK     0     -14.240 -18.334   5.848  0.00  0.00     0.139 C 
HETATM   48  O   UNK     0     -13.984 -17.580   6.797  0.00  0.00    -0.650 OA
BRANCH  47  49
HETATM   49  O   UNK     0     -15.453 -18.269   5.210  0.00  0.00    -0.776 OA
HETATM   50  H   UNK     0     -15.869 -19.085   4.745  0.00  0.00     0.167 HD
ENDBRANCH  47  49
ENDBRANCH  46  47
ENDBRANCH  45  46
ENDBRANCH  11  45
BRANCH  18  51
HETATM   51  C   UNK     0      -8.218 -15.440   5.173  0.00  0.00     0.051 C 
BRANCH  51  52
HETATM   52  C   UNK     0      -8.137 -16.213   6.481  0.00  0.00     0.114 C 
BRANCH  52  53
HETATM   53  C   UNK     0      -8.579 -15.399   7.629  0.00  0.00     0.139 C 
HETATM   54  O   UNK     0      -9.768 -15.054   7.726  0.00  0.00    -0.650 OA
BRANCH  53  55
HETATM   55  O   UNK     0      -7.668 -15.022   8.585  0.00  0.00    -0.776 OA
HETATM   56  H   UNK     0      -6.692 -15.202   8.566  0.00  0.00     0.167 HD
ENDBRANCH  53  55
ENDBRANCH  52  53
ENDBRANCH  51  52
ENDBRANCH  18  51
TORSDOF 16
ENDMDL
MODEL 7
REMARK VINA RESULT:      -8.4      2.351      3.605
REMARK  16 active torsions:
REMARK  status: ('A' for Active; 'I' for Inactive)
REMARK    1  A    between atoms: C_6  and  C_7 
REMARK    2  A    between atoms: C_7  and  C_8 
REMARK    3  A    between atoms: C_8  and  C_9 
REMARK    4  A    between atoms: C_9  and  O_11 
REMARK    5  A    between atoms: C_16  and  C_17 
REMARK    6  A    between atoms: C_17  and  C_18 
REMARK    7  A    between atoms: C_18  and  C_19 
REMARK    8  A    between atoms: C_19  and  O_21 
REMARK    9  A    between atoms: C_28  and  C_29 
REMARK   10  A    between atoms: C_29  and  C_30 
REMARK   11  A    between atoms: C_30  and  C_31 
REMARK   12  A    between atoms: C_31  and  O_33 
REMARK   13  A    between atoms: C_42  and  C_43 
REMARK   14  A    between atoms: C_43  and  C_44 
REMARK   15  A    between atoms: C_44  and  C_45 
REMARK   16  A    between atoms: C_45  and  O_47 
ROOT
HETATM    1  C   UNK     0      -8.037 -21.998   2.869  0.00  0.00     0.051 C 
HETATM    2  C   UNK     0      -6.795 -22.068   2.005  0.00  0.00    -0.031 A 
HETATM    3  C   UNK     0      -6.420 -23.030   1.080  0.00  0.00     0.021 A 
HETATM    4  N   UNK     0      -5.212 -22.699   0.565  0.00  0.00    -0.361 N 
HETATM    5  C   UNK     0      -4.814 -21.542   1.134  0.00  0.00     0.022 A 
HETATM    6  C   UNK     0      -5.780 -21.121   2.042  0.00  0.00    -0.027 A 
HETATM    7  C   UNK     0      -3.606 -20.706   0.847  0.00  0.00     0.115 C 
HETATM    8  C   UNK     0      -3.241 -20.515  -0.614  0.00  0.00     0.021 A 
HETATM    9  N   UNK     0      -4.058 -20.389  -1.671  0.00  0.00    -0.361 N 
HETATM   10  C   UNK     0      -3.298 -20.333  -2.785  0.00  0.00     0.022 A 
HETATM   11  C   UNK     0      -1.953 -20.414  -2.435  0.00  0.00    -0.027 A 
HETATM   12  C   UNK     0      -1.910 -20.529  -1.069  0.00  0.00    -0.031 A 
HETATM   13  C   UNK     0      -0.650 -20.641  -0.241  0.00  0.00     0.051 C 
HETATM   14  C   UNK     0      -3.808 -20.254  -4.221  0.00  0.00     0.115 C 
HETATM   15  C   UNK     0      -4.661 -21.441  -4.638  0.00  0.00     0.021 A 
HETATM   16  N   UNK     0      -5.802 -21.873  -4.069  0.00  0.00    -0.361 N 
HETATM   17  C   UNK     0      -6.205 -22.987  -4.685  0.00  0.00     0.022 A 
HETATM   18  C   UNK     0      -5.288 -23.290  -5.710  0.00  0.00    -0.027 A 
HETATM   19  C   UNK     0      -4.326 -22.314  -5.671  0.00  0.00    -0.031 A 
HETATM   20  C   UNK     0      -3.158 -22.240  -6.638  0.00  0.00     0.051 C 
HETATM   21  C   UNK     0      -7.377 -23.893  -4.385  0.00  0.00     0.115 C 
HETATM   22  C   UNK     0      -7.779 -24.058  -2.938  0.00  0.00     0.022 A 
HETATM   23  N   UNK     0      -6.987 -24.181  -1.866  0.00  0.00    -0.361 N 
HETATM   24  C   UNK     0      -7.761 -24.157  -0.762  0.00  0.00     0.021 A 
HETATM   25  C   UNK     0      -9.085 -24.026  -1.134  0.00  0.00    -0.031 A 
HETATM   26  C   UNK     0     -10.322 -23.992  -0.260  0.00  0.00     0.051 C 
HETATM   27  C   UNK     0      -9.123 -23.961  -2.522  0.00  0.00    -0.027 A 
HETATM   28  C   UNK     0      -7.312 -24.173   0.689  0.00  0.00     0.115 C 
HETATM   29  H   UNK     0      -4.631 -23.305  -0.168  0.00  0.00     0.165 HD
HETATM   30  H   UNK     0      -5.171 -20.290  -1.630  0.00  0.00     0.165 HD
HETATM   31  H   UNK     0      -6.362 -21.355  -3.247  0.00  0.00     0.165 HD
HETATM   32  H   UNK     0      -5.876 -24.330  -1.879  0.00  0.00     0.165 HD
ENDROOT
BRANCH   6  33
HETATM   33  C   UNK     0      -5.810 -19.905   2.932  0.00  0.00     0.051 C 
BRANCH  33  34
HETATM   34  C   UNK     0      -6.446 -18.735   2.220  0.00  0.00     0.114 C 
BRANCH  34  35
HETATM   35  C   UNK     0      -5.803 -17.493   2.737  0.00  0.00     0.139 C 
HETATM   36  O   UNK     0      -6.363 -16.819   3.650  0.00  0.00    -0.650 OA
BRANCH  35  37
HETATM   37  O   UNK     0      -4.586 -17.024   2.258  0.00  0.00    -0.776 OA
HETATM   38  H   UNK     0      -3.708 -17.428   2.542  0.00  0.00     0.167 HD
ENDBRANCH  35  37
ENDBRANCH  34  35
ENDBRANCH  33  34
ENDBRANCH   6  33
BRANCH  27  39
HETATM   39  C   UNK     0     -10.391 -23.889  -3.296  0.00  0.00     0.051 C 
BRANCH  39  40
HETATM   40  C   UNK     0     -10.929 -25.125  -3.865  0.00  0.00     0.114 C 
BRANCH  40  41
HETATM   41  C   UNK     0     -10.251 -26.394  -3.728  0.00  0.00     0.139 C 
HETATM   42  O   UNK     0     -10.443 -27.173  -2.784  0.00  0.00    -0.650 OA
BRANCH  41  43
HETATM   43  O   UNK     0      -9.310 -26.786  -4.722  0.00  0.00    -0.776 OA
HETATM   44  H   UNK     0      -8.837 -27.661  -4.529  0.00  0.00     0.167 HD
ENDBRANCH  41  43
ENDBRANCH  40  41
ENDBRANCH  39  40
ENDBRANCH  27  39
BRANCH  11  45
HETATM   45  C   UNK     0      -0.744 -20.385  -3.331  0.00  0.00     0.051 C 
BRANCH  45  46
HETATM   46  C   UNK     0      -0.054 -19.071  -3.375  0.00  0.00     0.114 C 
BRANCH  46  47
HETATM   47  C   UNK     0      -0.535 -18.360  -4.595  0.00  0.00     0.139 C 
HETATM   48  O   UNK     0      -1.518 -17.613  -4.496  0.00  0.00    -0.650 OA
BRANCH  47  49
HETATM   49  O   UNK     0       0.096 -18.530  -5.801  0.00  0.00    -0.776 OA
HETATM   50  H   UNK     0       0.403 -19.452  -6.131  0.00  0.00     0.167 HD
ENDBRANCH  47  49
ENDBRANCH  46  47
ENDBRANCH  45  46
ENDBRANCH  11  45
BRANCH  18  51
HETATM   51  C   UNK     0      -5.336 -24.435  -6.688  0.00  0.00     0.051 C 
BRANCH  51  52
HETATM   52  C   UNK     0      -6.480 -24.130  -7.645  0.00  0.00     0.114 C 
BRANCH  52  53
HETATM   53  C   UNK     0      -7.297 -25.327  -7.923  0.00  0.00     0.139 C 
HETATM   54  O   UNK     0      -7.516 -26.153  -7.023  0.00  0.00    -0.650 OA
BRANCH  53  55
HETATM   55  O   UNK     0      -7.809 -25.522  -9.183  0.00  0.00    -0.776 OA
HETATM   56  H   UNK     0      -7.857 -24.843  -9.905  0.00  0.00     0.167 HD
ENDBRANCH  53  55
ENDBRANCH  52  53
ENDBRANCH  51  52
ENDBRANCH  18  51
TORSDOF 16
ENDMDL
MODEL 8
REMARK VINA RESULT:      -8.4      4.648     11.291
REMARK  16 active torsions:
REMARK  status: ('A' for Active; 'I' for Inactive)
REMARK    1  A    between atoms: C_6  and  C_7 
REMARK    2  A    between atoms: C_7  and  C_8 
REMARK    3  A    between atoms: C_8  and  C_9 
REMARK    4  A    between atoms: C_9  and  O_11 
REMARK    5  A    between atoms: C_16  and  C_17 
REMARK    6  A    between atoms: C_17  and  C_18 
REMARK    7  A    between atoms: C_18  and  C_19 
REMARK    8  A    between atoms: C_19  and  O_21 
REMARK    9  A    between atoms: C_28  and  C_29 
REMARK   10  A    between atoms: C_29  and  C_30 
REMARK   11  A    between atoms: C_30  and  C_31 
REMARK   12  A    between atoms: C_31  and  O_33 
REMARK   13  A    between atoms: C_42  and  C_43 
REMARK   14  A    between atoms: C_43  and  C_44 
REMARK   15  A    between atoms: C_44  and  C_45 
REMARK   16  A    between atoms: C_45  and  O_47 
ROOT
HETATM    1  C   UNK     0      -8.117 -24.543  -0.294  0.00  0.00     0.051 C 
HETATM    2  C   UNK     0      -9.231 -23.769   0.381  0.00  0.00    -0.031 A 
HETATM    3  C   UNK     0      -9.247 -23.153   1.623  0.00  0.00     0.021 A 
HETATM    4  N   UNK     0     -10.469 -22.605   1.827  0.00  0.00    -0.361 N 
HETATM    5  C   UNK     0     -11.228 -22.850   0.739  0.00  0.00     0.022 A 
HETATM    6  C   UNK     0     -10.485 -23.579  -0.184  0.00  0.00    -0.027 A 
HETATM    7  C   UNK     0     -12.615 -22.385   0.421  0.00  0.00     0.115 C 
HETATM    8  C   UNK     0     -12.940 -20.939   0.750  0.00  0.00     0.021 A 
HETATM    9  N   UNK     0     -12.142 -19.863   0.669  0.00  0.00    -0.361 N 
HETATM   10  C   UNK     0     -12.822 -18.800   1.149  0.00  0.00     0.022 A 
HETATM   11  C   UNK     0     -14.096 -19.200   1.540  0.00  0.00    -0.027 A 
HETATM   12  C   UNK     0     -14.178 -20.546   1.291  0.00  0.00    -0.031 A 
HETATM   13  C   UNK     0     -15.388 -21.413   1.557  0.00  0.00     0.051 C 
HETATM   14  C   UNK     0     -12.282 -17.381   1.306  0.00  0.00     0.115 C 
HETATM   15  C   UNK     0     -11.089 -17.277   2.243  0.00  0.00     0.021 A 
HETATM   16  N   UNK     0      -9.904 -17.905   2.136  0.00  0.00    -0.361 N 
HETATM   17  C   UNK     0      -9.150 -17.603   3.196  0.00  0.00     0.022 A 
HETATM   18  C   UNK     0      -9.876 -16.728   4.028  0.00  0.00    -0.027 A 
HETATM   19  C   UNK     0     -11.088 -16.530   3.419  0.00  0.00    -0.031 A 
HETATM   20  C   UNK     0     -12.169 -15.617   3.968  0.00  0.00     0.051 C 
HETATM   21  C   UNK     0      -7.777 -18.102   3.586  0.00  0.00     0.115 C 
HETATM   22  C   UNK     0      -7.424 -19.526   3.226  0.00  0.00     0.022 A 
HETATM   23  N   UNK     0      -8.199 -20.616   3.292  0.00  0.00    -0.361 N 
HETATM   24  C   UNK     0      -7.530 -21.646   2.738  0.00  0.00     0.021 A 
HETATM   25  C   UNK     0      -6.289 -21.212   2.313  0.00  0.00    -0.031 A 
HETATM   26  C   UNK     0      -5.170 -22.004   1.670  0.00  0.00     0.051 C 
HETATM   27  C   UNK     0      -6.197 -19.858   2.615  0.00  0.00    -0.027 A 
HETATM   28  C   UNK     0      -8.031 -23.060   2.500  0.00  0.00     0.115 C 
HETATM   29  H   UNK     0     -10.799 -22.083   2.755  0.00  0.00     0.165 HD
HETATM   30  H   UNK     0     -11.116 -19.841   0.228  0.00  0.00     0.165 HD
HETATM   31  H   UNK     0      -9.573 -18.538   1.272  0.00  0.00     0.165 HD
HETATM   32  H   UNK     0      -9.211 -20.677   3.771  0.00  0.00     0.165 HD
ENDROOT
BRANCH   6  33
HETATM   33  C   UNK     0     -10.873 -24.103  -1.544  0.00  0.00     0.051 C 
BRANCH  33  34
HETATM   34  C   UNK     0     -10.697 -23.037  -2.599  0.00  0.00     0.114 C 
BRANCH  34  35
HETATM   35  C   UNK     0      -9.708 -23.549  -3.590  0.00  0.00     0.139 C 
HETATM   36  O   UNK     0      -9.343 -24.760  -3.559  0.00  0.00    -0.650 OA
BRANCH  35  37
HETATM   37  O   UNK     0      -9.151 -22.744  -4.577  0.00  0.00    -0.776 OA
HETATM   38  H   UNK     0      -8.810 -23.123  -5.446  0.00  0.00     0.167 HD
ENDBRANCH  35  37
ENDBRANCH  34  35
ENDBRANCH  33  34
ENDBRANCH   6  33
BRANCH  27  39
HETATM   39  C   UNK     0      -4.969 -19.053   2.369  0.00  0.00     0.051 C 
BRANCH  39  40
HETATM   40  C   UNK     0      -4.810 -18.411   1.065  0.00  0.00     0.114 C 
BRANCH  40  41
HETATM   41  C   UNK     0      -5.573 -17.245   0.682  0.00  0.00     0.139 C 
HETATM   42  O   UNK     0      -6.504 -17.275  -0.134  0.00  0.00    -0.650 OA
BRANCH  41  43
HETATM   43  O   UNK     0      -5.251 -15.986   1.264  0.00  0.00    -0.776 OA
HETATM   44  H   UNK     0      -6.054 -15.426   1.524  0.00  0.00     0.167 HD
ENDBRANCH  41  43
ENDBRANCH  40  41
ENDBRANCH  39  40
ENDBRANCH  27  39
BRANCH  11  45
HETATM   45  C   UNK     0     -15.207 -18.368   2.123  0.00  0.00     0.051 C 
BRANCH  45  46
HETATM   46  C   UNK     0     -15.225 -18.336   3.608  0.00  0.00     0.114 C 
BRANCH  46  47
HETATM   47  C   UNK     0     -16.651 -18.431   4.034  0.00  0.00     0.139 C 
HETATM   48  O   UNK     0     -16.964 -18.004   5.154  0.00  0.00    -0.650 OA
BRANCH  47  49
HETATM   49  O   UNK     0     -17.596 -18.982   3.206  0.00  0.00    -0.776 OA
HETATM   50  H   UNK     0     -17.813 -18.583   2.285  0.00  0.00     0.167 HD
ENDBRANCH  47  49
ENDBRANCH  46  47
ENDBRANCH  45  46
ENDBRANCH  11  45
BRANCH  18  51
HETATM   51  C   UNK     0      -9.430 -16.098   5.322  0.00  0.00     0.051 C 
BRANCH  51  52
HETATM   52  C   UNK     0      -8.908 -14.715   4.965  0.00  0.00     0.114 C 
BRANCH  52  53
HETATM   53  C   UNK     0      -7.446 -14.617   5.141  0.00  0.00     0.139 C 
HETATM   54  O   UNK     0      -6.812 -15.574   5.613  0.00  0.00    -0.650 OA
BRANCH  53  55
HETATM   55  O   UNK     0      -6.795 -13.461   4.784  0.00  0.00    -0.776 OA
HETATM   56  H   UNK     0      -5.870 -13.398   4.427  0.00  0.00     0.167 HD
ENDBRANCH  53  55
ENDBRANCH  52  53
ENDBRANCH  51  52
ENDBRANCH  18  51
TORSDOF 16
ENDMDL
MODEL 9
REMARK VINA RESULT:      -8.3      4.920     11.237
REMARK  16 active torsions:
REMARK  status: ('A' for Active; 'I' for Inactive)
REMARK    1  A    between atoms: C_6  and  C_7 
REMARK    2  A    between atoms: C_7  and  C_8 
REMARK    3  A    between atoms: C_8  and  C_9 
REMARK    4  A    between atoms: C_9  and  O_11 
REMARK    5  A    between atoms: C_16  and  C_17 
REMARK    6  A    between atoms: C_17  and  C_18 
REMARK    7  A    between atoms: C_18  and  C_19 
REMARK    8  A    between atoms: C_19  and  O_21 
REMARK    9  A    between atoms: C_28  and  C_29 
REMARK   10  A    between atoms: C_29  and  C_30 
REMARK   11  A    between atoms: C_30  and  C_31 
REMARK   12  A    between atoms: C_31  and  O_33 
REMARK   13  A    between atoms: C_42  and  C_43 
REMARK   14  A    between atoms: C_43  and  C_44 
REMARK   15  A    between atoms: C_44  and  C_45 
REMARK   16  A    between atoms: C_45  and  O_47 
ROOT
HETATM    1  C   UNK     0      -6.784 -24.010   0.775  0.00  0.00     0.051 C 
HETATM    2  C   UNK     0      -8.106 -23.490   1.301  0.00  0.00    -0.031 A 
HETATM    3  C   UNK     0      -8.358 -22.663   2.384  0.00  0.00     0.021 A 
HETATM    4  N   UNK     0      -9.696 -22.484   2.501  0.00  0.00    -0.361 N 
HETATM    5  C   UNK     0     -10.301 -23.173   1.511  0.00  0.00     0.022 A 
HETATM    6  C   UNK     0      -9.336 -23.817   0.743  0.00  0.00    -0.027 A 
HETATM    7  C   UNK     0     -11.750 -23.232   1.140  0.00  0.00     0.115 C 
HETATM    8  C   UNK     0     -12.513 -21.919   1.163  0.00  0.00     0.021 A 
HETATM    9  N   UNK     0     -12.078 -20.693   0.834  0.00  0.00    -0.361 N 
HETATM   10  C   UNK     0     -13.067 -19.813   1.095  0.00  0.00     0.022 A 
HETATM   11  C   UNK     0     -14.173 -20.492   1.598  0.00  0.00    -0.027 A 
HETATM   12  C   UNK     0     -13.831 -21.819   1.643  0.00  0.00    -0.031 A 
HETATM   13  C   UNK     0     -14.730 -22.938   2.120  0.00  0.00     0.051 C 
HETATM   14  C   UNK     0     -12.992 -18.298   0.933  0.00  0.00     0.115 C 
HETATM   15  C   UNK     0     -11.925 -17.639   1.793  0.00  0.00     0.021 A 
HETATM   16  N   UNK     0     -10.601 -17.882   1.789  0.00  0.00    -0.361 N 
HETATM   17  C   UNK     0     -10.018 -17.148   2.739  0.00  0.00     0.022 A 
HETATM   18  C   UNK     0     -11.007 -16.383   3.386  0.00  0.00    -0.027 A 
HETATM   19  C   UNK     0     -12.197 -16.698   2.783  0.00  0.00    -0.031 A 
HETATM   20  C   UNK     0     -13.526 -16.065   3.156  0.00  0.00     0.051 C 
HETATM   21  C   UNK     0      -8.574 -17.109   3.188  0.00  0.00     0.115 C 
HETATM   22  C   UNK     0      -7.790 -18.399   3.129  0.00  0.00     0.022 A 
HETATM   23  N   UNK     0      -8.199 -19.634   3.446  0.00  0.00    -0.361 N 
HETATM   24  C   UNK     0      -7.226 -20.503   3.105  0.00  0.00     0.021 A 
HETATM   25  C   UNK     0      -6.161 -19.810   2.564  0.00  0.00    -0.031 A 
HETATM   26  C   UNK     0      -4.829 -20.339   2.073  0.00  0.00     0.051 C 
HETATM   27  C   UNK     0      -6.498 -18.461   2.569  0.00  0.00    -0.027 A 
HETATM   28  C   UNK     0      -7.263 -22.019   3.187  0.00  0.00     0.115 C 
HETATM   29  H   UNK     0     -10.205 -21.905   3.305  0.00  0.00     0.165 HD
HETATM   30  H   UNK     0     -11.090 -20.452   0.370  0.00  0.00     0.165 HD
HETATM   31  H   UNK     0     -10.059 -18.550   1.070  0.00  0.00     0.165 HD
HETATM   32  H   UNK     0      -9.162 -19.900   3.955  0.00  0.00     0.165 HD
ENDROOT
BRANCH   6  33
HETATM   33  C   UNK     0      -9.492 -24.708  -0.462  0.00  0.00     0.051 C 
BRANCH  33  34
HETATM   34  C   UNK     0      -9.543 -26.161  -0.051  0.00  0.00     0.114 C 
BRANCH  34  35
HETATM   35  C   UNK     0      -8.324 -26.823  -0.598  0.00  0.00     0.139 C 
HETATM   36  O   UNK     0      -7.460 -27.314   0.186  0.00  0.00    -0.650 OA
BRANCH  35  37
HETATM   37  O   UNK     0      -8.080 -26.936  -1.961  0.00  0.00    -0.776 OA
HETATM   38  H   UNK     0      -7.250 -26.557  -2.389  0.00  0.00     0.167 HD
ENDBRANCH  35  37
ENDBRANCH  34  35
ENDBRANCH  33  34
ENDBRANCH   6  33
BRANCH  27  39
HETATM   39  C   UNK     0      -5.565 -17.390   2.124  0.00  0.00     0.051 C 
BRANCH  39  40
HETATM   40  C   UNK     0      -5.665 -16.911   0.746  0.00  0.00     0.114 C 
BRANCH  40  41
HETATM   41  C   UNK     0      -4.693 -16.008   0.171  0.00  0.00     0.139 C 
HETATM   42  O   UNK     0      -3.482 -16.260   0.104  0.00  0.00    -0.650 OA
BRANCH  41  43
HETATM   43  O   UNK     0      -5.133 -14.759  -0.349  0.00  0.00    -0.776 OA
HETATM   44  H   UNK     0      -5.978 -14.400   0.080  0.00  0.00     0.167 HD
ENDBRANCH  41  43
ENDBRANCH  40  41
ENDBRANCH  39  40
ENDBRANCH  27  39
BRANCH  11  45
HETATM   45  C   UNK     0     -15.507 -19.937   2.021  0.00  0.00     0.051 C 
BRANCH  45  46
HETATM   46  C   UNK     0     -16.545 -19.977   0.960  0.00  0.00     0.114 C 
BRANCH  46  47
HETATM   47  C   UNK     0     -17.872 -19.938   1.638  0.00  0.00     0.139 C 
HETATM   48  O   UNK     0     -18.805 -20.592   1.152  0.00  0.00    -0.650 OA
BRANCH  47  49
HETATM   49  O   UNK     0     -18.058 -19.194   2.776  0.00  0.00    -0.776 OA
HETATM   50  H   UNK     0     -17.493 -19.339   3.621  0.00  0.00     0.167 HD
ENDBRANCH  47  49
ENDBRANCH  46  47
ENDBRANCH  45  46
ENDBRANCH  11  45
BRANCH  18  51
HETATM   51  C   UNK     0     -10.826 -15.389   4.504  0.00  0.00     0.051 C 
BRANCH  51  52
HETATM   52  C   UNK     0     -10.829 -16.194   5.795  0.00  0.00     0.114 C 
BRANCH  52  53
HETATM   53  C   UNK     0      -9.550 -16.072   6.522  0.00  0.00     0.139 C 
HETATM   54  O   UNK     0      -8.874 -17.084   6.765  0.00  0.00    -0.650 OA
BRANCH  53  55
HETATM   55  O   UNK     0      -9.116 -14.834   6.929  0.00  0.00    -0.776 OA
HETATM   56  H   UNK     0      -8.795 -14.104   6.338  0.00  0.00     0.167 HD
ENDBRANCH  53  55
ENDBRANCH  52  53
ENDBRANCH  51  52
ENDBRANCH  18  51
TORSDOF 16
ENDMDL
MODEL 10
REMARK VINA RESULT:      -8.3      4.892     11.112
REMARK  16 active torsions:
REMARK  status: ('A' for Active; 'I' for Inactive)
REMARK    1  A    between atoms: C_6  and  C_7 
REMARK    2  A    between atoms: C_7  and  C_8 
REMARK    3  A    between atoms: C_8  and  C_9 
REMARK    4  A    between atoms: C_9  and  O_11 
REMARK    5  A    between atoms: C_16  and  C_17 
REMARK    6  A    between atoms: C_17  and  C_18 
REMARK    7  A    between atoms: C_18  and  C_19 
REMARK    8  A    between atoms: C_19  and  O_21 
REMARK    9  A    between atoms: C_28  and  C_29 
REMARK   10  A    between atoms: C_29  and  C_30 
REMARK   11  A    between atoms: C_30  and  C_31 
REMARK   12  A    between atoms: C_31  and  O_33 
REMARK   13  A    between atoms: C_42  and  C_43 
REMARK   14  A    between atoms: C_43  and  C_44 
REMARK   15  A    between atoms: C_44  and  C_45 
REMARK   16  A    between atoms: C_45  and  O_47 
ROOT
HETATM    1  C   UNK     0      -6.887 -23.883  -0.120  0.00  0.00     0.051 C 
HETATM    2  C   UNK     0      -8.286 -23.688   0.428  0.00  0.00    -0.031 A 
HETATM    3  C   UNK     0      -8.690 -23.344   1.709  0.00  0.00     0.021 A 
HETATM    4  N   UNK     0     -10.043 -23.313   1.752  0.00  0.00    -0.361 N 
HETATM    5  C   UNK     0     -10.510 -23.620   0.525  0.00  0.00     0.022 A 
HETATM    6  C   UNK     0      -9.438 -23.863  -0.328  0.00  0.00    -0.027 A 
HETATM    7  C   UNK     0     -11.919 -23.633   0.018  0.00  0.00     0.115 C 
HETATM    8  C   UNK     0     -12.808 -22.479   0.447  0.00  0.00     0.021 A 
HETATM    9  N   UNK     0     -12.475 -21.193   0.635  0.00  0.00    -0.361 N 
HETATM   10  C   UNK     0     -13.562 -20.543   1.103  0.00  0.00     0.022 A 
HETATM   11  C   UNK     0     -14.626 -21.433   1.211  0.00  0.00    -0.027 A 
HETATM   12  C   UNK     0     -14.158 -22.654   0.798  0.00  0.00    -0.031 A 
HETATM   13  C   UNK     0     -14.972 -23.928   0.741  0.00  0.00     0.051 C 
HETATM   14  C   UNK     0     -13.625 -19.075   1.517  0.00  0.00     0.115 C 
HETATM   15  C   UNK     0     -12.688 -18.716   2.658  0.00  0.00     0.021 A 
HETATM   16  N   UNK     0     -11.349 -18.851   2.695  0.00  0.00    -0.361 N 
HETATM   17  C   UNK     0     -10.904 -18.489   3.901  0.00  0.00     0.022 A 
HETATM   18  C   UNK     0     -12.005 -18.089   4.684  0.00  0.00    -0.027 A 
HETATM   19  C   UNK     0     -13.116 -18.235   3.894  0.00  0.00    -0.031 A 
HETATM   20  C   UNK     0     -14.522 -17.878   4.341  0.00  0.00     0.051 C 
HETATM   21  C   UNK     0      -9.505 -18.524   4.471  0.00  0.00     0.115 C 
HETATM   22  C   UNK     0      -8.595 -19.642   4.020  0.00  0.00     0.022 A 
HETATM   23  N   UNK     0      -8.900 -20.931   3.820  0.00  0.00    -0.361 N 
HETATM   24  C   UNK     0      -7.826 -21.541   3.280  0.00  0.00     0.021 A 
HETATM   25  C   UNK     0      -6.801 -20.626   3.138  0.00  0.00    -0.031 A 
HETATM   26  C   UNK     0      -5.394 -20.842   2.621  0.00  0.00     0.051 C 
HETATM   27  C   UNK     0      -7.269 -19.403   3.605  0.00  0.00    -0.027 A 
HETATM   28  C   UNK     0      -7.719 -22.977   2.795  0.00  0.00     0.115 C 
HETATM   29  H   UNK     0     -10.658 -23.113   2.659  0.00  0.00     0.165 HD
HETATM   30  H   UNK     0     -11.488 -20.729   0.391  0.00  0.00     0.165 HD
HETATM   31  H   UNK     0     -10.698 -19.164   1.838  0.00  0.00     0.165 HD
HETATM   32  H   UNK     0      -9.863 -21.432   4.098  0.00  0.00     0.165 HD
ENDROOT
BRANCH   6  33
HETATM   33  C   UNK     0      -9.426 -24.247  -1.786  0.00  0.00     0.051 C 
BRANCH  33  34
HETATM   34  C   UNK     0     -10.088 -25.589  -1.991  0.00  0.00     0.114 C 
BRANCH  34  35
HETATM   35  C   UNK     0      -9.158 -26.631  -1.467  0.00  0.00     0.139 C 
HETATM   36  O   UNK     0      -7.958 -26.673  -1.867  0.00  0.00    -0.650 OA
BRANCH  35  37
HETATM   37  O   UNK     0      -9.549 -27.584  -0.535  0.00  0.00    -0.776 OA
HETATM   38  H   UNK     0     -10.106 -28.384  -0.789  0.00  0.00     0.167 HD
ENDBRANCH  35  37
ENDBRANCH  34  35
ENDBRANCH  33  34
ENDBRANCH   6  33
BRANCH  27  39
HETATM   39  C   UNK     0      -6.419 -18.184   3.678  0.00  0.00     0.051 C 
BRANCH  39  40
HETATM   40  C   UNK     0      -6.616 -17.139   2.674  0.00  0.00     0.114 C 
BRANCH  40  41
HETATM   41  C   UNK     0      -5.785 -17.036   1.496  0.00  0.00     0.139 C 
HETATM   42  O   UNK     0      -6.227 -17.095   0.340  0.00  0.00    -0.650 OA
BRANCH  41  43
HETATM   43  O   UNK     0      -4.381 -16.856   1.653  0.00  0.00    -0.776 OA
HETATM   44  H   UNK     0      -3.973 -17.394   2.408  0.00  0.00     0.167 HD
ENDBRANCH  41  43
ENDBRANCH  40  41
ENDBRANCH  39  40
ENDBRANCH  27  39
BRANCH  11  45
HETATM   45  C   UNK     0     -16.033 -21.167   1.676  0.00  0.00     0.051 C 
BRANCH  45  46
HETATM   46  C   UNK     0     -16.912 -20.572   0.637  0.00  0.00     0.114 C 
BRANCH  46  47
HETATM   47  C   UNK     0     -18.179 -20.168   1.311  0.00  0.00     0.139 C 
HETATM   48  O   UNK     0     -18.109 -19.505   2.356  0.00  0.00    -0.650 OA
BRANCH  47  49
HETATM   49  O   UNK     0     -19.397 -20.521   0.787  0.00  0.00    -0.776 OA
HETATM   50  H   UNK     0     -20.062 -19.823   0.433  0.00  0.00     0.167 HD
ENDBRANCH  47  49
ENDBRANCH  46  47
ENDBRANCH  45  46
ENDBRANCH  11  45
BRANCH  18  51
HETATM   51  C   UNK     0     -11.997 -17.576   6.101  0.00  0.00     0.051 C 
BRANCH  51  52
HETATM   52  C   UNK     0     -11.794 -18.792   6.993  0.00  0.00     0.114 C 
BRANCH  52  53
HETATM   53  C   UNK     0     -12.979 -19.064   7.829  0.00  0.00     0.139 C 
HETATM   54  O   UNK     0     -14.031 -19.463   7.305  0.00  0.00    -0.650 OA
BRANCH  53  55
HETATM   55  O   UNK     0     -12.912 -18.869   9.187  0.00  0.00    -0.776 OA
HETATM   56  H   UNK     0     -12.136 -18.500   9.686  0.00  0.00     0.167 HD
ENDBRANCH  53  55
ENDBRANCH  52  53
ENDBRANCH  51  52
ENDBRANCH  18  51
TORSDOF 16
ENDMDL
MODEL 11
REMARK VINA RESULT:      -8.2      4.284     11.239
REMARK  16 active torsions:
REMARK  status: ('A' for Active; 'I' for Inactive)
REMARK    1  A    between atoms: C_6  and  C_7 
REMARK    2  A    between atoms: C_7  and  C_8 
REMARK    3  A    between atoms: C_8  and  C_9 
REMARK    4  A    between atoms: C_9  and  O_11 
REMARK    5  A    between atoms: C_16  and  C_17 
REMARK    6  A    between atoms: C_17  and  C_18 
REMARK    7  A    between atoms: C_18  and  C_19 
REMARK    8  A    between atoms: C_19  and  O_21 
REMARK    9  A    between atoms: C_28  and  C_29 
REMARK   10  A    between atoms: C_29  and  C_30 
REMARK   11  A    between atoms: C_30  and  C_31 
REMARK   12  A    between atoms: C_31  and  O_33 
REMARK   13  A    between atoms: C_42  and  C_43 
REMARK   14  A    between atoms: C_43  and  C_44 
REMARK   15  A    between atoms: C_44  and  C_45 
REMARK   16  A    between atoms: C_45  and  O_47 
ROOT
HETATM    1  C   UNK     0      -8.020 -24.910  -1.267  0.00  0.00     0.051 C 
HETATM    2  C   UNK     0      -9.088 -24.291  -0.389  0.00  0.00    -0.031 A 
HETATM    3  C   UNK     0      -9.026 -23.925   0.946  0.00  0.00     0.021 A 
HETATM    4  N   UNK     0     -10.232 -23.439   1.327  0.00  0.00    -0.361 N 
HETATM    5  C   UNK     0     -11.058 -23.479   0.261  0.00  0.00     0.022 A 
HETATM    6  C   UNK     0     -10.375 -24.010  -0.829  0.00  0.00    -0.027 A 
HETATM    7  C   UNK     0     -12.461 -22.976   0.124  0.00  0.00     0.115 C 
HETATM    8  C   UNK     0     -12.763 -21.622   0.743  0.00  0.00     0.021 A 
HETATM    9  N   UNK     0     -11.969 -20.543   0.821  0.00  0.00    -0.361 N 
HETATM   10  C   UNK     0     -12.616 -19.598   1.537  0.00  0.00     0.022 A 
HETATM   11  C   UNK     0     -13.864 -20.079   1.922  0.00  0.00    -0.027 A 
HETATM   12  C   UNK     0     -13.963 -21.354   1.425  0.00  0.00    -0.031 A 
HETATM   13  C   UNK     0     -15.156 -22.267   1.594  0.00  0.00     0.051 C 
HETATM   14  C   UNK     0     -12.065 -18.230   1.929  0.00  0.00     0.115 C 
HETATM   15  C   UNK     0     -10.815 -18.295   2.793  0.00  0.00     0.021 A 
HETATM   16  N   UNK     0      -9.640 -18.880   2.495  0.00  0.00    -0.361 N 
HETATM   17  C   UNK     0      -8.821 -18.778   3.545  0.00  0.00     0.022 A 
HETATM   18  C   UNK     0      -9.492 -18.086   4.572  0.00  0.00    -0.027 A 
HETATM   19  C   UNK     0     -10.739 -17.788   4.089  0.00  0.00    -0.031 A 
HETATM   20  C   UNK     0     -11.782 -17.008   4.868  0.00  0.00     0.051 C 
HETATM   21  C   UNK     0      -7.427 -19.328   3.746  0.00  0.00     0.115 C 
HETATM   22  C   UNK     0      -7.100 -20.653   3.099  0.00  0.00     0.022 A 
HETATM   23  N   UNK     0      -7.871 -21.743   3.003  0.00  0.00    -0.361 N 
HETATM   24  C   UNK     0      -7.240 -22.642   2.221  0.00  0.00     0.021 A 
HETATM   25  C   UNK     0      -6.027 -22.121   1.812  0.00  0.00    -0.031 A 
HETATM   26  C   UNK     0      -4.951 -22.765   0.962  0.00  0.00     0.051 C 
HETATM   27  C   UNK     0      -5.914 -20.849   2.362  0.00  0.00    -0.027 A 
HETATM   28  C   UNK     0      -7.758 -23.989   1.748  0.00  0.00     0.115 C 
HETATM   29  H   UNK     0     -10.502 -23.108   2.356  0.00  0.00     0.165 HD
HETATM   30  H   UNK     0     -10.972 -20.426   0.330  0.00  0.00     0.165 HD
HETATM   31  H   UNK     0      -9.365 -19.332   1.507  0.00  0.00     0.165 HD
HETATM   32  H   UNK     0      -8.852 -21.906   3.522  0.00  0.00     0.165 HD
ENDROOT
BRANCH   6  33
HETATM   33  C   UNK     0     -10.848 -24.268  -2.237  0.00  0.00     0.051 C 
BRANCH  33  34
HETATM   34  C   UNK     0     -10.522 -23.098  -3.134  0.00  0.00     0.114 C 
BRANCH  34  35
HETATM   35  C   UNK     0     -11.812 -22.566  -3.661  0.00  0.00     0.139 C 
HETATM   36  O   UNK     0     -11.822 -21.552  -4.418  0.00  0.00    -0.650 OA
BRANCH  35  37
HETATM   37  O   UNK     0     -13.040 -23.142  -3.357  0.00  0.00    -0.776 OA
HETATM   38  H   UNK     0     -13.908 -22.764  -3.701  0.00  0.00     0.167 HD
ENDBRANCH  35  37
ENDBRANCH  34  35
ENDBRANCH  33  34
ENDBRANCH   6  33
BRANCH  27  39
HETATM   39  C   UNK     0      -4.703 -20.000   2.199  0.00  0.00     0.051 C 
BRANCH  39  40
HETATM   40  C   UNK     0      -3.660 -20.077   3.222  0.00  0.00     0.114 C 
BRANCH  40  41
HETATM   41  C   UNK     0      -2.318 -20.523   2.922  0.00  0.00     0.139 C 
HETATM   42  O   UNK     0      -1.960 -20.906   1.800  0.00  0.00    -0.650 OA
BRANCH  41  43
HETATM   43  O   UNK     0      -1.344 -20.531   3.961  0.00  0.00    -0.776 OA
HETATM   44  H   UNK     0      -1.603 -21.075   4.775  0.00  0.00     0.167 HD
ENDBRANCH  41  43
ENDBRANCH  40  41
ENDBRANCH  39  40
ENDBRANCH  27  39
BRANCH  11  45
HETATM   45  C   UNK     0     -14.935 -19.386   2.720  0.00  0.00     0.051 C 
BRANCH  45  46
HETATM   46  C   UNK     0     -15.949 -18.684   1.893  0.00  0.00     0.114 C 
BRANCH  46  47
HETATM   47  C   UNK     0     -17.283 -19.236   2.268  0.00  0.00     0.139 C 
HETATM   48  O   UNK     0     -17.823 -20.049   1.505  0.00  0.00    -0.650 OA
BRANCH  47  49
HETATM   49  O   UNK     0     -17.900 -18.852   3.432  0.00  0.00    -0.776 OA
HETATM   50  H   UNK     0     -17.387 -18.760   4.316  0.00  0.00     0.167 HD
ENDBRANCH  47  49
ENDBRANCH  46  47
ENDBRANCH  45  46
ENDBRANCH  11  45
BRANCH  18  51
HETATM   51  C   UNK     0      -8.965 -17.711   5.933  0.00  0.00     0.051 C 
BRANCH  51  52
HETATM   52  C   UNK     0      -8.916 -16.190   5.966  0.00  0.00     0.114 C 
BRANCH  52  53
HETATM   53  C   UNK     0      -7.549 -15.680   5.742  0.00  0.00     0.139 C 
HETATM   54  O   UNK     0      -7.011 -15.812   4.632  0.00  0.00    -0.650 OA
BRANCH  53  55
HETATM   55  O   UNK     0      -6.878 -15.062   6.769  0.00  0.00    -0.776 OA
HETATM   56  H   UNK     0      -7.293 -14.603   7.545  0.00  0.00     0.167 HD
ENDBRANCH  53  55
ENDBRANCH  52  53
ENDBRANCH  51  52
ENDBRANCH  18  51
TORSDOF 16
ENDMDL
MODEL 12
REMARK VINA RESULT:      -8.1      4.633      9.768
REMARK  16 active torsions:
REMARK  status: ('A' for Active; 'I' for Inactive)
REMARK    1  A    between atoms: C_6  and  C_7 
REMARK    2  A    between atoms: C_7  and  C_8 
REMARK    3  A    between atoms: C_8  and  C_9 
REMARK    4  A    between atoms: C_9  and  O_11 
REMARK    5  A    between atoms: C_16  and  C_17 
REMARK    6  A    between atoms: C_17  and  C_18 
REMARK    7  A    between atoms: C_18  and  C_19 
REMARK    8  A    between atoms: C_19  and  O_21 
REMARK    9  A    between atoms: C_28  and  C_29 
REMARK   10  A    between atoms: C_29  and  C_30 
REMARK   11  A    between atoms: C_30  and  C_31 
REMARK   12  A    between atoms: C_31  and  O_33 
REMARK   13  A    between atoms: C_42  and  C_43 
REMARK   14  A    between atoms: C_43  and  C_44 
REMARK   15  A    between atoms: C_44  and  C_45 
REMARK   16  A    between atoms: C_45  and  O_47 
ROOT
HETATM    1  C   UNK     0     -15.536 -18.618   1.650  0.00  0.00     0.051 C 
HETATM    2  C   UNK     0     -14.358 -19.289   0.972  0.00  0.00    -0.031 A 
HETATM    3  C   UNK     0     -13.050 -18.850   0.846  0.00  0.00     0.021 A 
HETATM    4  N   UNK     0     -12.346 -19.761   0.133  0.00  0.00    -0.361 N 
HETATM    5  C   UNK     0     -13.176 -20.775  -0.191  0.00  0.00     0.022 A 
HETATM    6  C   UNK     0     -14.443 -20.510   0.317  0.00  0.00    -0.027 A 
HETATM    7  C   UNK     0     -12.876 -22.065  -0.888  0.00  0.00     0.115 C 
HETATM    8  C   UNK     0     -11.601 -22.781  -0.479  0.00  0.00     0.021 A 
HETATM    9  N   UNK     0     -11.038 -22.858   0.737  0.00  0.00    -0.361 N 
HETATM   10  C   UNK     0      -9.866 -23.516   0.616  0.00  0.00     0.022 A 
HETATM   11  C   UNK     0      -9.673 -23.881  -0.713  0.00  0.00    -0.027 A 
HETATM   12  C   UNK     0     -10.762 -23.422  -1.408  0.00  0.00    -0.031 A 
HETATM   13  C   UNK     0     -10.987 -23.594  -2.893  0.00  0.00     0.051 C 
HETATM   14  C   UNK     0      -8.861 -23.779   1.734  0.00  0.00     0.115 C 
HETATM   15  C   UNK     0      -8.300 -22.516   2.368  0.00  0.00     0.021 A 
HETATM   16  N   UNK     0      -8.984 -21.529   2.975  0.00  0.00    -0.361 N 
HETATM   17  C   UNK     0      -8.135 -20.564   3.335  0.00  0.00     0.022 A 
HETATM   18  C   UNK     0      -6.833 -20.945   2.952  0.00  0.00    -0.027 A 
HETATM   19  C   UNK     0      -6.950 -22.170   2.348  0.00  0.00    -0.031 A 
HETATM   20  C   UNK     0      -5.772 -22.964   1.815  0.00  0.00     0.051 C 
HETATM   21  C   UNK     0      -8.404 -19.222   3.978  0.00  0.00     0.115 C 
HETATM   22  C   UNK     0      -9.690 -18.519   3.614  0.00  0.00     0.022 A 
HETATM   23  N   UNK     0     -10.275 -18.430   2.412  0.00  0.00    -0.361 N 
HETATM   24  C   UNK     0     -11.477 -17.839   2.570  0.00  0.00     0.021 A 
HETATM   25  C   UNK     0     -11.666 -17.532   3.904  0.00  0.00    -0.031 A 
HETATM   26  C   UNK     0     -12.834 -16.829   4.564  0.00  0.00     0.051 C 
HETATM   27  C   UNK     0     -10.535 -17.957   4.592  0.00  0.00    -0.027 A 
HETATM   28  C   UNK     0     -12.542 -17.603   1.513  0.00  0.00     0.115 C 
HETATM   29  H   UNK     0     -11.278 -19.663  -0.171  0.00  0.00     0.165 HD
HETATM   30  H   UNK     0     -11.490 -22.492   1.692  0.00  0.00     0.165 HD
HETATM   31  H   UNK     0     -10.083 -21.533   3.198  0.00  0.00     0.165 HD
HETATM   32  H   UNK     0      -9.827 -18.744   1.434  0.00  0.00     0.165 HD
ENDROOT
BRANCH   6  33
HETATM   33  C   UNK     0     -15.713 -21.317   0.224  0.00  0.00     0.051 C 
BRANCH  33  34
HETATM   34  C   UNK     0     -15.983 -22.040   1.523  0.00  0.00     0.114 C 
BRANCH  34  35
HETATM   35  C   UNK     0     -15.022 -23.177   1.609  0.00  0.00     0.139 C 
HETATM   36  O   UNK     0     -15.228 -24.237   0.950  0.00  0.00    -0.650 OA
BRANCH  35  37
HETATM   37  O   UNK     0     -13.877 -23.132   2.395  0.00  0.00    -0.776 OA
HETATM   38  H   UNK     0     -12.956 -23.251   2.005  0.00  0.00     0.167 HD
ENDBRANCH  35  37
ENDBRANCH  34  35
ENDBRANCH  33  34
ENDBRANCH   6  33
BRANCH  27  39
HETATM   39  C   UNK     0     -10.341 -17.731   6.050  0.00  0.00     0.051 C 
BRANCH  39  40
HETATM   40  C   UNK     0      -9.597 -16.545   6.475  0.00  0.00     0.114 C 
BRANCH  40  41
HETATM   41  C   UNK     0      -8.951 -15.661   5.531  0.00  0.00     0.139 C 
HETATM   42  O   UNK     0      -9.494 -14.654   5.056  0.00  0.00    -0.650 OA
BRANCH  41  43
HETATM   43  O   UNK     0      -7.620 -15.947   5.115  0.00  0.00    -0.776 OA
HETATM   44  H   UNK     0      -7.510 -16.840   4.648  0.00  0.00     0.167 HD
ENDBRANCH  41  43
ENDBRANCH  40  41
ENDBRANCH  39  40
ENDBRANCH  27  39
BRANCH  11  45
HETATM   45  C   UNK     0      -8.522 -24.634  -1.324  0.00  0.00     0.051 C 
BRANCH  45  46
HETATM   46  C   UNK     0      -8.863 -26.010  -1.766  0.00  0.00     0.114 C 
BRANCH  46  47
HETATM   47  C   UNK     0      -8.899 -26.869  -0.548  0.00  0.00     0.139 C 
HETATM   48  O   UNK     0      -7.930 -26.843   0.224  0.00  0.00    -0.650 OA
BRANCH  47  49
HETATM   49  O   UNK     0      -9.980 -27.673  -0.286  0.00  0.00    -0.776 OA
HETATM   50  H   UNK     0     -10.680 -27.430   0.425  0.00  0.00     0.167 HD
ENDBRANCH  47  49
ENDBRANCH  46  47
ENDBRANCH  45  46
ENDBRANCH  11  45
BRANCH  18  51
HETATM   51  C   UNK     0      -5.546 -20.193   3.168  0.00  0.00     0.051 C 
BRANCH  51  52
HETATM   52  C   UNK     0      -5.392 -19.261   1.976  0.00  0.00     0.114 C 
BRANCH  52  53
HETATM   53  C   UNK     0      -5.012 -17.896   2.390  0.00  0.00     0.139 C 
HETATM   54  O   UNK     0      -3.825 -17.539   2.339  0.00  0.00    -0.650 OA
BRANCH  53  55
HETATM   55  O   UNK     0      -5.979 -17.028   2.835  0.00  0.00    -0.776 OA
HETATM   56  H   UNK     0      -6.961 -17.168   2.780  0.00  0.00     0.167 HD
ENDBRANCH  53  55
ENDBRANCH  52  53
ENDBRANCH  51  52
ENDBRANCH  18  51
TORSDOF 16
ENDMDL
MODEL 13
REMARK VINA RESULT:      -8.0      5.077     10.499
REMARK  16 active torsions:
REMARK  status: ('A' for Active; 'I' for Inactive)
REMARK    1  A    between atoms: C_6  and  C_7 
REMARK    2  A    between atoms: C_7  and  C_8 
REMARK    3  A    between atoms: C_8  and  C_9 
REMARK    4  A    between atoms: C_9  and  O_11 
REMARK    5  A    between atoms: C_16  and  C_17 
REMARK    6  A    between atoms: C_17  and  C_18 
REMARK    7  A    between atoms: C_18  and  C_19 
REMARK    8  A    between atoms: C_19  and  O_21 
REMARK    9  A    between atoms: C_28  and  C_29 
REMARK   10  A    between atoms: C_29  and  C_30 
REMARK   11  A    between atoms: C_30  and  C_31 
REMARK   12  A    between atoms: C_31  and  O_33 
REMARK   13  A    between atoms: C_42  and  C_43 
REMARK   14  A    between atoms: C_43  and  C_44 
REMARK   15  A    between atoms: C_44  and  C_45 
REMARK   16  A    between atoms: C_45  and  O_47 
ROOT
HETATM    1  C   UNK     0     -15.942 -18.214   3.069  0.00  0.00     0.051 C 
HETATM    2  C   UNK     0     -14.849 -18.850   2.235  0.00  0.00    -0.031 A 
HETATM    3  C   UNK     0     -13.546 -18.428   2.023  0.00  0.00     0.021 A 
HETATM    4  N   UNK     0     -12.934 -19.292   1.179  0.00  0.00    -0.361 N 
HETATM    5  C   UNK     0     -13.816 -20.260   0.855  0.00  0.00     0.022 A 
HETATM    6  C   UNK     0     -15.025 -20.013   1.496  0.00  0.00    -0.027 A 
HETATM    7  C   UNK     0     -13.615 -21.496   0.034  0.00  0.00     0.115 C 
HETATM    8  C   UNK     0     -12.327 -22.266   0.266  0.00  0.00     0.021 A 
HETATM    9  N   UNK     0     -11.659 -22.451   1.415  0.00  0.00    -0.361 N 
HETATM   10  C   UNK     0     -10.520 -23.119   1.135  0.00  0.00     0.022 A 
HETATM   11  C   UNK     0     -10.458 -23.381  -0.230  0.00  0.00    -0.027 A 
HETATM   12  C   UNK     0     -11.593 -22.846  -0.784  0.00  0.00    -0.031 A 
HETATM   13  C   UNK     0     -11.957 -22.895  -2.251  0.00  0.00     0.051 C 
HETATM   14  C   UNK     0      -9.425 -23.491   2.131  0.00  0.00     0.115 C 
HETATM   15  C   UNK     0      -8.776 -22.294   2.807  0.00  0.00     0.021 A 
HETATM   16  N   UNK     0      -9.376 -21.345   3.551  0.00  0.00    -0.361 N 
HETATM   17  C   UNK     0      -8.472 -20.429   3.905  0.00  0.00     0.022 A 
HETATM   18  C   UNK     0      -7.222 -20.803   3.374  0.00  0.00    -0.027 A 
HETATM   19  C   UNK     0      -7.425 -21.973   2.690  0.00  0.00    -0.031 A 
HETATM   20  C   UNK     0      -6.321 -22.744   1.990  0.00  0.00     0.051 C 
HETATM   21  C   UNK     0      -8.647 -19.138   4.673  0.00  0.00     0.115 C 
HETATM   22  C   UNK     0      -9.942 -18.384   4.486  0.00  0.00     0.022 A 
HETATM   23  N   UNK     0     -10.631 -18.187   3.354  0.00  0.00    -0.361 N 
HETATM   24  C   UNK     0     -11.798 -17.589   3.668  0.00  0.00     0.021 A 
HETATM   25  C   UNK     0     -11.857 -17.385   5.033  0.00  0.00    -0.031 A 
HETATM   26  C   UNK     0     -12.941 -16.717   5.851  0.00  0.00     0.051 C 
HETATM   27  C   UNK     0     -10.680 -17.886   5.578  0.00  0.00    -0.027 A 
HETATM   28  C   UNK     0     -12.948 -17.248   2.736  0.00  0.00     0.115 C 
HETATM   29  H   UNK     0     -11.896 -19.190   0.786  0.00  0.00     0.165 HD
HETATM   30  H   UNK     0     -12.012 -22.154   2.433  0.00  0.00     0.165 HD
HETATM   31  H   UNK     0     -10.450 -21.347   3.873  0.00  0.00     0.165 HD
HETATM   32  H   UNK     0     -10.281 -18.431   2.317  0.00  0.00     0.165 HD
ENDROOT
BRANCH   6  33
HETATM   33  C   UNK     0     -16.319 -20.786   1.459  0.00  0.00     0.051 C 
BRANCH  33  34
HETATM   34  C   UNK     0     -17.181 -20.332   0.305  0.00  0.00     0.114 C 
BRANCH  34  35
HETATM   35  C   UNK     0     -18.593 -20.313   0.783  0.00  0.00     0.139 C 
HETATM   36  O   UNK     0     -19.534 -20.642   0.003  0.00  0.00    -0.650 OA
BRANCH  35  37
HETATM   37  O   UNK     0     -18.941 -19.945   2.077  0.00  0.00    -0.776 OA
HETATM   38  H   UNK     0     -18.831 -19.002   2.413  0.00  0.00     0.167 HD
ENDBRANCH  35  37
ENDBRANCH  34  35
ENDBRANCH  33  34
ENDBRANCH   6  33
BRANCH  27  39
HETATM   39  C   UNK     0     -10.348 -17.781   7.025  0.00  0.00     0.051 C 
BRANCH  39  40
HETATM   40  C   UNK     0      -9.087 -17.145   7.404  0.00  0.00     0.114 C 
BRANCH  40  41
HETATM   41  C   UNK     0      -8.744 -16.873   8.782  0.00  0.00     0.139 C 
HETATM   42  O   UNK     0      -9.181 -15.903   9.416  0.00  0.00    -0.650 OA
BRANCH  41  43
HETATM   43  O   UNK     0      -7.858 -17.757   9.461  0.00  0.00    -0.776 OA
HETATM   44  H   UNK     0      -7.107 -18.120   8.887  0.00  0.00     0.167 HD
ENDBRANCH  41  43
ENDBRANCH  40  41
ENDBRANCH  39  40
ENDBRANCH  27  39
BRANCH  11  45
HETATM   45  C   UNK     0      -9.387 -24.103  -1.003  0.00  0.00     0.051 C 
BRANCH  45  46
HETATM   46  C   UNK     0      -9.531 -25.582  -1.000  0.00  0.00     0.114 C 
BRANCH  46  47
HETATM   47  C   UNK     0      -8.348 -26.142  -1.716  0.00  0.00     0.139 C 
HETATM   48  O   UNK     0      -8.068 -25.694  -2.837  0.00  0.00    -0.650 OA
BRANCH  47  49
HETATM   49  O   UNK     0      -7.587 -27.131  -1.147  0.00  0.00    -0.776 OA
HETATM   50  H   UNK     0      -7.790 -28.127  -1.295  0.00  0.00     0.167 HD
ENDBRANCH  47  49
ENDBRANCH  46  47
ENDBRANCH  45  46
ENDBRANCH  11  45
BRANCH  18  51
HETATM   51  C   UNK     0      -5.901 -20.095   3.529  0.00  0.00     0.051 C 
BRANCH  51  52
HETATM   52  C   UNK     0      -5.776 -19.160   2.335  0.00  0.00     0.114 C 
BRANCH  52  53
HETATM   53  C   UNK     0      -5.397 -17.794   2.744  0.00  0.00     0.139 C 
HETATM   54  O   UNK     0      -6.095 -17.174   3.561  0.00  0.00    -0.650 OA
BRANCH  53  55
HETATM   55  O   UNK     0      -4.271 -17.213   2.212  0.00  0.00    -0.776 OA
HETATM   56  H   UNK     0      -3.985 -17.256   1.262  0.00  0.00     0.167 HD
ENDBRANCH  53  55
ENDBRANCH  52  53
ENDBRANCH  51  52
ENDBRANCH  18  51
TORSDOF 16
ENDMDL
MODEL 14
REMARK VINA RESULT:      -8.0     32.922     37.365
REMARK  16 active torsions:
REMARK  status: ('A' for Active; 'I' for Inactive)
REMARK    1  A    between atoms: C_6  and  C_7 
REMARK    2  A    between atoms: C_7  and  C_8 
REMARK    3  A    between atoms: C_8  and  C_9 
REMARK    4  A    between atoms: C_9  and  O_11 
REMARK    5  A    between atoms: C_16  and  C_17 
REMARK    6  A    between atoms: C_17  and  C_18 
REMARK    7  A    between atoms: C_18  and  C_19 
REMARK    8  A    between atoms: C_19  and  O_21 
REMARK    9  A    between atoms: C_28  and  C_29 
REMARK   10  A    between atoms: C_29  and  C_30 
REMARK   11  A    between atoms: C_30  and  C_31 
REMARK   12  A    between atoms: C_31  and  O_33 
REMARK   13  A    between atoms: C_42  and  C_43 
REMARK   14  A    between atoms: C_43  and  C_44 
REMARK   15  A    between atoms: C_44  and  C_45 
REMARK   16  A    between atoms: C_45  and  O_47 
ROOT
HETATM    1  C   UNK     0       9.347  -6.055 -24.927  0.00  0.00     0.051 C 
HETATM    2  C   UNK     0       8.935  -5.255 -26.146  0.00  0.00    -0.031 A 
HETATM    3  C   UNK     0       7.989  -4.249 -26.259  0.00  0.00     0.021 A 
HETATM    4  N   UNK     0       7.933  -3.839 -27.549  0.00  0.00    -0.361 N 
HETATM    5  C   UNK     0       8.829  -4.557 -28.258  0.00  0.00     0.022 A 
HETATM    6  C   UNK     0       9.471  -5.454 -27.412  0.00  0.00    -0.027 A 
HETATM    7  C   UNK     0       9.224  -4.431 -29.696  0.00  0.00     0.115 C 
HETATM    8  C   UNK     0       9.409  -3.022 -30.232  0.00  0.00     0.021 A 
HETATM    9  N   UNK     0       9.899  -1.945 -29.600  0.00  0.00    -0.361 N 
HETATM   10  C   UNK     0       9.791  -0.886 -30.431  0.00  0.00     0.022 A 
HETATM   11  C   UNK     0       9.225  -1.295 -31.635  0.00  0.00    -0.027 A 
HETATM   12  C   UNK     0       8.982  -2.640 -31.516  0.00  0.00    -0.031 A 
HETATM   13  C   UNK     0       8.373  -3.515 -32.588  0.00  0.00     0.051 C 
HETATM   14  C   UNK     0      10.167   0.556 -30.105  0.00  0.00     0.115 C 
HETATM   15  C   UNK     0       9.384   1.150 -28.946  0.00  0.00     0.021 A 
HETATM   16  N   UNK     0       9.319   0.696 -27.680  0.00  0.00    -0.361 N 
HETATM   17  C   UNK     0       8.469   1.455 -26.985  0.00  0.00     0.022 A 
HETATM   18  C   UNK     0       7.963   2.458 -27.835  0.00  0.00    -0.027 A 
HETATM   19  C   UNK     0       8.545   2.257 -29.060  0.00  0.00    -0.031 A 
HETATM   20  C   UNK     0       8.301   3.145 -30.266  0.00  0.00     0.051 C 
HETATM   21  C   UNK     0       7.994   1.322 -25.556  0.00  0.00     0.115 C 
HETATM   22  C   UNK     0       7.848  -0.073 -24.995  0.00  0.00     0.022 A 
HETATM   23  N   UNK     0       7.367  -1.165 -25.603  0.00  0.00    -0.361 N 
HETATM   24  C   UNK     0       7.556  -2.222 -24.787  0.00  0.00     0.021 A 
HETATM   25  C   UNK     0       8.163  -1.797 -23.621  0.00  0.00    -0.031 A 
HETATM   26  C   UNK     0       8.539  -2.603 -22.394  0.00  0.00     0.051 C 
HETATM   27  C   UNK     0       8.360  -0.426 -23.730  0.00  0.00    -0.027 A 
HETATM   28  C   UNK     0       7.258  -3.683 -25.074  0.00  0.00     0.115 C 
HETATM   29  H   UNK     0       7.232  -3.074 -27.957  0.00  0.00     0.165 HD
HETATM   30  H   UNK     0      10.367  -1.938 -28.585  0.00  0.00     0.165 HD
HETATM   31  H   UNK     0       9.921  -0.149 -27.255  0.00  0.00     0.165 HD
HETATM   32  H   UNK     0       6.850  -1.194 -26.598  0.00  0.00     0.165 HD
ENDROOT
BRANCH   6  33
HETATM   33  C   UNK     0      10.541  -6.474 -27.711  0.00  0.00     0.051 C 
BRANCH  33  34
HETATM   34  C   UNK     0       9.972  -7.629 -28.500  0.00  0.00     0.114 C 
BRANCH  34  35
HETATM   35  C   UNK     0       9.348  -8.571 -27.527  0.00  0.00     0.139 C 
HETATM   36  O   UNK     0       8.094  -8.742 -27.521  0.00  0.00    -0.650 OA
BRANCH  35  37
HETATM   37  O   UNK     0      10.091  -9.293 -26.601  0.00  0.00    -0.776 OA
HETATM   38  H   UNK     0      10.483  -8.863 -25.778  0.00  0.00     0.167 HD
ENDBRANCH  35  37
ENDBRANCH  34  35
ENDBRANCH  33  34
ENDBRANCH   6  33
BRANCH  27  39
HETATM   39  C   UNK     0       8.930   0.402 -22.632  0.00  0.00     0.051 C 
BRANCH  39  40
HETATM   40  C   UNK     0      10.283   0.934 -22.794  0.00  0.00     0.114 C 
BRANCH  40  41
HETATM   41  C   UNK     0      11.233   0.354 -23.717  0.00  0.00     0.139 C 
HETATM   42  O   UNK     0      11.902  -0.656 -23.464  0.00  0.00    -0.650 OA
BRANCH  41  43
HETATM   43  O   UNK     0      11.422   0.966 -24.989  0.00  0.00    -0.776 OA
HETATM   44  H   UNK     0      10.622   0.903 -25.607  0.00  0.00     0.167 HD
ENDBRANCH  41  43
ENDBRANCH  40  41
ENDBRANCH  39  40
ENDBRANCH  27  39
BRANCH  11  45
HETATM   45  C   UNK     0       8.920  -0.474 -32.858  0.00  0.00     0.051 C 
BRANCH  45  46
HETATM   46  C   UNK     0       7.580   0.168 -32.839  0.00  0.00     0.114 C 
BRANCH  46  47
HETATM   47  C   UNK     0       7.588   1.237 -33.878  0.00  0.00     0.139 C 
HETATM   48  O   UNK     0       8.611   1.924 -34.013  0.00  0.00    -0.650 OA
BRANCH  47  49
HETATM   49  O   UNK     0       6.488   1.459 -34.666  0.00  0.00    -0.776 OA
HETATM   50  H   UNK     0       5.827   2.222 -34.478  0.00  0.00     0.167 HD
ENDBRANCH  47  49
ENDBRANCH  46  47
ENDBRANCH  45  46
ENDBRANCH  11  45
BRANCH  18  51
HETATM   51  C   UNK     0       6.995   3.561 -27.494  0.00  0.00     0.051 C 
BRANCH  51  52
HETATM   52  C   UNK     0       5.620   3.065 -27.915  0.00  0.00     0.114 C 
BRANCH  52  53
HETATM   53  C   UNK     0       4.652   3.119 -26.802  0.00  0.00     0.139 C 
HETATM   54  O   UNK     0       5.039   2.963 -25.633  0.00  0.00    -0.650 OA
BRANCH  53  55
HETATM   55  O   UNK     0       3.322   3.340 -27.068  0.00  0.00    -0.776 OA
HETATM   56  H   UNK     0       2.776   4.096 -26.727  0.00  0.00     0.167 HD
ENDBRANCH  53  55
ENDBRANCH  52  53
ENDBRANCH  51  52
ENDBRANCH  18  51
TORSDOF 16
ENDMDL
MODEL 15
REMARK VINA RESULT:      -7.8      5.197     11.141
REMARK  16 active torsions:
REMARK  status: ('A' for Active; 'I' for Inactive)
REMARK    1  A    between atoms: C_6  and  C_7 
REMARK    2  A    between atoms: C_7  and  C_8 
REMARK    3  A    between atoms: C_8  and  C_9 
REMARK    4  A    between atoms: C_9  and  O_11 
REMARK    5  A    between atoms: C_16  and  C_17 
REMARK    6  A    between atoms: C_17  and  C_18 
REMARK    7  A    between atoms: C_18  and  C_19 
REMARK    8  A    between atoms: C_19  and  O_21 
REMARK    9  A    between atoms: C_28  and  C_29 
REMARK   10  A    between atoms: C_29  and  C_30 
REMARK   11  A    between atoms: C_30  and  C_31 
REMARK   12  A    between atoms: C_31  and  O_33 
REMARK   13  A    between atoms: C_42  and  C_43 
REMARK   14  A    between atoms: C_43  and  C_44 
REMARK   15  A    between atoms: C_44  and  C_45 
REMARK   16  A    between atoms: C_45  and  O_47 
ROOT
HETATM    1  C   UNK     0      -6.774 -23.652   1.809  0.00  0.00     0.051 C 
HETATM    2  C   UNK     0      -8.270 -23.412   1.842  0.00  0.00    -0.031 A 
HETATM    3  C   UNK     0      -9.032 -22.736   2.782  0.00  0.00     0.021 A 
HETATM    4  N   UNK     0     -10.335 -22.799   2.421  0.00  0.00    -0.361 N 
HETATM    5  C   UNK     0     -10.420 -23.492   1.267  0.00  0.00     0.022 A 
HETATM    6  C   UNK     0      -9.146 -23.893   0.878  0.00  0.00    -0.027 A 
HETATM    7  C   UNK     0     -11.613 -23.764   0.405  0.00  0.00     0.115 C 
HETATM    8  C   UNK     0     -12.572 -22.607   0.184  0.00  0.00     0.021 A 
HETATM    9  N   UNK     0     -12.291 -21.301   0.057  0.00  0.00    -0.361 N 
HETATM   10  C   UNK     0     -13.458 -20.628  -0.031  0.00  0.00     0.022 A 
HETATM   11  C   UNK     0     -14.519 -21.526   0.032  0.00  0.00    -0.027 A 
HETATM   12  C   UNK     0     -13.968 -22.775   0.167  0.00  0.00    -0.031 A 
HETATM   13  C   UNK     0     -14.747 -24.067   0.270  0.00  0.00     0.051 C 
HETATM   14  C   UNK     0     -13.620 -19.114  -0.124  0.00  0.00     0.115 C 
HETATM   15  C   UNK     0     -13.060 -18.360   1.072  0.00  0.00     0.021 A 
HETATM   16  N   UNK     0     -11.796 -18.374   1.533  0.00  0.00    -0.361 N 
HETATM   17  C   UNK     0     -11.726 -17.637   2.643  0.00  0.00     0.022 A 
HETATM   18  C   UNK     0     -13.004 -17.109   2.914  0.00  0.00    -0.027 A 
HETATM   19  C   UNK     0     -13.831 -17.569   1.921  0.00  0.00    -0.031 A 
HETATM   20  C   UNK     0     -15.300 -17.206   1.811  0.00  0.00     0.051 C 
HETATM   21  C   UNK     0     -10.561 -17.392   3.575  0.00  0.00     0.115 C 
HETATM   22  C   UNK     0      -9.575 -18.519   3.771  0.00  0.00     0.022 A 
HETATM   23  N   UNK     0      -9.826 -19.829   3.897  0.00  0.00    -0.361 N 
HETATM   24  C   UNK     0      -8.649 -20.487   3.904  0.00  0.00     0.021 A 
HETATM   25  C   UNK     0      -7.615 -19.578   3.791  0.00  0.00    -0.031 A 
HETATM   26  C   UNK     0      -6.121 -19.828   3.793  0.00  0.00     0.051 C 
HETATM   27  C   UNK     0      -8.182 -18.312   3.704  0.00  0.00    -0.027 A 
HETATM   28  C   UNK     0      -8.424 -21.989   3.935  0.00  0.00     0.115 C 
HETATM   29  H   UNK     0     -11.191 -22.387   3.005  0.00  0.00     0.165 HD
HETATM   30  H   UNK     0     -11.269 -20.856  -0.022  0.00  0.00     0.165 HD
HETATM   31  H   UNK     0     -10.923 -18.875   1.038  0.00  0.00     0.165 HD
HETATM   32  H   UNK     0     -10.836 -20.298   4.025  0.00  0.00     0.165 HD
ENDROOT
BRANCH   6  33
HETATM   33  C   UNK     0      -8.705 -24.690  -0.323  0.00  0.00     0.051 C 
BRANCH  33  34
HETATM   34  C   UNK     0      -8.655 -26.164   0.002  0.00  0.00     0.114 C 
BRANCH  34  35
HETATM   35  C   UNK     0      -9.860 -26.797  -0.607  0.00  0.00     0.139 C 
HETATM   36  O   UNK     0     -10.579 -27.585   0.074  0.00  0.00    -0.650 OA
BRANCH  35  37
HETATM   37  O   UNK     0     -10.249 -26.559  -1.920  0.00  0.00    -0.776 OA
HETATM   38  H   UNK     0      -9.579 -26.417  -2.658  0.00  0.00     0.167 HD
ENDBRANCH  35  37
ENDBRANCH  34  35
ENDBRANCH  33  34
ENDBRANCH   6  33
BRANCH  27  39
HETATM   39  C   UNK     0      -7.374 -17.064   3.642  0.00  0.00     0.051 C 
BRANCH  39  40
HETATM   40  C   UNK     0      -7.259 -16.250   4.853  0.00  0.00     0.114 C 
BRANCH  40  41
HETATM   41  C   UNK     0      -7.767 -14.898   4.923  0.00  0.00     0.139 C 
HETATM   42  O   UNK     0      -8.972 -14.625   5.011  0.00  0.00    -0.650 OA
BRANCH  41  43
HETATM   43  O   UNK     0      -6.848 -13.812   4.892  0.00  0.00    -0.776 OA
HETATM   44  H   UNK     0      -5.880 -14.078   5.029  0.00  0.00     0.167 HD
ENDBRANCH  41  43
ENDBRANCH  40  41
ENDBRANCH  39  40
ENDBRANCH  27  39
BRANCH  11  45
HETATM   45  C   UNK     0     -15.996 -21.245  -0.034  0.00  0.00     0.051 C 
BRANCH  45  46
HETATM   46  C   UNK     0     -16.608 -20.908   1.277  0.00  0.00     0.114 C 
BRANCH  46  47
HETATM   47  C   UNK     0     -17.870 -20.165   0.998  0.00  0.00     0.139 C 
HETATM   48  O   UNK     0     -18.017 -19.646  -0.117  0.00  0.00    -0.650 OA
BRANCH  47  49
HETATM   49  O   UNK     0     -18.848 -20.056   1.954  0.00  0.00    -0.776 OA
HETATM   50  H   UNK     0     -19.095 -19.155   2.381  0.00  0.00     0.167 HD
ENDBRANCH  47  49
ENDBRANCH  46  47
ENDBRANCH  45  46
ENDBRANCH  11  45
BRANCH  18  51
HETATM   51  C   UNK     0     -13.411 -16.200   4.044  0.00  0.00     0.051 C 
BRANCH  51  52
HETATM   52  C   UNK     0     -13.960 -17.101   5.140  0.00  0.00     0.114 C 
BRANCH  52  53
HETATM   53  C   UNK     0     -13.124 -17.060   6.355  0.00  0.00     0.139 C 
HETATM   54  O   UNK     0     -12.248 -17.920   6.537  0.00  0.00    -0.650 OA
BRANCH  53  55
HETATM   55  O   UNK     0     -13.324 -16.068   7.284  0.00  0.00    -0.776 OA
HETATM   56  H   UNK     0     -12.808 -15.223   7.357  0.00  0.00     0.167 HD
ENDBRANCH  53  55
ENDBRANCH  52  53
ENDBRANCH  51  52
ENDBRANCH  18  51
TORSDOF 16
ENDMDL
MODEL 16
REMARK VINA RESULT:      -7.7      4.862     11.263
REMARK  16 active torsions:
REMARK  status: ('A' for Active; 'I' for Inactive)
REMARK    1  A    between atoms: C_6  and  C_7 
REMARK    2  A    between atoms: C_7  and  C_8 
REMARK    3  A    between atoms: C_8  and  C_9 
REMARK    4  A    between atoms: C_9  and  O_11 
REMARK    5  A    between atoms: C_16  and  C_17 
REMARK    6  A    between atoms: C_17  and  C_18 
REMARK    7  A    between atoms: C_18  and  C_19 
REMARK    8  A    between atoms: C_19  and  O_21 
REMARK    9  A    between atoms: C_28  and  C_29 
REMARK   10  A    between atoms: C_29  and  C_30 
REMARK   11  A    between atoms: C_30  and  C_31 
REMARK   12  A    between atoms: C_31  and  O_33 
REMARK   13  A    between atoms: C_42  and  C_43 
REMARK   14  A    between atoms: C_43  and  C_44 
REMARK   15  A    between atoms: C_44  and  C_45 
REMARK   16  A    between atoms: C_45  and  O_47 
ROOT
HETATM    1  C   UNK     0      -8.879 -24.758  -0.736  0.00  0.00     0.051 C 
HETATM    2  C   UNK     0      -9.814 -23.856   0.043  0.00  0.00    -0.031 A 
HETATM    3  C   UNK     0      -9.676 -23.341   1.322  0.00  0.00     0.021 A 
HETATM    4  N   UNK     0     -10.774 -22.607   1.623  0.00  0.00    -0.361 N 
HETATM    5  C   UNK     0     -11.604 -22.636   0.560  0.00  0.00     0.022 A 
HETATM    6  C   UNK     0     -11.035 -23.410  -0.445  0.00  0.00    -0.027 A 
HETATM    7  C   UNK     0     -12.898 -21.916   0.343  0.00  0.00     0.115 C 
HETATM    8  C   UNK     0     -12.952 -20.463   0.784  0.00  0.00     0.021 A 
HETATM    9  N   UNK     0     -11.981 -19.539   0.736  0.00  0.00    -0.361 N 
HETATM   10  C   UNK     0     -12.445 -18.413   1.319  0.00  0.00     0.022 A 
HETATM   11  C   UNK     0     -13.754 -18.615   1.745  0.00  0.00    -0.027 A 
HETATM   12  C   UNK     0     -14.080 -19.905   1.411  0.00  0.00    -0.031 A 
HETATM   13  C   UNK     0     -15.414 -20.567   1.677  0.00  0.00     0.051 C 
HETATM   14  C   UNK     0     -11.659 -17.124   1.544  0.00  0.00     0.115 C 
HETATM   15  C   UNK     0     -10.432 -17.298   2.425  0.00  0.00     0.021 A 
HETATM   16  N   UNK     0      -9.380 -18.112   2.218  0.00  0.00    -0.361 N 
HETATM   17  C   UNK     0      -8.547 -18.024   3.257  0.00  0.00     0.022 A 
HETATM   18  C   UNK     0      -9.076 -17.102   4.181  0.00  0.00    -0.027 A 
HETATM   19  C   UNK     0     -10.257 -16.653   3.648  0.00  0.00    -0.031 A 
HETATM   20  C   UNK     0     -11.139 -15.610   4.310  0.00  0.00     0.051 C 
HETATM   21  C   UNK     0      -7.269 -18.780   3.545  0.00  0.00     0.115 C 
HETATM   22  C   UNK     0      -7.185 -20.213   3.073  0.00  0.00     0.022 A 
HETATM   23  N   UNK     0      -8.137 -21.154   3.104  0.00  0.00    -0.361 N 
HETATM   24  C   UNK     0      -7.680 -22.241   2.450  0.00  0.00     0.021 A 
HETATM   25  C   UNK     0      -6.399 -21.996   1.995  0.00  0.00    -0.031 A 
HETATM   26  C   UNK     0      -5.461 -22.920   1.245  0.00  0.00     0.051 C 
HETATM   27  C   UNK     0      -6.060 -20.705   2.382  0.00  0.00    -0.027 A 
HETATM   28  C   UNK     0      -8.431 -23.525   2.143  0.00  0.00     0.115 C 
HETATM   29  H   UNK     0     -10.972 -22.107   2.599  0.00  0.00     0.165 HD
HETATM   30  H   UNK     0     -10.983 -19.661   0.247  0.00  0.00     0.165 HD
HETATM   31  H   UNK     0      -9.198 -18.726   1.298  0.00  0.00     0.165 HD
HETATM   32  H   UNK     0      -9.126 -21.076   3.627  0.00  0.00     0.165 HD
ENDROOT
BRANCH   6  33
HETATM   33  C   UNK     0     -11.559 -23.757  -1.816  0.00  0.00     0.051 C 
BRANCH  33  34
HETATM   34  C   UNK     0     -11.211 -22.676  -2.811  0.00  0.00     0.114 C 
BRANCH  34  35
HETATM   35  C   UNK     0     -10.381 -23.302  -3.880  0.00  0.00     0.139 C 
HETATM   36  O   UNK     0     -10.274 -24.562  -3.947  0.00  0.00    -0.650 OA
BRANCH  35  37
HETATM   37  O   UNK     0      -9.701 -22.557  -4.835  0.00  0.00    -0.776 OA
HETATM   38  H   UNK     0      -8.882 -22.908  -5.304  0.00  0.00     0.167 HD
ENDBRANCH  35  37
ENDBRANCH  34  35
ENDBRANCH  33  34
ENDBRANCH   6  33
BRANCH  27  39
HETATM   39  C   UNK     0      -4.720 -20.109   2.130  0.00  0.00     0.051 C 
BRANCH  39  40
HETATM   40  C   UNK     0      -3.706 -20.212   3.179  0.00  0.00     0.114 C 
BRANCH  40  41
HETATM   41  C   UNK     0      -2.331 -20.553   2.891  0.00  0.00     0.139 C 
HETATM   42  O   UNK     0      -1.933 -20.901   1.771  0.00  0.00    -0.650 OA
BRANCH  41  43
HETATM   43  O   UNK     0      -1.369 -20.490   3.940  0.00  0.00    -0.776 OA
HETATM   44  H   UNK     0      -0.424 -20.300   3.630  0.00  0.00     0.167 HD
ENDBRANCH  41  43
ENDBRANCH  40  41
ENDBRANCH  39  40
ENDBRANCH  27  39
BRANCH  11  45
HETATM   45  C   UNK     0     -14.680 -17.650   2.436  0.00  0.00     0.051 C 
BRANCH  45  46
HETATM   46  C   UNK     0     -15.156 -18.113   3.765  0.00  0.00     0.114 C 
BRANCH  46  47
HETATM   47  C   UNK     0     -14.189 -17.607   4.781  0.00  0.00     0.139 C 
HETATM   48  O   UNK     0     -13.216 -18.315   5.076  0.00  0.00    -0.650 OA
BRANCH  47  49
HETATM   49  O   UNK     0     -14.372 -16.386   5.378  0.00  0.00    -0.776 OA
HETATM   50  H   UNK     0     -13.620 -15.689   5.436  0.00  0.00     0.167 HD
ENDBRANCH  47  49
ENDBRANCH  46  47
ENDBRANCH  45  46
ENDBRANCH  11  45
BRANCH  18  51
HETATM   51  C   UNK     0      -8.480 -16.656   5.491  0.00  0.00     0.051 C 
BRANCH  51  52
HETATM   52  C   UNK     0      -8.886 -17.699   6.521  0.00  0.00     0.114 C 
BRANCH  52  53
HETATM   53  C   UNK     0     -10.084 -17.287   7.278  0.00  0.00     0.139 C 
HETATM   54  O   UNK     0     -10.047 -16.274   7.995  0.00  0.00    -0.650 OA
BRANCH  53  55
HETATM   55  O   UNK     0     -11.235 -18.031   7.187  0.00  0.00    -0.776 OA
HETATM   56  H   UNK     0     -11.724 -18.445   7.945  0.00  0.00     0.167 HD
ENDBRANCH  53  55
ENDBRANCH  52  53
ENDBRANCH  51  52
ENDBRANCH  18  51
TORSDOF 16
ENDMDL
MODEL 17
REMARK VINA RESULT:      -7.7      4.518      6.593
REMARK  16 active torsions:
REMARK  status: ('A' for Active; 'I' for Inactive)
REMARK    1  A    between atoms: C_6  and  C_7 
REMARK    2  A    between atoms: C_7  and  C_8 
REMARK    3  A    between atoms: C_8  and  C_9 
REMARK    4  A    between atoms: C_9  and  O_11 
REMARK    5  A    between atoms: C_16  and  C_17 
REMARK    6  A    between atoms: C_17  and  C_18 
REMARK    7  A    between atoms: C_18  and  C_19 
REMARK    8  A    between atoms: C_19  and  O_21 
REMARK    9  A    between atoms: C_28  and  C_29 
REMARK   10  A    between atoms: C_29  and  C_30 
REMARK   11  A    between atoms: C_30  and  C_31 
REMARK   12  A    between atoms: C_31  and  O_33 
REMARK   13  A    between atoms: C_42  and  C_43 
REMARK   14  A    between atoms: C_43  and  C_44 
REMARK   15  A    between atoms: C_44  and  C_45 
REMARK   16  A    between atoms: C_45  and  O_47 
ROOT
HETATM    1  C   UNK     0      -9.260 -22.663   2.675  0.00  0.00     0.051 C 
HETATM    2  C   UNK     0      -9.589 -23.322   1.351  0.00  0.00    -0.031 A 
HETATM    3  C   UNK     0     -10.819 -23.489   0.733  0.00  0.00     0.021 A 
HETATM    4  N   UNK     0     -10.641 -24.164  -0.428  0.00  0.00    -0.361 N 
HETATM    5  C   UNK     0      -9.324 -24.422  -0.567  0.00  0.00     0.022 A 
HETATM    6  C   UNK     0      -8.637 -23.912   0.530  0.00  0.00    -0.027 A 
HETATM    7  C   UNK     0      -8.594 -25.056  -1.710  0.00  0.00     0.115 C 
HETATM    8  C   UNK     0      -9.011 -24.627  -3.106  0.00  0.00     0.021 A 
HETATM    9  N   UNK     0      -9.412 -23.417  -3.525  0.00  0.00    -0.361 N 
HETATM   10  C   UNK     0      -9.771 -23.520  -4.822  0.00  0.00     0.022 A 
HETATM   11  C   UNK     0      -9.589 -24.831  -5.253  0.00  0.00    -0.027 A 
HETATM   12  C   UNK     0      -9.109 -25.534  -4.177  0.00  0.00    -0.031 A 
HETATM   13  C   UNK     0      -8.758 -27.005  -4.180  0.00  0.00     0.051 C 
HETATM   14  C   UNK     0     -10.350 -22.405  -5.688  0.00  0.00     0.115 C 
HETATM   15  C   UNK     0     -11.667 -21.845  -5.174  0.00  0.00     0.021 A 
HETATM   16  N   UNK     0     -11.907 -21.281  -3.976  0.00  0.00    -0.361 N 
HETATM   17  C   UNK     0     -13.205 -20.984  -3.884  0.00  0.00     0.022 A 
HETATM   18  C   UNK     0     -13.839 -21.365  -5.083  0.00  0.00    -0.027 A 
HETATM   19  C   UNK     0     -12.865 -21.902  -5.883  0.00  0.00    -0.031 A 
HETATM   20  C   UNK     0     -13.114 -22.409  -7.292  0.00  0.00     0.051 C 
HETATM   21  C   UNK     0     -13.991 -20.407  -2.727  0.00  0.00     0.115 C 
HETATM   22  C   UNK     0     -13.559 -20.790  -1.331  0.00  0.00     0.022 A 
HETATM   23  N   UNK     0     -13.151 -21.986  -0.887  0.00  0.00    -0.361 N 
HETATM   24  C   UNK     0     -12.725 -21.843   0.384  0.00  0.00     0.021 A 
HETATM   25  C   UNK     0     -12.871 -20.524   0.771  0.00  0.00    -0.031 A 
HETATM   26  C   UNK     0     -12.570 -19.885   2.111  0.00  0.00     0.051 C 
HETATM   27  C   UNK     0     -13.403 -19.831  -0.310  0.00  0.00    -0.027 A 
HETATM   28  C   UNK     0     -12.088 -22.895   1.275  0.00  0.00     0.115 C 
HETATM   29  H   UNK     0     -11.452 -24.487  -1.121  0.00  0.00     0.165 HD
HETATM   30  H   UNK     0      -9.395 -22.477  -2.921  0.00  0.00     0.165 HD
HETATM   31  H   UNK     0     -11.137 -21.043  -3.197  0.00  0.00     0.165 HD
HETATM   32  H   UNK     0     -13.202 -22.952  -1.453  0.00  0.00     0.165 HD
ENDROOT
BRANCH   6  33
HETATM   33  C   UNK     0      -7.165 -23.944   0.853  0.00  0.00     0.051 C 
BRANCH  33  34
HETATM   34  C   UNK     0      -6.808 -25.208   1.598  0.00  0.00     0.114 C 
BRANCH  34  35
HETATM   35  C   UNK     0      -5.326 -25.357   1.540  0.00  0.00     0.139 C 
HETATM   36  O   UNK     0      -4.810 -26.404   1.050  0.00  0.00    -0.650 OA
BRANCH  35  37
HETATM   37  O   UNK     0      -4.456 -24.380   2.007  0.00  0.00    -0.776 OA
HETATM   38  H   UNK     0      -3.598 -24.155   1.529  0.00  0.00     0.167 HD
ENDBRANCH  35  37
ENDBRANCH  34  35
ENDBRANCH  33  34
ENDBRANCH   6  33
BRANCH  27  39
HETATM   39  C   UNK     0     -13.768 -18.390  -0.248  0.00  0.00     0.051 C 
BRANCH  39  40
HETATM   40  C   UNK     0     -12.733 -17.398  -0.537  0.00  0.00     0.114 C 
BRANCH  40  41
HETATM   41  C   UNK     0     -12.538 -16.850  -1.861  0.00  0.00     0.139 C 
HETATM   42  O   UNK     0     -13.320 -17.043  -2.802  0.00  0.00    -0.650 OA
BRANCH  41  43
HETATM   43  O   UNK     0     -11.392 -16.044  -2.114  0.00  0.00    -0.776 OA
HETATM   44  H   UNK     0     -10.581 -16.284  -1.557  0.00  0.00     0.167 HD
ENDBRANCH  41  43
ENDBRANCH  40  41
ENDBRANCH  39  40
ENDBRANCH  27  39
BRANCH  11  45
HETATM   45  C   UNK     0      -9.844 -25.418  -6.615  0.00  0.00     0.051 C 
BRANCH  45  46
HETATM   46  C   UNK     0     -11.229 -25.919  -6.809  0.00  0.00     0.114 C 
BRANCH  46  47
HETATM   47  C   UNK     0     -11.131 -27.216  -7.538  0.00  0.00     0.139 C 
HETATM   48  O   UNK     0     -10.908 -27.195  -8.757  0.00  0.00    -0.650 OA
BRANCH  47  49
HETATM   49  O   UNK     0     -11.286 -28.408  -6.876  0.00  0.00    -0.776 OA
HETATM   50  H   UNK     0     -11.332 -28.461  -5.852  0.00  0.00     0.167 HD
ENDBRANCH  47  49
ENDBRANCH  46  47
ENDBRANCH  45  46
ENDBRANCH  11  45
BRANCH  18  51
HETATM   51  C   UNK     0     -15.291 -21.206  -5.454  0.00  0.00     0.051 C 
BRANCH  51  52
HETATM   52  C   UNK     0     -16.005 -22.438  -4.920  0.00  0.00     0.114 C 
BRANCH  52  53
HETATM   53  C   UNK     0     -16.587 -23.251  -6.006  0.00  0.00     0.139 C 
HETATM   54  O   UNK     0     -17.022 -24.388  -5.766  0.00  0.00    -0.650 OA
BRANCH  53  55
HETATM   55  O   UNK     0     -16.640 -22.742  -7.281  0.00  0.00    -0.776 OA
HETATM   56  H   UNK     0     -17.042 -21.875  -7.547  0.00  0.00     0.167 HD
ENDBRANCH  53  55
ENDBRANCH  52  53
ENDBRANCH  51  52
ENDBRANCH  18  51
TORSDOF 16
ENDMDL
MODEL 18
REMARK VINA RESULT:      -7.7      4.417      6.521
REMARK  16 active torsions:
REMARK  status: ('A' for Active; 'I' for Inactive)
REMARK    1  A    between atoms: C_6  and  C_7 
REMARK    2  A    between atoms: C_7  and  C_8 
REMARK    3  A    between atoms: C_8  and  C_9 
REMARK    4  A    between atoms: C_9  and  O_11 
REMARK    5  A    between atoms: C_16  and  C_17 
REMARK    6  A    between atoms: C_17  and  C_18 
REMARK    7  A    between atoms: C_18  and  C_19 
REMARK    8  A    between atoms: C_19  and  O_21 
REMARK    9  A    between atoms: C_28  and  C_29 
REMARK   10  A    between atoms: C_29  and  C_30 
REMARK   11  A    between atoms: C_30  and  C_31 
REMARK   12  A    between atoms: C_31  and  O_33 
REMARK   13  A    between atoms: C_42  and  C_43 
REMARK   14  A    between atoms: C_43  and  C_44 
REMARK   15  A    between atoms: C_44  and  C_45 
REMARK   16  A    between atoms: C_45  and  O_47 
ROOT
HETATM    1  C   UNK     0      -9.087 -22.568   2.753  0.00  0.00     0.051 C 
HETATM    2  C   UNK     0      -9.430 -23.260   1.450  0.00  0.00    -0.031 A 
HETATM    3  C   UNK     0     -10.663 -23.421   0.837  0.00  0.00     0.021 A 
HETATM    4  N   UNK     0     -10.499 -24.135  -0.302  0.00  0.00    -0.361 N 
HETATM    5  C   UNK     0      -9.188 -24.425  -0.433  0.00  0.00     0.022 A 
HETATM    6  C   UNK     0      -8.491 -23.895   0.648  0.00  0.00    -0.027 A 
HETATM    7  C   UNK     0      -8.472 -25.109  -1.555  0.00  0.00     0.115 C 
HETATM    8  C   UNK     0      -8.880 -24.715  -2.964  0.00  0.00     0.021 A 
HETATM    9  N   UNK     0      -9.256 -23.511  -3.420  0.00  0.00    -0.361 N 
HETATM   10  C   UNK     0      -9.618 -23.646  -4.714  0.00  0.00     0.022 A 
HETATM   11  C   UNK     0      -9.463 -24.973  -5.104  0.00  0.00    -0.027 A 
HETATM   12  C   UNK     0      -8.998 -25.652  -4.006  0.00  0.00    -0.031 A 
HETATM   13  C   UNK     0      -8.678 -27.130  -3.964  0.00  0.00     0.051 C 
HETATM   14  C   UNK     0     -10.173 -22.547  -5.614  0.00  0.00     0.115 C 
HETATM   15  C   UNK     0     -11.478 -21.944  -5.118  0.00  0.00     0.021 A 
HETATM   16  N   UNK     0     -11.706 -21.338  -3.938  0.00  0.00    -0.361 N 
HETATM   17  C   UNK     0     -12.998 -21.011  -3.856  0.00  0.00     0.022 A 
HETATM   18  C   UNK     0     -13.640 -21.416  -5.043  0.00  0.00    -0.027 A 
HETATM   19  C   UNK     0     -12.677 -21.998  -5.826  0.00  0.00    -0.031 A 
HETATM   20  C   UNK     0     -12.937 -22.543  -7.218  0.00  0.00     0.051 C 
HETATM   21  C   UNK     0     -13.770 -20.382  -2.719  0.00  0.00     0.115 C 
HETATM   22  C   UNK     0     -13.347 -20.730  -1.311  0.00  0.00     0.022 A 
HETATM   23  N   UNK     0     -12.964 -21.920  -0.830  0.00  0.00    -0.361 N 
HETATM   24  C   UNK     0     -12.534 -21.746   0.436  0.00  0.00     0.021 A 
HETATM   25  C   UNK     0     -12.652 -20.414   0.782  0.00  0.00    -0.031 A 
HETATM   26  C   UNK     0     -12.337 -19.740   2.101  0.00  0.00     0.051 C 
HETATM   27  C   UNK     0     -13.170 -19.744  -0.320  0.00  0.00    -0.027 A 
HETATM   28  C   UNK     0     -11.919 -22.784   1.360  0.00  0.00     0.115 C 
HETATM   29  H   UNK     0     -11.317 -24.462  -0.985  0.00  0.00     0.165 HD
HETATM   30  H   UNK     0      -9.219 -22.552  -2.846  0.00  0.00     0.165 HD
HETATM   31  H   UNK     0     -10.931 -21.092  -3.167  0.00  0.00     0.165 HD
HETATM   32  H   UNK     0     -13.034 -22.903  -1.365  0.00  0.00     0.165 HD
ENDROOT
BRANCH   6  33
HETATM   33  C   UNK     0      -7.019 -23.948   0.972  0.00  0.00     0.051 C 
BRANCH  33  34
HETATM   34  C   UNK     0      -6.674 -25.236   1.682  0.00  0.00     0.114 C 
BRANCH  34  35
HETATM   35  C   UNK     0      -5.220 -25.489   1.465  0.00  0.00     0.139 C 
HETATM   36  O   UNK     0      -4.830 -26.597   0.994  0.00  0.00    -0.650 OA
BRANCH  35  37
HETATM   37  O   UNK     0      -4.244 -24.545   1.757  0.00  0.00    -0.776 OA
HETATM   38  H   UNK     0      -3.297 -24.807   1.980  0.00  0.00     0.167 HD
ENDBRANCH  35  37
ENDBRANCH  34  35
ENDBRANCH  33  34
ENDBRANCH   6  33
BRANCH  27  39
HETATM   39  C   UNK     0     -13.505 -18.294  -0.303  0.00  0.00     0.051 C 
BRANCH  39  40
HETATM   40  C   UNK     0     -12.588 -17.362  -0.958  0.00  0.00     0.114 C 
BRANCH  40  41
HETATM   41  C   UNK     0     -12.907 -16.720  -2.214  0.00  0.00     0.139 C 
HETATM   42  O   UNK     0     -12.110 -16.010  -2.841  0.00  0.00    -0.650 OA
BRANCH  41  43
HETATM   43  O   UNK     0     -14.204 -16.904  -2.773  0.00  0.00    -0.776 OA
HETATM   44  H   UNK     0     -14.878 -16.195  -2.510  0.00  0.00     0.167 HD
ENDBRANCH  41  43
ENDBRANCH  40  41
ENDBRANCH  39  40
ENDBRANCH  27  39
BRANCH  11  45
HETATM   45  C   UNK     0      -9.731 -25.598  -6.447  0.00  0.00     0.051 C 
BRANCH  45  46
HETATM   46  C   UNK     0      -8.625 -25.432  -7.424  0.00  0.00     0.114 C 
BRANCH  46  47
HETATM   47  C   UNK     0      -8.229 -26.796  -7.878  0.00  0.00     0.139 C 
HETATM   48  O   UNK     0      -8.655 -27.204  -8.968  0.00  0.00    -0.650 OA
BRANCH  47  49
HETATM   49  O   UNK     0      -7.412 -27.584  -7.107  0.00  0.00    -0.776 OA
HETATM   50  H   UNK     0      -6.457 -27.300  -6.858  0.00  0.00     0.167 HD
ENDBRANCH  47  49
ENDBRANCH  46  47
ENDBRANCH  45  46
ENDBRANCH  11  45
BRANCH  18  51
HETATM   51  C   UNK     0     -15.088 -21.238  -5.420  0.00  0.00     0.051 C 
BRANCH  51  52
HETATM   52  C   UNK     0     -15.147 -20.013  -6.320  0.00  0.00     0.114 C 
BRANCH  52  53
HETATM   53  C   UNK     0     -15.113 -18.758  -5.544  0.00  0.00     0.139 C 
HETATM   54  O   UNK     0     -16.069 -18.455  -4.812  0.00  0.00    -0.650 OA
BRANCH  53  55
HETATM   55  O   UNK     0     -14.022 -17.929  -5.640  0.00  0.00    -0.776 OA
HETATM   56  H   UNK     0     -13.707 -17.471  -6.463  0.00  0.00     0.167 HD
ENDBRANCH  53  55
ENDBRANCH  52  53
ENDBRANCH  51  52
ENDBRANCH  18  51
TORSDOF 16
ENDMDL
MODEL 19
REMARK VINA RESULT:      -7.7     31.012     33.365
REMARK  16 active torsions:
REMARK  status: ('A' for Active; 'I' for Inactive)
REMARK    1  A    between atoms: C_6  and  C_7 
REMARK    2  A    between atoms: C_7  and  C_8 
REMARK    3  A    between atoms: C_8  and  C_9 
REMARK    4  A    between atoms: C_9  and  O_11 
REMARK    5  A    between atoms: C_16  and  C_17 
REMARK    6  A    between atoms: C_17  and  C_18 
REMARK    7  A    between atoms: C_18  and  C_19 
REMARK    8  A    between atoms: C_19  and  O_21 
REMARK    9  A    between atoms: C_28  and  C_29 
REMARK   10  A    between atoms: C_29  and  C_30 
REMARK   11  A    between atoms: C_30  and  C_31 
REMARK   12  A    between atoms: C_31  and  O_33 
REMARK   13  A    between atoms: C_42  and  C_43 
REMARK   14  A    between atoms: C_43  and  C_44 
REMARK   15  A    between atoms: C_44  and  C_45 
REMARK   16  A    between atoms: C_45  and  O_47 
ROOT
HETATM    1  C   UNK     0       7.521  -2.341 -25.170  0.00  0.00     0.051 C 
HETATM    2  C   UNK     0       8.444  -2.671 -24.014  0.00  0.00    -0.031 A 
HETATM    3  C   UNK     0       8.576  -3.854 -23.304  0.00  0.00     0.021 A 
HETATM    4  N   UNK     0       9.504  -3.684 -22.333  0.00  0.00    -0.361 N 
HETATM    5  C   UNK     0       9.973  -2.422 -22.415  0.00  0.00     0.022 A 
HETATM    6  C   UNK     0       9.329  -1.759 -23.454  0.00  0.00    -0.027 A 
HETATM    7  C   UNK     0      11.070  -1.762 -21.638  0.00  0.00     0.115 C 
HETATM    8  C   UNK     0      12.326  -2.582 -21.401  0.00  0.00     0.021 A 
HETATM    9  N   UNK     0      12.910  -3.471 -22.218  0.00  0.00    -0.361 N 
HETATM   10  C   UNK     0      13.950  -4.026 -21.559  0.00  0.00     0.022 A 
HETATM   11  C   UNK     0      14.043  -3.471 -20.286  0.00  0.00    -0.027 A 
HETATM   12  C   UNK     0      13.023  -2.561 -20.180  0.00  0.00    -0.031 A 
HETATM   13  C   UNK     0      12.736  -1.707 -18.965  0.00  0.00     0.051 C 
HETATM   14  C   UNK     0      14.860  -5.134 -22.081  0.00  0.00     0.115 C 
HETATM   15  C   UNK     0      14.131  -6.429 -22.402  0.00  0.00     0.021 A 
HETATM   16  N   UNK     0      13.120  -6.608 -23.272  0.00  0.00    -0.361 N 
HETATM   17  C   UNK     0      12.710  -7.877 -23.212  0.00  0.00     0.022 A 
HETATM   18  C   UNK     0      13.499  -8.560 -22.266  0.00  0.00    -0.027 A 
HETATM   19  C   UNK     0      14.386  -7.642 -21.767  0.00  0.00    -0.031 A 
HETATM   20  C   UNK     0      15.452  -7.972 -20.737  0.00  0.00     0.051 C 
HETATM   21  C   UNK     0      11.568  -8.564 -23.927  0.00  0.00     0.115 C 
HETATM   22  C   UNK     0      10.329  -7.748 -24.209  0.00  0.00     0.022 A 
HETATM   23  N   UNK     0       9.728  -6.852 -23.416  0.00  0.00    -0.361 N 
HETATM   24  C   UNK     0       8.744  -6.256 -24.120  0.00  0.00     0.021 A 
HETATM   25  C   UNK     0       8.704  -6.789 -25.394  0.00  0.00    -0.031 A 
HETATM   26  C   UNK     0       7.753  -6.474 -26.530  0.00  0.00     0.051 C 
HETATM   27  C   UNK     0       9.709  -7.746 -25.475  0.00  0.00    -0.027 A 
HETATM   28  C   UNK     0       7.846  -5.113 -23.679  0.00  0.00     0.115 C 
HETATM   29  H   UNK     0       9.793  -4.445 -21.571  0.00  0.00     0.165 HD
HETATM   30  H   UNK     0      12.622  -3.675 -23.279  0.00  0.00     0.165 HD
HETATM   31  H   UNK     0      12.717  -5.836 -23.977  0.00  0.00     0.165 HD
HETATM   32  H   UNK     0       9.964  -6.662 -22.337  0.00  0.00     0.165 HD
ENDROOT
BRANCH   6  33
HETATM   33  C   UNK     0       9.488  -0.344 -23.948  0.00  0.00     0.051 C 
BRANCH  33  34
HETATM   34  C   UNK     0       8.567   0.590 -23.198  0.00  0.00     0.114 C 
BRANCH  34  35
HETATM   35  C   UNK     0       7.533   1.066 -24.162  0.00  0.00     0.139 C 
HETATM   36  O   UNK     0       7.843   1.293 -25.368  0.00  0.00    -0.650 OA
BRANCH  35  37
HETATM   37  O   UNK     0       6.209   1.278 -23.797  0.00  0.00    -0.776 OA
HETATM   38  H   UNK     0       5.793   2.195 -23.802  0.00  0.00     0.167 HD
ENDBRANCH  35  37
ENDBRANCH  34  35
ENDBRANCH  33  34
ENDBRANCH   6  33
BRANCH  27  39
HETATM   39  C   UNK     0       9.931  -8.589 -26.681  0.00  0.00     0.051 C 
BRANCH  39  40
HETATM   40  C   UNK     0      10.822  -8.086 -27.726  0.00  0.00     0.114 C 
BRANCH  40  41
HETATM   41  C   UNK     0      10.458  -8.106 -29.125  0.00  0.00     0.139 C 
HETATM   42  O   UNK     0       9.353  -7.740 -29.549  0.00  0.00    -0.650 OA
BRANCH  41  43
HETATM   43  O   UNK     0      11.407  -8.569 -30.080  0.00  0.00    -0.776 OA
HETATM   44  H   UNK     0      11.447  -9.576 -30.177  0.00  0.00     0.167 HD
ENDBRANCH  41  43
ENDBRANCH  40  41
ENDBRANCH  39  40
ENDBRANCH  27  39
BRANCH  11  45
HETATM   45  C   UNK     0      15.042  -3.768 -19.200  0.00  0.00     0.051 C 
BRANCH  45  46
HETATM   46  C   UNK     0      14.459  -4.426 -18.003  0.00  0.00     0.114 C 
BRANCH  46  47
HETATM   47  C   UNK     0      15.139  -5.744 -17.848  0.00  0.00     0.139 C 
HETATM   48  O   UNK     0      14.442  -6.751 -17.660  0.00  0.00    -0.650 OA
BRANCH  47  49
HETATM   49  O   UNK     0      16.506  -5.841 -17.910  0.00  0.00    -0.776 OA
HETATM   50  H   UNK     0      17.047  -6.363 -17.211  0.00  0.00     0.167 HD
ENDBRANCH  47  49
ENDBRANCH  46  47
ENDBRANCH  45  46
ENDBRANCH  11  45
BRANCH  18  51
HETATM   51  C   UNK     0      13.425 -10.013 -21.874  0.00  0.00     0.051 C 
BRANCH  51  52
HETATM   52  C   UNK     0      13.870 -10.807 -23.093  0.00  0.00     0.114 C 
BRANCH  52  53
HETATM   53  C   UNK     0      13.004 -11.978 -23.332  0.00  0.00     0.139 C 
HETATM   54  O   UNK     0      12.595 -12.225 -24.478  0.00  0.00    -0.650 OA
BRANCH  53  55
HETATM   55  O   UNK     0      12.652 -12.788 -22.281  0.00  0.00    -0.776 OA
HETATM   56  H   UNK     0      12.426 -13.753 -22.337  0.00  0.00     0.167 HD
ENDBRANCH  53  55
ENDBRANCH  52  53
ENDBRANCH  51  52
ENDBRANCH  18  51
TORSDOF 16
ENDMDL
MODEL 20
REMARK VINA RESULT:      -7.5      4.599     11.011
REMARK  16 active torsions:
REMARK  status: ('A' for Active; 'I' for Inactive)
REMARK    1  A    between atoms: C_6  and  C_7 
REMARK    2  A    between atoms: C_7  and  C_8 
REMARK    3  A    between atoms: C_8  and  C_9 
REMARK    4  A    between atoms: C_9  and  O_11 
REMARK    5  A    between atoms: C_16  and  C_17 
REMARK    6  A    between atoms: C_17  and  C_18 
REMARK    7  A    between atoms: C_18  and  C_19 
REMARK    8  A    between atoms: C_19  and  O_21 
REMARK    9  A    between atoms: C_28  and  C_29 
REMARK   10  A    between atoms: C_29  and  C_30 
REMARK   11  A    between atoms: C_30  and  C_31 
REMARK   12  A    between atoms: C_31  and  O_33 
REMARK   13  A    between atoms: C_42  and  C_43 
REMARK   14  A    between atoms: C_43  and  C_44 
REMARK   15  A    between atoms: C_44  and  C_45 
REMARK   16  A    between atoms: C_45  and  O_47 
ROOT
HETATM    1  C   UNK     0      -7.639 -24.166  -1.387  0.00  0.00     0.051 C 
HETATM    2  C   UNK     0      -9.085 -23.859  -1.056  0.00  0.00    -0.031 A 
HETATM    3  C   UNK     0      -9.736 -23.898   0.167  0.00  0.00     0.021 A 
HETATM    4  N   UNK     0     -11.038 -23.576  -0.015  0.00  0.00    -0.361 N 
HETATM    5  C   UNK     0     -11.231 -23.325  -1.327  0.00  0.00     0.022 A 
HETATM    6  C   UNK     0     -10.030 -23.496  -2.008  0.00  0.00    -0.027 A 
HETATM    7  C   UNK     0     -12.458 -22.841  -2.033  0.00  0.00     0.115 C 
HETATM    8  C   UNK     0     -13.246 -21.736  -1.352  0.00  0.00     0.021 A 
HETATM    9  N   UNK     0     -12.785 -20.706  -0.626  0.00  0.00    -0.361 N 
HETATM   10  C   UNK     0     -13.846 -20.029  -0.137  0.00  0.00     0.022 A 
HETATM   11  C   UNK     0     -15.023 -20.634  -0.569  0.00  0.00    -0.027 A 
HETATM   12  C   UNK     0     -14.652 -21.710  -1.334  0.00  0.00    -0.031 A 
HETATM   13  C   UNK     0     -15.604 -22.664  -2.020  0.00  0.00     0.051 C 
HETATM   14  C   UNK     0     -13.794 -18.822   0.795  0.00  0.00     0.115 C 
HETATM   15  C   UNK     0     -13.122 -19.103   2.129  0.00  0.00     0.021 A 
HETATM   16  N   UNK     0     -11.868 -19.543   2.341  0.00  0.00    -0.361 N 
HETATM   17  C   UNK     0     -11.685 -19.732   3.650  0.00  0.00     0.022 A 
HETATM   18  C   UNK     0     -12.873 -19.388   4.324  0.00  0.00    -0.027 A 
HETATM   19  C   UNK     0     -13.765 -18.995   3.361  0.00  0.00    -0.031 A 
HETATM   20  C   UNK     0     -15.170 -18.504   3.661  0.00  0.00     0.051 C 
HETATM   21  C   UNK     0     -10.488 -20.279   4.395  0.00  0.00     0.115 C 
HETATM   22  C   UNK     0      -9.669 -21.348   3.710  0.00  0.00     0.022 A 
HETATM   23  N   UNK     0     -10.101 -22.383   2.977  0.00  0.00    -0.361 N 
HETATM   24  C   UNK     0      -9.029 -22.996   2.437  0.00  0.00     0.021 A 
HETATM   25  C   UNK     0      -7.878 -22.347   2.840  0.00  0.00    -0.031 A 
HETATM   26  C   UNK     0      -6.434 -22.685   2.530  0.00  0.00     0.051 C 
HETATM   27  C   UNK     0      -8.262 -21.289   3.656  0.00  0.00    -0.027 A 
HETATM   28  C   UNK     0      -9.018 -24.160   1.461  0.00  0.00     0.115 C 
HETATM   29  H   UNK     0     -11.822 -23.567   0.778  0.00  0.00     0.165 HD
HETATM   30  H   UNK     0     -11.711 -20.425  -0.497  0.00  0.00     0.165 HD
HETATM   31  H   UNK     0     -11.079 -19.679   1.556  0.00  0.00     0.165 HD
HETATM   32  H   UNK     0     -11.166 -22.716   2.869  0.00  0.00     0.165 HD
ENDROOT
BRANCH   6  33
HETATM   33  C   UNK     0      -9.716 -23.344  -3.475  0.00  0.00     0.051 C 
BRANCH  33  34
HETATM   34  C   UNK     0     -10.483 -24.355  -4.293  0.00  0.00     0.114 C 
BRANCH  34  35
HETATM   35  C   UNK     0      -9.957 -25.705  -3.940  0.00  0.00     0.139 C 
HETATM   36  O   UNK     0      -8.759 -26.012  -4.207  0.00  0.00    -0.650 OA
BRANCH  35  37
HETATM   37  O   UNK     0     -10.735 -26.672  -3.314  0.00  0.00    -0.776 OA
HETATM   38  H   UNK     0     -10.587 -26.937  -2.354  0.00  0.00     0.167 HD
ENDBRANCH  35  37
ENDBRANCH  34  35
ENDBRANCH  33  34
ENDBRANCH   6  33
BRANCH  27  39
HETATM   39  C   UNK     0      -7.286 -20.398   4.341  0.00  0.00     0.051 C 
BRANCH  39  40
HETATM   40  C   UNK     0      -6.649 -19.338   3.561  0.00  0.00     0.114 C 
BRANCH  40  41
HETATM   41  C   UNK     0      -7.155 -17.984   3.542  0.00  0.00     0.139 C 
HETATM   42  O   UNK     0      -6.531 -17.014   3.993  0.00  0.00    -0.650 OA
BRANCH  41  43
HETATM   43  O   UNK     0      -8.439 -17.734   2.978  0.00  0.00    -0.776 OA
HETATM   44  H   UNK     0      -8.551 -16.807   2.585  0.00  0.00     0.167 HD
ENDBRANCH  41  43
ENDBRANCH  40  41
ENDBRANCH  39  40
ENDBRANCH  27  39
BRANCH  11  45
HETATM   45  C   UNK     0     -16.446 -20.233  -0.287  0.00  0.00     0.051 C 
BRANCH  45  46
HETATM   46  C   UNK     0     -16.994 -20.791   0.975  0.00  0.00     0.114 C 
BRANCH  46  47
HETATM   47  C   UNK     0     -18.219 -20.009   1.309  0.00  0.00     0.139 C 
HETATM   48  O   UNK     0     -18.100 -18.801   1.560  0.00  0.00    -0.650 OA
BRANCH  47  49
HETATM   49  O   UNK     0     -19.451 -20.611   1.339  0.00  0.00    -0.776 OA
HETATM   50  H   UNK     0     -20.200 -20.290   1.965  0.00  0.00     0.167 HD
ENDBRANCH  47  49
ENDBRANCH  46  47
ENDBRANCH  45  46
ENDBRANCH  11  45
BRANCH  18  51
HETATM   51  C   UNK     0     -13.137 -19.413   5.807  0.00  0.00     0.051 C 
BRANCH  51  52
HETATM   52  C   UNK     0     -12.731 -18.045   6.336  0.00  0.00     0.114 C 
BRANCH  52  53
HETATM   53  C   UNK     0     -11.790 -18.151   7.468  0.00  0.00     0.139 C 
HETATM   54  O   UNK     0     -12.178 -18.600   8.558  0.00  0.00    -0.650 OA
BRANCH  53  55
HETATM   55  O   UNK     0     -10.487 -17.747   7.309  0.00  0.00    -0.776 OA
HETATM   56  H   UNK     0      -9.781 -17.763   8.006  0.00  0.00     0.167 HD
ENDBRANCH  53  55
ENDBRANCH  52  53
ENDBRANCH  51  52
ENDBRANCH  18  51
TORSDOF 16
ENDMDL
