MODEL 1
REMARK VINA RESULT:     -10.2      0.000      0.000
REMARK  16 active torsions:
REMARK  status: ('A' for Active; 'I' for Inactive)
REMARK    1  A    between atoms: C_6  and  C_7 
REMARK    2  A    between atoms: C_7  and  C_8 
REMARK    3  A    between atoms: C_8  and  C_9 
REMARK    4  A    between atoms: C_9  and  O_11 
REMARK    5  A    between atoms: C_16  and  C_17 
REMARK    6  A    between atoms: C_17  and  C_18 
REMARK    7  A    between atoms: C_18  and  C_19 
REMARK    8  A    between atoms: C_19  and  O_21 
REMARK    9  A    between atoms: C_28  and  C_29 
REMARK   10  A    between atoms: C_29  and  C_30 
REMARK   11  A    between atoms: C_30  and  C_31 
REMARK   12  A    between atoms: C_31  and  O_33 
REMARK   13  A    between atoms: C_42  and  C_43 
REMARK   14  A    between atoms: C_43  and  C_44 
REMARK   15  A    between atoms: C_44  and  C_45 
REMARK   16  A    between atoms: C_45  and  O_47 
ROOT
HETATM    1  C   UNK     0      -5.504  -7.236  28.662  0.00  0.00     0.051 C 
HETATM    2  C   UNK     0      -4.239  -6.437  28.420  0.00  0.00    -0.031 A 
HETATM    3  C   UNK     0      -3.945  -5.541  27.405  0.00  0.00     0.021 A 
HETATM    4  N   UNK     0      -2.680  -5.087  27.569  0.00  0.00    -0.361 N 
HETATM    5  C   UNK     0      -2.165  -5.667  28.673  0.00  0.00     0.022 A 
HETATM    6  C   UNK     0      -3.112  -6.520  29.228  0.00  0.00    -0.027 A 
HETATM    7  C   UNK     0      -0.845  -5.437  29.341  0.00  0.00     0.115 C 
HETATM    8  C   UNK     0      -0.385  -3.995  29.463  0.00  0.00     0.021 A 
HETATM    9  N   UNK     0      -1.126  -2.896  29.678  0.00  0.00    -0.361 N 
HETATM   10  C   UNK     0      -0.309  -1.823  29.620  0.00  0.00     0.022 A 
HETATM   11  C   UNK     0       0.994  -2.242  29.370  0.00  0.00    -0.027 A 
HETATM   12  C   UNK     0       0.953  -3.609  29.271  0.00  0.00    -0.031 A 
HETATM   13  C   UNK     0       2.145  -4.503  29.008  0.00  0.00     0.051 C 
HETATM   14  C   UNK     0      -0.732  -0.361  29.743  0.00  0.00     0.115 C 
HETATM   15  C   UNK     0      -1.709   0.090  28.670  0.00  0.00     0.021 A 
HETATM   16  N   UNK     0      -2.924  -0.422  28.398  0.00  0.00    -0.361 N 
HETATM   17  C   UNK     0      -3.436   0.205  27.337  0.00  0.00     0.022 A 
HETATM   18  C   UNK     0      -2.515   1.179  26.903  0.00  0.00    -0.027 A 
HETATM   19  C   UNK     0      -1.438   1.098  27.747  0.00  0.00    -0.031 A 
HETATM   20  C   UNK     0      -0.224   2.003  27.655  0.00  0.00     0.051 C 
HETATM   21  C   UNK     0      -4.730  -0.040  26.594  0.00  0.00     0.115 C 
HETATM   22  C   UNK     0      -5.222  -1.466  26.503  0.00  0.00     0.022 A 
HETATM   23  N   UNK     0      -4.508  -2.579  26.294  0.00  0.00    -0.361 N 
HETATM   24  C   UNK     0      -5.327  -3.640  26.433  0.00  0.00     0.021 A 
HETATM   25  C   UNK     0      -6.603  -3.200  26.729  0.00  0.00    -0.031 A 
HETATM   26  C   UNK     0      -7.867  -4.008  26.935  0.00  0.00     0.051 C 
HETATM   27  C   UNK     0      -6.561  -1.811  26.778  0.00  0.00    -0.027 A 
HETATM   28  C   UNK     0      -4.958  -5.113  26.381  0.00  0.00     0.115 C 
HETATM   29  H   UNK     0      -2.147  -4.389  26.883  0.00  0.00     0.165 HD
HETATM   30  H   UNK     0      -2.216  -2.879  29.920  0.00  0.00     0.165 HD
HETATM   31  H   UNK     0      -3.452  -1.210  28.995  0.00  0.00     0.165 HD
HETATM   32  H   UNK     0      -3.426  -2.624  26.003  0.00  0.00     0.165 HD
ENDROOT
BRANCH   6  33
HETATM   33  C   UNK     0      -3.029  -7.398  30.451  0.00  0.00     0.051 C 
BRANCH  33  34
HETATM   34  C   UNK     0      -3.374  -6.616  31.696  0.00  0.00     0.114 C 
BRANCH  34  35
HETATM   35  C   UNK     0      -2.319  -6.902  32.710  0.00  0.00     0.139 C 
HETATM   36  O   UNK     0      -2.244  -8.047  33.245  0.00  0.00    -0.650 OA
BRANCH  35  37
HETATM   37  O   UNK     0      -1.386  -5.953  33.109  0.00  0.00    -0.776 OA
HETATM   38  H   UNK     0      -1.024  -5.260  32.474  0.00  0.00     0.167 HD
ENDBRANCH  35  37
ENDBRANCH  34  35
ENDBRANCH  33  34
ENDBRANCH   6  33
BRANCH  27  39
HETATM   39  C   UNK     0      -7.769  -0.971  27.003  0.00  0.00     0.051 C 
BRANCH  39  40
HETATM   40  C   UNK     0      -8.382  -0.315  25.849  0.00  0.00     0.114 C 
BRANCH  40  41
HETATM   41  C   UNK     0      -7.812   0.865  25.239  0.00  0.00     0.139 C 
HETATM   42  O   UNK     0      -7.917   2.002  25.720  0.00  0.00    -0.650 OA
BRANCH  41  43
HETATM   43  O   UNK     0      -7.086   0.732  24.021  0.00  0.00    -0.776 OA
HETATM   44  H   UNK     0      -6.327   1.393  23.912  0.00  0.00     0.167 HD
ENDBRANCH  41  43
ENDBRANCH  40  41
ENDBRANCH  39  40
ENDBRANCH  27  39
BRANCH  11  45
HETATM   45  C   UNK     0       2.241  -1.410  29.230  0.00  0.00     0.051 C 
BRANCH  45  46
HETATM   46  C   UNK     0       2.516  -0.960  27.842  0.00  0.00     0.114 C 
BRANCH  46  47
HETATM   47  C   UNK     0       3.927  -1.326  27.530  0.00  0.00     0.139 C 
HETATM   48  O   UNK     0       4.598  -1.895  28.403  0.00  0.00    -0.650 OA
BRANCH  47  49
HETATM   49  O   UNK     0       4.474  -1.037  26.306  0.00  0.00    -0.776 OA
HETATM   50  H   UNK     0       3.950  -0.536  25.579  0.00  0.00     0.167 HD
ENDBRANCH  47  49
ENDBRANCH  46  47
ENDBRANCH  45  46
ENDBRANCH  11  45
BRANCH  18  51
HETATM   51  C   UNK     0      -2.663   2.149  25.759  0.00  0.00     0.051 C 
BRANCH  51  52
HETATM   52  C   UNK     0      -3.602   3.243  26.247  0.00  0.00     0.114 C 
BRANCH  52  53
HETATM   53  C   UNK     0      -4.784   3.381  25.374  0.00  0.00     0.139 C 
HETATM   54  O   UNK     0      -4.839   2.763  24.299  0.00  0.00    -0.650 OA
BRANCH  53  55
HETATM   55  O   UNK     0      -5.819   4.199  25.757  0.00  0.00    -0.776 OA
HETATM   56  H   UNK     0      -6.168   4.977  25.249  0.00  0.00     0.167 HD
ENDBRANCH  53  55
ENDBRANCH  52  53
ENDBRANCH  51  52
ENDBRANCH  18  51
TORSDOF 16
ENDMDL
MODEL 2
REMARK VINA RESULT:      -9.6      2.191      7.233
REMARK  16 active torsions:
REMARK  status: ('A' for Active; 'I' for Inactive)
REMARK    1  A    between atoms: C_6  and  C_7 
REMARK    2  A    between atoms: C_7  and  C_8 
REMARK    3  A    between atoms: C_8  and  C_9 
REMARK    4  A    between atoms: C_9  and  O_11 
REMARK    5  A    between atoms: C_16  and  C_17 
REMARK    6  A    between atoms: C_17  and  C_18 
REMARK    7  A    between atoms: C_18  and  C_19 
REMARK    8  A    between atoms: C_19  and  O_21 
REMARK    9  A    between atoms: C_28  and  C_29 
REMARK   10  A    between atoms: C_29  and  C_30 
REMARK   11  A    between atoms: C_30  and  C_31 
REMARK   12  A    between atoms: C_31  and  O_33 
REMARK   13  A    between atoms: C_42  and  C_43 
REMARK   14  A    between atoms: C_43  and  C_44 
REMARK   15  A    between atoms: C_44  and  C_45 
REMARK   16  A    between atoms: C_45  and  O_47 
ROOT
HETATM    1  C   UNK     0       1.076  -6.815  31.040  0.00  0.00     0.051 C 
HETATM    2  C   UNK     0      -0.322  -6.417  30.614  0.00  0.00    -0.031 A 
HETATM    3  C   UNK     0      -0.987  -5.213  30.789  0.00  0.00     0.021 A 
HETATM    4  N   UNK     0      -2.234  -5.319  30.274  0.00  0.00    -0.361 N 
HETATM    5  C   UNK     0      -2.377  -6.560  29.766  0.00  0.00     0.022 A 
HETATM    6  C   UNK     0      -1.200  -7.275  29.964  0.00  0.00    -0.027 A 
HETATM    7  C   UNK     0      -3.523  -7.152  29.006  0.00  0.00     0.115 C 
HETATM    8  C   UNK     0      -4.169  -6.272  27.951  0.00  0.00     0.021 A 
HETATM    9  N   UNK     0      -3.587  -5.376  27.139  0.00  0.00    -0.361 N 
HETATM   10  C   UNK     0      -4.557  -4.760  26.430  0.00  0.00     0.022 A 
HETATM   11  C   UNK     0      -5.797  -5.280  26.789  0.00  0.00    -0.027 A 
HETATM   12  C   UNK     0      -5.560  -6.233  27.747  0.00  0.00    -0.031 A 
HETATM   13  C   UNK     0      -6.619  -7.070  28.428  0.00  0.00     0.051 C 
HETATM   14  C   UNK     0      -4.360  -3.625  25.430  0.00  0.00     0.115 C 
HETATM   15  C   UNK     0      -3.746  -2.372  26.034  0.00  0.00     0.021 A 
HETATM   16  N   UNK     0      -2.563  -2.258  26.664  0.00  0.00    -0.361 N 
HETATM   17  C   UNK     0      -2.421  -1.008  27.110  0.00  0.00     0.022 A 
HETATM   18  C   UNK     0      -3.563  -0.269  26.743  0.00  0.00    -0.027 A 
HETATM   19  C   UNK     0      -4.385  -1.134  26.069  0.00  0.00    -0.031 A 
HETATM   20  C   UNK     0      -5.718  -0.733  25.463  0.00  0.00     0.051 C 
HETATM   21  C   UNK     0      -1.315  -0.389  27.934  0.00  0.00     0.115 C 
HETATM   22  C   UNK     0      -0.633  -1.267  28.957  0.00  0.00     0.022 A 
HETATM   23  N   UNK     0      -1.187  -2.171  29.776  0.00  0.00    -0.361 N 
HETATM   24  C   UNK     0      -0.197  -2.826  30.415  0.00  0.00     0.021 A 
HETATM   25  C   UNK     0       1.024  -2.325  30.005  0.00  0.00    -0.031 A 
HETATM   26  C   UNK     0       2.415  -2.708  30.466  0.00  0.00     0.051 C 
HETATM   27  C   UNK     0       0.771  -1.326  29.072  0.00  0.00    -0.027 A 
HETATM   28  C   UNK     0      -0.325  -3.998  31.373  0.00  0.00     0.115 C 
HETATM   29  H   UNK     0      -3.019  -4.528  30.308  0.00  0.00     0.165 HD
HETATM   30  H   UNK     0      -2.487  -5.211  27.027  0.00  0.00     0.165 HD
HETATM   31  H   UNK     0      -1.789  -3.065  26.756  0.00  0.00     0.165 HD
HETATM   32  H   UNK     0      -2.285  -2.325  29.943  0.00  0.00     0.165 HD
ENDROOT
BRANCH   6  33
HETATM   33  C   UNK     0      -0.852  -8.694  29.589  0.00  0.00     0.051 C 
BRANCH  33  34
HETATM   34  C   UNK     0      -1.135  -9.634  30.737  0.00  0.00     0.114 C 
BRANCH  34  35
HETATM   35  C   UNK     0       0.106 -10.423  30.983  0.00  0.00     0.139 C 
HETATM   36  O   UNK     0       1.187 -10.109  30.404  0.00  0.00    -0.650 OA
BRANCH  35  37
HETATM   37  O   UNK     0       0.142 -11.516  31.841  0.00  0.00    -0.776 OA
HETATM   38  H   UNK     0      -0.553 -12.245  31.807  0.00  0.00     0.167 HD
ENDBRANCH  35  37
ENDBRANCH  34  35
ENDBRANCH  33  34
ENDBRANCH   6  33
BRANCH  27  39
HETATM   39  C   UNK     0       1.845  -0.502  28.455  0.00  0.00     0.051 C 
BRANCH  39  40
HETATM   40  C   UNK     0       2.217  -0.774  27.067  0.00  0.00     0.114 C 
BRANCH  40  41
HETATM   41  C   UNK     0       3.321  -1.641  26.721  0.00  0.00     0.139 C 
HETATM   42  O   UNK     0       3.327  -2.860  26.939  0.00  0.00    -0.650 OA
BRANCH  41  43
HETATM   43  O   UNK     0       4.470  -1.080  26.095  0.00  0.00    -0.776 OA
HETATM   44  H   UNK     0       5.216  -1.743  25.917  0.00  0.00     0.167 HD
ENDBRANCH  41  43
ENDBRANCH  40  41
ENDBRANCH  39  40
ENDBRANCH  27  39
BRANCH  11  45
HETATM   45  C   UNK     0      -7.159  -4.914  26.265  0.00  0.00     0.051 C 
BRANCH  45  46
HETATM   46  C   UNK     0      -7.709  -3.656  26.832  0.00  0.00     0.114 C 
BRANCH  46  47
HETATM   47  C   UNK     0      -9.195  -3.780  26.823  0.00  0.00     0.139 C 
HETATM   48  O   UNK     0      -9.694  -4.907  26.707  0.00  0.00    -0.650 OA
BRANCH  47  49
HETATM   49  O   UNK     0      -9.993  -2.670  26.940  0.00  0.00    -0.776 OA
HETATM   50  H   UNK     0      -9.870  -1.987  27.697  0.00  0.00     0.167 HD
ENDBRANCH  47  49
ENDBRANCH  46  47
ENDBRANCH  45  46
ENDBRANCH  11  45
BRANCH  18  51
HETATM   51  C   UNK     0      -3.846   1.188  27.003  0.00  0.00     0.051 C 
BRANCH  51  52
HETATM   52  C   UNK     0      -2.891   1.973  26.116  0.00  0.00     0.114 C 
BRANCH  52  53
HETATM   53  C   UNK     0      -3.610   2.777  25.109  0.00  0.00     0.139 C 
HETATM   54  O   UNK     0      -4.123   3.860  25.430  0.00  0.00    -0.650 OA
BRANCH  53  55
HETATM   55  O   UNK     0      -3.711   2.317  23.819  0.00  0.00    -0.776 OA
HETATM   56  H   UNK     0      -2.967   1.960  23.266  0.00  0.00     0.167 HD
ENDBRANCH  53  55
ENDBRANCH  52  53
ENDBRANCH  51  52
ENDBRANCH  18  51
TORSDOF 16
ENDMDL
MODEL 3
REMARK VINA RESULT:      -9.5      2.854      7.147
REMARK  16 active torsions:
REMARK  status: ('A' for Active; 'I' for Inactive)
REMARK    1  A    between atoms: C_6  and  C_7 
REMARK    2  A    between atoms: C_7  and  C_8 
REMARK    3  A    between atoms: C_8  and  C_9 
REMARK    4  A    between atoms: C_9  and  O_11 
REMARK    5  A    between atoms: C_16  and  C_17 
REMARK    6  A    between atoms: C_17  and  C_18 
REMARK    7  A    between atoms: C_18  and  C_19 
REMARK    8  A    between atoms: C_19  and  O_21 
REMARK    9  A    between atoms: C_28  and  C_29 
REMARK   10  A    between atoms: C_29  and  C_30 
REMARK   11  A    between atoms: C_30  and  C_31 
REMARK   12  A    between atoms: C_31  and  O_33 
REMARK   13  A    between atoms: C_42  and  C_43 
REMARK   14  A    between atoms: C_43  and  C_44 
REMARK   15  A    between atoms: C_44  and  C_45 
REMARK   16  A    between atoms: C_45  and  O_47 
ROOT
HETATM    1  C   UNK     0      -7.983  -2.497  25.173  0.00  0.00     0.051 C 
HETATM    2  C   UNK     0      -6.998  -3.508  25.723  0.00  0.00    -0.031 A 
HETATM    3  C   UNK     0      -5.618  -3.547  25.600  0.00  0.00     0.021 A 
HETATM    4  N   UNK     0      -5.150  -4.652  26.228  0.00  0.00    -0.361 N 
HETATM    5  C   UNK     0      -6.202  -5.313  26.756  0.00  0.00     0.022 A 
HETATM    6  C   UNK     0      -7.373  -4.626  26.456  0.00  0.00    -0.027 A 
HETATM    7  C   UNK     0      -6.221  -6.534  27.621  0.00  0.00     0.115 C 
HETATM    8  C   UNK     0      -5.181  -6.605  28.725  0.00  0.00     0.021 A 
HETATM    9  N   UNK     0      -4.688  -5.607  29.474  0.00  0.00    -0.361 N 
HETATM   10  C   UNK     0      -3.718  -6.115  30.264  0.00  0.00     0.022 A 
HETATM   11  C   UNK     0      -3.590  -7.480  30.024  0.00  0.00    -0.027 A 
HETATM   12  C   UNK     0      -4.508  -7.795  29.055  0.00  0.00    -0.031 A 
HETATM   13  C   UNK     0      -4.732  -9.175  28.479  0.00  0.00     0.051 C 
HETATM   14  C   UNK     0      -2.842  -5.328  31.234  0.00  0.00     0.115 C 
HETATM   15  C   UNK     0      -1.995  -4.255  30.569  0.00  0.00     0.021 A 
HETATM   16  N   UNK     0      -2.422  -3.213  29.832  0.00  0.00    -0.361 N 
HETATM   17  C   UNK     0      -1.365  -2.543  29.367  0.00  0.00     0.022 A 
HETATM   18  C   UNK     0      -0.193  -3.174  29.831  0.00  0.00    -0.027 A 
HETATM   19  C   UNK     0      -0.602  -4.244  30.583  0.00  0.00    -0.031 A 
HETATM   20  C   UNK     0       0.350  -5.181  31.305  0.00  0.00     0.051 C 
HETATM   21  C   UNK     0      -1.301  -1.350  28.440  0.00  0.00     0.115 C 
HETATM   22  C   UNK     0      -2.357  -1.244  27.365  0.00  0.00     0.022 A 
HETATM   23  N   UNK     0      -2.869  -2.221  26.606  0.00  0.00    -0.361 N 
HETATM   24  C   UNK     0      -3.885  -1.708  25.884  0.00  0.00     0.021 A 
HETATM   25  C   UNK     0      -4.024  -0.365  26.177  0.00  0.00    -0.031 A 
HETATM   26  C   UNK     0      -4.992   0.643  25.594  0.00  0.00     0.051 C 
HETATM   27  C   UNK     0      -3.056  -0.045  27.123  0.00  0.00    -0.027 A 
HETATM   28  C   UNK     0      -4.828  -2.447  24.950  0.00  0.00     0.115 C 
HETATM   29  H   UNK     0      -4.085  -4.979  26.260  0.00  0.00     0.165 HD
HETATM   30  H   UNK     0      -5.056  -4.552  29.484  0.00  0.00     0.165 HD
HETATM   31  H   UNK     0      -3.491  -2.914  29.675  0.00  0.00     0.165 HD
HETATM   32  H   UNK     0      -2.490  -3.274  26.541  0.00  0.00     0.165 HD
ENDROOT
BRANCH   6  33
HETATM   33  C   UNK     0      -8.804  -4.948  26.807  0.00  0.00     0.051 C 
BRANCH  33  34
HETATM   34  C   UNK     0      -9.414  -5.866  25.774  0.00  0.00     0.114 C 
BRANCH  34  35
HETATM   35  C   UNK     0     -10.625  -5.185  25.231  0.00  0.00     0.139 C 
HETATM   36  O   UNK     0     -10.895  -5.254  23.997  0.00  0.00    -0.650 OA
BRANCH  35  37
HETATM   37  O   UNK     0     -11.499  -4.460  26.032  0.00  0.00    -0.776 OA
HETATM   38  H   UNK     0     -12.461  -4.733  26.156  0.00  0.00     0.167 HD
ENDBRANCH  35  37
ENDBRANCH  34  35
ENDBRANCH  33  34
ENDBRANCH   6  33
BRANCH  27  39
HETATM   39  C   UNK     0      -2.848   1.338  27.634  0.00  0.00     0.051 C 
BRANCH  39  40
HETATM   40  C   UNK     0      -1.506   1.912  27.555  0.00  0.00     0.114 C 
BRANCH  40  41
HETATM   41  C   UNK     0      -0.793   2.368  28.727  0.00  0.00     0.139 C 
HETATM   42  O   UNK     0      -1.004   1.934  29.868  0.00  0.00    -0.650 OA
BRANCH  41  43
HETATM   43  O   UNK     0       0.208   3.370  28.581  0.00  0.00    -0.776 OA
HETATM   44  H   UNK     0       0.065   4.193  29.155  0.00  0.00     0.167 HD
ENDBRANCH  41  43
ENDBRANCH  40  41
ENDBRANCH  39  40
ENDBRANCH  27  39
BRANCH  11  45
HETATM   45  C   UNK     0      -2.652  -8.465  30.668  0.00  0.00     0.051 C 
BRANCH  45  46
HETATM   46  C   UNK     0      -1.314  -8.537  30.026  0.00  0.00     0.114 C 
BRANCH  46  47
HETATM   47  C   UNK     0      -0.461  -9.411  30.882  0.00  0.00     0.139 C 
HETATM   48  O   UNK     0      -1.014 -10.213  31.647  0.00  0.00    -0.650 OA
BRANCH  47  49
HETATM   49  O   UNK     0       0.907  -9.329  30.825  0.00  0.00    -0.776 OA
HETATM   50  H   UNK     0       1.487 -10.111  30.498  0.00  0.00     0.167 HD
ENDBRANCH  47  49
ENDBRANCH  46  47
ENDBRANCH  45  46
ENDBRANCH  11  45
BRANCH  18  51
HETATM   51  C   UNK     0       1.237  -2.767  29.588  0.00  0.00     0.051 C 
BRANCH  51  52
HETATM   52  C   UNK     0       1.681  -2.010  30.831  0.00  0.00     0.114 C 
BRANCH  52  53
HETATM   53  C   UNK     0       1.319  -0.581  30.762  0.00  0.00     0.139 C 
HETATM   54  O   UNK     0       1.806   0.142  29.878  0.00  0.00    -0.650 OA
BRANCH  53  55
HETATM   55  O   UNK     0       0.445  -0.056  31.683  0.00  0.00    -0.776 OA
HETATM   56  H   UNK     0       0.063  -0.535  32.464  0.00  0.00     0.167 HD
ENDBRANCH  53  55
ENDBRANCH  52  53
ENDBRANCH  51  52
ENDBRANCH  18  51
TORSDOF 16
ENDMDL
MODEL 4
REMARK VINA RESULT:      -9.4      2.015      6.792
REMARK  16 active torsions:
REMARK  status: ('A' for Active; 'I' for Inactive)
REMARK    1  A    between atoms: C_6  and  C_7 
REMARK    2  A    between atoms: C_7  and  C_8 
REMARK    3  A    between atoms: C_8  and  C_9 
REMARK    4  A    between atoms: C_9  and  O_11 
REMARK    5  A    between atoms: C_16  and  C_17 
REMARK    6  A    between atoms: C_17  and  C_18 
REMARK    7  A    between atoms: C_18  and  C_19 
REMARK    8  A    between atoms: C_19  and  O_21 
REMARK    9  A    between atoms: C_28  and  C_29 
REMARK   10  A    between atoms: C_29  and  C_30 
REMARK   11  A    between atoms: C_30  and  C_31 
REMARK   12  A    between atoms: C_31  and  O_33 
REMARK   13  A    between atoms: C_42  and  C_43 
REMARK   14  A    between atoms: C_43  and  C_44 
REMARK   15  A    between atoms: C_44  and  C_45 
REMARK   16  A    between atoms: C_45  and  O_47 
ROOT
HETATM    1  C   UNK     0       1.843  -1.634  28.840  0.00  0.00     0.051 C 
HETATM    2  C   UNK     0       0.560  -2.382  29.139  0.00  0.00    -0.031 A 
HETATM    3  C   UNK     0      -0.689  -1.886  29.477  0.00  0.00     0.021 A 
HETATM    4  N   UNK     0      -1.534  -2.923  29.686  0.00  0.00    -0.361 N 
HETATM    5  C   UNK     0      -0.853  -4.069  29.480  0.00  0.00     0.022 A 
HETATM    6  C   UNK     0       0.461  -3.767  29.138  0.00  0.00    -0.027 A 
HETATM    7  C   UNK     0      -1.344  -5.483  29.490  0.00  0.00     0.115 C 
HETATM    8  C   UNK     0      -2.676  -5.747  28.811  0.00  0.00     0.021 A 
HETATM    9  N   UNK     0      -3.184  -5.168  27.711  0.00  0.00    -0.361 N 
HETATM   10  C   UNK     0      -4.433  -5.644  27.525  0.00  0.00     0.022 A 
HETATM   11  C   UNK     0      -4.735  -6.563  28.527  0.00  0.00    -0.027 A 
HETATM   12  C   UNK     0      -3.633  -6.632  29.340  0.00  0.00    -0.031 A 
HETATM   13  C   UNK     0      -3.503  -7.511  30.563  0.00  0.00     0.051 C 
HETATM   14  C   UNK     0      -5.408  -5.216  26.432  0.00  0.00     0.115 C 
HETATM   15  C   UNK     0      -5.776  -3.741  26.479  0.00  0.00     0.021 A 
HETATM   16  N   UNK     0      -4.946  -2.685  26.399  0.00  0.00    -0.361 N 
HETATM   17  C   UNK     0      -5.651  -1.561  26.552  0.00  0.00     0.022 A 
HETATM   18  C   UNK     0      -7.007  -1.902  26.729  0.00  0.00    -0.027 A 
HETATM   19  C   UNK     0      -7.072  -3.270  26.681  0.00  0.00    -0.031 A 
HETATM   20  C   UNK     0      -8.364  -4.058  26.794  0.00  0.00     0.051 C 
HETATM   21  C   UNK     0      -5.187  -0.124  26.614  0.00  0.00     0.115 C 
HETATM   22  C   UNK     0      -3.843   0.148  27.247  0.00  0.00     0.022 A 
HETATM   23  N   UNK     0      -3.310  -0.416  28.339  0.00  0.00    -0.361 N 
HETATM   24  C   UNK     0      -2.038   0.015  28.461  0.00  0.00     0.021 A 
HETATM   25  C   UNK     0      -1.748   0.885  27.428  0.00  0.00    -0.031 A 
HETATM   26  C   UNK     0      -0.471   1.654  27.160  0.00  0.00     0.051 C 
HETATM   27  C   UNK     0      -2.888   0.987  26.638  0.00  0.00    -0.027 A 
HETATM   28  C   UNK     0      -1.005  -0.417  29.487  0.00  0.00     0.115 C 
HETATM   29  H   UNK     0      -2.595  -2.839  30.017  0.00  0.00     0.165 HD
HETATM   30  H   UNK     0      -2.644  -4.460  27.036  0.00  0.00     0.165 HD
HETATM   31  H   UNK     0      -3.847  -2.729  26.184  0.00  0.00     0.165 HD
HETATM   32  H   UNK     0      -3.841  -1.091  29.059  0.00  0.00     0.165 HD
ENDROOT
BRANCH   6  33
HETATM   33  C   UNK     0       1.615  -4.683  28.818  0.00  0.00     0.051 C 
BRANCH  33  34
HETATM   34  C   UNK     0       2.285  -5.162  30.084  0.00  0.00     0.114 C 
BRANCH  34  35
HETATM   35  C   UNK     0       3.750  -5.229  29.816  0.00  0.00     0.139 C 
HETATM   36  O   UNK     0       4.425  -4.165  29.696  0.00  0.00    -0.650 OA
BRANCH  35  37
HETATM   37  O   UNK     0       4.435  -6.431  29.690  0.00  0.00    -0.776 OA
HETATM   38  H   UNK     0       5.210  -6.541  29.055  0.00  0.00     0.167 HD
ENDBRANCH  35  37
ENDBRANCH  34  35
ENDBRANCH  33  34
ENDBRANCH   6  33
BRANCH  27  39
HETATM   39  C   UNK     0      -2.981   1.896  25.463  0.00  0.00     0.051 C 
BRANCH  39  40
HETATM   40  C   UNK     0      -3.629   3.195  25.641  0.00  0.00     0.114 C 
BRANCH  40  41
HETATM   41  C   UNK     0      -5.022   3.412  25.320  0.00  0.00     0.139 C 
HETATM   42  O   UNK     0      -5.763   4.164  25.967  0.00  0.00    -0.650 OA
BRANCH  41  43
HETATM   43  O   UNK     0      -5.588   2.732  24.204  0.00  0.00    -0.776 OA
HETATM   44  H   UNK     0      -5.364   3.143  23.306  0.00  0.00     0.167 HD
ENDBRANCH  41  43
ENDBRANCH  40  41
ENDBRANCH  39  40
ENDBRANCH  27  39
BRANCH  11  45
HETATM   45  C   UNK     0      -5.999  -7.355  28.728  0.00  0.00     0.051 C 
BRANCH  45  46
HETATM   46  C   UNK     0      -5.899  -8.774  28.303  0.00  0.00     0.114 C 
BRANCH  46  47
HETATM   47  C   UNK     0      -6.992  -9.019  27.319  0.00  0.00     0.139 C 
HETATM   48  O   UNK     0      -7.530  -8.043  26.777  0.00  0.00    -0.650 OA
BRANCH  47  49
HETATM   49  O   UNK     0      -7.397 -10.295  27.021  0.00  0.00    -0.776 OA
HETATM   50  H   UNK     0      -6.769 -10.976  26.578  0.00  0.00     0.167 HD
ENDBRANCH  47  49
ENDBRANCH  46  47
ENDBRANCH  45  46
ENDBRANCH  11  45
BRANCH  18  51
HETATM   51  C   UNK     0      -8.179  -0.974  26.914  0.00  0.00     0.051 C 
BRANCH  51  52
HETATM   52  C   UNK     0      -8.738  -0.712  25.524  0.00  0.00     0.114 C 
BRANCH  52  53
HETATM   53  C   UNK     0      -8.056   0.416  24.860  0.00  0.00     0.139 C 
HETATM   54  O   UNK     0      -8.149   1.562  25.330  0.00  0.00    -0.650 OA
BRANCH  53  55
HETATM   55  O   UNK     0      -7.322   0.191  23.721  0.00  0.00    -0.776 OA
HETATM   56  H   UNK     0      -7.242  -0.673  23.239  0.00  0.00     0.167 HD
ENDBRANCH  53  55
ENDBRANCH  52  53
ENDBRANCH  51  52
ENDBRANCH  18  51
TORSDOF 16
ENDMDL
MODEL 5
REMARK VINA RESULT:      -9.3      1.946      2.347
REMARK  16 active torsions:
REMARK  status: ('A' for Active; 'I' for Inactive)
REMARK    1  A    between atoms: C_6  and  C_7 
REMARK    2  A    between atoms: C_7  and  C_8 
REMARK    3  A    between atoms: C_8  and  C_9 
REMARK    4  A    between atoms: C_9  and  O_11 
REMARK    5  A    between atoms: C_16  and  C_17 
REMARK    6  A    between atoms: C_17  and  C_18 
REMARK    7  A    between atoms: C_18  and  C_19 
REMARK    8  A    between atoms: C_19  and  O_21 
REMARK    9  A    between atoms: C_28  and  C_29 
REMARK   10  A    between atoms: C_29  and  C_30 
REMARK   11  A    between atoms: C_30  and  C_31 
REMARK   12  A    between atoms: C_31  and  O_33 
REMARK   13  A    between atoms: C_42  and  C_43 
REMARK   14  A    between atoms: C_43  and  C_44 
REMARK   15  A    between atoms: C_44  and  C_45 
REMARK   16  A    between atoms: C_45  and  O_47 
ROOT
HETATM    1  C   UNK     0      -3.591  -7.778  29.043  0.00  0.00     0.051 C 
HETATM    2  C   UNK     0      -2.555  -6.698  28.805  0.00  0.00    -0.031 A 
HETATM    3  C   UNK     0      -2.463  -5.780  27.770  0.00  0.00     0.021 A 
HETATM    4  N   UNK     0      -1.354  -5.024  27.949  0.00  0.00    -0.361 N 
HETATM    5  C   UNK     0      -0.742  -5.434  29.079  0.00  0.00     0.022 A 
HETATM    6  C   UNK     0      -1.465  -6.482  29.638  0.00  0.00    -0.027 A 
HETATM    7  C   UNK     0       0.462  -4.871  29.768  0.00  0.00     0.115 C 
HETATM    8  C   UNK     0       0.549  -3.357  29.858  0.00  0.00     0.021 A 
HETATM    9  N   UNK     0      -0.444  -2.471  30.025  0.00  0.00    -0.361 N 
HETATM   10  C   UNK     0       0.084  -1.231  29.953  0.00  0.00     0.022 A 
HETATM   11  C   UNK     0       1.457  -1.321  29.743  0.00  0.00    -0.027 A 
HETATM   12  C   UNK     0       1.757  -2.658  29.682  0.00  0.00    -0.031 A 
HETATM   13  C   UNK     0       3.138  -3.235  29.471  0.00  0.00     0.051 C 
HETATM   14  C   UNK     0      -0.688   0.084  30.026  0.00  0.00     0.115 C 
HETATM   15  C   UNK     0      -1.717   0.256  28.920  0.00  0.00     0.021 A 
HETATM   16  N   UNK     0      -2.760  -0.546  28.637  0.00  0.00    -0.361 N 
HETATM   17  C   UNK     0      -3.382  -0.089  27.548  0.00  0.00     0.022 A 
HETATM   18  C   UNK     0      -2.718   1.072  27.106  0.00  0.00    -0.027 A 
HETATM   19  C   UNK     0      -1.677   1.278  27.974  0.00  0.00    -0.031 A 
HETATM   20  C   UNK     0      -0.721   2.452  27.882  0.00  0.00     0.051 C 
HETATM   21  C   UNK     0      -4.555  -0.663  26.786  0.00  0.00     0.115 C 
HETATM   22  C   UNK     0      -4.679  -2.167  26.725  0.00  0.00     0.022 A 
HETATM   23  N   UNK     0      -3.707  -3.074  26.563  0.00  0.00    -0.361 N 
HETATM   24  C   UNK     0      -4.243  -4.302  26.716  0.00  0.00     0.021 A 
HETATM   25  C   UNK     0      -5.596  -4.183  26.973  0.00  0.00    -0.031 A 
HETATM   26  C   UNK     0      -6.627  -5.273  27.175  0.00  0.00     0.051 C 
HETATM   27  C   UNK     0      -5.898  -2.826  26.983  0.00  0.00    -0.027 A 
HETATM   28  C   UNK     0      -3.522  -5.638  26.713  0.00  0.00     0.115 C 
HETATM   29  H   UNK     0      -0.990  -4.233  27.253  0.00  0.00     0.165 HD
HETATM   30  H   UNK     0      -1.512  -2.717  30.244  0.00  0.00     0.165 HD
HETATM   31  H   UNK     0      -3.095  -1.427  29.246  0.00  0.00     0.165 HD
HETATM   32  H   UNK     0      -2.640  -2.858  26.297  0.00  0.00     0.165 HD
ENDROOT
BRANCH   6  33
HETATM   33  C   UNK     0      -1.202  -7.284  30.887  0.00  0.00     0.051 C 
BRANCH  33  34
HETATM   34  C   UNK     0       0.067  -8.092  30.747  0.00  0.00     0.114 C 
BRANCH  34  35
HETATM   35  C   UNK     0      -0.287  -9.522  30.976  0.00  0.00     0.139 C 
HETATM   36  O   UNK     0      -1.458  -9.840  31.334  0.00  0.00    -0.650 OA
BRANCH  35  37
HETATM   37  O   UNK     0       0.627 -10.556  30.809  0.00  0.00    -0.776 OA
HETATM   38  H   UNK     0       0.337 -11.497  30.600  0.00  0.00     0.167 HD
ENDBRANCH  35  37
ENDBRANCH  34  35
ENDBRANCH  33  34
ENDBRANCH   6  33
BRANCH  27  39
HETATM   39  C   UNK     0      -7.281  -2.305  27.158  0.00  0.00     0.051 C 
BRANCH  39  40
HETATM   40  C   UNK     0      -7.585  -1.535  28.363  0.00  0.00     0.114 C 
BRANCH  40  41
HETATM   41  C   UNK     0      -8.899  -1.535  28.968  0.00  0.00     0.139 C 
HETATM   42  O   UNK     0      -9.929  -1.861  28.363  0.00  0.00    -0.650 OA
BRANCH  41  43
HETATM   43  O   UNK     0      -9.033  -1.143  30.329  0.00  0.00    -0.776 OA
HETATM   44  H   UNK     0      -9.586  -0.306  30.472  0.00  0.00     0.167 HD
ENDBRANCH  41  43
ENDBRANCH  40  41
ENDBRANCH  39  40
ENDBRANCH  27  39
BRANCH  11  45
HETATM   45  C   UNK     0       2.464  -0.211  29.605  0.00  0.00     0.051 C 
BRANCH  45  46
HETATM   46  C   UNK     0       2.512   0.399  28.252  0.00  0.00     0.114 C 
BRANCH  46  47
HETATM   47  C   UNK     0       3.586   1.433  28.272  0.00  0.00     0.139 C 
HETATM   48  O   UNK     0       4.342   1.483  29.252  0.00  0.00    -0.650 OA
BRANCH  47  49
HETATM   49  O   UNK     0       3.735   2.311  27.228  0.00  0.00    -0.776 OA
HETATM   50  H   UNK     0       2.930   2.698  26.721  0.00  0.00     0.167 HD
ENDBRANCH  47  49
ENDBRANCH  46  47
ENDBRANCH  45  46
ENDBRANCH  11  45
BRANCH  18  51
HETATM   51  C   UNK     0      -3.068   1.950  25.932  0.00  0.00     0.051 C 
BRANCH  51  52
HETATM   52  C   UNK     0      -4.012   3.017  26.465  0.00  0.00     0.114 C 
BRANCH  52  53
HETATM   53  C   UNK     0      -5.042   3.384  25.474  0.00  0.00     0.139 C 
HETATM   54  O   UNK     0      -5.869   4.272  25.737  0.00  0.00    -0.650 OA
BRANCH  53  55
HETATM   55  O   UNK     0      -5.083   2.735  24.264  0.00  0.00    -0.776 OA
HETATM   56  H   UNK     0      -5.179   3.165  23.374  0.00  0.00     0.167 HD
ENDBRANCH  53  55
ENDBRANCH  52  53
ENDBRANCH  51  52
ENDBRANCH  18  51
TORSDOF 16
ENDMDL
MODEL 6
REMARK VINA RESULT:      -9.3      2.796      8.250
REMARK  16 active torsions:
REMARK  status: ('A' for Active; 'I' for Inactive)
REMARK    1  A    between atoms: C_6  and  C_7 
REMARK    2  A    between atoms: C_7  and  C_8 
REMARK    3  A    between atoms: C_8  and  C_9 
REMARK    4  A    between atoms: C_9  and  O_11 
REMARK    5  A    between atoms: C_16  and  C_17 
REMARK    6  A    between atoms: C_17  and  C_18 
REMARK    7  A    between atoms: C_18  and  C_19 
REMARK    8  A    between atoms: C_19  and  O_21 
REMARK    9  A    between atoms: C_28  and  C_29 
REMARK   10  A    between atoms: C_29  and  C_30 
REMARK   11  A    between atoms: C_30  and  C_31 
REMARK   12  A    between atoms: C_31  and  O_33 
REMARK   13  A    between atoms: C_42  and  C_43 
REMARK   14  A    between atoms: C_43  and  C_44 
REMARK   15  A    between atoms: C_44  and  C_45 
REMARK   16  A    between atoms: C_45  and  O_47 
ROOT
HETATM    1  C   UNK     0      -6.719  -9.451  27.384  0.00  0.00     0.051 C 
HETATM    2  C   UNK     0      -6.620  -7.952  27.582  0.00  0.00    -0.031 A 
HETATM    3  C   UNK     0      -5.950  -7.236  28.561  0.00  0.00     0.021 A 
HETATM    4  N   UNK     0      -6.163  -5.913  28.365  0.00  0.00    -0.361 N 
HETATM    5  C   UNK     0      -6.948  -5.770  27.277  0.00  0.00     0.022 A 
HETATM    6  C   UNK     0      -7.255  -7.026  26.764  0.00  0.00    -0.027 A 
HETATM    7  C   UNK     0      -7.397  -4.521  26.585  0.00  0.00     0.115 C 
HETATM    8  C   UNK     0      -6.357  -3.429  26.406  0.00  0.00     0.021 A 
HETATM    9  N   UNK     0      -5.044  -3.558  26.161  0.00  0.00    -0.361 N 
HETATM   10  C   UNK     0      -4.494  -2.325  26.171  0.00  0.00     0.022 A 
HETATM   11  C   UNK     0      -5.481  -1.376  26.419  0.00  0.00    -0.027 A 
HETATM   12  C   UNK     0      -6.658  -2.065  26.568  0.00  0.00    -0.031 A 
HETATM   13  C   UNK     0      -8.006  -1.441  26.849  0.00  0.00     0.051 C 
HETATM   14  C   UNK     0      -3.013  -1.998  26.000  0.00  0.00     0.115 C 
HETATM   15  C   UNK     0      -2.120  -2.609  27.068  0.00  0.00     0.021 A 
HETATM   16  N   UNK     0      -1.978  -3.912  27.373  0.00  0.00    -0.361 N 
HETATM   17  C   UNK     0      -1.155  -4.031  28.417  0.00  0.00     0.022 A 
HETATM   18  C   UNK     0      -0.732  -2.744  28.804  0.00  0.00    -0.027 A 
HETATM   19  C   UNK     0      -1.343  -1.862  27.951  0.00  0.00    -0.031 A 
HETATM   20  C   UNK     0      -1.130  -0.360  27.996  0.00  0.00     0.051 C 
HETATM   21  C   UNK     0      -0.729  -5.262  29.184  0.00  0.00     0.115 C 
HETATM   22  C   UNK     0      -1.740  -6.376  29.332  0.00  0.00     0.022 A 
HETATM   23  N   UNK     0      -3.054  -6.277  29.572  0.00  0.00    -0.361 N 
HETATM   24  C   UNK     0      -3.594  -7.509  29.480  0.00  0.00     0.021 A 
HETATM   25  C   UNK     0      -2.603  -8.424  29.184  0.00  0.00    -0.031 A 
HETATM   26  C   UNK     0      -2.709  -9.926  29.023  0.00  0.00     0.051 C 
HETATM   27  C   UNK     0      -1.407  -7.723  29.085  0.00  0.00    -0.027 A 
HETATM   28  C   UNK     0      -5.061  -7.890  29.582  0.00  0.00     0.115 C 
HETATM   29  H   UNK     0      -5.791  -5.092  29.020  0.00  0.00     0.165 HD
HETATM   30  H   UNK     0      -4.511  -4.512  25.931  0.00  0.00     0.165 HD
HETATM   31  H   UNK     0      -2.431  -4.770  26.811  0.00  0.00     0.165 HD
HETATM   32  H   UNK     0      -3.606  -5.342  29.851  0.00  0.00     0.165 HD
ENDROOT
BRANCH   6  33
HETATM   33  C   UNK     0      -8.096  -7.408  25.573  0.00  0.00     0.051 C 
BRANCH  33  34
HETATM   34  C   UNK     0      -9.553  -7.512  25.958  0.00  0.00     0.114 C 
BRANCH  34  35
HETATM   35  C   UNK     0     -10.295  -6.482  25.176  0.00  0.00     0.139 C 
HETATM   36  O   UNK     0     -10.471  -6.631  23.931  0.00  0.00    -0.650 OA
BRANCH  35  37
HETATM   37  O   UNK     0     -10.822  -5.335  25.757  0.00  0.00    -0.776 OA
HETATM   38  H   UNK     0     -10.252  -4.532  25.968  0.00  0.00     0.167 HD
ENDBRANCH  35  37
ENDBRANCH  34  35
ENDBRANCH  33  34
ENDBRANCH   6  33
BRANCH  27  39
HETATM   39  C   UNK     0      -0.096  -8.385  28.845  0.00  0.00     0.051 C 
BRANCH  39  40
HETATM   40  C   UNK     0       0.774  -8.638  29.993  0.00  0.00     0.114 C 
BRANCH  40  41
HETATM   41  C   UNK     0       1.610  -7.608  30.568  0.00  0.00     0.139 C 
HETATM   42  O   UNK     0       1.226  -6.834  31.456  0.00  0.00    -0.650 OA
BRANCH  41  43
HETATM   43  O   UNK     0       2.947  -7.462  30.102  0.00  0.00    -0.776 OA
HETATM   44  H   UNK     0       3.628  -8.024  30.598  0.00  0.00     0.167 HD
ENDBRANCH  41  43
ENDBRANCH  40  41
ENDBRANCH  39  40
ENDBRANCH  27  39
BRANCH  11  45
HETATM   45  C   UNK     0      -5.347   0.120  26.515  0.00  0.00     0.051 C 
BRANCH  45  46
HETATM   46  C   UNK     0      -5.357   0.814  25.201  0.00  0.00     0.114 C 
BRANCH  46  47
HETATM   47  C   UNK     0      -4.060   1.538  25.074  0.00  0.00     0.139 C 
HETATM   48  O   UNK     0      -3.331   1.626  26.072  0.00  0.00    -0.650 OA
BRANCH  47  49
HETATM   49  O   UNK     0      -3.681   2.096  23.880  0.00  0.00    -0.776 OA
HETATM   50  H   UNK     0      -3.193   1.555  23.156  0.00  0.00     0.167 HD
ENDBRANCH  47  49
ENDBRANCH  46  47
ENDBRANCH  45  46
ENDBRANCH  11  45
BRANCH  18  51
HETATM   51  C   UNK     0       0.219  -2.376  29.914  0.00  0.00     0.051 C 
BRANCH  51  52
HETATM   52  C   UNK     0       1.621  -2.547  29.348  0.00  0.00     0.114 C 
BRANCH  52  53
HETATM   53  C   UNK     0       2.281  -3.758  29.872  0.00  0.00     0.139 C 
HETATM   54  O   UNK     0       2.788  -4.577  29.090  0.00  0.00    -0.650 OA
BRANCH  53  55
HETATM   55  O   UNK     0       2.327  -3.974  31.228  0.00  0.00    -0.776 OA
HETATM   56  H   UNK     0       2.860  -4.673  31.690  0.00  0.00     0.167 HD
ENDBRANCH  53  55
ENDBRANCH  52  53
ENDBRANCH  51  52
ENDBRANCH  18  51
TORSDOF 16
ENDMDL
MODEL 7
REMARK VINA RESULT:      -9.3      2.138      7.151
REMARK  16 active torsions:
REMARK  status: ('A' for Active; 'I' for Inactive)
REMARK    1  A    between atoms: C_6  and  C_7 
REMARK    2  A    between atoms: C_7  and  C_8 
REMARK    3  A    between atoms: C_8  and  C_9 
REMARK    4  A    between atoms: C_9  and  O_11 
REMARK    5  A    between atoms: C_16  and  C_17 
REMARK    6  A    between atoms: C_17  and  C_18 
REMARK    7  A    between atoms: C_18  and  C_19 
REMARK    8  A    between atoms: C_19  and  O_21 
REMARK    9  A    between atoms: C_28  and  C_29 
REMARK   10  A    between atoms: C_29  and  C_30 
REMARK   11  A    between atoms: C_30  and  C_31 
REMARK   12  A    between atoms: C_31  and  O_33 
REMARK   13  A    between atoms: C_42  and  C_43 
REMARK   14  A    between atoms: C_43  and  C_44 
REMARK   15  A    between atoms: C_44  and  C_45 
REMARK   16  A    between atoms: C_45  and  O_47 
ROOT
HETATM    1  C   UNK     0       0.100   1.261  27.542  0.00  0.00     0.051 C 
HETATM    2  C   UNK     0      -0.194   0.033  28.379  0.00  0.00    -0.031 A 
HETATM    3  C   UNK     0      -1.412  -0.458  28.824  0.00  0.00     0.021 A 
HETATM    4  N   UNK     0      -1.195  -1.567  29.570  0.00  0.00    -0.361 N 
HETATM    5  C   UNK     0       0.134  -1.798  29.604  0.00  0.00     0.022 A 
HETATM    6  C   UNK     0       0.790  -0.815  28.871  0.00  0.00    -0.027 A 
HETATM    7  C   UNK     0       0.885  -2.942  30.210  0.00  0.00     0.115 C 
HETATM    8  C   UNK     0       0.299  -4.328  30.006  0.00  0.00     0.021 A 
HETATM    9  N   UNK     0      -0.347  -4.813  28.935  0.00  0.00    -0.361 N 
HETATM   10  C   UNK     0      -0.773  -6.059  29.231  0.00  0.00     0.022 A 
HETATM   11  C   UNK     0      -0.381  -6.390  30.525  0.00  0.00    -0.027 A 
HETATM   12  C   UNK     0       0.294  -5.303  31.019  0.00  0.00    -0.031 A 
HETATM   13  C   UNK     0       0.910  -5.210  32.397  0.00  0.00     0.051 C 
HETATM   14  C   UNK     0      -1.607  -6.965  28.329  0.00  0.00     0.115 C 
HETATM   15  C   UNK     0      -2.965  -6.387  27.963  0.00  0.00     0.021 A 
HETATM   16  N   UNK     0      -3.220  -5.226  27.332  0.00  0.00    -0.361 N 
HETATM   17  C   UNK     0      -4.541  -5.046  27.262  0.00  0.00     0.022 A 
HETATM   18  C   UNK     0      -5.177  -6.148  27.869  0.00  0.00    -0.027 A 
HETATM   19  C   UNK     0      -4.179  -6.981  28.303  0.00  0.00    -0.031 A 
HETATM   20  C   UNK     0      -4.429  -8.313  28.986  0.00  0.00     0.051 C 
HETATM   21  C   UNK     0      -5.336  -3.880  26.720  0.00  0.00     0.115 C 
HETATM   22  C   UNK     0      -4.743  -2.499  26.877  0.00  0.00     0.022 A 
HETATM   23  N   UNK     0      -4.091  -1.990  27.930  0.00  0.00    -0.361 N 
HETATM   24  C   UNK     0      -3.610  -0.779  27.586  0.00  0.00     0.021 A 
HETATM   25  C   UNK     0      -3.969  -0.497  26.282  0.00  0.00    -0.031 A 
HETATM   26  C   UNK     0      -3.698   0.751  25.467  0.00  0.00     0.051 C 
HETATM   27  C   UNK     0      -4.696  -1.582  25.807  0.00  0.00    -0.027 A 
HETATM   28  C   UNK     0      -2.728   0.140  28.413  0.00  0.00     0.115 C 
HETATM   29  H   UNK     0      -1.979  -2.155  30.101  0.00  0.00     0.165 HD
HETATM   30  H   UNK     0      -0.462  -4.297  27.950  0.00  0.00     0.165 HD
HETATM   31  H   UNK     0      -2.454  -4.541  26.883  0.00  0.00     0.165 HD
HETATM   32  H   UNK     0      -4.002  -2.464  28.942  0.00  0.00     0.165 HD
ENDROOT
BRANCH   6  33
HETATM   33  C   UNK     0       2.262  -0.620  28.609  0.00  0.00     0.051 C 
BRANCH  33  34
HETATM   34  C   UNK     0       2.702  -1.426  27.409  0.00  0.00     0.114 C 
BRANCH  34  35
HETATM   35  C   UNK     0       4.183  -1.293  27.302  0.00  0.00     0.139 C 
HETATM   36  O   UNK     0       4.918  -1.516  28.308  0.00  0.00    -0.650 OA
BRANCH  35  37
HETATM   37  O   UNK     0       4.819  -0.929  26.121  0.00  0.00    -0.776 OA
HETATM   38  H   UNK     0       5.774  -0.609  26.105  0.00  0.00     0.167 HD
ENDBRANCH  35  37
ENDBRANCH  34  35
ENDBRANCH  33  34
ENDBRANCH   6  33
BRANCH  27  39
HETATM   39  C   UNK     0      -5.316  -1.614  24.454  0.00  0.00     0.051 C 
BRANCH  39  40
HETATM   40  C   UNK     0      -6.718  -1.218  24.324  0.00  0.00     0.114 C 
BRANCH  40  41
HETATM   41  C   UNK     0      -7.585  -1.065  25.471  0.00  0.00     0.139 C 
HETATM   42  O   UNK     0      -8.246  -1.993  25.957  0.00  0.00    -0.650 OA
BRANCH  41  43
HETATM   43  O   UNK     0      -7.697   0.214  26.087  0.00  0.00    -0.776 OA
HETATM   44  H   UNK     0      -7.744   0.989  25.438  0.00  0.00     0.167 HD
ENDBRANCH  41  43
ENDBRANCH  40  41
ENDBRANCH  39  40
ENDBRANCH  27  39
BRANCH  11  45
HETATM   45  C   UNK     0      -0.620  -7.668  31.283  0.00  0.00     0.051 C 
BRANCH  45  46
HETATM   46  C   UNK     0      -2.050  -7.940  31.578  0.00  0.00     0.114 C 
BRANCH  46  47
HETATM   47  C   UNK     0      -2.309  -7.478  32.972  0.00  0.00     0.139 C 
HETATM   48  O   UNK     0      -2.429  -6.263  33.180  0.00  0.00    -0.650 OA
BRANCH  47  49
HETATM   49  O   UNK     0      -2.412  -8.378  34.002  0.00  0.00    -0.776 OA
HETATM   50  H   UNK     0      -1.900  -9.268  34.002  0.00  0.00     0.167 HD
ENDBRANCH  47  49
ENDBRANCH  46  47
ENDBRANCH  45  46
ENDBRANCH  11  45
BRANCH  18  51
HETATM   51  C   UNK     0      -6.656  -6.402  28.008  0.00  0.00     0.051 C 
BRANCH  51  52
HETATM   52  C   UNK     0      -7.145  -6.833  26.634  0.00  0.00     0.114 C 
BRANCH  52  53
HETATM   53  C   UNK     0      -8.490  -6.301  26.338  0.00  0.00     0.139 C 
HETATM   54  O   UNK     0      -9.469  -7.064  26.318  0.00  0.00    -0.650 OA
BRANCH  53  55
HETATM   55  O   UNK     0      -8.650  -4.961  26.083  0.00  0.00    -0.776 OA
HETATM   56  H   UNK     0      -9.006  -4.284  26.716  0.00  0.00     0.167 HD
ENDBRANCH  53  55
ENDBRANCH  52  53
ENDBRANCH  51  52
ENDBRANCH  18  51
TORSDOF 16
ENDMDL
MODEL 8
REMARK VINA RESULT:      -9.3      3.540      8.426
REMARK  16 active torsions:
REMARK  status: ('A' for Active; 'I' for Inactive)
REMARK    1  A    between atoms: C_6  and  C_7 
REMARK    2  A    between atoms: C_7  and  C_8 
REMARK    3  A    between atoms: C_8  and  C_9 
REMARK    4  A    between atoms: C_9  and  O_11 
REMARK    5  A    between atoms: C_16  and  C_17 
REMARK    6  A    between atoms: C_17  and  C_18 
REMARK    7  A    between atoms: C_18  and  C_19 
REMARK    8  A    between atoms: C_19  and  O_21 
REMARK    9  A    between atoms: C_28  and  C_29 
REMARK   10  A    between atoms: C_29  and  C_30 
REMARK   11  A    between atoms: C_30  and  C_31 
REMARK   12  A    between atoms: C_31  and  O_33 
REMARK   13  A    between atoms: C_42  and  C_43 
REMARK   14  A    between atoms: C_43  and  C_44 
REMARK   15  A    between atoms: C_44  and  C_45 
REMARK   16  A    between atoms: C_45  and  O_47 
ROOT
HETATM    1  C   UNK     0      -6.611  -9.856  27.431  0.00  0.00     0.051 C 
HETATM    2  C   UNK     0      -6.802  -8.358  27.549  0.00  0.00    -0.031 A 
HETATM    3  C   UNK     0      -6.237  -7.467  28.449  0.00  0.00     0.021 A 
HETATM    4  N   UNK     0      -6.718  -6.226  28.201  0.00  0.00    -0.361 N 
HETATM    5  C   UNK     0      -7.570  -6.304  27.158  0.00  0.00     0.022 A 
HETATM    6  C   UNK     0      -7.648  -7.624  26.727  0.00  0.00    -0.027 A 
HETATM    7  C   UNK     0      -8.293  -5.211  26.435  0.00  0.00     0.115 C 
HETATM    8  C   UNK     0      -7.500  -3.950  26.139  0.00  0.00     0.021 A 
HETATM    9  N   UNK     0      -6.202  -3.834  25.820  0.00  0.00    -0.361 N 
HETATM   10  C   UNK     0      -5.906  -2.519  25.735  0.00  0.00     0.022 A 
HETATM   11  C   UNK     0      -7.048  -1.768  25.997  0.00  0.00    -0.027 A 
HETATM   12  C   UNK     0      -8.056  -2.663  26.252  0.00  0.00    -0.031 A 
HETATM   13  C   UNK     0      -9.485  -2.298  26.584  0.00  0.00     0.051 C 
HETATM   14  C   UNK     0      -4.530  -1.921  25.457  0.00  0.00     0.115 C 
HETATM   15  C   UNK     0      -3.481  -2.280  26.496  0.00  0.00     0.021 A 
HETATM   16  N   UNK     0      -3.069  -3.510  26.856  0.00  0.00    -0.361 N 
HETATM   17  C   UNK     0      -2.186  -3.403  27.851  0.00  0.00     0.022 A 
HETATM   18  C   UNK     0      -2.007  -2.038  28.148  0.00  0.00    -0.027 A 
HETATM   19  C   UNK     0      -2.823  -1.345  27.292  0.00  0.00    -0.031 A 
HETATM   20  C   UNK     0      -2.910   0.170  27.250  0.00  0.00     0.051 C 
HETATM   21  C   UNK     0      -1.486  -4.480  28.650  0.00  0.00     0.115 C 
HETATM   22  C   UNK     0      -2.248  -5.758  28.914  0.00  0.00     0.022 A 
HETATM   23  N   UNK     0      -3.541  -5.903  29.230  0.00  0.00    -0.361 N 
HETATM   24  C   UNK     0      -3.831  -7.220  29.232  0.00  0.00     0.021 A 
HETATM   25  C   UNK     0      -2.694  -7.940  28.921  0.00  0.00    -0.031 A 
HETATM   26  C   UNK     0      -2.509  -9.442  28.840  0.00  0.00     0.051 C 
HETATM   27  C   UNK     0      -1.667  -7.027  28.713  0.00  0.00    -0.027 A 
HETATM   28  C   UNK     0      -5.186  -7.873  29.443  0.00  0.00     0.115 C 
HETATM   29  H   UNK     0      -6.483  -5.309  28.791  0.00  0.00     0.165 HD
HETATM   30  H   UNK     0      -5.502  -4.679  25.604  0.00  0.00     0.165 HD
HETATM   31  H   UNK     0      -3.370  -4.472  26.365  0.00  0.00     0.165 HD
HETATM   32  H   UNK     0      -4.252  -5.079  29.497  0.00  0.00     0.165 HD
ENDROOT
BRANCH   6  33
HETATM   33  C   UNK     0      -8.457  -8.234  25.610  0.00  0.00     0.051 C 
BRANCH  33  34
HETATM   34  C   UNK     0      -9.879  -8.483  26.054  0.00  0.00     0.114 C 
BRANCH  34  35
HETATM   35  C   UNK     0     -10.274  -9.830  25.552  0.00  0.00     0.139 C 
HETATM   36  O   UNK     0      -9.421 -10.575  24.987  0.00  0.00    -0.650 OA
BRANCH  35  37
HETATM   37  O   UNK     0     -11.565 -10.328  25.679  0.00  0.00    -0.776 OA
HETATM   38  H   UNK     0     -11.850 -11.192  25.245  0.00  0.00     0.167 HD
ENDBRANCH  35  37
ENDBRANCH  34  35
ENDBRANCH  33  34
ENDBRANCH   6  33
BRANCH  27  39
HETATM   39  C   UNK     0      -0.265  -7.434  28.425  0.00  0.00     0.051 C 
BRANCH  39  40
HETATM   40  C   UNK     0       0.797  -6.931  29.297  0.00  0.00     0.114 C 
BRANCH  40  41
HETATM   41  C   UNK     0       1.740  -7.811  29.948  0.00  0.00     0.139 C 
HETATM   42  O   UNK     0       1.459  -8.958  30.324  0.00  0.00    -0.650 OA
BRANCH  41  43
HETATM   43  O   UNK     0       3.068  -7.352  30.179  0.00  0.00    -0.776 OA
HETATM   44  H   UNK     0       3.649  -7.318  29.350  0.00  0.00     0.167 HD
ENDBRANCH  41  43
ENDBRANCH  40  41
ENDBRANCH  39  40
ENDBRANCH  27  39
BRANCH  11  45
HETATM   45  C   UNK     0      -7.208  -0.272  26.011  0.00  0.00     0.051 C 
BRANCH  45  46
HETATM   46  C   UNK     0      -6.932   0.379  24.704  0.00  0.00     0.114 C 
BRANCH  46  47
HETATM   47  C   UNK     0      -7.887  -0.196  23.714  0.00  0.00     0.139 C 
HETATM   48  O   UNK     0      -9.095   0.047  23.846  0.00  0.00    -0.650 OA
BRANCH  47  49
HETATM   49  O   UNK     0      -7.440  -0.977  22.679  0.00  0.00    -0.776 OA
HETATM   50  H   UNK     0      -6.440  -1.085  22.469  0.00  0.00     0.167 HD
ENDBRANCH  47  49
ENDBRANCH  46  47
ENDBRANCH  45  46
ENDBRANCH  11  45
BRANCH  18  51
HETATM   51  C   UNK     0      -1.093  -1.426  29.178  0.00  0.00     0.051 C 
BRANCH  51  52
HETATM   52  C   UNK     0       0.224  -1.149  28.467  0.00  0.00     0.114 C 
BRANCH  52  53
HETATM   53  C   UNK     0       0.550   0.290  28.454  0.00  0.00     0.139 C 
HETATM   54  O   UNK     0       0.357   0.980  29.468  0.00  0.00    -0.650 OA
BRANCH  53  55
HETATM   55  O   UNK     0       1.062   0.861  27.315  0.00  0.00    -0.776 OA
HETATM   56  H   UNK     0       1.987   0.749  26.971  0.00  0.00     0.167 HD
ENDBRANCH  53  55
ENDBRANCH  52  53
ENDBRANCH  51  52
ENDBRANCH  18  51
TORSDOF 16
ENDMDL
MODEL 9
REMARK VINA RESULT:      -9.2      3.233      9.333
REMARK  16 active torsions:
REMARK  status: ('A' for Active; 'I' for Inactive)
REMARK    1  A    between atoms: C_6  and  C_7 
REMARK    2  A    between atoms: C_7  and  C_8 
REMARK    3  A    between atoms: C_8  and  C_9 
REMARK    4  A    between atoms: C_9  and  O_11 
REMARK    5  A    between atoms: C_16  and  C_17 
REMARK    6  A    between atoms: C_17  and  C_18 
REMARK    7  A    between atoms: C_18  and  C_19 
REMARK    8  A    between atoms: C_19  and  O_21 
REMARK    9  A    between atoms: C_28  and  C_29 
REMARK   10  A    between atoms: C_29  and  C_30 
REMARK   11  A    between atoms: C_30  and  C_31 
REMARK   12  A    between atoms: C_31  and  O_33 
REMARK   13  A    between atoms: C_42  and  C_43 
REMARK   14  A    between atoms: C_43  and  C_44 
REMARK   15  A    between atoms: C_44  and  C_45 
REMARK   16  A    between atoms: C_45  and  O_47 
ROOT
HETATM    1  C   UNK     0      -6.936  -0.474  25.785  0.00  0.00     0.051 C 
HETATM    2  C   UNK     0      -6.706  -1.971  25.808  0.00  0.00    -0.031 A 
HETATM    3  C   UNK     0      -5.530  -2.683  25.631  0.00  0.00     0.021 A 
HETATM    4  N   UNK     0      -5.801  -4.008  25.703  0.00  0.00    -0.361 N 
HETATM    5  C   UNK     0      -7.122  -4.156  25.931  0.00  0.00     0.022 A 
HETATM    6  C   UNK     0      -7.719  -2.901  26.000  0.00  0.00    -0.027 A 
HETATM    7  C   UNK     0      -7.911  -5.402  26.183  0.00  0.00     0.115 C 
HETATM    8  C   UNK     0      -7.285  -6.430  27.110  0.00  0.00     0.021 A 
HETATM    9  N   UNK     0      -6.528  -6.222  28.199  0.00  0.00    -0.361 N 
HETATM   10  C   UNK     0      -6.114  -7.423  28.656  0.00  0.00     0.022 A 
HETATM   11  C   UNK     0      -6.625  -8.432  27.845  0.00  0.00    -0.027 A 
HETATM   12  C   UNK     0      -7.364  -7.813  26.869  0.00  0.00    -0.031 A 
HETATM   13  C   UNK     0      -8.114  -8.518  25.761  0.00  0.00     0.051 C 
HETATM   14  C   UNK     0      -5.180  -7.663  29.839  0.00  0.00     0.115 C 
HETATM   15  C   UNK     0      -3.802  -7.042  29.672  0.00  0.00     0.021 A 
HETATM   16  N   UNK     0      -3.505  -5.744  29.473  0.00  0.00    -0.361 N 
HETATM   17  C   UNK     0      -2.187  -5.617  29.306  0.00  0.00     0.022 A 
HETATM   18  C   UNK     0      -1.596  -6.892  29.409  0.00  0.00    -0.027 A 
HETATM   19  C   UNK     0      -2.618  -7.775  29.640  0.00  0.00    -0.031 A 
HETATM   20  C   UNK     0      -2.415  -9.265  29.851  0.00  0.00     0.051 C 
HETATM   21  C   UNK     0      -1.362  -4.391  28.984  0.00  0.00     0.115 C 
HETATM   22  C   UNK     0      -1.990  -3.340  28.099  0.00  0.00     0.022 A 
HETATM   23  N   UNK     0      -2.751  -3.518  27.012  0.00  0.00    -0.361 N 
HETATM   24  C   UNK     0      -3.216  -2.315  26.619  0.00  0.00     0.021 A 
HETATM   25  C   UNK     0      -2.734  -1.338  27.469  0.00  0.00    -0.031 A 
HETATM   26  C   UNK     0      -2.945   0.161  27.414  0.00  0.00     0.051 C 
HETATM   27  C   UNK     0      -1.947  -1.969  28.424  0.00  0.00    -0.027 A 
HETATM   28  C   UNK     0      -4.190  -2.017  25.492  0.00  0.00     0.115 C 
HETATM   29  H   UNK     0      -5.063  -4.830  25.552  0.00  0.00     0.165 HD
HETATM   30  H   UNK     0      -6.326  -5.232  28.676  0.00  0.00     0.165 HD
HETATM   31  H   UNK     0      -4.234  -4.893  29.500  0.00  0.00     0.165 HD
HETATM   32  H   UNK     0      -2.932  -4.491  26.484  0.00  0.00     0.165 HD
ENDROOT
BRANCH   6  33
HETATM   33  C   UNK     0      -9.161  -2.524  26.228  0.00  0.00     0.051 C 
BRANCH  33  34
HETATM   34  C   UNK     0      -9.455  -2.402  27.704  0.00  0.00     0.114 C 
BRANCH  34  35
HETATM   35  C   UNK     0     -10.935  -2.467  27.872  0.00  0.00     0.139 C 
HETATM   36  O   UNK     0     -11.697  -1.926  27.019  0.00  0.00    -0.650 OA
BRANCH  35  37
HETATM   37  O   UNK     0     -11.540  -3.111  28.944  0.00  0.00    -0.776 OA
HETATM   38  H   UNK     0     -11.018  -3.408  29.753  0.00  0.00     0.167 HD
ENDBRANCH  35  37
ENDBRANCH  34  35
ENDBRANCH  33  34
ENDBRANCH   6  33
BRANCH  27  39
HETATM   39  C   UNK     0      -1.196  -1.229  29.474  0.00  0.00     0.051 C 
BRANCH  39  40
HETATM   40  C   UNK     0       0.173  -0.806  29.181  0.00  0.00     0.114 C 
BRANCH  40  41
HETATM   41  C   UNK     0       1.020  -0.189  30.178  0.00  0.00     0.139 C 
HETATM   42  O   UNK     0       2.187   0.163  29.960  0.00  0.00    -0.650 OA
BRANCH  41  43
HETATM   43  O   UNK     0       0.500   0.031  31.485  0.00  0.00    -0.776 OA
HETATM   44  H   UNK     0       0.655  -0.732  32.132  0.00  0.00     0.167 HD
ENDBRANCH  41  43
ENDBRANCH  40  41
ENDBRANCH  39  40
ENDBRANCH  27  39
BRANCH  11  45
HETATM   45  C   UNK     0      -6.442  -9.921  27.965  0.00  0.00     0.051 C 
BRANCH  45  46
HETATM   46  C   UNK     0      -5.076 -10.393  27.623  0.00  0.00     0.114 C 
BRANCH  46  47
HETATM   47  C   UNK     0      -5.219 -11.731  26.982  0.00  0.00     0.139 C 
HETATM   48  O   UNK     0      -4.427 -12.045  26.083  0.00  0.00    -0.650 OA
BRANCH  47  49
HETATM   49  O   UNK     0      -6.207 -12.598  27.377  0.00  0.00    -0.776 OA
HETATM   50  H   UNK     0      -7.162 -12.541  27.005  0.00  0.00     0.167 HD
ENDBRANCH  47  49
ENDBRANCH  46  47
ENDBRANCH  45  46
ENDBRANCH  11  45
BRANCH  18  51
HETATM   51  C   UNK     0      -0.134  -7.246  29.315  0.00  0.00     0.051 C 
BRANCH  51  52
HETATM   52  C   UNK     0       0.397  -7.245  30.740  0.00  0.00     0.114 C 
BRANCH  52  53
HETATM   53  C   UNK     0       1.757  -6.676  30.819  0.00  0.00     0.139 C 
HETATM   54  O   UNK     0       1.920  -5.507  31.204  0.00  0.00    -0.650 OA
BRANCH  53  55
HETATM   55  O   UNK     0       2.837  -7.445  30.462  0.00  0.00    -0.776 OA
HETATM   56  H   UNK     0       3.042  -7.776  29.549  0.00  0.00     0.167 HD
ENDBRANCH  53  55
ENDBRANCH  52  53
ENDBRANCH  51  52
ENDBRANCH  18  51
TORSDOF 16
ENDMDL
MODEL 10
REMARK VINA RESULT:      -9.1      2.824      7.415
REMARK  16 active torsions:
REMARK  status: ('A' for Active; 'I' for Inactive)
REMARK    1  A    between atoms: C_6  and  C_7 
REMARK    2  A    between atoms: C_7  and  C_8 
REMARK    3  A    between atoms: C_8  and  C_9 
REMARK    4  A    between atoms: C_9  and  O_11 
REMARK    5  A    between atoms: C_16  and  C_17 
REMARK    6  A    between atoms: C_17  and  C_18 
REMARK    7  A    between atoms: C_18  and  C_19 
REMARK    8  A    between atoms: C_19  and  O_21 
REMARK    9  A    between atoms: C_28  and  C_29 
REMARK   10  A    between atoms: C_29  and  C_30 
REMARK   11  A    between atoms: C_30  and  C_31 
REMARK   12  A    between atoms: C_31  and  O_33 
REMARK   13  A    between atoms: C_42  and  C_43 
REMARK   14  A    between atoms: C_43  and  C_44 
REMARK   15  A    between atoms: C_44  and  C_45 
REMARK   16  A    between atoms: C_45  and  O_47 
ROOT
HETATM    1  C   UNK     0       1.631  -6.290  30.762  0.00  0.00     0.051 C 
HETATM    2  C   UNK     0       0.151  -6.105  30.500  0.00  0.00    -0.031 A 
HETATM    3  C   UNK     0      -0.637  -4.977  30.662  0.00  0.00     0.021 A 
HETATM    4  N   UNK     0      -1.916  -5.280  30.335  0.00  0.00    -0.361 N 
HETATM    5  C   UNK     0      -1.958  -6.575  29.960  0.00  0.00     0.022 A 
HETATM    6  C   UNK     0      -0.683  -7.123  30.054  0.00  0.00    -0.027 A 
HETATM    7  C   UNK     0      -3.104  -7.372  29.420  0.00  0.00     0.115 C 
HETATM    8  C   UNK     0      -3.988  -6.687  28.392  0.00  0.00     0.021 A 
HETATM    9  N   UNK     0      -3.635  -5.816  27.434  0.00  0.00    -0.361 N 
HETATM   10  C   UNK     0      -4.758  -5.395  26.816  0.00  0.00     0.022 A 
HETATM   11  C   UNK     0      -5.865  -6.017  27.386  0.00  0.00    -0.027 A 
HETATM   12  C   UNK     0      -5.386  -6.833  28.380  0.00  0.00    -0.031 A 
HETATM   13  C   UNK     0      -6.233  -7.714  29.271  0.00  0.00     0.051 C 
HETATM   14  C   UNK     0      -4.838  -4.352  25.704  0.00  0.00     0.115 C 
HETATM   15  C   UNK     0      -4.322  -2.981  26.108  0.00  0.00     0.021 A 
HETATM   16  N   UNK     0      -3.093  -2.665  26.556  0.00  0.00    -0.361 N 
HETATM   17  C   UNK     0      -3.060  -1.368  26.869  0.00  0.00     0.022 A 
HETATM   18  C   UNK     0      -4.326  -0.809  26.602  0.00  0.00    -0.027 A 
HETATM   19  C   UNK     0      -5.107  -1.829  26.124  0.00  0.00    -0.031 A 
HETATM   20  C   UNK     0      -6.546  -1.652  25.677  0.00  0.00     0.051 C 
HETATM   21  C   UNK     0      -1.948  -0.542  27.476  0.00  0.00     0.115 C 
HETATM   22  C   UNK     0      -1.034  -1.224  28.467  0.00  0.00     0.022 A 
HETATM   23  N   UNK     0      -1.358  -2.098  29.429  0.00  0.00    -0.361 N 
HETATM   24  C   UNK     0      -0.218  -2.563  29.979  0.00  0.00     0.021 A 
HETATM   25  C   UNK     0       0.865  -1.967  29.363  0.00  0.00    -0.031 A 
HETATM   26  C   UNK     0       2.341  -2.136  29.658  0.00  0.00     0.051 C 
HETATM   27  C   UNK     0       0.368  -1.106  28.392  0.00  0.00    -0.027 A 
HETATM   28  C   UNK     0      -0.070  -3.638  31.043  0.00  0.00     0.115 C 
HETATM   29  H   UNK     0      -2.786  -4.588  30.410  0.00  0.00     0.165 HD
HETATM   30  H   UNK     0      -2.589  -5.535  27.157  0.00  0.00     0.165 HD
HETATM   31  H   UNK     0      -2.216  -3.361  26.609  0.00  0.00     0.165 HD
HETATM   32  H   UNK     0      -2.396  -2.362  29.759  0.00  0.00     0.165 HD
ENDROOT
BRANCH   6  33
HETATM   33  C   UNK     0      -0.204  -8.521  29.758  0.00  0.00     0.051 C 
BRANCH  33  34
HETATM   34  C   UNK     0      -0.392  -9.417  30.960  0.00  0.00     0.114 C 
BRANCH  34  35
HETATM   35  C   UNK     0      -0.024 -10.801  30.547  0.00  0.00     0.139 C 
HETATM   36  O   UNK     0       0.627 -11.549  31.333  0.00  0.00    -0.650 OA
BRANCH  35  37
HETATM   37  O   UNK     0      -0.371 -11.331  29.310  0.00  0.00    -0.776 OA
HETATM   38  H   UNK     0      -1.149 -10.978  28.776  0.00  0.00     0.167 HD
ENDBRANCH  35  37
ENDBRANCH  34  35
ENDBRANCH  33  34
ENDBRANCH   6  33
BRANCH  27  39
HETATM   39  C   UNK     0       1.239  -0.229  27.563  0.00  0.00     0.051 C 
BRANCH  39  40
HETATM   40  C   UNK     0       1.587   1.094  28.082  0.00  0.00     0.114 C 
BRANCH  40  41
HETATM   41  C   UNK     0       2.954   1.559  28.152  0.00  0.00     0.139 C 
HETATM   42  O   UNK     0       3.294   2.598  28.734  0.00  0.00    -0.650 OA
BRANCH  41  43
HETATM   43  O   UNK     0       3.977   0.795  27.522  0.00  0.00    -0.776 OA
HETATM   44  H   UNK     0       4.391   1.237  26.710  0.00  0.00     0.167 HD
ENDBRANCH  41  43
ENDBRANCH  40  41
ENDBRANCH  39  40
ENDBRANCH  27  39
BRANCH  11  45
HETATM   45  C   UNK     0      -7.318  -5.869  27.026  0.00  0.00     0.051 C 
BRANCH  45  46
HETATM   46  C   UNK     0      -7.814  -6.895  26.072  0.00  0.00     0.114 C 
BRANCH  46  47
HETATM   47  C   UNK     0      -9.263  -7.099  26.358  0.00  0.00     0.139 C 
HETATM   48  O   UNK     0      -9.841  -8.060  25.830  0.00  0.00    -0.650 OA
BRANCH  47  49
HETATM   49  O   UNK     0      -9.944  -6.243  27.186  0.00  0.00    -0.776 OA
HETATM   50  H   UNK     0     -10.933  -6.012  27.037  0.00  0.00     0.167 HD
ENDBRANCH  47  49
ENDBRANCH  46  47
ENDBRANCH  45  46
ENDBRANCH  11  45
BRANCH  18  51
HETATM   51  C   UNK     0      -4.761   0.623  26.772  0.00  0.00     0.051 C 
BRANCH  51  52
HETATM   52  C   UNK     0      -3.904   1.445  25.821  0.00  0.00     0.114 C 
BRANCH  52  53
HETATM   53  C   UNK     0      -3.670   2.810  26.331  0.00  0.00     0.139 C 
HETATM   54  O   UNK     0      -2.897   2.993  27.284  0.00  0.00    -0.650 OA
BRANCH  53  55
HETATM   55  O   UNK     0      -4.316   3.873  25.747  0.00  0.00    -0.776 OA
HETATM   56  H   UNK     0      -3.913   4.527  25.118  0.00  0.00     0.167 HD
ENDBRANCH  53  55
ENDBRANCH  52  53
ENDBRANCH  51  52
ENDBRANCH  18  51
TORSDOF 16
ENDMDL
MODEL 11
REMARK VINA RESULT:      -8.9      4.015     11.270
REMARK  16 active torsions:
REMARK  status: ('A' for Active; 'I' for Inactive)
REMARK    1  A    between atoms: C_6  and  C_7 
REMARK    2  A    between atoms: C_7  and  C_8 
REMARK    3  A    between atoms: C_8  and  C_9 
REMARK    4  A    between atoms: C_9  and  O_11 
REMARK    5  A    between atoms: C_16  and  C_17 
REMARK    6  A    between atoms: C_17  and  C_18 
REMARK    7  A    between atoms: C_18  and  C_19 
REMARK    8  A    between atoms: C_19  and  O_21 
REMARK    9  A    between atoms: C_28  and  C_29 
REMARK   10  A    between atoms: C_29  and  C_30 
REMARK   11  A    between atoms: C_30  and  C_31 
REMARK   12  A    between atoms: C_31  and  O_33 
REMARK   13  A    between atoms: C_42  and  C_43 
REMARK   14  A    between atoms: C_43  and  C_44 
REMARK   15  A    between atoms: C_44  and  C_45 
REMARK   16  A    between atoms: C_45  and  O_47 
ROOT
HETATM    1  C   UNK     0       2.419   1.151  28.475  0.00  0.00     0.051 C 
HETATM    2  C   UNK     0       1.726  -0.189  28.334  0.00  0.00    -0.031 A 
HETATM    3  C   UNK     0       2.097  -1.298  27.589  0.00  0.00     0.021 A 
HETATM    4  N   UNK     0       1.159  -2.263  27.739  0.00  0.00    -0.361 N 
HETATM    5  C   UNK     0       0.203  -1.797  28.569  0.00  0.00     0.022 A 
HETATM    6  C   UNK     0       0.525  -0.502  28.959  0.00  0.00    -0.027 A 
HETATM    7  C   UNK     0      -0.996  -2.498  29.129  0.00  0.00     0.115 C 
HETATM    8  C   UNK     0      -0.791  -3.925  29.604  0.00  0.00     0.021 A 
HETATM    9  N   UNK     0       0.285  -4.462  30.201  0.00  0.00    -0.361 N 
HETATM   10  C   UNK     0       0.059  -5.783  30.362  0.00  0.00     0.022 A 
HETATM   11  C   UNK     0      -1.200  -6.104  29.864  0.00  0.00    -0.027 A 
HETATM   12  C   UNK     0      -1.741  -4.939  29.385  0.00  0.00    -0.031 A 
HETATM   13  C   UNK     0      -3.108  -4.805  28.753  0.00  0.00     0.051 C 
HETATM   14  C   UNK     0       1.039  -6.800  30.941  0.00  0.00     0.115 C 
HETATM   15  C   UNK     0       2.332  -6.927  30.152  0.00  0.00     0.021 A 
HETATM   16  N   UNK     0       3.226  -5.958  29.879  0.00  0.00    -0.361 N 
HETATM   17  C   UNK     0       4.190  -6.457  29.102  0.00  0.00     0.022 A 
HETATM   18  C   UNK     0       3.916  -7.819  28.865  0.00  0.00    -0.027 A 
HETATM   19  C   UNK     0       2.751  -8.101  29.530  0.00  0.00    -0.031 A 
HETATM   20  C   UNK     0       2.114  -9.478  29.567  0.00  0.00     0.051 C 
HETATM   21  C   UNK     0       5.377  -5.771  28.464  0.00  0.00     0.115 C 
HETATM   22  C   UNK     0       5.201  -4.336  28.026  0.00  0.00     0.022 A 
HETATM   23  N   UNK     0       4.139  -3.773  27.433  0.00  0.00    -0.361 N 
HETATM   24  C   UNK     0       4.354  -2.445  27.354  0.00  0.00     0.021 A 
HETATM   25  C   UNK     0       5.588  -2.146  27.899  0.00  0.00    -0.031 A 
HETATM   26  C   UNK     0       6.285  -0.805  28.002  0.00  0.00     0.051 C 
HETATM   27  C   UNK     0       6.149  -3.340  28.336  0.00  0.00    -0.027 A 
HETATM   28  C   UNK     0       3.399  -1.378  26.845  0.00  0.00     0.115 C 
HETATM   29  H   UNK     0       1.159  -3.252  27.225  0.00  0.00     0.165 HD
HETATM   30  H   UNK     0       1.185  -3.901  30.555  0.00  0.00     0.165 HD
HETATM   31  H   UNK     0       3.202  -4.912  30.281  0.00  0.00     0.165 HD
HETATM   32  H   UNK     0       3.246  -4.315  27.026  0.00  0.00     0.165 HD
ENDROOT
BRANCH   6  33
HETATM   33  C   UNK     0      -0.213   0.451  29.865  0.00  0.00     0.051 C 
BRANCH  33  34
HETATM   34  C   UNK     0      -1.223   1.258  29.085  0.00  0.00     0.114 C 
BRANCH  34  35
HETATM   35  C   UNK     0      -1.336   2.590  29.744  0.00  0.00     0.139 C 
HETATM   36  O   UNK     0      -1.241   3.650  29.059  0.00  0.00    -0.650 OA
BRANCH  35  37
HETATM   37  O   UNK     0      -1.548   2.735  31.110  0.00  0.00    -0.776 OA
HETATM   38  H   UNK     0      -0.787   2.848  31.760  0.00  0.00     0.167 HD
ENDBRANCH  35  37
ENDBRANCH  34  35
ENDBRANCH  33  34
ENDBRANCH   6  33
BRANCH  27  39
HETATM   39  C   UNK     0       7.515  -3.428  28.919  0.00  0.00     0.051 C 
BRANCH  39  40
HETATM   40  C   UNK     0       8.638  -3.692  28.020  0.00  0.00     0.114 C 
BRANCH  40  41
HETATM   41  C   UNK     0       9.429  -4.899  28.108  0.00  0.00     0.139 C 
HETATM   42  O   UNK     0      10.526  -4.957  28.679  0.00  0.00    -0.650 OA
BRANCH  41  43
HETATM   43  O   UNK     0       8.935  -6.095  27.513  0.00  0.00    -0.776 OA
HETATM   44  H   UNK     0       9.503  -6.452  26.755  0.00  0.00     0.167 HD
ENDBRANCH  41  43
ENDBRANCH  40  41
ENDBRANCH  39  40
ENDBRANCH  27  39
BRANCH  11  45
HETATM   45  C   UNK     0      -1.886  -7.444  29.832  0.00  0.00     0.051 C 
BRANCH  45  46
HETATM   46  C   UNK     0      -2.997  -7.579  30.808  0.00  0.00     0.114 C 
BRANCH  46  47
HETATM   47  C   UNK     0      -2.383  -7.817  32.146  0.00  0.00     0.139 C 
HETATM   48  O   UNK     0      -2.519  -6.951  33.022  0.00  0.00    -0.650 OA
BRANCH  47  49
HETATM   49  O   UNK     0      -1.681  -8.967  32.403  0.00  0.00    -0.776 OA
HETATM   50  H   UNK     0      -1.745  -9.456  33.303  0.00  0.00     0.167 HD
ENDBRANCH  47  49
ENDBRANCH  46  47
ENDBRANCH  45  46
ENDBRANCH  11  45
BRANCH  18  51
HETATM   51  C   UNK     0       4.732  -8.802  28.067  0.00  0.00     0.051 C 
BRANCH  51  52
HETATM   52  C   UNK     0       5.853  -9.269  28.984  0.00  0.00     0.114 C 
BRANCH  52  53
HETATM   53  C   UNK     0       7.167  -8.759  28.550  0.00  0.00     0.139 C 
HETATM   54  O   UNK     0       7.966  -8.308  29.386  0.00  0.00    -0.650 OA
BRANCH  53  55
HETATM   55  O   UNK     0       7.499  -8.783  27.217  0.00  0.00    -0.776 OA
HETATM   56  H   UNK     0       8.280  -8.333  26.801  0.00  0.00     0.167 HD
ENDBRANCH  53  55
ENDBRANCH  52  53
ENDBRANCH  51  52
ENDBRANCH  18  51
TORSDOF 16
ENDMDL
MODEL 12
REMARK VINA RESULT:      -8.9      2.044      7.015
REMARK  16 active torsions:
REMARK  status: ('A' for Active; 'I' for Inactive)
REMARK    1  A    between atoms: C_6  and  C_7 
REMARK    2  A    between atoms: C_7  and  C_8 
REMARK    3  A    between atoms: C_8  and  C_9 
REMARK    4  A    between atoms: C_9  and  O_11 
REMARK    5  A    between atoms: C_16  and  C_17 
REMARK    6  A    between atoms: C_17  and  C_18 
REMARK    7  A    between atoms: C_18  and  C_19 
REMARK    8  A    between atoms: C_19  and  O_21 
REMARK    9  A    between atoms: C_28  and  C_29 
REMARK   10  A    between atoms: C_29  and  C_30 
REMARK   11  A    between atoms: C_30  and  C_31 
REMARK   12  A    between atoms: C_31  and  O_33 
REMARK   13  A    between atoms: C_42  and  C_43 
REMARK   14  A    between atoms: C_43  and  C_44 
REMARK   15  A    between atoms: C_44  and  C_45 
REMARK   16  A    between atoms: C_45  and  O_47 
ROOT
HETATM    1  C   UNK     0       2.480  -0.421  29.595  0.00  0.00     0.051 C 
HETATM    2  C   UNK     0       1.380  -1.456  29.716  0.00  0.00    -0.031 A 
HETATM    3  C   UNK     0       0.027  -1.278  29.960  0.00  0.00     0.021 A 
HETATM    4  N   UNK     0      -0.574  -2.490  30.017  0.00  0.00    -0.361 N 
HETATM    5  C   UNK     0       0.364  -3.436  29.806  0.00  0.00     0.022 A 
HETATM    6  C   UNK     0       1.599  -2.824  29.616  0.00  0.00    -0.027 A 
HETATM    7  C   UNK     0       0.208  -4.919  29.676  0.00  0.00     0.115 C 
HETATM    8  C   UNK     0      -0.969  -5.411  28.852  0.00  0.00     0.021 A 
HETATM    9  N   UNK     0      -1.502  -4.867  27.748  0.00  0.00    -0.361 N 
HETATM   10  C   UNK     0      -2.591  -5.589  27.408  0.00  0.00     0.022 A 
HETATM   11  C   UNK     0      -2.758  -6.633  28.313  0.00  0.00    -0.027 A 
HETATM   12  C   UNK     0      -1.739  -6.527  29.226  0.00  0.00    -0.031 A 
HETATM   13  C   UNK     0      -1.514  -7.457  30.397  0.00  0.00     0.051 C 
HETATM   14  C   UNK     0      -3.544  -5.295  26.253  0.00  0.00     0.115 C 
HETATM   15  C   UNK     0      -4.240  -3.947  26.358  0.00  0.00     0.021 A 
HETATM   16  N   UNK     0      -3.668  -2.731  26.429  0.00  0.00    -0.361 N 
HETATM   17  C   UNK     0      -4.620  -1.807  26.583  0.00  0.00     0.022 A 
HETATM   18  C   UNK     0      -5.873  -2.452  26.602  0.00  0.00    -0.027 A 
HETATM   19  C   UNK     0      -5.621  -3.792  26.459  0.00  0.00    -0.031 A 
HETATM   20  C   UNK     0      -6.705  -4.852  26.393  0.00  0.00     0.051 C 
HETATM   21  C   UNK     0      -4.501  -0.313  26.783  0.00  0.00     0.115 C 
HETATM   22  C   UNK     0      -3.311   0.193  27.563  0.00  0.00     0.022 A 
HETATM   23  N   UNK     0      -2.756  -0.331  28.664  0.00  0.00    -0.361 N 
HETATM   24  C   UNK     0      -1.630   0.358  28.939  0.00  0.00     0.021 A 
HETATM   25  C   UNK     0      -1.461   1.356  27.998  0.00  0.00    -0.031 A 
HETATM   26  C   UNK     0      -0.374   2.407  27.908  0.00  0.00     0.051 C 
HETATM   27  C   UNK     0      -2.525   1.271  27.107  0.00  0.00    -0.027 A 
HETATM   28  C   UNK     0      -0.614   0.079  30.033  0.00  0.00     0.115 C 
HETATM   29  H   UNK     0      -1.650  -2.671  30.245  0.00  0.00     0.165 HD
HETATM   30  H   UNK     0      -1.084  -4.002  27.176  0.00  0.00     0.165 HD
HETATM   31  H   UNK     0      -2.574  -2.513  26.322  0.00  0.00     0.165 HD
HETATM   32  H   UNK     0      -3.178  -1.165  29.283  0.00  0.00     0.165 HD
ENDROOT
BRANCH   6  33
HETATM   33  C   UNK     0       2.953  -3.433  29.354  0.00  0.00     0.051 C 
BRANCH  33  34
HETATM   34  C   UNK     0       3.216  -3.535  27.871  0.00  0.00     0.114 C 
BRANCH  34  35
HETATM   35  C   UNK     0       4.674  -3.307  27.659  0.00  0.00     0.139 C 
HETATM   36  O   UNK     0       5.127  -2.130  27.558  0.00  0.00    -0.650 OA
BRANCH  35  37
HETATM   37  O   UNK     0       5.589  -4.349  27.566  0.00  0.00    -0.776 OA
HETATM   38  H   UNK     0       5.461  -5.218  28.058  0.00  0.00     0.167 HD
ENDBRANCH  35  37
ENDBRANCH  34  35
ENDBRANCH  33  34
ENDBRANCH   6  33
BRANCH  27  39
HETATM   39  C   UNK     0      -2.725   2.233  25.990  0.00  0.00     0.051 C 
BRANCH  39  40
HETATM   40  C   UNK     0      -3.725   3.288  26.153  0.00  0.00     0.114 C 
BRANCH  40  41
HETATM   41  C   UNK     0      -4.926   3.342  25.351  0.00  0.00     0.139 C 
HETATM   42  O   UNK     0      -5.902   4.053  25.627  0.00  0.00    -0.650 OA
BRANCH  41  43
HETATM   43  O   UNK     0      -5.010   2.541  24.176  0.00  0.00    -0.776 OA
HETATM   44  H   UNK     0      -4.890   1.548  24.337  0.00  0.00     0.167 HD
ENDBRANCH  41  43
ENDBRANCH  40  41
ENDBRANCH  39  40
ENDBRANCH  27  39
BRANCH  11  45
HETATM   45  C   UNK     0      -3.821  -7.699  28.337  0.00  0.00     0.051 C 
BRANCH  45  46
HETATM   46  C   UNK     0      -5.167  -7.202  28.719  0.00  0.00     0.114 C 
BRANCH  46  47
HETATM   47  C   UNK     0      -6.163  -8.181  28.196  0.00  0.00     0.139 C 
HETATM   48  O   UNK     0      -6.007  -9.382  28.458  0.00  0.00    -0.650 OA
BRANCH  47  49
HETATM   49  O   UNK     0      -7.230  -7.763  27.441  0.00  0.00    -0.776 OA
HETATM   50  H   UNK     0      -8.075  -7.364  27.865  0.00  0.00     0.167 HD
ENDBRANCH  47  49
ENDBRANCH  46  47
ENDBRANCH  45  46
ENDBRANCH  11  45
BRANCH  18  51
HETATM   51  C   UNK     0      -7.236  -1.824  26.729  0.00  0.00     0.051 C 
BRANCH  51  52
HETATM   52  C   UNK     0      -7.511  -1.700  28.220  0.00  0.00     0.114 C 
BRANCH  52  53
HETATM   53  C   UNK     0      -8.957  -1.638  28.509  0.00  0.00     0.139 C 
HETATM   54  O   UNK     0      -9.781  -1.888  27.615  0.00  0.00    -0.650 OA
BRANCH  53  55
HETATM   55  O   UNK     0      -9.384  -1.300  29.770  0.00  0.00    -0.776 OA
HETATM   56  H   UNK     0      -9.143  -1.766  30.613  0.00  0.00     0.167 HD
ENDBRANCH  53  55
ENDBRANCH  52  53
ENDBRANCH  51  52
ENDBRANCH  18  51
TORSDOF 16
ENDMDL
MODEL 13
REMARK VINA RESULT:      -8.8     32.682     35.583
REMARK  16 active torsions:
REMARK  status: ('A' for Active; 'I' for Inactive)
REMARK    1  A    between atoms: C_6  and  C_7 
REMARK    2  A    between atoms: C_7  and  C_8 
REMARK    3  A    between atoms: C_8  and  C_9 
REMARK    4  A    between atoms: C_9  and  O_11 
REMARK    5  A    between atoms: C_16  and  C_17 
REMARK    6  A    between atoms: C_17  and  C_18 
REMARK    7  A    between atoms: C_18  and  C_19 
REMARK    8  A    between atoms: C_19  and  O_21 
REMARK    9  A    between atoms: C_28  and  C_29 
REMARK   10  A    between atoms: C_29  and  C_30 
REMARK   11  A    between atoms: C_30  and  C_31 
REMARK   12  A    between atoms: C_31  and  O_33 
REMARK   13  A    between atoms: C_42  and  C_43 
REMARK   14  A    between atoms: C_43  and  C_44 
REMARK   15  A    between atoms: C_44  and  C_45 
REMARK   16  A    between atoms: C_45  and  O_47 
ROOT
HETATM    1  C   UNK     0      15.749  -8.453   1.581  0.00  0.00     0.051 C 
HETATM    2  C   UNK     0      15.407  -9.877   1.195  0.00  0.00    -0.031 A 
HETATM    3  C   UNK     0      14.198 -10.549   1.291  0.00  0.00     0.021 A 
HETATM    4  N   UNK     0      14.364 -11.821   0.857  0.00  0.00    -0.361 N 
HETATM    5  C   UNK     0      15.649 -11.972   0.478  0.00  0.00     0.022 A 
HETATM    6  C   UNK     0      16.331 -10.776   0.679  0.00  0.00    -0.027 A 
HETATM    7  C   UNK     0      16.322 -13.148  -0.158  0.00  0.00     0.115 C 
HETATM    8  C   UNK     0      15.553 -13.862  -1.255  0.00  0.00     0.021 A 
HETATM    9  N   UNK     0      14.734 -13.338  -2.180  0.00  0.00    -0.361 N 
HETATM   10  C   UNK     0      14.198 -14.353  -2.890  0.00  0.00     0.022 A 
HETATM   11  C   UNK     0      14.693 -15.564  -2.416  0.00  0.00    -0.027 A 
HETATM   12  C   UNK     0      15.547 -15.263  -1.386  0.00  0.00    -0.031 A 
HETATM   13  C   UNK     0      16.324 -16.272  -0.571  0.00  0.00     0.051 C 
HETATM   14  C   UNK     0      13.162 -14.226  -4.003  0.00  0.00     0.115 C 
HETATM   15  C   UNK     0      11.851 -13.600  -3.556  0.00  0.00     0.021 A 
HETATM   16  N   UNK     0      11.667 -12.385  -3.004  0.00  0.00    -0.361 N 
HETATM   17  C   UNK     0      10.378 -12.238  -2.689  0.00  0.00     0.022 A 
HETATM   18  C   UNK     0       9.688 -13.409  -3.061  0.00  0.00    -0.027 A 
HETATM   19  C   UNK     0      10.621 -14.253  -3.604  0.00  0.00    -0.031 A 
HETATM   20  C   UNK     0      10.293 -15.622  -4.171  0.00  0.00     0.051 C 
HETATM   21  C   UNK     0       9.673 -11.098  -1.989  0.00  0.00     0.115 C 
HETATM   22  C   UNK     0      10.442 -10.350  -0.925  0.00  0.00     0.022 A 
HETATM   23  N   UNK     0      11.268 -10.846   0.005  0.00  0.00    -0.361 N 
HETATM   24  C   UNK     0      11.850  -9.814   0.649  0.00  0.00     0.021 A 
HETATM   25  C   UNK     0      11.379  -8.625   0.127  0.00  0.00    -0.031 A 
HETATM   26  C   UNK     0      11.704  -7.206   0.545  0.00  0.00     0.051 C 
HETATM   27  C   UNK     0      10.477  -8.942  -0.882  0.00  0.00    -0.027 A 
HETATM   28  C   UNK     0      12.925  -9.874   1.720  0.00  0.00     0.115 C 
HETATM   29  H   UNK     0      13.581 -12.614   0.859  0.00  0.00     0.165 HD
HETATM   30  H   UNK     0      14.570 -12.248  -2.367  0.00  0.00     0.165 HD
HETATM   31  H   UNK     0      12.453 -11.596  -2.879  0.00  0.00     0.165 HD
HETATM   32  H   UNK     0      11.416 -11.931   0.246  0.00  0.00     0.165 HD
ENDROOT
BRANCH   6  33
HETATM   33  C   UNK     0      17.776 -10.428   0.423  0.00  0.00     0.051 C 
BRANCH  33  34
HETATM   34  C   UNK     0      17.885  -9.299  -0.574  0.00  0.00     0.114 C 
BRANCH  34  35
HETATM   35  C   UNK     0      18.379  -9.881  -1.855  0.00  0.00     0.139 C 
HETATM   36  O   UNK     0      17.705 -10.769  -2.454  0.00  0.00    -0.650 OA
BRANCH  35  37
HETATM   37  O   UNK     0      19.574  -9.488  -2.445  0.00  0.00    -0.776 OA
HETATM   38  H   UNK     0      19.924  -9.922  -3.285  0.00  0.00     0.167 HD
ENDBRANCH  35  37
ENDBRANCH  34  35
ENDBRANCH  33  34
ENDBRANCH   6  33
BRANCH  27  39
HETATM   39  C   UNK     0       9.706  -7.914  -1.633  0.00  0.00     0.051 C 
BRANCH  39  40
HETATM   40  C   UNK     0      10.415  -7.096  -2.617  0.00  0.00     0.114 C 
BRANCH  40  41
HETATM   41  C   UNK     0      10.017  -7.044  -4.006  0.00  0.00     0.139 C 
HETATM   42  O   UNK     0       8.838  -7.092  -4.381  0.00  0.00    -0.650 OA
BRANCH  41  43
HETATM   43  O   UNK     0      11.021  -6.932  -5.009  0.00  0.00    -0.776 OA
HETATM   44  H   UNK     0      11.965  -6.848  -4.650  0.00  0.00     0.167 HD
ENDBRANCH  41  43
ENDBRANCH  40  41
ENDBRANCH  39  40
ENDBRANCH  27  39
BRANCH  11  45
HETATM   45  C   UNK     0      14.391 -16.958  -2.897  0.00  0.00     0.051 C 
BRANCH  45  46
HETATM   46  C   UNK     0      13.182 -17.563  -2.282  0.00  0.00     0.114 C 
BRANCH  46  47
HETATM   47  C   UNK     0      13.547 -18.944  -1.856  0.00  0.00     0.139 C 
HETATM   48  O   UNK     0      12.724 -19.599  -1.201  0.00  0.00    -0.650 OA
BRANCH  47  49
HETATM   49  O   UNK     0      14.768 -19.480  -2.181  0.00  0.00    -0.776 OA
HETATM   50  H   UNK     0      15.402 -19.861  -1.469  0.00  0.00     0.167 HD
ENDBRANCH  47  49
ENDBRANCH  46  47
ENDBRANCH  45  46
ENDBRANCH  11  45
BRANCH  18  51
HETATM   51  C   UNK     0       8.215 -13.698  -2.926  0.00  0.00     0.051 C 
BRANCH  51  52
HETATM   52  C   UNK     0       8.069 -14.603  -1.712  0.00  0.00     0.114 C 
BRANCH  52  53
HETATM   53  C   UNK     0       7.415 -15.881  -2.055  0.00  0.00     0.139 C 
HETATM   54  O   UNK     0       7.434 -16.825  -1.248  0.00  0.00    -0.650 OA
BRANCH  53  55
HETATM   55  O   UNK     0       6.791 -16.021  -3.271  0.00  0.00    -0.776 OA
HETATM   56  H   UNK     0       7.234 -16.234  -4.133  0.00  0.00     0.167 HD
ENDBRANCH  53  55
ENDBRANCH  52  53
ENDBRANCH  51  52
ENDBRANCH  18  51
TORSDOF 16
ENDMDL
MODEL 14
REMARK VINA RESULT:      -8.7      3.671      8.785
REMARK  16 active torsions:
REMARK  status: ('A' for Active; 'I' for Inactive)
REMARK    1  A    between atoms: C_6  and  C_7 
REMARK    2  A    between atoms: C_7  and  C_8 
REMARK    3  A    between atoms: C_8  and  C_9 
REMARK    4  A    between atoms: C_9  and  O_11 
REMARK    5  A    between atoms: C_16  and  C_17 
REMARK    6  A    between atoms: C_17  and  C_18 
REMARK    7  A    between atoms: C_18  and  C_19 
REMARK    8  A    between atoms: C_19  and  O_21 
REMARK    9  A    between atoms: C_28  and  C_29 
REMARK   10  A    between atoms: C_29  and  C_30 
REMARK   11  A    between atoms: C_30  and  C_31 
REMARK   12  A    between atoms: C_31  and  O_33 
REMARK   13  A    between atoms: C_42  and  C_43 
REMARK   14  A    between atoms: C_43  and  C_44 
REMARK   15  A    between atoms: C_44  and  C_45 
REMARK   16  A    between atoms: C_45  and  O_47 
ROOT
HETATM    1  C   UNK     0      -7.288 -10.353  26.600  0.00  0.00     0.051 C 
HETATM    2  C   UNK     0      -7.162  -8.902  27.017  0.00  0.00    -0.031 A 
HETATM    3  C   UNK     0      -6.441  -8.347  28.062  0.00  0.00     0.021 A 
HETATM    4  N   UNK     0      -6.645  -7.008  28.077  0.00  0.00    -0.361 N 
HETATM    5  C   UNK     0      -7.473  -6.697  27.059  0.00  0.00     0.022 A 
HETATM    6  C   UNK     0      -7.818  -7.859  26.376  0.00  0.00    -0.027 A 
HETATM    7  C   UNK     0      -7.935  -5.355  26.583  0.00  0.00     0.115 C 
HETATM    8  C   UNK     0      -6.890  -4.256  26.525  0.00  0.00     0.021 A 
HETATM    9  N   UNK     0      -5.590  -4.354  26.206  0.00  0.00    -0.361 N 
HETATM   10  C   UNK     0      -5.023  -3.141  26.377  0.00  0.00     0.022 A 
HETATM   11  C   UNK     0      -5.987  -2.234  26.809  0.00  0.00    -0.027 A 
HETATM   12  C   UNK     0      -7.165  -2.930  26.904  0.00  0.00    -0.031 A 
HETATM   13  C   UNK     0      -8.492  -2.347  27.334  0.00  0.00     0.051 C 
HETATM   14  C   UNK     0      -3.547  -2.801  26.192  0.00  0.00     0.115 C 
HETATM   15  C   UNK     0      -2.618  -3.572  27.116  0.00  0.00     0.021 A 
HETATM   16  N   UNK     0      -2.480  -4.908  27.215  0.00  0.00    -0.361 N 
HETATM   17  C   UNK     0      -1.615  -5.188  28.191  0.00  0.00     0.022 A 
HETATM   18  C   UNK     0      -1.159  -3.977  28.749  0.00  0.00    -0.027 A 
HETATM   19  C   UNK     0      -1.794  -2.973  28.066  0.00  0.00    -0.031 A 
HETATM   20  C   UNK     0      -1.560  -1.496  28.327  0.00  0.00     0.051 C 
HETATM   21  C   UNK     0      -1.173  -6.524  28.745  0.00  0.00     0.115 C 
HETATM   22  C   UNK     0      -2.191  -7.640  28.768  0.00  0.00     0.022 A 
HETATM   23  N   UNK     0      -3.492  -7.571  29.077  0.00  0.00    -0.361 N 
HETATM   24  C   UNK     0      -4.052  -8.771  28.825  0.00  0.00     0.021 A 
HETATM   25  C   UNK     0      -3.086  -9.637  28.351  0.00  0.00    -0.031 A 
HETATM   26  C   UNK     0      -3.219 -11.097  27.971  0.00  0.00     0.051 C 
HETATM   27  C   UNK     0      -1.886  -8.937  28.306  0.00  0.00    -0.027 A 
HETATM   28  C   UNK     0      -5.519  -9.153  28.932  0.00  0.00     0.115 C 
HETATM   29  H   UNK     0      -6.234  -6.297  28.831  0.00  0.00     0.165 HD
HETATM   30  H   UNK     0      -5.079  -5.267  25.811  0.00  0.00     0.165 HD
HETATM   31  H   UNK     0      -2.967  -5.668  26.550  0.00  0.00     0.165 HD
HETATM   32  H   UNK     0      -4.019  -6.685  29.518  0.00  0.00     0.165 HD
ENDROOT
BRANCH   6  33
HETATM   33  C   UNK     0      -8.714  -8.052  25.179  0.00  0.00     0.051 C 
BRANCH  33  34
HETATM   34  C   UNK     0     -10.143  -8.285  25.612  0.00  0.00     0.114 C 
BRANCH  34  35
HETATM   35  C   UNK     0     -10.550  -9.625  25.103  0.00  0.00     0.139 C 
HETATM   36  O   UNK     0      -9.900 -10.176  24.167  0.00  0.00    -0.650 OA
BRANCH  35  37
HETATM   37  O   UNK     0     -11.636 -10.324  25.617  0.00  0.00    -0.776 OA
HETATM   38  H   UNK     0     -11.975 -10.171  26.553  0.00  0.00     0.167 HD
ENDBRANCH  35  37
ENDBRANCH  34  35
ENDBRANCH  33  34
ENDBRANCH   6  33
BRANCH  27  39
HETATM   39  C   UNK     0      -0.596  -9.564  27.912  0.00  0.00     0.051 C 
BRANCH  39  40
HETATM   40  C   UNK     0       0.618  -9.159  28.620  0.00  0.00     0.114 C 
BRANCH  40  41
HETATM   41  C   UNK     0       0.849  -9.495  30.007  0.00  0.00     0.139 C 
HETATM   42  O   UNK     0       0.647  -8.710  30.943  0.00  0.00    -0.650 OA
BRANCH  41  43
HETATM   43  O   UNK     0       1.334 -10.793  30.332  0.00  0.00    -0.776 OA
HETATM   44  H   UNK     0       1.426 -11.417  29.539  0.00  0.00     0.167 HD
ENDBRANCH  41  43
ENDBRANCH  40  41
ENDBRANCH  39  40
ENDBRANCH  27  39
BRANCH  11  45
HETATM   45  C   UNK     0      -5.829  -0.770  27.122  0.00  0.00     0.051 C 
BRANCH  45  46
HETATM   46  C   UNK     0      -5.814   0.108  25.924  0.00  0.00     0.114 C 
BRANCH  46  47
HETATM   47  C   UNK     0      -4.802   1.175  26.172  0.00  0.00     0.139 C 
HETATM   48  O   UNK     0      -3.620   0.843  26.340  0.00  0.00    -0.650 OA
BRANCH  47  49
HETATM   49  O   UNK     0      -5.170   2.496  26.213  0.00  0.00    -0.776 OA
HETATM   50  H   UNK     0      -5.919   2.834  26.829  0.00  0.00     0.167 HD
ENDBRANCH  47  49
ENDBRANCH  46  47
ENDBRANCH  45  46
ENDBRANCH  11  45
BRANCH  18  51
HETATM   51  C   UNK     0      -0.157  -3.787  29.859  0.00  0.00     0.051 C 
BRANCH  51  52
HETATM   52  C   UNK     0      -0.939  -3.888  31.160  0.00  0.00     0.114 C 
BRANCH  52  53
HETATM   53  C   UNK     0      -0.367  -4.902  32.068  0.00  0.00     0.139 C 
HETATM   54  O   UNK     0      -0.826  -5.040  33.213  0.00  0.00    -0.650 OA
BRANCH  53  55
HETATM   55  O   UNK     0       0.675  -5.687  31.639  0.00  0.00    -0.776 OA
HETATM   56  H   UNK     0       0.599  -6.507  31.085  0.00  0.00     0.167 HD
ENDBRANCH  53  55
ENDBRANCH  52  53
ENDBRANCH  51  52
ENDBRANCH  18  51
TORSDOF 16
ENDMDL
MODEL 15
REMARK VINA RESULT:      -8.6      3.428      9.594
REMARK  16 active torsions:
REMARK  status: ('A' for Active; 'I' for Inactive)
REMARK    1  A    between atoms: C_6  and  C_7 
REMARK    2  A    between atoms: C_7  and  C_8 
REMARK    3  A    between atoms: C_8  and  C_9 
REMARK    4  A    between atoms: C_9  and  O_11 
REMARK    5  A    between atoms: C_16  and  C_17 
REMARK    6  A    between atoms: C_17  and  C_18 
REMARK    7  A    between atoms: C_18  and  C_19 
REMARK    8  A    between atoms: C_19  and  O_21 
REMARK    9  A    between atoms: C_28  and  C_29 
REMARK   10  A    between atoms: C_29  and  C_30 
REMARK   11  A    between atoms: C_30  and  C_31 
REMARK   12  A    between atoms: C_31  and  O_33 
REMARK   13  A    between atoms: C_42  and  C_43 
REMARK   14  A    between atoms: C_43  and  C_44 
REMARK   15  A    between atoms: C_44  and  C_45 
REMARK   16  A    between atoms: C_45  and  O_47 
ROOT
HETATM    1  C   UNK     0      -0.712  -2.389  28.618  0.00  0.00     0.051 C 
HETATM    2  C   UNK     0      -1.857  -2.025  27.695  0.00  0.00    -0.031 A 
HETATM    3  C   UNK     0      -2.557  -2.823  26.804  0.00  0.00     0.021 A 
HETATM    4  N   UNK     0      -3.480  -2.066  26.164  0.00  0.00    -0.361 N 
HETATM    5  C   UNK     0      -3.389  -0.805  26.634  0.00  0.00     0.022 A 
HETATM    6  C   UNK     0      -2.382  -0.743  27.591  0.00  0.00    -0.027 A 
HETATM    7  C   UNK     0      -4.238   0.389  26.326  0.00  0.00     0.115 C 
HETATM    8  C   UNK     0      -5.737   0.158  26.248  0.00  0.00     0.021 A 
HETATM    9  N   UNK     0      -6.493  -0.679  26.976  0.00  0.00    -0.361 N 
HETATM   10  C   UNK     0      -7.755  -0.622  26.502  0.00  0.00     0.022 A 
HETATM   11  C   UNK     0      -7.816   0.282  25.446  0.00  0.00    -0.027 A 
HETATM   12  C   UNK     0      -6.548   0.778  25.281  0.00  0.00    -0.031 A 
HETATM   13  C   UNK     0      -6.137   1.801  24.246  0.00  0.00     0.051 C 
HETATM   14  C   UNK     0      -8.939  -1.454  26.988  0.00  0.00     0.115 C 
HETATM   15  C   UNK     0      -8.746  -2.954  26.825  0.00  0.00     0.021 A 
HETATM   16  N   UNK     0      -7.767  -3.717  27.346  0.00  0.00    -0.361 N 
HETATM   17  C   UNK     0      -7.911  -4.971  26.911  0.00  0.00     0.022 A 
HETATM   18  C   UNK     0      -9.043  -5.029  26.074  0.00  0.00    -0.027 A 
HETATM   19  C   UNK     0      -9.558  -3.759  26.029  0.00  0.00    -0.031 A 
HETATM   20  C   UNK     0     -10.812  -3.384  25.262  0.00  0.00     0.051 C 
HETATM   21  C   UNK     0      -7.042  -6.186  27.144  0.00  0.00     0.115 C 
HETATM   22  C   UNK     0      -5.553  -5.965  27.267  0.00  0.00     0.022 A 
HETATM   23  N   UNK     0      -4.775  -5.136  26.559  0.00  0.00    -0.361 N 
HETATM   24  C   UNK     0      -3.539  -5.150  27.098  0.00  0.00     0.021 A 
HETATM   25  C   UNK     0      -3.518  -6.018  28.174  0.00  0.00    -0.031 A 
HETATM   26  C   UNK     0      -2.357  -6.399  29.068  0.00  0.00     0.051 C 
HETATM   27  C   UNK     0      -4.795  -6.552  28.302  0.00  0.00    -0.027 A 
HETATM   28  C   UNK     0      -2.341  -4.307  26.699  0.00  0.00     0.115 C 
HETATM   29  H   UNK     0      -4.162  -2.420  25.357  0.00  0.00     0.165 HD
HETATM   30  H   UNK     0      -6.149  -1.273  27.857  0.00  0.00     0.165 HD
HETATM   31  H   UNK     0      -6.986  -3.376  28.074  0.00  0.00     0.165 HD
HETATM   32  H   UNK     0      -5.080  -4.565  25.644  0.00  0.00     0.165 HD
ENDROOT
BRANCH   6  33
HETATM   33  C   UNK     0      -1.885   0.427  28.402  0.00  0.00     0.051 C 
BRANCH  33  34
HETATM   34  C   UNK     0      -1.152   1.414  27.524  0.00  0.00     0.114 C 
BRANCH  34  35
HETATM   35  C   UNK     0      -0.553   2.447  28.417  0.00  0.00     0.139 C 
HETATM   36  O   UNK     0      -1.298   3.242  29.060  0.00  0.00    -0.650 OA
BRANCH  35  37
HETATM   37  O   UNK     0       0.819   2.586  28.588  0.00  0.00    -0.776 OA
HETATM   38  H   UNK     0       1.212   3.243  29.242  0.00  0.00     0.167 HD
ENDBRANCH  35  37
ENDBRANCH  34  35
ENDBRANCH  33  34
ENDBRANCH   6  33
BRANCH  27  39
HETATM   39  C   UNK     0      -5.144  -7.586  29.313  0.00  0.00     0.051 C 
BRANCH  39  40
HETATM   40  C   UNK     0      -5.642  -8.878  28.841  0.00  0.00     0.114 C 
BRANCH  40  41
HETATM   41  C   UNK     0      -4.778  -9.858  28.222  0.00  0.00     0.139 C 
HETATM   42  O   UNK     0      -5.194 -10.786  27.516  0.00  0.00    -0.650 OA
BRANCH  41  43
HETATM   43  O   UNK     0      -3.372  -9.766  28.426  0.00  0.00    -0.776 OA
HETATM   44  H   UNK     0      -3.089  -9.761  29.399  0.00  0.00     0.167 HD
ENDBRANCH  41  43
ENDBRANCH  40  41
ENDBRANCH  39  40
ENDBRANCH  27  39
BRANCH  11  45
HETATM   45  C   UNK     0      -9.006   0.682  24.615  0.00  0.00     0.051 C 
BRANCH  45  46
HETATM   46  C   UNK     0      -9.555  -0.414  23.777  0.00  0.00     0.114 C 
BRANCH  46  47
HETATM   47  C   UNK     0     -10.913   0.009  23.330  0.00  0.00     0.139 C 
HETATM   48  O   UNK     0     -11.134   1.218  23.171  0.00  0.00    -0.650 OA
BRANCH  47  49
HETATM   49  O   UNK     0     -11.898  -0.917  23.100  0.00  0.00    -0.776 OA
HETATM   50  H   UNK     0     -12.088  -1.290  22.162  0.00  0.00     0.167 HD
ENDBRANCH  47  49
ENDBRANCH  46  47
ENDBRANCH  45  46
ENDBRANCH  11  45
BRANCH  18  51
HETATM   51  C   UNK     0      -9.616  -6.233  25.372  0.00  0.00     0.051 C 
BRANCH  51  52
HETATM   52  C   UNK     0     -10.445  -6.976  26.409  0.00  0.00     0.114 C 
BRANCH  52  53
HETATM   53  C   UNK     0     -11.785  -7.321  25.897  0.00  0.00     0.139 C 
HETATM   54  O   UNK     0     -12.469  -6.462  25.318  0.00  0.00    -0.650 OA
BRANCH  53  55
HETATM   55  O   UNK     0     -12.271  -8.595  26.067  0.00  0.00    -0.776 OA
HETATM   56  H   UNK     0     -11.726  -9.420  26.162  0.00  0.00     0.167 HD
ENDBRANCH  53  55
ENDBRANCH  52  53
ENDBRANCH  51  52
ENDBRANCH  18  51
TORSDOF 16
ENDMDL
MODEL 16
REMARK VINA RESULT:      -8.6      3.163      8.662
REMARK  16 active torsions:
REMARK  status: ('A' for Active; 'I' for Inactive)
REMARK    1  A    between atoms: C_6  and  C_7 
REMARK    2  A    between atoms: C_7  and  C_8 
REMARK    3  A    between atoms: C_8  and  C_9 
REMARK    4  A    between atoms: C_9  and  O_11 
REMARK    5  A    between atoms: C_16  and  C_17 
REMARK    6  A    between atoms: C_17  and  C_18 
REMARK    7  A    between atoms: C_18  and  C_19 
REMARK    8  A    between atoms: C_19  and  O_21 
REMARK    9  A    between atoms: C_28  and  C_29 
REMARK   10  A    between atoms: C_29  and  C_30 
REMARK   11  A    between atoms: C_30  and  C_31 
REMARK   12  A    between atoms: C_31  and  O_33 
REMARK   13  A    between atoms: C_42  and  C_43 
REMARK   14  A    between atoms: C_43  and  C_44 
REMARK   15  A    between atoms: C_44  and  C_45 
REMARK   16  A    between atoms: C_45  and  O_47 
ROOT
HETATM    1  C   UNK     0      -0.102  -3.744  28.934  0.00  0.00     0.051 C 
HETATM    2  C   UNK     0      -1.095  -3.085  27.999  0.00  0.00    -0.031 A 
HETATM    3  C   UNK     0      -1.922  -3.660  27.047  0.00  0.00     0.021 A 
HETATM    4  N   UNK     0      -2.620  -2.682  26.421  0.00  0.00    -0.361 N 
HETATM    5  C   UNK     0      -2.262  -1.498  26.960  0.00  0.00     0.022 A 
HETATM    6  C   UNK     0      -1.307  -1.713  27.948  0.00  0.00    -0.027 A 
HETATM    7  C   UNK     0      -2.802  -0.128  26.691  0.00  0.00     0.115 C 
HETATM    8  C   UNK     0      -4.310  -0.004  26.557  0.00  0.00     0.021 A 
HETATM    9  N   UNK     0      -5.266  -0.676  27.217  0.00  0.00    -0.361 N 
HETATM   10  C   UNK     0      -6.462  -0.309  26.710  0.00  0.00     0.022 A 
HETATM   11  C   UNK     0      -6.272   0.632  25.702  0.00  0.00    -0.027 A 
HETATM   12  C   UNK     0      -4.918   0.829  25.601  0.00  0.00    -0.031 A 
HETATM   13  C   UNK     0      -4.242   1.776  24.635  0.00  0.00     0.051 C 
HETATM   14  C   UNK     0      -7.823  -0.867  27.116  0.00  0.00     0.115 C 
HETATM   15  C   UNK     0      -7.971  -2.361  26.879  0.00  0.00     0.021 A 
HETATM   16  N   UNK     0      -7.216  -3.353  27.387  0.00  0.00    -0.361 N 
HETATM   17  C   UNK     0      -7.624  -4.519  26.882  0.00  0.00     0.022 A 
HETATM   18  C   UNK     0      -8.705  -4.277  26.010  0.00  0.00    -0.027 A 
HETATM   19  C   UNK     0      -8.913  -2.922  26.018  0.00  0.00    -0.031 A 
HETATM   20  C   UNK     0     -10.016  -2.233  25.235  0.00  0.00     0.051 C 
HETATM   21  C   UNK     0      -7.066  -5.911  27.075  0.00  0.00     0.115 C 
HETATM   22  C   UNK     0      -5.572  -6.044  27.254  0.00  0.00     0.022 A 
HETATM   23  N   UNK     0      -4.597  -5.386  26.614  0.00  0.00    -0.361 N 
HETATM   24  C   UNK     0      -3.421  -5.709  27.188  0.00  0.00     0.021 A 
HETATM   25  C   UNK     0      -3.642  -6.605  28.216  0.00  0.00    -0.031 A 
HETATM   26  C   UNK     0      -2.637  -7.284  29.122  0.00  0.00     0.051 C 
HETATM   27  C   UNK     0      -5.012  -6.836  28.277  0.00  0.00    -0.027 A 
HETATM   28  C   UNK     0      -2.046  -5.146  26.869  0.00  0.00     0.115 C 
HETATM   29  H   UNK     0      -3.331  -2.832  25.576  0.00  0.00     0.165 HD
HETATM   30  H   UNK     0      -5.103  -1.373  28.075  0.00  0.00     0.165 HD
HETATM   31  H   UNK     0      -6.407  -3.233  28.155  0.00  0.00     0.165 HD
HETATM   32  H   UNK     0      -4.727  -4.719  25.722  0.00  0.00     0.165 HD
ENDROOT
BRANCH   6  33
HETATM   33  C   UNK     0      -0.590  -0.727  28.834  0.00  0.00     0.051 C 
BRANCH  33  34
HETATM   34  C   UNK     0       0.722  -0.306  28.214  0.00  0.00     0.114 C 
BRANCH  34  35
HETATM   35  C   UNK     0       0.758   1.185  28.216  0.00  0.00     0.139 C 
HETATM   36  O   UNK     0       1.721   1.797  28.763  0.00  0.00    -0.650 OA
BRANCH  35  37
HETATM   37  O   UNK     0      -0.236   1.960  27.631  0.00  0.00    -0.776 OA
HETATM   38  H   UNK     0      -0.146   2.958  27.532  0.00  0.00     0.167 HD
ENDBRANCH  35  37
ENDBRANCH  34  35
ENDBRANCH  33  34
ENDBRANCH   6  33
BRANCH  27  39
HETATM   39  C   UNK     0      -5.629  -7.807  29.221  0.00  0.00     0.051 C 
BRANCH  39  40
HETATM   40  C   UNK     0      -6.279  -8.995  28.669  0.00  0.00     0.114 C 
BRANCH  40  41
HETATM   41  C   UNK     0      -5.540 -10.021  27.967  0.00  0.00     0.139 C 
HETATM   42  O   UNK     0      -4.335 -10.241  28.149  0.00  0.00    -0.650 OA
BRANCH  41  43
HETATM   43  O   UNK     0      -6.219 -10.831  27.014  0.00  0.00    -0.776 OA
HETATM   44  H   UNK     0      -6.288 -10.423  26.090  0.00  0.00     0.167 HD
ENDBRANCH  41  43
ENDBRANCH  40  41
ENDBRANCH  39  40
ENDBRANCH  27  39
BRANCH  11  45
HETATM   45  C   UNK     0      -7.304   1.332  24.860  0.00  0.00     0.051 C 
BRANCH  45  46
HETATM   46  C   UNK     0      -7.883   2.544  25.493  0.00  0.00     0.114 C 
BRANCH  46  47
HETATM   47  C   UNK     0      -7.159   3.722  24.935  0.00  0.00     0.139 C 
HETATM   48  O   UNK     0      -6.724   4.576  25.720  0.00  0.00    -0.650 OA
BRANCH  47  49
HETATM   49  O   UNK     0      -6.980   3.860  23.582  0.00  0.00    -0.776 OA
HETATM   50  H   UNK     0      -6.793   4.772  23.147  0.00  0.00     0.167 HD
ENDBRANCH  47  49
ENDBRANCH  46  47
ENDBRANCH  45  46
ENDBRANCH  11  45
BRANCH  18  51
HETATM   51  C   UNK     0      -9.508  -5.284  25.229  0.00  0.00     0.051 C 
BRANCH  51  52
HETATM   52  C   UNK     0     -10.613  -5.761  26.160  0.00  0.00     0.114 C 
BRANCH  52  53
HETATM   53  C   UNK     0     -11.581  -6.631  25.463  0.00  0.00     0.139 C 
HETATM   54  O   UNK     0     -11.410  -7.860  25.444  0.00  0.00    -0.650 OA
BRANCH  53  55
HETATM   55  O   UNK     0     -12.667  -6.072  24.834  0.00  0.00    -0.776 OA
HETATM   56  H   UNK     0     -12.642  -5.507  24.018  0.00  0.00     0.167 HD
ENDBRANCH  53  55
ENDBRANCH  52  53
ENDBRANCH  51  52
ENDBRANCH  18  51
TORSDOF 16
ENDMDL
MODEL 17
REMARK VINA RESULT:      -8.6      5.424     11.517
REMARK  16 active torsions:
REMARK  status: ('A' for Active; 'I' for Inactive)
REMARK    1  A    between atoms: C_6  and  C_7 
REMARK    2  A    between atoms: C_7  and  C_8 
REMARK    3  A    between atoms: C_8  and  C_9 
REMARK    4  A    between atoms: C_9  and  O_11 
REMARK    5  A    between atoms: C_16  and  C_17 
REMARK    6  A    between atoms: C_17  and  C_18 
REMARK    7  A    between atoms: C_18  and  C_19 
REMARK    8  A    between atoms: C_19  and  O_21 
REMARK    9  A    between atoms: C_28  and  C_29 
REMARK   10  A    between atoms: C_29  and  C_30 
REMARK   11  A    between atoms: C_30  and  C_31 
REMARK   12  A    between atoms: C_31  and  O_33 
REMARK   13  A    between atoms: C_42  and  C_43 
REMARK   14  A    between atoms: C_43  and  C_44 
REMARK   15  A    between atoms: C_44  and  C_45 
REMARK   16  A    between atoms: C_45  and  O_47 
ROOT
HETATM    1  C   UNK     0       1.205  -7.763  30.779  0.00  0.00     0.051 C 
HETATM    2  C   UNK     0       0.002  -7.538  29.885  0.00  0.00    -0.031 A 
HETATM    3  C   UNK     0      -0.283  -8.080  28.642  0.00  0.00     0.021 A 
HETATM    4  N   UNK     0      -1.457  -7.571  28.198  0.00  0.00    -0.361 N 
HETATM    5  C   UNK     0      -1.930  -6.723  29.134  0.00  0.00     0.022 A 
HETATM    6  C   UNK     0      -1.040  -6.676  30.202  0.00  0.00    -0.027 A 
HETATM    7  C   UNK     0      -3.226  -5.976  29.175  0.00  0.00     0.115 C 
HETATM    8  C   UNK     0      -4.466  -6.740  28.744  0.00  0.00     0.021 A 
HETATM    9  N   UNK     0      -4.758  -8.036  28.935  0.00  0.00    -0.361 N 
HETATM   10  C   UNK     0      -5.922  -8.301  28.303  0.00  0.00     0.022 A 
HETATM   11  C   UNK     0      -6.397  -7.141  27.697  0.00  0.00    -0.027 A 
HETATM   12  C   UNK     0      -5.485  -6.154  27.971  0.00  0.00    -0.031 A 
HETATM   13  C   UNK     0      -5.590  -4.716  27.516  0.00  0.00     0.051 C 
HETATM   14  C   UNK     0      -6.602  -9.663  28.201  0.00  0.00     0.115 C 
HETATM   15  C   UNK     0      -5.764 -10.718  27.498  0.00  0.00     0.021 A 
HETATM   16  N   UNK     0      -4.540 -11.159  27.842  0.00  0.00    -0.361 N 
HETATM   17  C   UNK     0      -4.117 -12.037  26.930  0.00  0.00     0.022 A 
HETATM   18  C   UNK     0      -5.118 -12.183  25.949  0.00  0.00    -0.027 A 
HETATM   19  C   UNK     0      -6.145 -11.353  26.317  0.00  0.00    -0.031 A 
HETATM   20  C   UNK     0      -7.448 -11.231  25.548  0.00  0.00     0.051 C 
HETATM   21  C   UNK     0      -2.794 -12.760  26.817  0.00  0.00     0.115 C 
HETATM   22  C   UNK     0      -1.557 -12.028  27.283  0.00  0.00     0.022 A 
HETATM   23  N   UNK     0      -1.242 -10.738  27.111  0.00  0.00    -0.361 N 
HETATM   24  C   UNK     0      -0.121 -10.478  27.814  0.00  0.00     0.021 A 
HETATM   25  C   UNK     0       0.302 -11.632  28.445  0.00  0.00    -0.031 A 
HETATM   26  C   UNK     0       1.527 -11.852  29.309  0.00  0.00     0.051 C 
HETATM   27  C   UNK     0      -0.601 -12.638  28.120  0.00  0.00    -0.027 A 
HETATM   28  C   UNK     0       0.569  -9.138  28.002  0.00  0.00     0.115 C 
HETATM   29  H   UNK     0      -1.923  -7.784  27.208  0.00  0.00     0.165 HD
HETATM   30  H   UNK     0      -4.171  -8.755  29.557  0.00  0.00     0.165 HD
HETATM   31  H   UNK     0      -3.981 -10.880  28.773  0.00  0.00     0.165 HD
HETATM   32  H   UNK     0      -1.785 -10.007  26.456  0.00  0.00     0.165 HD
ENDROOT
BRANCH   6  33
HETATM   33  C   UNK     0      -1.103  -5.884  31.484  0.00  0.00     0.051 C 
BRANCH  33  34
HETATM   34  C   UNK     0      -0.452  -4.533  31.310  0.00  0.00     0.114 C 
BRANCH  34  35
HETATM   35  C   UNK     0      -0.219  -3.971  32.671  0.00  0.00     0.139 C 
HETATM   36  O   UNK     0       0.916  -4.081  33.220  0.00  0.00    -0.650 OA
BRANCH  35  37
HETATM   37  O   UNK     0      -1.209  -3.311  33.389  0.00  0.00    -0.776 OA
HETATM   38  H   UNK     0      -1.740  -3.769  34.112  0.00  0.00     0.167 HD
ENDBRANCH  35  37
ENDBRANCH  34  35
ENDBRANCH  33  34
ENDBRANCH   6  33
BRANCH  27  39
HETATM   39  C   UNK     0      -0.435 -14.050  28.561  0.00  0.00     0.051 C 
BRANCH  39  40
HETATM   40  C   UNK     0      -1.131 -14.485  29.772  0.00  0.00     0.114 C 
BRANCH  40  41
HETATM   41  C   UNK     0      -0.482 -14.516  31.064  0.00  0.00     0.139 C 
HETATM   42  O   UNK     0      -0.561 -13.597  31.891  0.00  0.00    -0.650 OA
BRANCH  41  43
HETATM   43  O   UNK     0       0.292 -15.656  31.421  0.00  0.00    -0.776 OA
HETATM   44  H   UNK     0       1.262 -15.610  31.134  0.00  0.00     0.167 HD
ENDBRANCH  41  43
ENDBRANCH  40  41
ENDBRANCH  39  40
ENDBRANCH  27  39
BRANCH  11  45
HETATM   45  C   UNK     0      -7.653  -6.946  26.892  0.00  0.00     0.051 C 
BRANCH  45  46
HETATM   46  C   UNK     0      -7.466  -7.106  25.427  0.00  0.00     0.114 C 
BRANCH  46  47
HETATM   47  C   UNK     0      -8.810  -7.364  24.836  0.00  0.00     0.139 C 
HETATM   48  O   UNK     0      -8.966  -8.377  24.139  0.00  0.00    -0.650 OA
BRANCH  47  49
HETATM   49  O   UNK     0      -9.852  -6.499  25.055  0.00  0.00    -0.776 OA
HETATM   50  H   UNK     0     -10.415  -6.117  24.286  0.00  0.00     0.167 HD
ENDBRANCH  47  49
ENDBRANCH  46  47
ENDBRANCH  45  46
ENDBRANCH  11  45
BRANCH  18  51
HETATM   51  C   UNK     0      -5.106 -13.081  24.740  0.00  0.00     0.051 C 
BRANCH  51  52
HETATM   52  C   UNK     0      -4.666 -12.214  23.570  0.00  0.00     0.114 C 
BRANCH  52  53
HETATM   53  C   UNK     0      -3.310 -12.564  23.105  0.00  0.00     0.139 C 
HETATM   54  O   UNK     0      -2.327 -11.928  23.518  0.00  0.00    -0.650 OA
BRANCH  53  55
HETATM   55  O   UNK     0      -3.142 -13.595  22.212  0.00  0.00    -0.776 OA
HETATM   56  H   UNK     0      -2.609 -14.418  22.364  0.00  0.00     0.167 HD
ENDBRANCH  53  55
ENDBRANCH  52  53
ENDBRANCH  51  52
ENDBRANCH  18  51
TORSDOF 16
ENDMDL
MODEL 18
REMARK VINA RESULT:      -8.6     35.128     38.574
REMARK  16 active torsions:
REMARK  status: ('A' for Active; 'I' for Inactive)
REMARK    1  A    between atoms: C_6  and  C_7 
REMARK    2  A    between atoms: C_7  and  C_8 
REMARK    3  A    between atoms: C_8  and  C_9 
REMARK    4  A    between atoms: C_9  and  O_11 
REMARK    5  A    between atoms: C_16  and  C_17 
REMARK    6  A    between atoms: C_17  and  C_18 
REMARK    7  A    between atoms: C_18  and  C_19 
REMARK    8  A    between atoms: C_19  and  O_21 
REMARK    9  A    between atoms: C_28  and  C_29 
REMARK   10  A    between atoms: C_29  and  C_30 
REMARK   11  A    between atoms: C_30  and  C_31 
REMARK   12  A    between atoms: C_31  and  O_33 
REMARK   13  A    between atoms: C_42  and  C_43 
REMARK   14  A    between atoms: C_43  and  C_44 
REMARK   15  A    between atoms: C_44  and  C_45 
REMARK   16  A    between atoms: C_45  and  O_47 
ROOT
HETATM    1  C   UNK     0      12.252 -18.397  -1.956  0.00  0.00     0.051 C 
HETATM    2  C   UNK     0      13.237 -17.717  -1.027  0.00  0.00    -0.031 A 
HETATM    3  C   UNK     0      13.767 -18.165   0.173  0.00  0.00     0.021 A 
HETATM    4  N   UNK     0      14.585 -17.211   0.677  0.00  0.00    -0.361 N 
HETATM    5  C   UNK     0      14.595 -16.169  -0.180  0.00  0.00     0.022 A 
HETATM    6  C   UNK     0      13.760 -16.451  -1.256  0.00  0.00    -0.027 A 
HETATM    7  C   UNK     0      15.403 -14.909  -0.139  0.00  0.00     0.115 C 
HETATM    8  C   UNK     0      16.865 -15.050   0.249  0.00  0.00     0.021 A 
HETATM    9  N   UNK     0      17.715 -16.047  -0.041  0.00  0.00    -0.361 N 
HETATM   10  C   UNK     0      18.883 -15.797   0.587  0.00  0.00     0.022 A 
HETATM   11  C   UNK     0      18.787 -14.602   1.293  0.00  0.00    -0.027 A 
HETATM   12  C   UNK     0      17.517 -14.126   1.084  0.00  0.00    -0.031 A 
HETATM   13  C   UNK     0      16.961 -12.841   1.657  0.00  0.00     0.051 C 
HETATM   14  C   UNK     0      20.115 -16.698   0.589  0.00  0.00     0.115 C 
HETATM   15  C   UNK     0      19.871 -18.073   1.191  0.00  0.00     0.021 A 
HETATM   16  N   UNK     0      18.978 -18.998   0.791  0.00  0.00    -0.361 N 
HETATM   17  C   UNK     0      19.026 -20.041   1.622  0.00  0.00     0.022 A 
HETATM   18  C   UNK     0      20.005 -19.789   2.604  0.00  0.00    -0.027 A 
HETATM   19  C   UNK     0      20.528 -18.554   2.322  0.00  0.00    -0.031 A 
HETATM   20  C   UNK     0      21.646 -17.908   3.120  0.00  0.00     0.051 C 
HETATM   21  C   UNK     0      18.186 -21.298   1.654  0.00  0.00     0.115 C 
HETATM   22  C   UNK     0      16.741 -21.181   1.228  0.00  0.00     0.022 A 
HETATM   23  N   UNK     0      15.873 -20.198   1.499  0.00  0.00    -0.361 N 
HETATM   24  C   UNK     0      14.742 -20.427   0.801  0.00  0.00     0.021 A 
HETATM   25  C   UNK     0      14.882 -21.592   0.071  0.00  0.00    -0.031 A 
HETATM   26  C   UNK     0      13.876 -22.280  -0.828  0.00  0.00     0.051 C 
HETATM   27  C   UNK     0      16.153 -22.093   0.328  0.00  0.00    -0.027 A 
HETATM   28  C   UNK     0      13.510 -19.544   0.711  0.00  0.00     0.115 C 
HETATM   29  H   UNK     0      15.120 -17.264   1.653  0.00  0.00     0.165 HD
HETATM   30  H   UNK     0      17.509 -16.903  -0.729  0.00  0.00     0.165 HD
HETATM   31  H   UNK     0      18.333 -18.934  -0.123  0.00  0.00     0.165 HD
HETATM   32  H   UNK     0      16.034 -19.354   2.219  0.00  0.00     0.165 HD
ENDROOT
BRANCH   6  33
HETATM   33  C   UNK     0      13.423 -15.619  -2.467  0.00  0.00     0.051 C 
BRANCH  33  34
HETATM   34  C   UNK     0      14.395 -15.892  -3.591  0.00  0.00     0.114 C 
BRANCH  34  35
HETATM   35  C   UNK     0      14.622 -14.604  -4.307  0.00  0.00     0.139 C 
HETATM   36  O   UNK     0      15.424 -13.745  -3.836  0.00  0.00    -0.650 OA
BRANCH  35  37
HETATM   37  O   UNK     0      13.984 -14.288  -5.500  0.00  0.00    -0.776 OA
HETATM   38  H   UNK     0      14.425 -14.424  -6.395  0.00  0.00     0.167 HD
ENDBRANCH  35  37
ENDBRANCH  34  35
ENDBRANCH  33  34
ENDBRANCH   6  33
BRANCH  27  39
HETATM   39  C   UNK     0      16.644 -23.383  -0.229  0.00  0.00     0.051 C 
BRANCH  39  40
HETATM   40  C   UNK     0      17.516 -23.345  -1.402  0.00  0.00     0.114 C 
BRANCH  40  41
HETATM   41  C   UNK     0      18.107 -24.539  -1.962  0.00  0.00     0.139 C 
HETATM   42  O   UNK     0      19.138 -24.535  -2.649  0.00  0.00    -0.650 OA
BRANCH  41  43
HETATM   43  O   UNK     0      17.485 -25.797  -1.721  0.00  0.00    -0.776 OA
HETATM   44  H   UNK     0      16.699 -25.999  -2.328  0.00  0.00     0.167 HD
ENDBRANCH  41  43
ENDBRANCH  40  41
ENDBRANCH  39  40
ENDBRANCH  27  39
BRANCH  11  45
HETATM   45  C   UNK     0      19.831 -13.917   2.132  0.00  0.00     0.051 C 
BRANCH  45  46
HETATM   46  C   UNK     0      20.793 -13.097   1.352  0.00  0.00     0.114 C 
BRANCH  46  47
HETATM   47  C   UNK     0      20.415 -11.668   1.546  0.00  0.00     0.139 C 
HETATM   48  O   UNK     0      19.994 -11.312   2.656  0.00  0.00    -0.650 OA
BRANCH  47  49
HETATM   49  O   UNK     0      20.530 -10.765   0.519  0.00  0.00    -0.776 OA
HETATM   50  H   UNK     0      20.716 -11.059  -0.447  0.00  0.00     0.167 HD
ENDBRANCH  47  49
ENDBRANCH  46  47
ENDBRANCH  45  46
ENDBRANCH  11  45
BRANCH  18  51
HETATM   51  C   UNK     0      20.433 -20.686   3.736  0.00  0.00     0.051 C 
BRANCH  51  52
HETATM   52  C   UNK     0      21.830 -21.178   3.386  0.00  0.00     0.114 C 
BRANCH  52  53
HETATM   53  C   UNK     0      22.693 -21.276   4.578  0.00  0.00     0.139 C 
HETATM   54  O   UNK     0      23.143 -22.378   4.930  0.00  0.00    -0.650 OA
BRANCH  53  55
HETATM   55  O   UNK     0      22.993 -20.143   5.295  0.00  0.00    -0.776 OA
HETATM   56  H   UNK     0      22.933 -20.044   6.281  0.00  0.00     0.167 HD
ENDBRANCH  53  55
ENDBRANCH  52  53
ENDBRANCH  51  52
ENDBRANCH  18  51
TORSDOF 16
ENDMDL
MODEL 19
REMARK VINA RESULT:      -8.5      3.545      9.827
REMARK  16 active torsions:
REMARK  status: ('A' for Active; 'I' for Inactive)
REMARK    1  A    between atoms: C_6  and  C_7 
REMARK    2  A    between atoms: C_7  and  C_8 
REMARK    3  A    between atoms: C_8  and  C_9 
REMARK    4  A    between atoms: C_9  and  O_11 
REMARK    5  A    between atoms: C_16  and  C_17 
REMARK    6  A    between atoms: C_17  and  C_18 
REMARK    7  A    between atoms: C_18  and  C_19 
REMARK    8  A    between atoms: C_19  and  O_21 
REMARK    9  A    between atoms: C_28  and  C_29 
REMARK   10  A    between atoms: C_29  and  C_30 
REMARK   11  A    between atoms: C_30  and  C_31 
REMARK   12  A    between atoms: C_31  and  O_33 
REMARK   13  A    between atoms: C_42  and  C_43 
REMARK   14  A    between atoms: C_43  and  C_44 
REMARK   15  A    between atoms: C_44  and  C_45 
REMARK   16  A    between atoms: C_45  and  O_47 
ROOT
HETATM    1  C   UNK     0      -5.123  -0.275  26.826  0.00  0.00     0.051 C 
HETATM    2  C   UNK     0      -5.231  -1.779  26.670  0.00  0.00    -0.031 A 
HETATM    3  C   UNK     0      -4.274  -2.692  26.257  0.00  0.00     0.021 A 
HETATM    4  N   UNK     0      -4.824  -3.929  26.238  0.00  0.00    -0.361 N 
HETATM    5  C   UNK     0      -6.108  -3.826  26.638  0.00  0.00     0.022 A 
HETATM    6  C   UNK     0      -6.397  -2.493  26.914  0.00  0.00    -0.027 A 
HETATM    7  C   UNK     0      -7.120  -4.902  26.879  0.00  0.00     0.115 C 
HETATM    8  C   UNK     0      -6.633  -6.146  27.601  0.00  0.00     0.021 A 
HETATM    9  N   UNK     0      -5.725  -6.240  28.584  0.00  0.00    -0.361 N 
HETATM   10  C   UNK     0      -5.537  -7.549  28.858  0.00  0.00     0.022 A 
HETATM   11  C   UNK     0      -6.354  -8.318  28.035  0.00  0.00    -0.027 A 
HETATM   12  C   UNK     0      -7.047  -7.441  27.240  0.00  0.00    -0.031 A 
HETATM   13  C   UNK     0      -8.062  -7.828  26.189  0.00  0.00     0.051 C 
HETATM   14  C   UNK     0      -4.546  -8.126  29.865  0.00  0.00     0.115 C 
HETATM   15  C   UNK     0      -3.095  -7.790  29.563  0.00  0.00     0.021 A 
HETATM   16  N   UNK     0      -2.541  -6.568  29.451  0.00  0.00    -0.361 N 
HETATM   17  C   UNK     0      -1.257  -6.698  29.109  0.00  0.00     0.022 A 
HETATM   18  C   UNK     0      -0.958  -8.071  29.001  0.00  0.00    -0.027 A 
HETATM   19  C   UNK     0      -2.117  -8.744  29.289  0.00  0.00    -0.031 A 
HETATM   20  C   UNK     0      -2.228 -10.257  29.323  0.00  0.00     0.051 C 
HETATM   21  C   UNK     0      -0.224  -5.641  28.793  0.00  0.00     0.115 C 
HETATM   22  C   UNK     0      -0.702  -4.379  28.114  0.00  0.00     0.022 A 
HETATM   23  N   UNK     0      -1.608  -4.255  27.135  0.00  0.00    -0.361 N 
HETATM   24  C   UNK     0      -1.836  -2.942  26.933  0.00  0.00     0.021 A 
HETATM   25  C   UNK     0      -1.050  -2.202  27.795  0.00  0.00    -0.031 A 
HETATM   26  C   UNK     0      -0.925  -0.697  27.918  0.00  0.00     0.051 C 
HETATM   27  C   UNK     0      -0.315  -3.099  28.561  0.00  0.00    -0.027 A 
HETATM   28  C   UNK     0      -2.846  -2.308  25.992  0.00  0.00     0.115 C 
HETATM   29  H   UNK     0      -4.312  -4.861  25.903  0.00  0.00     0.165 HD
HETATM   30  H   UNK     0      -5.251  -5.383  29.122  0.00  0.00     0.165 HD
HETATM   31  H   UNK     0      -3.053  -5.594  29.665  0.00  0.00     0.165 HD
HETATM   32  H   UNK     0      -2.063  -5.094  26.547  0.00  0.00     0.165 HD
ENDROOT
BRANCH   6  33
HETATM   33  C   UNK     0      -7.680  -1.856  27.383  0.00  0.00     0.051 C 
BRANCH  33  34
HETATM   34  C   UNK     0      -8.517  -1.410  26.208  0.00  0.00     0.114 C 
BRANCH  34  35
HETATM   35  C   UNK     0      -9.763  -2.229  26.210  0.00  0.00     0.139 C 
HETATM   36  O   UNK     0     -10.749  -1.887  26.926  0.00  0.00    -0.650 OA
BRANCH  35  37
HETATM   37  O   UNK     0      -9.905  -3.379  25.443  0.00  0.00    -0.776 OA
HETATM   38  H   UNK     0      -9.314  -3.569  24.650  0.00  0.00     0.167 HD
ENDBRANCH  35  37
ENDBRANCH  34  35
ENDBRANCH  33  34
ENDBRANCH   6  33
BRANCH  27  39
HETATM   39  C   UNK     0       0.702  -2.671  29.560  0.00  0.00     0.051 C 
BRANCH  39  40
HETATM   40  C   UNK     0       0.255  -2.365  30.918  0.00  0.00     0.114 C 
BRANCH  40  41
HETATM   41  C   UNK     0       0.682  -1.175  31.620  0.00  0.00     0.139 C 
HETATM   42  O   UNK     0       1.288  -0.241  31.077  0.00  0.00    -0.650 OA
BRANCH  41  43
HETATM   43  O   UNK     0       0.398  -1.054  33.010  0.00  0.00    -0.776 OA
HETATM   44  H   UNK     0      -0.487  -0.608  33.220  0.00  0.00     0.167 HD
ENDBRANCH  41  43
ENDBRANCH  40  41
ENDBRANCH  39  40
ENDBRANCH  27  39
BRANCH  11  45
HETATM   45  C   UNK     0      -6.495  -9.816  27.982  0.00  0.00     0.051 C 
BRANCH  45  46
HETATM   46  C   UNK     0      -5.261 -10.526  27.559  0.00  0.00     0.114 C 
BRANCH  46  47
HETATM   47  C   UNK     0      -5.686 -11.798  26.908  0.00  0.00     0.139 C 
HETATM   48  O   UNK     0      -5.519 -11.923  25.686  0.00  0.00    -0.650 OA
BRANCH  47  49
HETATM   49  O   UNK     0      -6.251 -12.810  27.642  0.00  0.00    -0.776 OA
HETATM   50  H   UNK     0      -6.319 -13.771  27.286  0.00  0.00     0.167 HD
ENDBRANCH  47  49
ENDBRANCH  46  47
ENDBRANCH  45  46
ENDBRANCH  11  45
BRANCH  18  51
HETATM   51  C   UNK     0       0.365  -8.707  28.663  0.00  0.00     0.051 C 
BRANCH  51  52
HETATM   52  C   UNK     0       0.200  -9.327  27.284  0.00  0.00     0.114 C 
BRANCH  52  53
HETATM   53  C   UNK     0       0.881 -10.633  27.183  0.00  0.00     0.139 C 
HETATM   54  O   UNK     0       0.450 -11.500  26.407  0.00  0.00    -0.650 OA
BRANCH  53  55
HETATM   55  O   UNK     0       1.990 -10.882  27.955  0.00  0.00    -0.776 OA
HETATM   56  H   UNK     0       2.912 -10.559  27.774  0.00  0.00     0.167 HD
ENDBRANCH  53  55
ENDBRANCH  52  53
ENDBRANCH  51  52
ENDBRANCH  18  51
TORSDOF 16
ENDMDL
MODEL 20
REMARK VINA RESULT:      -8.5      3.636      8.728
REMARK  16 active torsions:
REMARK  status: ('A' for Active; 'I' for Inactive)
REMARK    1  A    between atoms: C_6  and  C_7 
REMARK    2  A    between atoms: C_7  and  C_8 
REMARK    3  A    between atoms: C_8  and  C_9 
REMARK    4  A    between atoms: C_9  and  O_11 
REMARK    5  A    between atoms: C_16  and  C_17 
REMARK    6  A    between atoms: C_17  and  C_18 
REMARK    7  A    between atoms: C_18  and  C_19 
REMARK    8  A    between atoms: C_19  and  O_21 
REMARK    9  A    between atoms: C_28  and  C_29 
REMARK   10  A    between atoms: C_29  and  C_30 
REMARK   11  A    between atoms: C_30  and  C_31 
REMARK   12  A    between atoms: C_31  and  O_33 
REMARK   13  A    between atoms: C_42  and  C_43 
REMARK   14  A    between atoms: C_43  and  C_44 
REMARK   15  A    between atoms: C_44  and  C_45 
REMARK   16  A    between atoms: C_45  and  O_47 
ROOT
HETATM    1  C   UNK     0       2.031 -10.481  28.472  0.00  0.00     0.051 C 
HETATM    2  C   UNK     0       1.014  -9.390  28.739  0.00  0.00    -0.031 A 
HETATM    3  C   UNK     0       1.126  -8.257  29.529  0.00  0.00     0.021 A 
HETATM    4  N   UNK     0      -0.046  -7.579  29.498  0.00  0.00    -0.361 N 
HETATM    5  C   UNK     0      -0.900  -8.251  28.698  0.00  0.00     0.022 A 
HETATM    6  C   UNK     0      -0.270  -9.390  28.209  0.00  0.00    -0.027 A 
HETATM    7  C   UNK     0      -2.282  -7.882  28.258  0.00  0.00     0.115 C 
HETATM    8  C   UNK     0      -2.507  -6.433  27.862  0.00  0.00     0.021 A 
HETATM    9  N   UNK     0      -1.664  -5.596  27.238  0.00  0.00    -0.361 N 
HETATM   10  C   UNK     0      -2.249  -4.381  27.175  0.00  0.00     0.022 A 
HETATM   11  C   UNK     0      -3.507  -4.440  27.767  0.00  0.00    -0.027 A 
HETATM   12  C   UNK     0      -3.676  -5.729  28.202  0.00  0.00    -0.031 A 
HETATM   13  C   UNK     0      -4.905  -6.260  28.906  0.00  0.00     0.051 C 
HETATM   14  C   UNK     0      -1.627  -3.110  26.604  0.00  0.00     0.115 C 
HETATM   15  C   UNK     0      -0.360  -2.669  27.320  0.00  0.00     0.021 A 
HETATM   16  N   UNK     0       0.780  -3.368  27.477  0.00  0.00    -0.361 N 
HETATM   17  C   UNK     0       1.628  -2.659  28.225  0.00  0.00     0.022 A 
HETATM   18  C   UNK     0       1.016  -1.436  28.564  0.00  0.00    -0.027 A 
HETATM   19  C   UNK     0      -0.229  -1.454  27.990  0.00  0.00    -0.031 A 
HETATM   20  C   UNK     0      -1.216  -0.305  28.078  0.00  0.00     0.051 C 
HETATM   21  C   UNK     0       3.001  -3.022  28.745  0.00  0.00     0.115 C 
HETATM   22  C   UNK     0       3.252  -4.468  29.101  0.00  0.00     0.022 A 
HETATM   23  N   UNK     0       2.430  -5.326  29.719  0.00  0.00    -0.361 N 
HETATM   24  C   UNK     0       3.001  -6.547  29.701  0.00  0.00     0.021 A 
HETATM   25  C   UNK     0       4.225  -6.472  29.065  0.00  0.00    -0.031 A 
HETATM   26  C   UNK     0       5.248  -7.565  28.835  0.00  0.00     0.051 C 
HETATM   27  C   UNK     0       4.408  -5.151  28.673  0.00  0.00    -0.027 A 
HETATM   28  C   UNK     0       2.411  -7.856  30.198  0.00  0.00     0.115 C 
HETATM   29  H   UNK     0      -0.275  -6.652  30.073  0.00  0.00     0.165 HD
HETATM   30  H   UNK     0      -0.675  -5.872  26.795  0.00  0.00     0.165 HD
HETATM   31  H   UNK     0       1.009  -4.361  27.011  0.00  0.00     0.165 HD
HETATM   32  H   UNK     0       1.457  -5.068  30.213  0.00  0.00     0.165 HD
ENDROOT
BRANCH   6  33
HETATM   33  C   UNK     0      -0.789 -10.467  27.290  0.00  0.00     0.051 C 
BRANCH  33  34
HETATM   34  C   UNK     0      -1.676 -11.431  28.042  0.00  0.00     0.114 C 
BRANCH  34  35
HETATM   35  C   UNK     0      -2.924 -11.604  27.245  0.00  0.00     0.139 C 
HETATM   36  O   UNK     0      -2.862 -11.780  25.993  0.00  0.00    -0.650 OA
BRANCH  35  37
HETATM   37  O   UNK     0      -4.189 -11.586  27.820  0.00  0.00    -0.776 OA
HETATM   38  H   UNK     0      -4.954 -12.125  27.448  0.00  0.00     0.167 HD
ENDBRANCH  35  37
ENDBRANCH  34  35
ENDBRANCH  33  34
ENDBRANCH   6  33
BRANCH  27  39
HETATM   39  C   UNK     0       5.652  -4.666  28.015  0.00  0.00     0.051 C 
BRANCH  39  40
HETATM   40  C   UNK     0       6.780  -4.282  28.863  0.00  0.00     0.114 C 
BRANCH  40  41
HETATM   41  C   UNK     0       7.804  -3.365  28.414  0.00  0.00     0.139 C 
HETATM   42  O   UNK     0       8.031  -2.275  28.956  0.00  0.00    -0.650 OA
BRANCH  41  43
HETATM   43  O   UNK     0       8.603  -3.718  27.289  0.00  0.00    -0.776 OA
HETATM   44  H   UNK     0       8.812  -2.948  26.665  0.00  0.00     0.167 HD
ENDBRANCH  41  43
ENDBRANCH  40  41
ENDBRANCH  39  40
ENDBRANCH  27  39
BRANCH  11  45
HETATM   45  C   UNK     0      -4.525  -3.342  27.925  0.00  0.00     0.051 C 
BRANCH  45  46
HETATM   46  C   UNK     0      -5.749  -3.528  27.104  0.00  0.00     0.114 C 
BRANCH  46  47
HETATM   47  C   UNK     0      -5.307  -3.767  25.700  0.00  0.00     0.139 C 
HETATM   48  O   UNK     0      -4.920  -2.800  25.028  0.00  0.00    -0.650 OA
BRANCH  47  49
HETATM   49  O   UNK     0      -5.329  -5.028  25.162  0.00  0.00    -0.776 OA
HETATM   50  H   UNK     0      -6.197  -5.465  24.830  0.00  0.00     0.167 HD
ENDBRANCH  47  49
ENDBRANCH  46  47
ENDBRANCH  45  46
ENDBRANCH  11  45
BRANCH  18  51
HETATM   51  C   UNK     0       1.593  -0.303  29.372  0.00  0.00     0.051 C 
BRANCH  51  52
HETATM   52  C   UNK     0       1.667  -0.800  30.808  0.00  0.00     0.114 C 
BRANCH  52  53
HETATM   53  C   UNK     0       0.523  -0.327  31.613  0.00  0.00     0.139 C 
HETATM   54  O   UNK     0      -0.178   0.612  31.204  0.00  0.00    -0.650 OA
BRANCH  53  55
HETATM   55  O   UNK     0       0.243  -0.930  32.815  0.00  0.00    -0.776 OA
HETATM   56  H   UNK     0       0.039  -0.465  33.668  0.00  0.00     0.167 HD
ENDBRANCH  53  55
ENDBRANCH  52  53
ENDBRANCH  51  52
ENDBRANCH  18  51
TORSDOF 16
ENDMDL
