MODEL 1
REMARK VINA RESULT:     -10.4      0.000      0.000
REMARK  28 active torsions:
REMARK  status: ('A' for Active; 'I' for Inactive)
REMARK    1  A    between atoms: C_2  and  O_3 
REMARK    2  A    between atoms: C_2  and  C_4 
REMARK    3  A    between atoms: C_4  and  C_5 
REMARK    4  A    between atoms: C_5  and  C_6 
REMARK    5  A    between atoms: C_7  and  C_8 
REMARK    6  A    between atoms: C_8  and  C_9 
REMARK    7  A    between atoms: C_9  and  O_11 
REMARK    8  A    between atoms: C_28  and  C_29 
REMARK    9  A    between atoms: C_29  and  C_30 
REMARK   10  A    between atoms: C_30  and  O_32 
REMARK   11  A    between atoms: C_33  and  C_34 
REMARK   12  A    between atoms: C_34  and  C_35 
REMARK   13  A    between atoms: C_35  and  C_36 
REMARK   14  A    between atoms: C_36  and  O_38 
REMARK   15  A    between atoms: C_39  and  C_40 
REMARK   16  A    between atoms: C_40  and  C_41 
REMARK   17  A    between atoms: C_41  and  C_42 
REMARK   18  A    between atoms: C_42  and  O_44 
REMARK   19  A    between atoms: C_45  and  C_46 
REMARK   20  A    between atoms: C_46  and  C_47 
REMARK   21  A    between atoms: C_47  and  O_49 
REMARK   22  A    between atoms: C_50  and  C_51 
REMARK   23  A    between atoms: C_51  and  C_52 
REMARK   24  A    between atoms: C_52  and  O_54 
REMARK   25  A    between atoms: C_55  and  C_56 
REMARK   26  A    between atoms: C_56  and  C_57 
REMARK   27  A    between atoms: C_57  and  C_58 
REMARK   28  A    between atoms: C_58  and  O_60 
ROOT
ATOM      1  O   UNK d   0       1.465  -2.464  31.734  0.00  0.00    -0.650 OA
ATOM      2  C   UNK d   0       1.035  -1.307  31.943  0.00  0.00     0.139 C 
ENDROOT
BRANCH   2   3
ATOM      3  O   UNK d   0       0.330  -1.048  33.093  0.00  0.00    -0.776 OA
ATOM      4  H   UNK d   0      -0.559  -0.545  33.065  0.00  0.00     0.167 HD
ENDBRANCH   2   3
BRANCH   2   5
ATOM      5  C   UNK d   0       1.288  -0.225  30.950  0.00  0.00     0.115 C 
BRANCH   5   6
ATOM      6  C   UNK d   0       1.235  -0.781  29.553  0.00  0.00     0.052 C 
BRANCH   6   7
ATOM      7  C   UNK d   0      -0.167  -0.808  28.991  0.00  0.00    -0.020 A 
ATOM      8  C   UNK d   0      -0.831   0.185  28.456  0.00  0.00    -0.011 A 
ATOM      9  C   UNK d   0      -2.140  -0.314  28.068  0.00  0.00     0.067 A 
ATOM     10  C   UNK d   0      -3.281   0.214  27.445  0.00  0.00     0.062 C 
ATOM     11  N   UNK d   0      -2.188  -1.619  28.409  0.00  0.00    -0.248 NA
ATOM     12  C   UNK d   0      -4.354  -0.497  26.898  0.00  0.00     0.041 A 
ATOM     13  N   UNK d   0      -5.032  -1.568  27.354  0.00  0.00    -0.355 N 
ATOM     14  C   UNK d   0      -4.839  -0.130  25.630  0.00  0.00    -0.022 A 
ATOM     15  C   UNK d   0      -5.928  -1.895  26.404  0.00  0.00     0.042 A 
ATOM     16  H   UNK d   0      -4.892  -2.071  28.336  0.00  0.00     0.166 HD
ATOM     17  C   UNK d   0      -6.885  -2.929  26.368  0.00  0.00     0.062 C 
ATOM     18  C   UNK d   0      -5.837  -1.016  25.307  0.00  0.00    -0.013 A 
ATOM     19  C   UNK d   0      -6.742  -4.248  26.712  0.00  0.00     0.067 A 
ATOM     20  N   UNK d   0      -5.621  -4.588  27.354  0.00  0.00    -0.248 NA
ATOM     21  C   UNK d   0      -7.525  -5.462  26.547  0.00  0.00    -0.011 A 
ATOM     22  C   UNK d   0      -5.613  -5.936  27.618  0.00  0.00     0.066 A 
ATOM     23  C   UNK d   0      -4.518  -6.420  28.318  0.00  0.00     0.062 C 
ATOM     24  C   UNK d   0      -6.857  -6.446  27.075  0.00  0.00    -0.020 A 
ATOM     25  C   UNK d   0      -3.456  -5.687  28.869  0.00  0.00     0.041 A 
ATOM     26  N   UNK d   0      -2.773  -4.631  28.410  0.00  0.00    -0.355 N 
ATOM     27  C   UNK d   0      -2.974  -6.053  30.145  0.00  0.00    -0.022 A 
ATOM     28  C   UNK d   0      -1.873  -4.309  29.352  0.00  0.00     0.042 A 
ATOM     29  H   UNK d   0      -2.907  -4.134  27.418  0.00  0.00     0.166 HD
ATOM     30  C   UNK d   0      -0.909  -3.290  29.397  0.00  0.00     0.062 C 
ATOM     31  C   UNK d   0      -1.972  -5.186  30.458  0.00  0.00    -0.013 A 
ATOM     32  C   UNK d   0      -1.032  -1.978  28.968  0.00  0.00     0.066 A 
BRANCH   8  33
ATOM     33  C   UNK d   0      -0.359   1.570  28.275  0.00  0.00     0.151 C 
BRANCH  33  34
ATOM     34  C   UNK d   0      -1.180   2.552  29.006  0.00  0.00     0.143 C 
ATOM     35  O   UNK d   0      -1.880   3.374  28.398  0.00  0.00    -0.650 OA
BRANCH  34  36
ATOM     36  O   UNK d   0      -1.164   2.555  30.382  0.00  0.00    -0.776 OA
ATOM     37  H   UNK d   0      -1.105   3.434  30.913  0.00  0.00     0.167 HD
ENDBRANCH  34  36
ENDBRANCH  33  34
ENDBRANCH   8  33
BRANCH  31  38
ATOM     38  C   UNK d   0      -1.166  -5.180  31.736  0.00  0.00     0.151 C 
BRANCH  38  39
ATOM     39  C   UNK d   0      -1.798  -4.424  32.796  0.00  0.00     0.143 C 
ATOM     40  O   UNK d   0      -2.902  -4.742  33.272  0.00  0.00    -0.650 OA
BRANCH  39  41
ATOM     41  O   UNK d   0      -1.157  -3.298  33.312  0.00  0.00    -0.776 OA
ATOM     42  H   UNK d   0      -1.385  -3.039  34.277  0.00  0.00     0.167 HD
ENDBRANCH  39  41
ENDBRANCH  38  39
ENDBRANCH  31  38
BRANCH  27  43
ATOM     43  C   UNK d   0      -3.419  -7.172  31.053  0.00  0.00     0.052 C 
BRANCH  43  44
ATOM     44  C   UNK d   0      -2.465  -8.323  31.083  0.00  0.00     0.115 C 
BRANCH  44  45
ATOM     45  C   UNK d   0      -2.236  -8.645  32.516  0.00  0.00     0.139 C 
ATOM     46  O   UNK d   0      -1.778  -9.780  32.801  0.00  0.00    -0.650 OA
BRANCH  45  47
ATOM     47  O   UNK d   0      -2.497  -7.754  33.534  0.00  0.00    -0.776 OA
ATOM     48  H   UNK d   0      -3.280  -7.874  34.196  0.00  0.00     0.167 HD
ENDBRANCH  45  47
ENDBRANCH  44  45
ENDBRANCH  43  44
ENDBRANCH  27  43
BRANCH  24  49
ATOM     49  C   UNK d   0      -7.300  -7.848  27.162  0.00  0.00     0.052 C 
BRANCH  49  50
ATOM     50  C   UNK d   0      -6.293  -8.670  27.927  0.00  0.00     0.115 C 
BRANCH  50  51
ATOM     51  C   UNK d   0      -6.285 -10.106  27.683  0.00  0.00     0.139 C 
ATOM     52  O   UNK d   0      -5.246 -10.802  27.777  0.00  0.00    -0.650 OA
BRANCH  51  53
ATOM     53  O   UNK d   0      -7.461 -10.749  27.329  0.00  0.00    -0.776 OA
ATOM     54  H   UNK d   0      -8.213 -10.765  27.995  0.00  0.00     0.167 HD
ENDBRANCH  51  53
ENDBRANCH  50  51
ENDBRANCH  49  50
ENDBRANCH  24  49
BRANCH  21  55
ATOM     55  C   UNK d   0      -8.861  -5.510  25.882  0.00  0.00     0.151 C 
BRANCH  55  56
ATOM     56  C   UNK d   0      -9.958  -5.272  26.831  0.00  0.00     0.143 C 
ATOM     57  O   UNK d   0     -10.619  -6.196  27.344  0.00  0.00    -0.650 OA
BRANCH  56  58
ATOM     58  O   UNK d   0     -10.258  -3.951  27.160  0.00  0.00    -0.776 OA
ATOM     59  H   UNK d   0     -11.241  -3.783  27.441  0.00  0.00     0.167 HD
ENDBRANCH  56  58
ENDBRANCH  55  56
ENDBRANCH  21  55
BRANCH  18  60
ATOM     60  C   UNK d   0      -6.629  -0.996  24.023  0.00  0.00     0.151 C 
BRANCH  60  61
ATOM     61  C   UNK d   0      -7.983  -0.555  24.391  0.00  0.00     0.143 C 
ATOM     62  O   UNK d   0      -8.286   0.444  25.045  0.00  0.00    -0.650 OA
BRANCH  61  63
ATOM     63  O   UNK d   0      -9.033  -1.386  23.932  0.00  0.00    -0.776 OA
ATOM     64  H   UNK d   0      -8.928  -2.385  23.901  0.00  0.00     0.167 HD
ENDBRANCH  61  63
ENDBRANCH  60  61
ENDBRANCH  18  60
BRANCH  14  65
ATOM     65  C   UNK d   0      -4.501   1.041  24.752  0.00  0.00     0.052 C 
BRANCH  65  66
ATOM     66  C   UNK d   0      -5.409   2.202  24.956  0.00  0.00     0.115 C 
BRANCH  66  67
ATOM     67  C   UNK d   0      -4.968   3.323  25.736  0.00  0.00     0.139 C 
ATOM     68  O   UNK d   0      -5.807   4.264  25.988  0.00  0.00    -0.650 OA
BRANCH  67  69
ATOM     69  O   UNK d   0      -3.701   3.539  26.278  0.00  0.00    -0.776 OA
ATOM     70  H   UNK d   0      -2.928   3.030  25.827  0.00  0.00     0.167 HD
ENDBRANCH  67  69
ENDBRANCH  66  67
ENDBRANCH  65  66
ENDBRANCH  14  65
ENDBRANCH   6   7
ENDBRANCH   5   6
ENDBRANCH   2   5
TORSDOF 28
ENDMDL
MODEL 2
REMARK VINA RESULT:     -10.2      1.745      7.697
REMARK  28 active torsions:
REMARK  status: ('A' for Active; 'I' for Inactive)
REMARK    1  A    between atoms: C_2  and  O_3 
REMARK    2  A    between atoms: C_2  and  C_4 
REMARK    3  A    between atoms: C_4  and  C_5 
REMARK    4  A    between atoms: C_5  and  C_6 
REMARK    5  A    between atoms: C_7  and  C_8 
REMARK    6  A    between atoms: C_8  and  C_9 
REMARK    7  A    between atoms: C_9  and  O_11 
REMARK    8  A    between atoms: C_28  and  C_29 
REMARK    9  A    between atoms: C_29  and  C_30 
REMARK   10  A    between atoms: C_30  and  O_32 
REMARK   11  A    between atoms: C_33  and  C_34 
REMARK   12  A    between atoms: C_34  and  C_35 
REMARK   13  A    between atoms: C_35  and  C_36 
REMARK   14  A    between atoms: C_36  and  O_38 
REMARK   15  A    between atoms: C_39  and  C_40 
REMARK   16  A    between atoms: C_40  and  C_41 
REMARK   17  A    between atoms: C_41  and  C_42 
REMARK   18  A    between atoms: C_42  and  O_44 
REMARK   19  A    between atoms: C_45  and  C_46 
REMARK   20  A    between atoms: C_46  and  C_47 
REMARK   21  A    between atoms: C_47  and  O_49 
REMARK   22  A    between atoms: C_50  and  C_51 
REMARK   23  A    between atoms: C_51  and  C_52 
REMARK   24  A    between atoms: C_52  and  O_54 
REMARK   25  A    between atoms: C_55  and  C_56 
REMARK   26  A    between atoms: C_56  and  C_57 
REMARK   27  A    between atoms: C_57  and  C_58 
REMARK   28  A    between atoms: C_58  and  O_60 
ROOT
ATOM      1  O   UNK d   0       2.472   2.172  28.657  0.00  0.00    -0.650 OA
ATOM      2  C   UNK d   0       1.269   1.961  28.383  0.00  0.00     0.139 C 
ENDROOT
BRANCH   2   3
ATOM      3  O   UNK d   0       0.393   3.018  28.341  0.00  0.00    -0.776 OA
ATOM      4  H   UNK d   0       0.646   3.929  28.729  0.00  0.00     0.167 HD
ENDBRANCH   2   3
BRANCH   2   5
ATOM      5  C   UNK d   0       0.797   0.575  28.106  0.00  0.00     0.115 C 
BRANCH   5   6
ATOM      6  C   UNK d   0       0.167  -0.013  29.340  0.00  0.00     0.052 C 
BRANCH   6   7
ATOM      7  C   UNK d   0      -0.663  -1.239  29.041  0.00  0.00    -0.020 A 
ATOM      8  C   UNK d   0      -0.335  -2.491  29.234  0.00  0.00    -0.011 A 
ATOM      9  C   UNK d   0      -1.447  -3.315  28.788  0.00  0.00     0.067 A 
ATOM     10  C   UNK d   0      -1.735  -4.688  28.743  0.00  0.00     0.062 C 
ATOM     11  N   UNK d   0      -2.406  -2.482  28.334  0.00  0.00    -0.248 NA
ATOM     12  C   UNK d   0      -2.982  -5.286  28.534  0.00  0.00     0.041 A 
ATOM     13  N   UNK d   0      -3.971  -4.994  27.667  0.00  0.00    -0.355 N 
ATOM     14  C   UNK d   0      -3.375  -6.350  29.365  0.00  0.00    -0.022 A 
ATOM     15  C   UNK d   0      -4.984  -5.840  27.933  0.00  0.00     0.042 A 
ATOM     16  H   UNK d   0      -3.946  -4.217  26.871  0.00  0.00     0.166 HD
ATOM     17  C   UNK d   0      -6.249  -5.969  27.327  0.00  0.00     0.062 C 
ATOM     18  C   UNK d   0      -4.647  -6.706  28.991  0.00  0.00    -0.013 A 
ATOM     19  C   UNK d   0      -7.139  -4.987  26.971  0.00  0.00     0.067 A 
ATOM     20  N   UNK d   0      -6.697  -3.727  27.011  0.00  0.00    -0.248 NA
ATOM     21  C   UNK d   0      -8.528  -4.940  26.548  0.00  0.00    -0.011 A 
ATOM     22  C   UNK d   0      -7.697  -2.860  26.646  0.00  0.00     0.066 A 
ATOM     23  C   UNK d   0      -7.363  -1.514  26.607  0.00  0.00     0.062 C 
ATOM     24  C   UNK d   0      -8.850  -3.692  26.363  0.00  0.00    -0.020 A 
ATOM     25  C   UNK d   0      -6.100  -0.936  26.808  0.00  0.00     0.041 A 
ATOM     26  N   UNK d   0      -5.124  -1.216  27.679  0.00  0.00    -0.355 N 
ATOM     27  C   UNK d   0      -5.705   0.130  25.970  0.00  0.00    -0.022 A 
ATOM     28  C   UNK d   0      -4.116  -0.368  27.422  0.00  0.00     0.042 A 
ATOM     29  H   UNK d   0      -5.155  -1.989  28.486  0.00  0.00     0.166 HD
ATOM     30  C   UNK d   0      -2.855  -0.223  28.023  0.00  0.00     0.062 C 
ATOM     31  C   UNK d   0      -4.450   0.495  26.352  0.00  0.00    -0.013 A 
ATOM     32  C   UNK d   0      -1.996  -1.219  28.459  0.00  0.00     0.066 A 
BRANCH   8  33
ATOM     33  C   UNK d   0       0.930  -2.999  29.795  0.00  0.00     0.151 C 
BRANCH  33  34
ATOM     34  C   UNK d   0       0.838  -3.292  31.237  0.00  0.00     0.143 C 
ATOM     35  O   UNK d   0       1.680  -4.010  31.795  0.00  0.00    -0.650 OA
BRANCH  34  36
ATOM     36  O   UNK d   0      -0.200  -2.763  31.969  0.00  0.00    -0.776 OA
ATOM     37  H   UNK d   0      -0.574  -1.826  31.764  0.00  0.00     0.167 HD
ENDBRANCH  34  36
ENDBRANCH  33  34
ENDBRANCH   8  33
BRANCH  31  38
ATOM     38  C   UNK d   0      -3.612   1.587  25.730  0.00  0.00     0.151 C 
BRANCH  38  39
ATOM     39  C   UNK d   0      -3.653   2.824  26.482  0.00  0.00     0.143 C 
ATOM     40  O   UNK d   0      -4.533   3.684  26.301  0.00  0.00    -0.650 OA
BRANCH  39  41
ATOM     41  O   UNK d   0      -2.679   3.072  27.448  0.00  0.00    -0.776 OA
ATOM     42  H   UNK d   0      -2.254   4.005  27.446  0.00  0.00     0.167 HD
ENDBRANCH  39  41
ENDBRANCH  38  39
ENDBRANCH  31  38
BRANCH  27  43
ATOM     43  C   UNK d   0      -6.460   0.798  24.849  0.00  0.00     0.052 C 
BRANCH  43  44
ATOM     44  C   UNK d   0      -7.625   1.607  25.321  0.00  0.00     0.115 C 
BRANCH  44  45
ATOM     45  C   UNK d   0      -7.410   2.991  24.823  0.00  0.00     0.139 C 
ATOM     46  O   UNK d   0      -8.195   3.889  25.215  0.00  0.00    -0.650 OA
BRANCH  45  47
ATOM     47  O   UNK d   0      -6.388   3.325  23.962  0.00  0.00    -0.776 OA
ATOM     48  H   UNK d   0      -5.496   2.805  23.922  0.00  0.00     0.167 HD
ENDBRANCH  45  47
ENDBRANCH  44  45
ENDBRANCH  43  44
ENDBRANCH  27  43
BRANCH  24  49
ATOM     49  C   UNK d   0     -10.154  -3.192  25.894  0.00  0.00     0.052 C 
BRANCH  49  50
ATOM     50  C   UNK d   0     -10.928  -2.591  27.039  0.00  0.00     0.115 C 
BRANCH  50  51
ATOM     51  C   UNK d   0     -11.778  -3.488  27.810  0.00  0.00     0.139 C 
ATOM     52  O   UNK d   0     -12.213  -4.570  27.350  0.00  0.00    -0.650 OA
BRANCH  51  53
ATOM     53  O   UNK d   0     -12.134  -3.150  29.107  0.00  0.00    -0.776 OA
ATOM     54  H   UNK d   0     -11.930  -2.220  29.429  0.00  0.00     0.167 HD
ENDBRANCH  51  53
ENDBRANCH  50  51
ENDBRANCH  49  50
ENDBRANCH  24  49
BRANCH  21  55
ATOM     55  C   UNK d   0      -9.388  -6.147  26.368  0.00  0.00     0.151 C 
BRANCH  55  56
ATOM     56  C   UNK d   0      -9.324  -6.670  24.994  0.00  0.00     0.143 C 
ATOM     57  O   UNK d   0      -8.396  -7.397  24.591  0.00  0.00    -0.650 OA
BRANCH  56  58
ATOM     58  O   UNK d   0     -10.355  -6.326  24.121  0.00  0.00    -0.776 OA
ATOM     59  H   UNK d   0     -10.216  -6.632  23.141  0.00  0.00     0.167 HD
ENDBRANCH  56  58
ENDBRANCH  55  56
ENDBRANCH  21  55
BRANCH  18  60
ATOM     60  C   UNK d   0      -5.460  -7.805  29.629  0.00  0.00     0.151 C 
BRANCH  60  61
ATOM     61  C   UNK d   0      -5.456  -8.919  28.670  0.00  0.00     0.143 C 
ATOM     62  O   UNK d   0      -6.415  -9.352  28.030  0.00  0.00    -0.650 OA
BRANCH  61  63
ATOM     63  O   UNK d   0      -4.200  -9.545  28.479  0.00  0.00    -0.776 OA
ATOM     64  H   UNK d   0      -3.561  -9.220  27.776  0.00  0.00     0.167 HD
ENDBRANCH  61  63
ENDBRANCH  60  61
ENDBRANCH  18  60
BRANCH  14  65
ATOM     65  C   UNK d   0      -2.610  -7.114  30.409  0.00  0.00     0.052 C 
BRANCH  65  66
ATOM     66  C   UNK d   0      -2.910  -6.663  31.795  0.00  0.00     0.115 C 
BRANCH  66  67
ATOM     67  C   UNK d   0      -2.304  -5.463  32.299  0.00  0.00     0.139 C 
ATOM     68  O   UNK d   0      -1.197  -5.560  32.947  0.00  0.00    -0.650 OA
BRANCH  67  69
ATOM     69  O   UNK d   0      -2.772  -4.155  32.179  0.00  0.00    -0.776 OA
ATOM     70  H   UNK d   0      -3.343  -3.959  31.344  0.00  0.00     0.167 HD
ENDBRANCH  67  69
ENDBRANCH  66  67
ENDBRANCH  65  66
ENDBRANCH  14  65
ENDBRANCH   6   7
ENDBRANCH   5   6
ENDBRANCH   2   5
TORSDOF 28
ENDMDL
MODEL 3
REMARK VINA RESULT:      -9.9      1.629      9.440
REMARK  28 active torsions:
REMARK  status: ('A' for Active; 'I' for Inactive)
REMARK    1  A    between atoms: C_2  and  O_3 
REMARK    2  A    between atoms: C_2  and  C_4 
REMARK    3  A    between atoms: C_4  and  C_5 
REMARK    4  A    between atoms: C_5  and  C_6 
REMARK    5  A    between atoms: C_7  and  C_8 
REMARK    6  A    between atoms: C_8  and  C_9 
REMARK    7  A    between atoms: C_9  and  O_11 
REMARK    8  A    between atoms: C_28  and  C_29 
REMARK    9  A    between atoms: C_29  and  C_30 
REMARK   10  A    between atoms: C_30  and  O_32 
REMARK   11  A    between atoms: C_33  and  C_34 
REMARK   12  A    between atoms: C_34  and  C_35 
REMARK   13  A    between atoms: C_35  and  C_36 
REMARK   14  A    between atoms: C_36  and  O_38 
REMARK   15  A    between atoms: C_39  and  C_40 
REMARK   16  A    between atoms: C_40  and  C_41 
REMARK   17  A    between atoms: C_41  and  C_42 
REMARK   18  A    between atoms: C_42  and  O_44 
REMARK   19  A    between atoms: C_45  and  C_46 
REMARK   20  A    between atoms: C_46  and  C_47 
REMARK   21  A    between atoms: C_47  and  O_49 
REMARK   22  A    between atoms: C_50  and  C_51 
REMARK   23  A    between atoms: C_51  and  C_52 
REMARK   24  A    between atoms: C_52  and  O_54 
REMARK   25  A    between atoms: C_55  and  C_56 
REMARK   26  A    between atoms: C_56  and  C_57 
REMARK   27  A    between atoms: C_57  and  C_58 
REMARK   28  A    between atoms: C_58  and  O_60 
ROOT
ATOM      1  O   UNK d   0      -7.395 -10.695  26.919  0.00  0.00    -0.650 OA
ATOM      2  C   UNK d   0      -6.323 -10.444  27.514  0.00  0.00     0.139 C 
ENDROOT
BRANCH   2   3
ATOM      3  O   UNK d   0      -5.283 -11.338  27.433  0.00  0.00    -0.776 OA
ATOM      4  H   UNK d   0      -4.436 -11.214  27.993  0.00  0.00     0.167 HD
ENDBRANCH   2   3
BRANCH   2   5
ATOM      5  C   UNK d   0      -6.182  -9.187  28.302  0.00  0.00     0.115 C 
BRANCH   5   6
ATOM      6  C   UNK d   0      -4.793  -9.088  28.873  0.00  0.00     0.052 C 
BRANCH   6   7
ATOM      7  C   UNK d   0      -4.328  -7.659  29.027  0.00  0.00    -0.020 A 
ATOM      8  C   UNK d   0      -3.372  -7.210  29.798  0.00  0.00    -0.011 A 
ATOM      9  C   UNK d   0      -3.294  -5.770  29.616  0.00  0.00     0.067 A 
ATOM     10  C   UNK d   0      -2.496  -4.728  30.115  0.00  0.00     0.062 C 
ATOM     11  N   UNK d   0      -4.243  -5.427  28.721  0.00  0.00    -0.248 NA
ATOM     12  C   UNK d   0      -2.386  -3.428  29.610  0.00  0.00     0.041 A 
ATOM     13  N   UNK d   0      -3.322  -2.571  29.158  0.00  0.00    -0.355 N 
ATOM     14  C   UNK d   0      -1.108  -2.861  29.462  0.00  0.00    -0.022 A 
ATOM     15  C   UNK d   0      -2.668  -1.477  28.722  0.00  0.00     0.042 A 
ATOM     16  H   UNK d   0      -4.423  -2.727  29.167  0.00  0.00     0.166 HD
ATOM     17  C   UNK d   0      -3.161  -0.284  28.157  0.00  0.00     0.062 C 
ATOM     18  C   UNK d   0      -1.278  -1.622  28.896  0.00  0.00    -0.013 A 
ATOM     19  C   UNK d   0      -4.120  -0.119  27.190  0.00  0.00     0.067 A 
ATOM     20  N   UNK d   0      -4.839  -1.196  26.862  0.00  0.00    -0.248 NA
ATOM     21  C   UNK d   0      -4.590   0.978  26.361  0.00  0.00    -0.011 A 
ATOM     22  C   UNK d   0      -5.743  -0.882  25.877  0.00  0.00     0.066 A 
ATOM     23  C   UNK d   0      -6.585  -1.905  25.465  0.00  0.00     0.062 C 
ATOM     24  C   UNK d   0      -5.536   0.524  25.591  0.00  0.00    -0.020 A 
ATOM     25  C   UNK d   0      -6.688  -3.200  25.995  0.00  0.00     0.041 A 
ATOM     26  N   UNK d   0      -5.758  -4.059  26.429  0.00  0.00    -0.355 N 
ATOM     27  C   UNK d   0      -7.973  -3.767  26.146  0.00  0.00    -0.022 A 
ATOM     28  C   UNK d   0      -6.406  -5.154  26.857  0.00  0.00     0.042 A 
ATOM     29  H   UNK d   0      -4.651  -3.904  26.411  0.00  0.00     0.166 HD
ATOM     30  C   UNK d   0      -5.928  -6.351  27.413  0.00  0.00     0.062 C 
ATOM     31  C   UNK d   0      -7.803  -5.003  26.692  0.00  0.00    -0.013 A 
ATOM     32  C   UNK d   0      -4.900  -6.519  28.327  0.00  0.00     0.066 A 
BRANCH   8  33
ATOM     33  C   UNK d   0      -2.518  -8.002  30.702  0.00  0.00     0.151 C 
BRANCH  33  34
ATOM     34  C   UNK d   0      -2.082  -7.241  31.887  0.00  0.00     0.143 C 
ATOM     35  O   UNK d   0      -2.897  -6.884  32.750  0.00  0.00    -0.650 OA
BRANCH  34  36
ATOM     36  O   UNK d   0      -0.751  -6.924  32.034  0.00  0.00    -0.776 OA
ATOM     37  H   UNK d   0      -0.347  -6.094  31.581  0.00  0.00     0.167 HD
ENDBRANCH  34  36
ENDBRANCH  33  34
ENDBRANCH   8  33
BRANCH  31  38
ATOM     38  C   UNK d   0      -8.901  -5.978  27.048  0.00  0.00     0.151 C 
BRANCH  38  39
ATOM     39  C   UNK d   0      -9.219  -6.885  25.966  0.00  0.00     0.143 C 
ATOM     40  O   UNK d   0     -10.014  -6.584  25.058  0.00  0.00    -0.650 OA
BRANCH  39  41
ATOM     41  O   UNK d   0      -8.620  -8.143  25.927  0.00  0.00    -0.776 OA
ATOM     42  H   UNK d   0      -7.814  -8.290  26.542  0.00  0.00     0.167 HD
ENDBRANCH  39  41
ENDBRANCH  38  39
ENDBRANCH  31  38
BRANCH  27  43
ATOM     43  C   UNK d   0      -9.322  -3.191  25.797  0.00  0.00     0.052 C 
BRANCH  43  44
ATOM     44  C   UNK d   0      -9.978  -2.488  26.941  0.00  0.00     0.115 C 
BRANCH  44  45
ATOM     45  C   UNK d   0     -11.437  -2.741  26.814  0.00  0.00     0.139 C 
ATOM     46  O   UNK d   0     -12.204  -1.750  26.731  0.00  0.00    -0.650 OA
BRANCH  45  47
ATOM     47  O   UNK d   0     -11.975  -4.009  26.777  0.00  0.00    -0.776 OA
ATOM     48  H   UNK d   0     -11.740  -4.697  26.044  0.00  0.00     0.167 HD
ENDBRANCH  45  47
ENDBRANCH  44  45
ENDBRANCH  43  44
ENDBRANCH  27  43
BRANCH  24  49
ATOM     49  C   UNK d   0      -6.317   1.308  24.620  0.00  0.00     0.052 C 
BRANCH  49  50
ATOM     50  C   UNK d   0      -7.376   2.115  25.327  0.00  0.00     0.115 C 
BRANCH  50  51
ATOM     51  C   UNK d   0      -7.420   3.544  25.047  0.00  0.00     0.139 C 
ATOM     52  O   UNK d   0      -6.767   4.384  25.710  0.00  0.00    -0.650 OA
BRANCH  51  53
ATOM     53  O   UNK d   0      -8.212   4.016  24.011  0.00  0.00    -0.776 OA
ATOM     54  H   UNK d   0      -9.047   3.506  23.780  0.00  0.00     0.167 HD
ENDBRANCH  51  53
ENDBRANCH  50  51
ENDBRANCH  49  50
ENDBRANCH  24  49
BRANCH  21  55
ATOM     55  C   UNK d   0      -4.046   2.367  26.427  0.00  0.00     0.151 C 
BRANCH  55  56
ATOM     56  C   UNK d   0      -2.821   2.518  25.626  0.00  0.00     0.143 C 
ATOM     57  O   UNK d   0      -1.679   2.443  26.120  0.00  0.00    -0.650 OA
BRANCH  56  58
ATOM     58  O   UNK d   0      -2.964   2.755  24.260  0.00  0.00    -0.776 OA
ATOM     59  H   UNK d   0      -3.235   1.927  23.700  0.00  0.00     0.167 HD
ENDBRANCH  56  58
ENDBRANCH  55  56
ENDBRANCH  21  55
BRANCH  18  60
ATOM     60  C   UNK d   0      -0.162  -0.667  28.553  0.00  0.00     0.151 C 
BRANCH  60  61
ATOM     61  C   UNK d   0      -0.281   0.450  29.502  0.00  0.00     0.143 C 
ATOM     62  O   UNK d   0      -0.364   0.376  30.729  0.00  0.00    -0.650 OA
BRANCH  61  63
ATOM     63  O   UNK d   0      -0.299   1.739  28.917  0.00  0.00    -0.776 OA
ATOM     64  H   UNK d   0       0.449   2.390  29.074  0.00  0.00     0.167 HD
ENDBRANCH  61  63
ENDBRANCH  60  61
ENDBRANCH  18  60
BRANCH  14  65
ATOM     65  C   UNK d   0       0.241  -3.355  29.903  0.00  0.00     0.052 C 
BRANCH  65  66
ATOM     66  C   UNK d   0       0.629  -2.862  31.251  0.00  0.00     0.115 C 
BRANCH  66  67
ATOM     67  C   UNK d   0       0.134  -3.528  32.423  0.00  0.00     0.139 C 
ATOM     68  O   UNK d   0       0.789  -4.538  32.877  0.00  0.00    -0.650 OA
BRANCH  67  69
ATOM     69  O   UNK d   0      -1.005  -3.218  33.164  0.00  0.00    -0.776 OA
ATOM     70  H   UNK d   0      -1.904  -3.344  32.677  0.00  0.00     0.167 HD
ENDBRANCH  67  69
ENDBRANCH  66  67
ENDBRANCH  65  66
ENDBRANCH  14  65
ENDBRANCH   6   7
ENDBRANCH   5   6
ENDBRANCH   2   5
TORSDOF 28
ENDMDL
MODEL 4
REMARK VINA RESULT:      -9.9      1.893      4.360
REMARK  28 active torsions:
REMARK  status: ('A' for Active; 'I' for Inactive)
REMARK    1  A    between atoms: C_2  and  O_3 
REMARK    2  A    between atoms: C_2  and  C_4 
REMARK    3  A    between atoms: C_4  and  C_5 
REMARK    4  A    between atoms: C_5  and  C_6 
REMARK    5  A    between atoms: C_7  and  C_8 
REMARK    6  A    between atoms: C_8  and  C_9 
REMARK    7  A    between atoms: C_9  and  O_11 
REMARK    8  A    between atoms: C_28  and  C_29 
REMARK    9  A    between atoms: C_29  and  C_30 
REMARK   10  A    between atoms: C_30  and  O_32 
REMARK   11  A    between atoms: C_33  and  C_34 
REMARK   12  A    between atoms: C_34  and  C_35 
REMARK   13  A    between atoms: C_35  and  C_36 
REMARK   14  A    between atoms: C_36  and  O_38 
REMARK   15  A    between atoms: C_39  and  C_40 
REMARK   16  A    between atoms: C_40  and  C_41 
REMARK   17  A    between atoms: C_41  and  C_42 
REMARK   18  A    between atoms: C_42  and  O_44 
REMARK   19  A    between atoms: C_45  and  C_46 
REMARK   20  A    between atoms: C_46  and  C_47 
REMARK   21  A    between atoms: C_47  and  O_49 
REMARK   22  A    between atoms: C_50  and  C_51 
REMARK   23  A    between atoms: C_51  and  C_52 
REMARK   24  A    between atoms: C_52  and  O_54 
REMARK   25  A    between atoms: C_55  and  C_56 
REMARK   26  A    between atoms: C_56  and  C_57 
REMARK   27  A    between atoms: C_57  and  C_58 
REMARK   28  A    between atoms: C_58  and  O_60 
ROOT
ATOM      1  O   UNK d   0       2.627  -7.746  29.955  0.00  0.00    -0.650 OA
ATOM      2  C   UNK d   0       1.628  -7.222  30.496  0.00  0.00     0.139 C 
ENDROOT
BRANCH   2   3
ATOM      3  O   UNK d   0       0.633  -8.028  30.995  0.00  0.00    -0.776 OA
ATOM      4  H   UNK d   0      -0.187  -7.628  31.457  0.00  0.00     0.167 HD
ENDBRANCH   2   3
BRANCH   2   5
ATOM      5  C   UNK d   0       1.522  -5.739  30.595  0.00  0.00     0.115 C 
BRANCH   5   6
ATOM      6  C   UNK d   0       1.512  -5.127  29.221  0.00  0.00     0.052 C 
BRANCH   6   7
ATOM      7  C   UNK d   0       0.335  -4.206  29.003  0.00  0.00    -0.020 A 
ATOM      8  C   UNK d   0       0.319  -2.900  29.084  0.00  0.00    -0.011 A 
ATOM      9  C   UNK d   0      -1.036  -2.454  28.803  0.00  0.00     0.067 A 
ATOM     10  C   UNK d   0      -1.697  -1.220  28.711  0.00  0.00     0.062 C 
ATOM     11  N   UNK d   0      -1.779  -3.556  28.568  0.00  0.00    -0.248 NA
ATOM     12  C   UNK d   0      -2.956  -0.972  28.152  0.00  0.00     0.041 A 
ATOM     13  N   UNK d   0      -4.116  -1.649  28.247  0.00  0.00    -0.355 N 
ATOM     14  C   UNK d   0      -3.112   0.124  27.285  0.00  0.00    -0.022 A 
ATOM     15  C   UNK d   0      -5.002  -1.014  27.456  0.00  0.00     0.042 A 
ATOM     16  H   UNK d   0      -4.310  -2.546  28.875  0.00  0.00     0.166 HD
ATOM     17  C   UNK d   0      -6.356  -1.299  27.189  0.00  0.00     0.062 C 
ATOM     18  C   UNK d   0      -4.409   0.102  26.836  0.00  0.00    -0.013 A 
ATOM     19  C   UNK d   0      -6.945  -2.506  26.912  0.00  0.00     0.067 A 
ATOM     20  N   UNK d   0      -6.203  -3.600  27.104  0.00  0.00    -0.248 NA
ATOM     21  C   UNK d   0      -8.239  -2.948  26.419  0.00  0.00    -0.011 A 
ATOM     22  C   UNK d   0      -6.917  -4.725  26.771  0.00  0.00     0.066 A 
ATOM     23  C   UNK d   0      -6.276  -5.940  26.960  0.00  0.00     0.062 C 
ATOM     24  C   UNK d   0      -8.215  -4.247  26.335  0.00  0.00    -0.020 A 
ATOM     25  C   UNK d   0      -5.016  -6.168  27.534  0.00  0.00     0.041 A 
ATOM     26  N   UNK d   0      -3.859  -5.504  27.429  0.00  0.00    -0.355 N 
ATOM     27  C   UNK d   0      -4.861  -7.266  28.408  0.00  0.00    -0.022 A 
ATOM     28  C   UNK d   0      -2.971  -6.140  28.210  0.00  0.00     0.042 A 
ATOM     29  H   UNK d   0      -3.662  -4.609  26.788  0.00  0.00     0.166 HD
ATOM     30  C   UNK d   0      -1.619  -5.873  28.477  0.00  0.00     0.062 C 
ATOM     31  C   UNK d   0      -3.571  -7.255  28.841  0.00  0.00    -0.013 A 
ATOM     32  C   UNK d   0      -1.013  -4.642  28.672  0.00  0.00     0.066 A 
BRANCH   8  33
ATOM     33  C   UNK d   0       1.456  -2.019  29.406  0.00  0.00     0.151 C 
BRANCH  33  34
ATOM     34  C   UNK d   0       1.221  -1.201  30.610  0.00  0.00     0.143 C 
ATOM     35  O   UNK d   0       1.623  -0.031  30.674  0.00  0.00    -0.650 OA
BRANCH  34  36
ATOM     36  O   UNK d   0       0.547  -1.749  31.677  0.00  0.00    -0.776 OA
ATOM     37  H   UNK d   0      -0.401  -1.436  31.928  0.00  0.00     0.167 HD
ENDBRANCH  34  36
ENDBRANCH  33  34
ENDBRANCH   8  33
BRANCH  31  38
ATOM     38  C   UNK d   0      -2.946  -8.236  29.805  0.00  0.00     0.151 C 
BRANCH  38  39
ATOM     39  C   UNK d   0      -2.849  -7.715  31.152  0.00  0.00     0.143 C 
ATOM     40  O   UNK d   0      -3.381  -6.644  31.491  0.00  0.00    -0.650 OA
BRANCH  39  41
ATOM     41  O   UNK d   0      -2.138  -8.431  32.115  0.00  0.00    -0.776 OA
ATOM     42  H   UNK d   0      -2.600  -8.573  33.019  0.00  0.00     0.167 HD
ENDBRANCH  39  41
ENDBRANCH  38  39
ENDBRANCH  31  38
BRANCH  27  43
ATOM     43  C   UNK d   0      -5.872  -8.301  28.834  0.00  0.00     0.052 C 
BRANCH  43  44
ATOM     44  C   UNK d   0      -5.706  -9.612  28.135  0.00  0.00     0.115 C 
BRANCH  44  45
ATOM     45  C   UNK d   0      -6.991  -9.888  27.442  0.00  0.00     0.139 C 
ATOM     46  O   UNK d   0      -7.501 -11.028  27.573  0.00  0.00    -0.650 OA
BRANCH  45  47
ATOM     47  O   UNK d   0      -7.642  -8.949  26.672  0.00  0.00    -0.776 OA
ATOM     48  H   UNK d   0      -7.686  -7.949  26.926  0.00  0.00     0.167 HD
ENDBRANCH  45  47
ENDBRANCH  44  45
ENDBRANCH  43  44
ENDBRANCH  27  43
BRANCH  24  49
ATOM     49  C   UNK d   0      -9.332  -5.112  25.917  0.00  0.00     0.052 C 
BRANCH  49  50
ATOM     50  C   UNK d   0      -9.972  -5.759  27.118  0.00  0.00     0.115 C 
BRANCH  50  51
ATOM     51  C   UNK d   0     -11.385  -5.486  27.346  0.00  0.00     0.139 C 
ATOM     52  O   UNK d   0     -12.292  -5.979  26.634  0.00  0.00    -0.650 OA
BRANCH  51  53
ATOM     53  O   UNK d   0     -11.763  -4.650  28.384  0.00  0.00    -0.776 OA
ATOM     54  H   UNK d   0     -11.678  -4.991  29.326  0.00  0.00     0.167 HD
ENDBRANCH  51  53
ENDBRANCH  50  51
ENDBRANCH  49  50
ENDBRANCH  24  49
BRANCH  21  55
ATOM     55  C   UNK d   0      -9.366  -2.027  26.088  0.00  0.00     0.151 C 
BRANCH  55  56
ATOM     56  C   UNK d   0     -10.396  -2.016  27.138  0.00  0.00     0.143 C 
ATOM     57  O   UNK d   0     -10.121  -2.029  28.354  0.00  0.00    -0.650 OA
BRANCH  56  58
ATOM     58  O   UNK d   0     -11.731  -1.990  26.738  0.00  0.00    -0.776 OA
ATOM     59  H   UNK d   0     -12.074  -2.867  26.306  0.00  0.00     0.167 HD
ENDBRANCH  56  58
ENDBRANCH  55  56
ENDBRANCH  21  55
BRANCH  18  60
ATOM     60  C   UNK d   0      -5.007   1.098  25.874  0.00  0.00     0.151 C 
BRANCH  60  61
ATOM     61  C   UNK d   0      -4.269   0.935  24.612  0.00  0.00     0.143 C 
ATOM     62  O   UNK d   0      -3.746   1.822  23.938  0.00  0.00    -0.650 OA
BRANCH  61  63
ATOM     63  O   UNK d   0      -4.163  -0.397  24.144  0.00  0.00    -0.776 OA
ATOM     64  H   UNK d   0      -4.889  -1.069  24.322  0.00  0.00     0.167 HD
ENDBRANCH  61  63
ENDBRANCH  60  61
ENDBRANCH  18  60
BRANCH  14  65
ATOM     65  C   UNK d   0      -2.166   1.236  26.930  0.00  0.00     0.052 C 
BRANCH  65  66
ATOM     66  C   UNK d   0      -2.153   2.333  27.935  0.00  0.00     0.115 C 
BRANCH  66  67
ATOM     67  C   UNK d   0      -0.979   2.554  28.731  0.00  0.00     0.139 C 
ATOM     68  O   UNK d   0      -0.935   3.596  29.483  0.00  0.00    -0.650 OA
BRANCH  67  69
ATOM     69  O   UNK d   0       0.166   1.762  28.802  0.00  0.00    -0.776 OA
ATOM     70  H   UNK d   0       0.972   2.089  28.250  0.00  0.00     0.167 HD
ENDBRANCH  67  69
ENDBRANCH  66  67
ENDBRANCH  65  66
ENDBRANCH  14  65
ENDBRANCH   6   7
ENDBRANCH   5   6
ENDBRANCH   2   5
TORSDOF 28
ENDMDL
MODEL 5
REMARK VINA RESULT:      -9.8      1.342      7.929
REMARK  28 active torsions:
REMARK  status: ('A' for Active; 'I' for Inactive)
REMARK    1  A    between atoms: C_2  and  O_3 
REMARK    2  A    between atoms: C_2  and  C_4 
REMARK    3  A    between atoms: C_4  and  C_5 
REMARK    4  A    between atoms: C_5  and  C_6 
REMARK    5  A    between atoms: C_7  and  C_8 
REMARK    6  A    between atoms: C_8  and  C_9 
REMARK    7  A    between atoms: C_9  and  O_11 
REMARK    8  A    between atoms: C_28  and  C_29 
REMARK    9  A    between atoms: C_29  and  C_30 
REMARK   10  A    between atoms: C_30  and  O_32 
REMARK   11  A    between atoms: C_33  and  C_34 
REMARK   12  A    between atoms: C_34  and  C_35 
REMARK   13  A    between atoms: C_35  and  C_36 
REMARK   14  A    between atoms: C_36  and  O_38 
REMARK   15  A    between atoms: C_39  and  C_40 
REMARK   16  A    between atoms: C_40  and  C_41 
REMARK   17  A    between atoms: C_41  and  C_42 
REMARK   18  A    between atoms: C_42  and  O_44 
REMARK   19  A    between atoms: C_45  and  C_46 
REMARK   20  A    between atoms: C_46  and  C_47 
REMARK   21  A    between atoms: C_47  and  O_49 
REMARK   22  A    between atoms: C_50  and  C_51 
REMARK   23  A    between atoms: C_51  and  C_52 
REMARK   24  A    between atoms: C_52  and  O_54 
REMARK   25  A    between atoms: C_55  and  C_56 
REMARK   26  A    between atoms: C_56  and  C_57 
REMARK   27  A    between atoms: C_57  and  C_58 
REMARK   28  A    between atoms: C_58  and  O_60 
ROOT
ATOM      1  O   UNK d   0      -1.816  -9.862  33.252  0.00  0.00    -0.650 OA
ATOM      2  C   UNK d   0      -2.232  -8.734  32.907  0.00  0.00     0.139 C 
ENDROOT
BRANCH   2   3
ATOM      3  O   UNK d   0      -2.206  -7.701  33.812  0.00  0.00    -0.776 OA
ATOM      4  H   UNK d   0      -1.335  -7.423  34.271  0.00  0.00     0.167 HD
ENDBRANCH   2   3
BRANCH   2   5
ATOM      5  C   UNK d   0      -2.752  -8.518  31.527  0.00  0.00     0.115 C 
BRANCH   5   6
ATOM      6  C   UNK d   0      -1.621  -8.178  30.595  0.00  0.00     0.052 C 
BRANCH   6   7
ATOM      7  C   UNK d   0      -1.548  -6.702  30.284  0.00  0.00    -0.020 A 
ATOM      8  C   UNK d   0      -0.719  -5.821  30.784  0.00  0.00    -0.011 A 
ATOM      9  C   UNK d   0      -1.033  -4.530  30.194  0.00  0.00     0.067 A 
ATOM     10  C   UNK d   0      -0.524  -3.225  30.284  0.00  0.00     0.062 C 
ATOM     11  N   UNK d   0      -2.070  -4.717  29.351  0.00  0.00    -0.248 NA
ATOM     12  C   UNK d   0      -0.782  -2.154  29.422  0.00  0.00     0.041 A 
ATOM     13  N   UNK d   0      -1.927  -1.728  28.855  0.00  0.00    -0.355 N 
ATOM     14  C   UNK d   0       0.294  -1.365  28.976  0.00  0.00    -0.022 A 
ATOM     15  C   UNK d   0      -1.604  -0.694  28.056  0.00  0.00     0.042 A 
ATOM     16  H   UNK d   0      -2.946  -2.138  29.032  0.00  0.00     0.166 HD
ATOM     17  C   UNK d   0      -2.416   0.115  27.235  0.00  0.00     0.062 C 
ATOM     18  C   UNK d   0      -0.220  -0.437  28.105  0.00  0.00    -0.013 A 
ATOM     19  C   UNK d   0      -3.417  -0.259  26.376  0.00  0.00     0.067 A 
ATOM     20  N   UNK d   0      -3.835  -1.526  26.450  0.00  0.00    -0.248 NA
ATOM     21  C   UNK d   0      -4.191   0.386  25.329  0.00  0.00    -0.011 A 
ATOM     22  C   UNK d   0      -4.824  -1.756  25.525  0.00  0.00     0.066 A 
ATOM     23  C   UNK d   0      -5.378  -3.027  25.518  0.00  0.00     0.062 C 
ATOM     24  C   UNK d   0      -5.009  -0.496  24.832  0.00  0.00    -0.020 A 
ATOM     25  C   UNK d   0      -5.114  -4.086  26.401  0.00  0.00     0.041 A 
ATOM     26  N   UNK d   0      -3.974  -4.518  26.952  0.00  0.00    -0.355 N 
ATOM     27  C   UNK d   0      -6.195  -4.875  26.851  0.00  0.00    -0.022 A 
ATOM     28  C   UNK d   0      -4.292  -5.555  27.743  0.00  0.00     0.042 A 
ATOM     29  H   UNK d   0      -2.949  -4.113  26.766  0.00  0.00     0.166 HD
ATOM     30  C   UNK d   0      -3.494  -6.374  28.557  0.00  0.00     0.062 C 
ATOM     31  C   UNK d   0      -5.684  -5.807  27.701  0.00  0.00    -0.013 A 
ATOM     32  C   UNK d   0      -2.426  -6.002  29.359  0.00  0.00     0.066 A 
BRANCH   8  33
ATOM     33  C   UNK d   0       0.346  -6.069  31.772  0.00  0.00     0.151 C 
BRANCH  33  34
ATOM     34  C   UNK d   0       0.215  -5.228  32.976  0.00  0.00     0.143 C 
ATOM     35  O   UNK d   0      -0.876  -5.107  33.552  0.00  0.00    -0.650 OA
BRANCH  34  36
ATOM     36  O   UNK d   0       1.320  -4.569  33.463  0.00  0.00    -0.776 OA
ATOM     37  H   UNK d   0       2.017  -4.154  32.830  0.00  0.00     0.167 HD
ENDBRANCH  34  36
ENDBRANCH  33  34
ENDBRANCH   8  33
BRANCH  31  38
ATOM     38  C   UNK d   0      -6.470  -6.864  28.440  0.00  0.00     0.151 C 
BRANCH  38  39
ATOM     39  C   UNK d   0      -6.593  -8.097  27.692  0.00  0.00     0.143 C 
ATOM     40  O   UNK d   0      -7.406  -8.232  26.761  0.00  0.00    -0.650 OA
BRANCH  39  41
ATOM     41  O   UNK d   0      -5.778  -9.181  28.016  0.00  0.00    -0.776 OA
ATOM     42  H   UNK d   0      -5.429  -9.746  27.235  0.00  0.00     0.167 HD
ENDBRANCH  39  41
ENDBRANCH  38  39
ENDBRANCH  31  38
BRANCH  27  43
ATOM     43  C   UNK d   0      -7.660  -4.777  26.507  0.00  0.00     0.052 C 
BRANCH  43  44
ATOM     44  C   UNK d   0      -8.322  -3.565  27.077  0.00  0.00     0.115 C 
BRANCH  44  45
ATOM     45  C   UNK d   0      -9.747  -3.623  26.661  0.00  0.00     0.139 C 
ATOM     46  O   UNK d   0     -10.183  -2.712  25.915  0.00  0.00    -0.650 OA
BRANCH  45  47
ATOM     47  O   UNK d   0     -10.599  -4.633  27.053  0.00  0.00    -0.776 OA
ATOM     48  H   UNK d   0     -11.612  -4.488  27.193  0.00  0.00     0.167 HD
ENDBRANCH  45  47
ENDBRANCH  44  45
ENDBRANCH  43  44
ENDBRANCH  27  43
BRANCH  24  49
ATOM     49  C   UNK d   0      -6.004  -0.257  23.772  0.00  0.00     0.052 C 
BRANCH  49  50
ATOM     50  C   UNK d   0      -7.394  -0.529  24.288  0.00  0.00     0.115 C 
BRANCH  50  51
ATOM     51  C   UNK d   0      -7.878   0.314  25.373  0.00  0.00     0.139 C 
ATOM     52  O   UNK d   0      -8.103  -0.129  26.524  0.00  0.00    -0.650 OA
BRANCH  51  53
ATOM     53  O   UNK d   0      -8.107   1.662  25.146  0.00  0.00    -0.776 OA
ATOM     54  H   UNK d   0      -8.216   2.266  25.941  0.00  0.00     0.167 HD
ENDBRANCH  51  53
ENDBRANCH  50  51
ENDBRANCH  49  50
ENDBRANCH  24  49
BRANCH  21  55
ATOM     55  C   UNK d   0      -4.034   1.818  24.937  0.00  0.00     0.151 C 
BRANCH  55  56
ATOM     56  C   UNK d   0      -4.566   2.731  25.960  0.00  0.00     0.143 C 
ATOM     57  O   UNK d   0      -5.784   2.829  26.210  0.00  0.00    -0.650 OA
BRANCH  56  58
ATOM     58  O   UNK d   0      -3.656   3.511  26.671  0.00  0.00    -0.776 OA
ATOM     59  H   UNK d   0      -3.187   3.027  27.458  0.00  0.00     0.167 HD
ENDBRANCH  56  58
ENDBRANCH  55  56
ENDBRANCH  21  55
BRANCH  18  60
ATOM     60  C   UNK d   0       0.589   0.612  27.382  0.00  0.00     0.151 C 
BRANCH  60  61
ATOM     61  C   UNK d   0       0.679   1.757  28.301  0.00  0.00     0.143 C 
ATOM     62  O   UNK d   0      -0.220   2.213  29.008  0.00  0.00    -0.650 OA
BRANCH  61  63
ATOM     63  O   UNK d   0       1.947   2.384  28.360  0.00  0.00    -0.776 OA
ATOM     64  H   UNK d   0       2.455   2.606  27.522  0.00  0.00     0.167 HD
ENDBRANCH  61  63
ENDBRANCH  60  61
ENDBRANCH  18  60
BRANCH  14  65
ATOM     65  C   UNK d   0       1.740  -1.358  29.383  0.00  0.00     0.052 C 
BRANCH  65  66
ATOM     66  C   UNK d   0       2.006  -0.505  30.573  0.00  0.00     0.115 C 
BRANCH  66  67
ATOM     67  C   UNK d   0       1.146  -0.594  31.719  0.00  0.00     0.139 C 
ATOM     68  O   UNK d   0       0.140   0.204  31.795  0.00  0.00    -0.650 OA
BRANCH  67  69
ATOM     69  O   UNK d   0       1.257  -1.463  32.804  0.00  0.00    -0.776 OA
ATOM     70  H   UNK d   0       0.719  -2.338  32.734  0.00  0.00     0.167 HD
ENDBRANCH  67  69
ENDBRANCH  66  67
ENDBRANCH  65  66
ENDBRANCH  14  65
ENDBRANCH   6   7
ENDBRANCH   5   6
ENDBRANCH   2   5
TORSDOF 28
ENDMDL
MODEL 6
REMARK VINA RESULT:      -9.8      1.901      8.034
REMARK  28 active torsions:
REMARK  status: ('A' for Active; 'I' for Inactive)
REMARK    1  A    between atoms: C_2  and  O_3 
REMARK    2  A    between atoms: C_2  and  C_4 
REMARK    3  A    between atoms: C_4  and  C_5 
REMARK    4  A    between atoms: C_5  and  C_6 
REMARK    5  A    between atoms: C_7  and  C_8 
REMARK    6  A    between atoms: C_8  and  C_9 
REMARK    7  A    between atoms: C_9  and  O_11 
REMARK    8  A    between atoms: C_28  and  C_29 
REMARK    9  A    between atoms: C_29  and  C_30 
REMARK   10  A    between atoms: C_30  and  O_32 
REMARK   11  A    between atoms: C_33  and  C_34 
REMARK   12  A    between atoms: C_34  and  C_35 
REMARK   13  A    between atoms: C_35  and  C_36 
REMARK   14  A    between atoms: C_36  and  O_38 
REMARK   15  A    between atoms: C_39  and  C_40 
REMARK   16  A    between atoms: C_40  and  C_41 
REMARK   17  A    between atoms: C_41  and  C_42 
REMARK   18  A    between atoms: C_42  and  O_44 
REMARK   19  A    between atoms: C_45  and  C_46 
REMARK   20  A    between atoms: C_46  and  C_47 
REMARK   21  A    between atoms: C_47  and  O_49 
REMARK   22  A    between atoms: C_50  and  C_51 
REMARK   23  A    between atoms: C_51  and  C_52 
REMARK   24  A    between atoms: C_52  and  O_54 
REMARK   25  A    between atoms: C_55  and  C_56 
REMARK   26  A    between atoms: C_56  and  C_57 
REMARK   27  A    between atoms: C_57  and  C_58 
REMARK   28  A    between atoms: C_58  and  O_60 
ROOT
ATOM      1  O   UNK d   0       2.552  -0.606  27.494  0.00  0.00    -0.650 OA
ATOM      2  C   UNK d   0       2.006   0.517  27.578  0.00  0.00     0.139 C 
ENDROOT
BRANCH   2   3
ATOM      3  O   UNK d   0       2.785   1.649  27.556  0.00  0.00    -0.776 OA
ATOM      4  H   UNK d   0       3.358   1.911  28.361  0.00  0.00     0.167 HD
ENDBRANCH   2   3
BRANCH   2   5
ATOM      5  C   UNK d   0       0.524   0.621  27.702  0.00  0.00     0.115 C 
BRANCH   5   6
ATOM      6  C   UNK d   0       0.061  -0.061  28.960  0.00  0.00     0.052 C 
BRANCH   6   7
ATOM      7  C   UNK d   0      -0.810  -1.263  28.682  0.00  0.00    -0.020 A 
ATOM      8  C   UNK d   0      -0.504  -2.525  28.841  0.00  0.00    -0.011 A 
ATOM      9  C   UNK d   0      -1.654  -3.317  28.436  0.00  0.00     0.067 A 
ATOM     10  C   UNK d   0      -1.975  -4.682  28.385  0.00  0.00     0.062 C 
ATOM     11  N   UNK d   0      -2.613  -2.455  28.039  0.00  0.00    -0.248 NA
ATOM     12  C   UNK d   0      -3.245  -5.248  28.225  0.00  0.00     0.041 A 
ATOM     13  N   UNK d   0      -4.266  -4.920  27.410  0.00  0.00    -0.355 N 
ATOM     14  C   UNK d   0      -3.624  -6.316  29.059  0.00  0.00    -0.022 A 
ATOM     15  C   UNK d   0      -5.285  -5.747  27.710  0.00  0.00     0.042 A 
ATOM     16  H   UNK d   0      -4.259  -4.132  26.625  0.00  0.00     0.166 HD
ATOM     17  C   UNK d   0      -6.580  -5.837  27.162  0.00  0.00     0.062 C 
ATOM     18  C   UNK d   0      -4.920  -6.636  28.740  0.00  0.00    -0.013 A 
ATOM     19  C   UNK d   0      -7.461  -4.830  26.863  0.00  0.00     0.067 A 
ATOM     20  N   UNK d   0      -6.989  -3.582  26.900  0.00  0.00    -0.248 NA
ATOM     21  C   UNK d   0      -8.868  -4.745  26.505  0.00  0.00    -0.011 A 
ATOM     22  C   UNK d   0      -7.985  -2.686  26.595  0.00  0.00     0.066 A 
ATOM     23  C   UNK d   0      -7.621  -1.348  26.560  0.00  0.00     0.062 C 
ATOM     24  C   UNK d   0      -9.169  -3.487  26.354  0.00  0.00    -0.020 A 
ATOM     25  C   UNK d   0      -6.337  -0.801  26.710  0.00  0.00     0.041 A 
ATOM     26  N   UNK d   0      -5.328  -1.118  27.531  0.00  0.00    -0.355 N 
ATOM     27  C   UNK d   0      -5.956   0.268  25.871  0.00  0.00    -0.022 A 
ATOM     28  C   UNK d   0      -4.313  -0.288  27.240  0.00  0.00     0.042 A 
ATOM     29  H   UNK d   0      -5.340  -1.902  28.327  0.00  0.00     0.166 HD
ATOM     30  C   UNK d   0      -3.023  -0.181  27.783  0.00  0.00     0.062 C 
ATOM     31  C   UNK d   0      -4.677   0.598  26.198  0.00  0.00    -0.013 A 
ATOM     32  C   UNK d   0      -2.169  -1.204  28.163  0.00  0.00     0.066 A 
BRANCH   8  33
ATOM     33  C   UNK d   0       0.774  -3.070  29.336  0.00  0.00     0.151 C 
BRANCH  33  34
ATOM     34  C   UNK d   0       0.678  -3.593  30.711  0.00  0.00     0.143 C 
ATOM     35  O   UNK d   0      -0.275  -3.288  31.442  0.00  0.00    -0.650 OA
BRANCH  34  36
ATOM     36  O   UNK d   0       1.661  -4.429  31.186  0.00  0.00    -0.776 OA
ATOM     37  H   UNK d   0       2.395  -4.797  30.565  0.00  0.00     0.167 HD
ENDBRANCH  34  36
ENDBRANCH  33  34
ENDBRANCH   8  33
BRANCH  31  38
ATOM     38  C   UNK d   0      -3.843   1.681  25.554  0.00  0.00     0.151 C 
BRANCH  38  39
ATOM     39  C   UNK d   0      -3.821   2.906  26.324  0.00  0.00     0.143 C 
ATOM     40  O   UNK d   0      -2.967   3.126  27.201  0.00  0.00    -0.650 OA
BRANCH  39  41
ATOM     41  O   UNK d   0      -4.786   3.884  26.085  0.00  0.00    -0.776 OA
ATOM     42  H   UNK d   0      -5.318   4.216  26.895  0.00  0.00     0.167 HD
ENDBRANCH  39  41
ENDBRANCH  38  39
ENDBRANCH  31  38
BRANCH  27  43
ATOM     43  C   UNK d   0      -6.747   0.971  24.795  0.00  0.00     0.052 C 
BRANCH  43  44
ATOM     44  C   UNK d   0      -7.833   1.843  25.336  0.00  0.00     0.115 C 
BRANCH  44  45
ATOM     45  C   UNK d   0      -7.495   3.235  24.941  0.00  0.00     0.139 C 
ATOM     46  O   UNK d   0      -7.937   4.174  25.648  0.00  0.00    -0.650 OA
BRANCH  45  47
ATOM     47  O   UNK d   0      -6.718   3.533  23.842  0.00  0.00    -0.776 OA
ATOM     48  H   UNK d   0      -6.193   4.418  23.750  0.00  0.00     0.167 HD
ENDBRANCH  45  47
ENDBRANCH  44  45
ENDBRANCH  43  44
ENDBRANCH  27  43
BRANCH  24  49
ATOM     49  C   UNK d   0     -10.480  -2.950  25.953  0.00  0.00     0.052 C 
BRANCH  49  50
ATOM     50  C   UNK d   0     -10.442  -2.488  24.520  0.00  0.00     0.115 C 
BRANCH  50  51
ATOM     51  C   UNK d   0     -10.984  -1.166  24.233  0.00  0.00     0.139 C 
ATOM     52  O   UNK d   0     -12.146  -0.827  24.558  0.00  0.00    -0.650 OA
BRANCH  51  53
ATOM     53  O   UNK d   0     -10.201  -0.232  23.572  0.00  0.00    -0.776 OA
ATOM     54  H   UNK d   0     -10.339   0.740  23.786  0.00  0.00     0.167 HD
ENDBRANCH  51  53
ENDBRANCH  50  51
ENDBRANCH  49  50
ENDBRANCH  24  49
BRANCH  21  55
ATOM     55  C   UNK d   0      -9.763  -5.929  26.348  0.00  0.00     0.151 C 
BRANCH  55  56
ATOM     56  C   UNK d   0      -9.656  -6.527  25.008  0.00  0.00     0.143 C 
ATOM     57  O   UNK d   0      -8.778  -7.359  24.708  0.00  0.00    -0.650 OA
BRANCH  56  58
ATOM     58  O   UNK d   0     -10.586  -6.134  24.047  0.00  0.00    -0.776 OA
ATOM     59  H   UNK d   0     -10.939  -6.899  23.443  0.00  0.00     0.167 HD
ENDBRANCH  56  58
ENDBRANCH  55  56
ENDBRANCH  21  55
BRANCH  18  60
ATOM     60  C   UNK d   0      -5.728  -7.726  29.399  0.00  0.00     0.151 C 
BRANCH  60  61
ATOM     61  C   UNK d   0      -5.737  -8.852  28.451  0.00  0.00     0.143 C 
ATOM     62  O   UNK d   0      -6.677  -9.221  27.746  0.00  0.00    -0.650 OA
BRANCH  61  63
ATOM     63  O   UNK d   0      -4.521  -9.571  28.359  0.00  0.00    -0.776 OA
ATOM     64  H   UNK d   0      -3.649  -9.097  28.208  0.00  0.00     0.167 HD
ENDBRANCH  61  63
ENDBRANCH  60  61
ENDBRANCH  18  60
BRANCH  14  65
ATOM     65  C   UNK d   0      -2.830  -7.113  30.054  0.00  0.00     0.052 C 
BRANCH  65  66
ATOM     66  C   UNK d   0      -3.017  -6.646  31.454  0.00  0.00     0.115 C 
BRANCH  66  67
ATOM     67  C   UNK d   0      -1.932  -6.749  32.390  0.00  0.00     0.139 C 
ATOM     68  O   UNK d   0      -2.168  -7.250  33.550  0.00  0.00    -0.650 OA
BRANCH  67  69
ATOM     69  O   UNK d   0      -0.605  -6.362  32.203  0.00  0.00    -0.776 OA
ATOM     70  H   UNK d   0      -0.312  -5.510  32.702  0.00  0.00     0.167 HD
ENDBRANCH  67  69
ENDBRANCH  66  67
ENDBRANCH  65  66
ENDBRANCH  14  65
ENDBRANCH   6   7
ENDBRANCH   5   6
ENDBRANCH   2   5
TORSDOF 28
ENDMDL
MODEL 7
REMARK VINA RESULT:      -9.8      1.724      9.002
REMARK  28 active torsions:
REMARK  status: ('A' for Active; 'I' for Inactive)
REMARK    1  A    between atoms: C_2  and  O_3 
REMARK    2  A    between atoms: C_2  and  C_4 
REMARK    3  A    between atoms: C_4  and  C_5 
REMARK    4  A    between atoms: C_5  and  C_6 
REMARK    5  A    between atoms: C_7  and  C_8 
REMARK    6  A    between atoms: C_8  and  C_9 
REMARK    7  A    between atoms: C_9  and  O_11 
REMARK    8  A    between atoms: C_28  and  C_29 
REMARK    9  A    between atoms: C_29  and  C_30 
REMARK   10  A    between atoms: C_30  and  O_32 
REMARK   11  A    between atoms: C_33  and  C_34 
REMARK   12  A    between atoms: C_34  and  C_35 
REMARK   13  A    between atoms: C_35  and  C_36 
REMARK   14  A    between atoms: C_36  and  O_38 
REMARK   15  A    between atoms: C_39  and  C_40 
REMARK   16  A    between atoms: C_40  and  C_41 
REMARK   17  A    between atoms: C_41  and  C_42 
REMARK   18  A    between atoms: C_42  and  O_44 
REMARK   19  A    between atoms: C_45  and  C_46 
REMARK   20  A    between atoms: C_46  and  C_47 
REMARK   21  A    between atoms: C_47  and  O_49 
REMARK   22  A    between atoms: C_50  and  C_51 
REMARK   23  A    between atoms: C_51  and  C_52 
REMARK   24  A    between atoms: C_52  and  O_54 
REMARK   25  A    between atoms: C_55  and  C_56 
REMARK   26  A    between atoms: C_56  and  C_57 
REMARK   27  A    between atoms: C_57  and  C_58 
REMARK   28  A    between atoms: C_58  and  O_60 
ROOT
ATOM      1  O   UNK d   0      -2.361 -12.236  28.512  0.00  0.00    -0.650 OA
ATOM      2  C   UNK d   0      -2.175 -11.116  29.036  0.00  0.00     0.139 C 
ENDROOT
BRANCH   2   3
ATOM      3  O   UNK d   0      -1.464 -11.031  30.209  0.00  0.00    -0.776 OA
ATOM      4  H   UNK d   0      -1.652 -10.289  30.887  0.00  0.00     0.167 HD
ENDBRANCH   2   3
BRANCH   2   5
ATOM      5  C   UNK d   0      -2.720  -9.888  28.391  0.00  0.00     0.115 C 
BRANCH   5   6
ATOM      6  C   UNK d   0      -3.609  -9.149  29.353  0.00  0.00     0.052 C 
BRANCH   6   7
ATOM      7  C   UNK d   0      -3.306  -7.671  29.408  0.00  0.00    -0.020 A 
ATOM      8  C   UNK d   0      -2.392  -7.070  30.127  0.00  0.00    -0.011 A 
ATOM      9  C   UNK d   0      -2.480  -5.644  29.856  0.00  0.00     0.067 A 
ATOM     10  C   UNK d   0      -1.796  -4.491  30.271  0.00  0.00     0.062 C 
ATOM     11  N   UNK d   0      -3.478  -5.466  28.965  0.00  0.00    -0.248 NA
ATOM     12  C   UNK d   0      -1.842  -3.222  29.684  0.00  0.00     0.041 A 
ATOM     13  N   UNK d   0      -2.876  -2.503  29.206  0.00  0.00    -0.355 N 
ATOM     14  C   UNK d   0      -0.638  -2.526  29.471  0.00  0.00    -0.022 A 
ATOM     15  C   UNK d   0      -2.358  -1.374  28.687  0.00  0.00     0.042 A 
ATOM     16  H   UNK d   0      -3.952  -2.780  29.251  0.00  0.00     0.166 HD
ATOM     17  C   UNK d   0      -2.992  -0.281  28.063  0.00  0.00     0.062 C 
ATOM     18  C   UNK d   0      -0.958  -1.352  28.834  0.00  0.00    -0.013 A 
ATOM     19  C   UNK d   0      -3.981  -0.285  27.113  0.00  0.00     0.067 A 
ATOM     20  N   UNK d   0      -4.580  -1.453  26.869  0.00  0.00    -0.248 NA
ATOM     21  C   UNK d   0      -4.586   0.699  26.231  0.00  0.00    -0.011 A 
ATOM     22  C   UNK d   0      -5.532  -1.305  25.889  0.00  0.00     0.066 A 
ATOM     23  C   UNK d   0      -6.260  -2.439  25.562  0.00  0.00     0.062 C 
ATOM     24  C   UNK d   0      -5.490   0.094  25.514  0.00  0.00    -0.020 A 
ATOM     25  C   UNK d   0      -6.207  -3.702  26.172  0.00  0.00     0.041 A 
ATOM     26  N   UNK d   0      -5.178  -4.422  26.634  0.00  0.00    -0.355 N 
ATOM     27  C   UNK d   0      -7.417  -4.398  26.390  0.00  0.00    -0.022 A 
ATOM     28  C   UNK d   0      -5.691  -5.553  27.144  0.00  0.00     0.042 A 
ATOM     29  H   UNK d   0      -4.096  -4.147  26.578  0.00  0.00     0.166 HD
ATOM     30  C   UNK d   0      -5.072  -6.653  27.759  0.00  0.00     0.062 C 
ATOM     31  C   UNK d   0      -7.100  -5.570  27.005  0.00  0.00    -0.013 A 
ATOM     32  C   UNK d   0      -4.015  -6.647  28.655  0.00  0.00     0.066 A 
BRANCH   8  33
ATOM     33  C   UNK d   0      -1.438  -7.703  31.055  0.00  0.00     0.151 C 
BRANCH  33  34
ATOM     34  C   UNK d   0      -2.023  -7.965  32.383  0.00  0.00     0.143 C 
ATOM     35  O   UNK d   0      -2.433  -7.036  33.092  0.00  0.00    -0.650 OA
BRANCH  34  36
ATOM     36  O   UNK d   0      -2.110  -9.260  32.839  0.00  0.00    -0.776 OA
ATOM     37  H   UNK d   0      -2.126  -9.473  33.845  0.00  0.00     0.167 HD
ENDBRANCH  34  36
ENDBRANCH  33  34
ENDBRANCH   8  33
BRANCH  31  38
ATOM     38  C   UNK d   0      -8.074  -6.636  27.447  0.00  0.00     0.151 C 
BRANCH  38  39
ATOM     39  C   UNK d   0      -8.347  -7.611  26.412  0.00  0.00     0.143 C 
ATOM     40  O   UNK d   0      -9.149  -7.392  25.487  0.00  0.00    -0.650 OA
BRANCH  39  41
ATOM     41  O   UNK d   0      -7.695  -8.843  26.441  0.00  0.00    -0.776 OA
ATOM     42  H   UNK d   0      -6.696  -8.842  26.214  0.00  0.00     0.167 HD
ENDBRANCH  39  41
ENDBRANCH  38  39
ENDBRANCH  31  38
BRANCH  27  43
ATOM     43  C   UNK d   0      -8.829  -3.998  26.040  0.00  0.00     0.052 C 
BRANCH  43  44
ATOM     44  C   UNK d   0      -9.606  -3.491  27.211  0.00  0.00     0.115 C 
BRANCH  44  45
ATOM     45  C   UNK d   0      -9.308  -2.039  27.322  0.00  0.00     0.139 C 
ATOM     46  O   UNK d   0      -9.447  -1.326  26.297  0.00  0.00    -0.650 OA
BRANCH  45  47
ATOM     47  O   UNK d   0      -8.894  -1.448  28.496  0.00  0.00    -0.776 OA
ATOM     48  H   UNK d   0      -7.962  -1.615  28.909  0.00  0.00     0.167 HD
ENDBRANCH  45  47
ENDBRANCH  44  45
ENDBRANCH  43  44
ENDBRANCH  27  43
BRANCH  24  49
ATOM     49  C   UNK d   0      -6.372   0.724  24.517  0.00  0.00     0.052 C 
BRANCH  49  50
ATOM     50  C   UNK d   0      -7.441   1.536  25.201  0.00  0.00     0.115 C 
BRANCH  50  51
ATOM     51  C   UNK d   0      -7.509   2.955  24.876  0.00  0.00     0.139 C 
ATOM     52  O   UNK d   0      -8.242   3.757  25.501  0.00  0.00    -0.650 OA
BRANCH  51  53
ATOM     53  O   UNK d   0      -6.743   3.458  23.836  0.00  0.00    -0.776 OA
ATOM     54  H   UNK d   0      -6.798   4.441  23.637  0.00  0.00     0.167 HD
ENDBRANCH  51  53
ENDBRANCH  50  51
ENDBRANCH  49  50
ENDBRANCH  24  49
BRANCH  21  55
ATOM     55  C   UNK d   0      -4.201   2.141  26.199  0.00  0.00     0.151 C 
BRANCH  55  56
ATOM     56  C   UNK d   0      -3.086   2.393  25.274  0.00  0.00     0.143 C 
ATOM     57  O   UNK d   0      -1.920   2.601  25.664  0.00  0.00    -0.650 OA
BRANCH  56  58
ATOM     58  O   UNK d   0      -3.363   2.396  23.908  0.00  0.00    -0.776 OA
ATOM     59  H   UNK d   0      -2.537   2.270  23.295  0.00  0.00     0.167 HD
ENDBRANCH  56  58
ENDBRANCH  55  56
ENDBRANCH  21  55
BRANCH  18  60
ATOM     60  C   UNK d   0       0.038  -0.302  28.407  0.00  0.00     0.151 C 
BRANCH  60  61
ATOM     61  C   UNK d   0      -0.231   0.875  29.247  0.00  0.00     0.143 C 
ATOM     62  O   UNK d   0      -0.352   2.042  28.872  0.00  0.00    -0.650 OA
BRANCH  61  63
ATOM     63  O   UNK d   0      -0.361   0.610  30.631  0.00  0.00    -0.776 OA
ATOM     64  H   UNK d   0       0.376   0.157  31.143  0.00  0.00     0.167 HD
ENDBRANCH  61  63
ENDBRANCH  60  61
ENDBRANCH  18  60
BRANCH  14  65
ATOM     65  C   UNK d   0       0.765  -2.838  29.906  0.00  0.00     0.052 C 
BRANCH  65  66
ATOM     66  C   UNK d   0       1.115  -2.234  31.220  0.00  0.00     0.115 C 
BRANCH  66  67
ATOM     67  C   UNK d   0       0.688  -2.872  32.433  0.00  0.00     0.139 C 
ATOM     68  O   UNK d   0       1.538  -3.585  33.083  0.00  0.00    -0.650 OA
BRANCH  67  69
ATOM     69  O   UNK d   0      -0.574  -2.823  33.025  0.00  0.00    -0.776 OA
ATOM     70  H   UNK d   0      -0.722  -2.059  33.700  0.00  0.00     0.167 HD
ENDBRANCH  67  69
ENDBRANCH  66  67
ENDBRANCH  65  66
ENDBRANCH  14  65
ENDBRANCH   6   7
ENDBRANCH   5   6
ENDBRANCH   2   5
TORSDOF 28
ENDMDL
MODEL 8
REMARK VINA RESULT:      -9.8     32.227     34.517
REMARK  28 active torsions:
REMARK  status: ('A' for Active; 'I' for Inactive)
REMARK    1  A    between atoms: C_2  and  O_3 
REMARK    2  A    between atoms: C_2  and  C_4 
REMARK    3  A    between atoms: C_4  and  C_5 
REMARK    4  A    between atoms: C_5  and  C_6 
REMARK    5  A    between atoms: C_7  and  C_8 
REMARK    6  A    between atoms: C_8  and  C_9 
REMARK    7  A    between atoms: C_9  and  O_11 
REMARK    8  A    between atoms: C_28  and  C_29 
REMARK    9  A    between atoms: C_29  and  C_30 
REMARK   10  A    between atoms: C_30  and  O_32 
REMARK   11  A    between atoms: C_33  and  C_34 
REMARK   12  A    between atoms: C_34  and  C_35 
REMARK   13  A    between atoms: C_35  and  C_36 
REMARK   14  A    between atoms: C_36  and  O_38 
REMARK   15  A    between atoms: C_39  and  C_40 
REMARK   16  A    between atoms: C_40  and  C_41 
REMARK   17  A    between atoms: C_41  and  C_42 
REMARK   18  A    between atoms: C_42  and  O_44 
REMARK   19  A    between atoms: C_45  and  C_46 
REMARK   20  A    between atoms: C_46  and  C_47 
REMARK   21  A    between atoms: C_47  and  O_49 
REMARK   22  A    between atoms: C_50  and  C_51 
REMARK   23  A    between atoms: C_51  and  C_52 
REMARK   24  A    between atoms: C_52  and  O_54 
REMARK   25  A    between atoms: C_55  and  C_56 
REMARK   26  A    between atoms: C_56  and  C_57 
REMARK   27  A    between atoms: C_57  and  C_58 
REMARK   28  A    between atoms: C_58  and  O_60 
ROOT
ATOM      1  O   UNK d   0      15.104 -14.570  -4.095  0.00  0.00    -0.650 OA
ATOM      2  C   UNK d   0      14.844 -14.657  -2.874  0.00  0.00     0.139 C 
ENDROOT
BRANCH   2   3
ATOM      3  O   UNK d   0      15.800 -15.143  -2.015  0.00  0.00    -0.776 OA
ATOM      4  H   UNK d   0      16.177 -16.087  -2.124  0.00  0.00     0.167 HD
ENDBRANCH   2   3
BRANCH   2   5
ATOM      5  C   UNK d   0      13.509 -14.238  -2.361  0.00  0.00     0.115 C 
BRANCH   5   6
ATOM      6  C   UNK d   0      13.492 -14.291  -0.858  0.00  0.00     0.052 C 
BRANCH   6   7
ATOM      7  C   UNK d   0      13.567 -12.920  -0.228  0.00  0.00    -0.020 A 
ATOM      8  C   UNK d   0      14.442 -12.489   0.644  0.00  0.00    -0.011 A 
ATOM      9  C   UNK d   0      14.108 -11.112   0.966  0.00  0.00     0.067 A 
ATOM     10  C   UNK d   0      14.643 -10.105   1.786  0.00  0.00     0.062 C 
ATOM     11  N   UNK d   0      13.012 -10.787   0.250  0.00  0.00    -0.248 NA
ATOM     12  C   UNK d   0      14.342  -8.739   1.755  0.00  0.00     0.041 A 
ATOM     13  N   UNK d   0      13.167  -8.093   1.633  0.00  0.00    -0.355 N 
ATOM     14  C   UNK d   0      15.397  -7.809   1.802  0.00  0.00    -0.022 A 
ATOM     15  C   UNK d   0      13.450  -6.777   1.593  0.00  0.00     0.042 A 
ATOM     16  H   UNK d   0      12.157  -8.556   1.596  0.00  0.00     0.166 HD
ATOM     17  C   UNK d   0      12.595  -5.663   1.475  0.00  0.00     0.062 C 
ATOM     18  C   UNK d   0      14.837  -6.560   1.695  0.00  0.00    -0.013 A 
ATOM     19  C   UNK d   0      11.530  -5.478   0.631  0.00  0.00     0.067 A 
ATOM     20  N   UNK d   0      11.098  -6.549  -0.041  0.00  0.00    -0.248 NA
ATOM     21  C   UNK d   0      10.695  -4.357   0.232  0.00  0.00    -0.011 A 
ATOM     22  C   UNK d   0      10.043  -6.209  -0.852  0.00  0.00     0.066 A 
ATOM     23  C   UNK d   0       9.471  -7.239  -1.583  0.00  0.00     0.062 C 
ATOM     24  C   UNK d   0       9.830  -4.791  -0.639  0.00  0.00    -0.020 A 
ATOM     25  C   UNK d   0       9.779  -8.607  -1.528  0.00  0.00     0.041 A 
ATOM     26  N   UNK d   0      10.948  -9.250  -1.422  0.00  0.00    -0.355 N 
ATOM     27  C   UNK d   0       8.720  -9.540  -1.570  0.00  0.00    -0.022 A 
ATOM     28  C   UNK d   0      10.669 -10.563  -1.390  0.00  0.00     0.042 A 
ATOM     29  H   UNK d   0      11.963  -8.784  -1.395  0.00  0.00     0.166 HD
ATOM     30  C   UNK d   0      11.510 -11.683  -1.282  0.00  0.00     0.062 C 
ATOM     31  C   UNK d   0       9.274 -10.780  -1.482  0.00  0.00    -0.013 A 
ATOM     32  C   UNK d   0      12.636 -11.832  -0.489  0.00  0.00     0.066 A 
BRANCH   8  33
ATOM     33  C   UNK d   0      15.570 -13.248   1.215  0.00  0.00     0.151 C 
BRANCH  33  34
ATOM     34  C   UNK d   0      16.844 -12.985   0.521  0.00  0.00     0.143 C 
ATOM     35  O   UNK d   0      16.871 -12.758  -0.696  0.00  0.00    -0.650 OA
BRANCH  34  36
ATOM     36  O   UNK d   0      18.018 -12.995   1.239  0.00  0.00    -0.776 OA
ATOM     37  H   UNK d   0      18.565 -12.135   1.381  0.00  0.00     0.167 HD
ENDBRANCH  34  36
ENDBRANCH  33  34
ENDBRANCH   8  33
BRANCH  31  38
ATOM     38  C   UNK d   0       8.526 -12.092  -1.473  0.00  0.00     0.151 C 
BRANCH  38  39
ATOM     39  C   UNK d   0       8.615 -12.799  -2.734  0.00  0.00     0.143 C 
ATOM     40  O   UNK d   0       9.042 -12.259  -3.770  0.00  0.00    -0.650 OA
BRANCH  39  41
ATOM     41  O   UNK d   0       8.213 -14.132  -2.803  0.00  0.00    -0.776 OA
ATOM     42  H   UNK d   0       8.910 -14.838  -2.546  0.00  0.00     0.167 HD
ENDBRANCH  39  41
ENDBRANCH  38  39
ENDBRANCH  31  38
BRANCH  27  43
ATOM     43  C   UNK d   0       7.235  -9.300  -1.690  0.00  0.00     0.052 C 
BRANCH  43  44
ATOM     44  C   UNK d   0       6.642  -8.655  -0.480  0.00  0.00     0.115 C 
BRANCH  44  45
ATOM     45  C   UNK d   0       5.734  -9.659   0.134  0.00  0.00     0.139 C 
ATOM     46  O   UNK d   0       6.248 -10.664   0.683  0.00  0.00    -0.650 OA
BRANCH  45  47
ATOM     47  O   UNK d   0       4.362  -9.527   0.130  0.00  0.00    -0.776 OA
ATOM     48  H   UNK d   0       3.859  -8.929  -0.546  0.00  0.00     0.167 HD
ENDBRANCH  45  47
ENDBRANCH  44  45
ENDBRANCH  43  44
ENDBRANCH  27  43
BRANCH  24  49
ATOM     49  C   UNK d   0       8.767  -3.995  -1.277  0.00  0.00     0.052 C 
BRANCH  49  50
ATOM     50  C   UNK d   0       9.354  -3.066  -2.308  0.00  0.00     0.115 C 
BRANCH  50  51
ATOM     51  C   UNK d   0       9.936  -3.675  -3.497  0.00  0.00     0.139 C 
ATOM     52  O   UNK d   0       9.515  -4.752  -3.981  0.00  0.00    -0.650 OA
BRANCH  51  53
ATOM     53  O   UNK d   0      11.002  -3.056  -4.132  0.00  0.00    -0.776 OA
ATOM     54  H   UNK d   0      11.905  -3.095  -3.692  0.00  0.00     0.167 HD
ENDBRANCH  51  53
ENDBRANCH  50  51
ENDBRANCH  49  50
ENDBRANCH  24  49
BRANCH  21  55
ATOM     55  C   UNK d   0      10.847  -2.972   0.766  0.00  0.00     0.151 C 
BRANCH  55  56
ATOM     56  C   UNK d   0      10.419  -2.872   2.170  0.00  0.00     0.143 C 
ATOM     57  O   UNK d   0      11.220  -2.691   3.108  0.00  0.00    -0.650 OA
BRANCH  56  58
ATOM     58  O   UNK d   0       9.057  -2.987   2.443  0.00  0.00    -0.776 OA
ATOM     59  H   UNK d   0       8.538  -3.626   1.815  0.00  0.00     0.167 HD
ENDBRANCH  56  58
ENDBRANCH  55  56
ENDBRANCH  21  55
BRANCH  18  60
ATOM     60  C   UNK d   0      15.610  -5.265   1.692  0.00  0.00     0.151 C 
BRANCH  60  61
ATOM     61  C   UNK d   0      15.680  -4.833   3.096  0.00  0.00     0.143 C 
ATOM     62  O   UNK d   0      14.744  -4.732   3.889  0.00  0.00    -0.650 OA
BRANCH  61  63
ATOM     63  O   UNK d   0      16.976  -4.504   3.562  0.00  0.00    -0.776 OA
ATOM     64  H   UNK d   0      17.630  -5.221   3.825  0.00  0.00     0.167 HD
ENDBRANCH  61  63
ENDBRANCH  60  61
ENDBRANCH  18  60
BRANCH  14  65
ATOM     65  C   UNK d   0      16.868  -8.005   2.035  0.00  0.00     0.052 C 
BRANCH  65  66
ATOM     66  C   UNK d   0      17.640  -8.172   0.775  0.00  0.00     0.115 C 
BRANCH  66  67
ATOM     67  C   UNK d   0      18.130  -9.471   0.407  0.00  0.00     0.139 C 
ATOM     68  O   UNK d   0      18.758 -10.162   1.291  0.00  0.00    -0.650 OA
BRANCH  67  69
ATOM     69  O   UNK d   0      18.013 -10.110  -0.827  0.00  0.00    -0.776 OA
ATOM     70  H   UNK d   0      18.704 -10.850  -1.015  0.00  0.00     0.167 HD
ENDBRANCH  67  69
ENDBRANCH  66  67
ENDBRANCH  65  66
ENDBRANCH  14  65
ENDBRANCH   6   7
ENDBRANCH   5   6
ENDBRANCH   2   5
TORSDOF 28
ENDMDL
MODEL 9
REMARK VINA RESULT:      -9.8      1.558      8.073
REMARK  28 active torsions:
REMARK  status: ('A' for Active; 'I' for Inactive)
REMARK    1  A    between atoms: C_2  and  O_3 
REMARK    2  A    between atoms: C_2  and  C_4 
REMARK    3  A    between atoms: C_4  and  C_5 
REMARK    4  A    between atoms: C_5  and  C_6 
REMARK    5  A    between atoms: C_7  and  C_8 
REMARK    6  A    between atoms: C_8  and  C_9 
REMARK    7  A    between atoms: C_9  and  O_11 
REMARK    8  A    between atoms: C_28  and  C_29 
REMARK    9  A    between atoms: C_29  and  C_30 
REMARK   10  A    between atoms: C_30  and  O_32 
REMARK   11  A    between atoms: C_33  and  C_34 
REMARK   12  A    between atoms: C_34  and  C_35 
REMARK   13  A    between atoms: C_35  and  C_36 
REMARK   14  A    between atoms: C_36  and  O_38 
REMARK   15  A    between atoms: C_39  and  C_40 
REMARK   16  A    between atoms: C_40  and  C_41 
REMARK   17  A    between atoms: C_41  and  C_42 
REMARK   18  A    between atoms: C_42  and  O_44 
REMARK   19  A    between atoms: C_45  and  C_46 
REMARK   20  A    between atoms: C_46  and  C_47 
REMARK   21  A    between atoms: C_47  and  O_49 
REMARK   22  A    between atoms: C_50  and  C_51 
REMARK   23  A    between atoms: C_51  and  C_52 
REMARK   24  A    between atoms: C_52  and  O_54 
REMARK   25  A    between atoms: C_55  and  C_56 
REMARK   26  A    between atoms: C_56  and  C_57 
REMARK   27  A    between atoms: C_57  and  C_58 
REMARK   28  A    between atoms: C_58  and  O_60 
ROOT
ATOM      1  O   UNK d   0       1.917  -3.064  33.122  0.00  0.00    -0.650 OA
ATOM      2  C   UNK d   0       0.954  -2.505  32.551  0.00  0.00     0.139 C 
ENDROOT
BRANCH   2   3
ATOM      3  O   UNK d   0      -0.327  -2.791  32.956  0.00  0.00    -0.776 OA
ATOM      4  H   UNK d   0      -1.070  -2.962  32.276  0.00  0.00     0.167 HD
ENDBRANCH   2   3
BRANCH   2   5
ATOM      5  C   UNK d   0       1.200  -1.541  31.441  0.00  0.00     0.115 C 
BRANCH   5   6
ATOM      6  C   UNK d   0       1.565  -2.281  30.184  0.00  0.00     0.052 C 
BRANCH   6   7
ATOM      7  C   UNK d   0       0.422  -3.103  29.640  0.00  0.00    -0.020 A 
ATOM      8  C   UNK d   0       0.326  -4.408  29.599  0.00  0.00    -0.011 A 
ATOM      9  C   UNK d   0      -0.947  -4.741  28.981  0.00  0.00     0.067 A 
ATOM     10  C   UNK d   0      -1.645  -5.918  28.670  0.00  0.00     0.062 C 
ATOM     11  N   UNK d   0      -1.559  -3.578  28.672  0.00  0.00    -0.248 NA
ATOM     12  C   UNK d   0      -2.995  -6.037  28.324  0.00  0.00     0.041 A 
ATOM     13  N   UNK d   0      -3.770  -5.298  27.508  0.00  0.00    -0.355 N 
ATOM     14  C   UNK d   0      -3.766  -7.046  28.930  0.00  0.00    -0.022 A 
ATOM     15  C   UNK d   0      -5.014  -5.806  27.586  0.00  0.00     0.042 A 
ATOM     16  H   UNK d   0      -3.439  -4.446  26.874  0.00  0.00     0.166 HD
ATOM     17  C   UNK d   0      -6.203  -5.414  26.940  0.00  0.00     0.062 C 
ATOM     18  C   UNK d   0      -5.051  -6.903  28.469  0.00  0.00    -0.013 A 
ATOM     19  C   UNK d   0      -6.710  -4.153  26.758  0.00  0.00     0.067 A 
ATOM     20  N   UNK d   0      -5.903  -3.129  27.046  0.00  0.00    -0.248 NA
ATOM     21  C   UNK d   0      -7.977  -3.589  26.322  0.00  0.00    -0.011 A 
ATOM     22  C   UNK d   0      -6.550  -1.937  26.830  0.00  0.00     0.066 A 
ATOM     23  C   UNK d   0      -5.810  -0.785  27.055  0.00  0.00     0.062 C 
ATOM     24  C   UNK d   0      -7.878  -2.292  26.370  0.00  0.00    -0.020 A 
ATOM     25  C   UNK d   0      -4.450  -0.687  27.389  0.00  0.00     0.041 A 
ATOM     26  N   UNK d   0      -3.684  -1.413  28.212  0.00  0.00    -0.355 N 
ATOM     27  C   UNK d   0      -3.676   0.323  26.777  0.00  0.00    -0.022 A 
ATOM     28  C   UNK d   0      -2.444  -0.902  28.142  0.00  0.00     0.042 A 
ATOM     29  H   UNK d   0      -4.020  -2.262  28.856  0.00  0.00     0.166 HD
ATOM     30  C   UNK d   0      -1.255  -1.276  28.787  0.00  0.00     0.062 C 
ATOM     31  C   UNK d   0      -2.406   0.194  27.248  0.00  0.00    -0.013 A 
ATOM     32  C   UNK d   0      -0.787  -2.555  29.043  0.00  0.00     0.066 A 
BRANCH   8  33
ATOM     33  C   UNK d   0       1.320  -5.384  30.081  0.00  0.00     0.151 C 
BRANCH  33  34
ATOM     34  C   UNK d   0       0.866  -6.118  31.275  0.00  0.00     0.143 C 
ATOM     35  O   UNK d   0       0.261  -7.195  31.169  0.00  0.00    -0.650 OA
BRANCH  34  36
ATOM     36  O   UNK d   0       1.117  -5.598  32.524  0.00  0.00    -0.776 OA
ATOM     37  H   UNK d   0       1.995  -5.101  32.729  0.00  0.00     0.167 HD
ENDBRANCH  34  36
ENDBRANCH  33  34
ENDBRANCH   8  33
BRANCH  31  38
ATOM     38  C   UNK d   0      -1.221   1.049  26.862  0.00  0.00     0.151 C 
BRANCH  38  39
ATOM     39  C   UNK d   0      -0.908   2.055  27.855  0.00  0.00     0.143 C 
ATOM     40  O   UNK d   0      -1.771   2.818  28.323  0.00  0.00    -0.650 OA
BRANCH  39  41
ATOM     41  O   UNK d   0       0.403   2.184  28.312  0.00  0.00    -0.776 OA
ATOM     42  H   UNK d   0       1.000   1.354  28.241  0.00  0.00     0.167 HD
ENDBRANCH  39  41
ENDBRANCH  38  39
ENDBRANCH  31  38
BRANCH  27  43
ATOM     43  C   UNK d   0      -4.092   1.382  25.787  0.00  0.00     0.052 C 
BRANCH  43  44
ATOM     44  C   UNK d   0      -4.548   2.649  26.434  0.00  0.00     0.115 C 
BRANCH  44  45
ATOM     45  C   UNK d   0      -5.461   3.314  25.468  0.00  0.00     0.139 C 
ATOM     46  O   UNK d   0      -6.076   4.342  25.846  0.00  0.00    -0.650 OA
BRANCH  45  47
ATOM     47  O   UNK d   0      -5.653   2.854  24.183  0.00  0.00    -0.776 OA
ATOM     48  H   UNK d   0      -5.058   2.128  23.753  0.00  0.00     0.167 HD
ENDBRANCH  45  47
ENDBRANCH  44  45
ENDBRANCH  43  44
ENDBRANCH  27  43
BRANCH  24  49
ATOM     49  C   UNK d   0      -8.918  -1.326  25.976  0.00  0.00     0.052 C 
BRANCH  49  50
ATOM     50  C   UNK d   0      -8.759  -0.947  24.526  0.00  0.00     0.115 C 
BRANCH  50  51
ATOM     51  C   UNK d   0      -7.913   0.201  24.228  0.00  0.00     0.139 C 
ATOM     52  O   UNK d   0      -6.752   0.083  23.768  0.00  0.00    -0.650 OA
BRANCH  51  53
ATOM     53  O   UNK d   0      -8.388   1.482  24.457  0.00  0.00    -0.776 OA
ATOM     54  H   UNK d   0      -9.222   1.589  25.008  0.00  0.00     0.167 HD
ENDBRANCH  51  53
ENDBRANCH  50  51
ENDBRANCH  49  50
ENDBRANCH  24  49
BRANCH  21  55
ATOM     55  C   UNK d   0      -9.152  -4.406  25.898  0.00  0.00     0.151 C 
BRANCH  55  56
ATOM     56  C   UNK d   0     -10.055  -4.699  27.022  0.00  0.00     0.143 C 
ATOM     57  O   UNK d   0     -10.733  -3.821  27.590  0.00  0.00    -0.650 OA
BRANCH  56  58
ATOM     58  O   UNK d   0     -10.141  -6.021  27.456  0.00  0.00    -0.776 OA
ATOM     59  H   UNK d   0     -11.058  -6.475  27.292  0.00  0.00     0.167 HD
ENDBRANCH  56  58
ENDBRANCH  55  56
ENDBRANCH  21  55
BRANCH  18  60
ATOM     60  C   UNK d   0      -6.215  -7.775  28.869  0.00  0.00     0.151 C 
BRANCH  60  61
ATOM     61  C   UNK d   0      -6.275  -8.853  27.870  0.00  0.00     0.143 C 
ATOM     62  O   UNK d   0      -5.597  -9.881  27.845  0.00  0.00    -0.650 OA
BRANCH  61  63
ATOM     63  O   UNK d   0      -7.223  -8.664  26.835  0.00  0.00    -0.776 OA
ATOM     64  H   UNK d   0      -7.934  -7.958  26.907  0.00  0.00     0.167 HD
ENDBRANCH  61  63
ENDBRANCH  60  61
ENDBRANCH  18  60
BRANCH  14  65
ATOM     65  C   UNK d   0      -3.365  -8.183  29.826  0.00  0.00     0.052 C 
BRANCH  65  66
ATOM     66  C   UNK d   0      -2.487  -9.175  29.149  0.00  0.00     0.115 C 
BRANCH  66  67
ATOM     67  C   UNK d   0      -1.826 -10.187  29.925  0.00  0.00     0.139 C 
ATOM     68  O   UNK d   0      -1.427  -9.888  31.110  0.00  0.00    -0.650 OA
BRANCH  67  69
ATOM     69  O   UNK d   0      -1.546 -11.501  29.552  0.00  0.00    -0.776 OA
ATOM     70  H   UNK d   0      -1.952 -12.233  30.152  0.00  0.00     0.167 HD
ENDBRANCH  67  69
ENDBRANCH  66  67
ENDBRANCH  65  66
ENDBRANCH  14  65
ENDBRANCH   6   7
ENDBRANCH   5   6
ENDBRANCH   2   5
TORSDOF 28
ENDMDL
MODEL 10
REMARK VINA RESULT:      -9.7      1.940      7.677
REMARK  28 active torsions:
REMARK  status: ('A' for Active; 'I' for Inactive)
REMARK    1  A    between atoms: C_2  and  O_3 
REMARK    2  A    between atoms: C_2  and  C_4 
REMARK    3  A    between atoms: C_4  and  C_5 
REMARK    4  A    between atoms: C_5  and  C_6 
REMARK    5  A    between atoms: C_7  and  C_8 
REMARK    6  A    between atoms: C_8  and  C_9 
REMARK    7  A    between atoms: C_9  and  O_11 
REMARK    8  A    between atoms: C_28  and  C_29 
REMARK    9  A    between atoms: C_29  and  C_30 
REMARK   10  A    between atoms: C_30  and  O_32 
REMARK   11  A    between atoms: C_33  and  C_34 
REMARK   12  A    between atoms: C_34  and  C_35 
REMARK   13  A    between atoms: C_35  and  C_36 
REMARK   14  A    between atoms: C_36  and  O_38 
REMARK   15  A    between atoms: C_39  and  C_40 
REMARK   16  A    between atoms: C_40  and  C_41 
REMARK   17  A    between atoms: C_41  and  C_42 
REMARK   18  A    between atoms: C_42  and  O_44 
REMARK   19  A    between atoms: C_45  and  C_46 
REMARK   20  A    between atoms: C_46  and  C_47 
REMARK   21  A    between atoms: C_47  and  O_49 
REMARK   22  A    between atoms: C_50  and  C_51 
REMARK   23  A    between atoms: C_51  and  C_52 
REMARK   24  A    between atoms: C_52  and  O_54 
REMARK   25  A    between atoms: C_55  and  C_56 
REMARK   26  A    between atoms: C_56  and  C_57 
REMARK   27  A    between atoms: C_57  and  C_58 
REMARK   28  A    between atoms: C_58  and  O_60 
ROOT
ATOM      1  O   UNK d   0       1.215 -10.541  30.551  0.00  0.00    -0.650 OA
ATOM      2  C   UNK d   0       0.905 -10.064  29.437  0.00  0.00     0.139 C 
ENDROOT
BRANCH   2   3
ATOM      3  O   UNK d   0       1.863  -9.959  28.458  0.00  0.00    -0.776 OA
ATOM      4  H   UNK d   0       2.452  -9.127  28.384  0.00  0.00     0.167 HD
ENDBRANCH   2   3
BRANCH   2   5
ATOM      5  C   UNK d   0      -0.493  -9.615  29.178  0.00  0.00     0.115 C 
BRANCH   5   6
ATOM      6  C   UNK d   0      -1.066  -8.972  30.412  0.00  0.00     0.052 C 
BRANCH   6   7
ATOM      7  C   UNK d   0      -1.267  -7.484  30.253  0.00  0.00    -0.020 A 
ATOM      8  C   UNK d   0      -0.553  -6.522  30.779  0.00  0.00    -0.011 A 
ATOM      9  C   UNK d   0      -1.129  -5.257  30.353  0.00  0.00     0.067 A 
ATOM     10  C   UNK d   0      -0.837  -3.897  30.541  0.00  0.00     0.062 C 
ATOM     11  N   UNK d   0      -2.193  -5.543  29.574  0.00  0.00    -0.248 NA
ATOM     12  C   UNK d   0      -1.346  -2.813  29.817  0.00  0.00     0.041 A 
ATOM     13  N   UNK d   0      -2.592  -2.543  29.385  0.00  0.00    -0.355 N 
ATOM     14  C   UNK d   0      -0.460  -1.812  29.378  0.00  0.00    -0.022 A 
ATOM     15  C   UNK d   0      -2.519  -1.400  28.677  0.00  0.00     0.042 A 
ATOM     16  H   UNK d   0      -3.509  -3.137  29.593  0.00  0.00     0.166 HD
ATOM     17  C   UNK d   0      -3.524  -0.674  28.008  0.00  0.00     0.062 C 
ATOM     18  C   UNK d   0      -1.198  -0.912  28.650  0.00  0.00    -0.013 A 
ATOM     19  C   UNK d   0      -4.525  -1.137  27.192  0.00  0.00     0.067 A 
ATOM     20  N   UNK d   0      -4.719  -2.458  27.163  0.00  0.00    -0.248 NA
ATOM     21  C   UNK d   0      -5.486  -0.543  26.279  0.00  0.00    -0.011 A 
ATOM     22  C   UNK d   0      -5.736  -2.771  26.296  0.00  0.00     0.066 A 
ATOM     23  C   UNK d   0      -6.070  -4.113  26.196  0.00  0.00     0.062 C 
ATOM     24  C   UNK d   0      -6.190  -1.505  25.754  0.00  0.00    -0.020 A 
ATOM     25  C   UNK d   0      -5.556  -5.185  26.942  0.00  0.00     0.041 A 
ATOM     26  N   UNK d   0      -4.314  -5.462  27.358  0.00  0.00    -0.355 N 
ATOM     27  C   UNK d   0      -6.446  -6.187  27.386  0.00  0.00    -0.022 A 
ATOM     28  C   UNK d   0      -4.383  -6.606  28.058  0.00  0.00     0.042 A 
ATOM     29  H   UNK d   0      -3.392  -4.869  27.140  0.00  0.00     0.166 HD
ATOM     30  C   UNK d   0      -3.390  -7.344  28.720  0.00  0.00     0.062 C 
ATOM     31  C   UNK d   0      -5.713  -7.090  28.093  0.00  0.00    -0.013 A 
ATOM     32  C   UNK d   0      -2.330  -6.866  29.474  0.00  0.00     0.066 A 
BRANCH   8  33
ATOM     33  C   UNK d   0       0.624  -6.670  31.654  0.00  0.00     0.151 C 
BRANCH  33  34
ATOM     34  C   UNK d   0       1.898  -6.557  30.921  0.00  0.00     0.143 C 
ATOM     35  O   UNK d   0       2.383  -5.448  30.655  0.00  0.00    -0.650 OA
BRANCH  34  36
ATOM     36  O   UNK d   0       2.555  -7.700  30.527  0.00  0.00    -0.776 OA
ATOM     37  H   UNK d   0       3.479  -7.944  30.909  0.00  0.00     0.167 HD
ENDBRANCH  34  36
ENDBRANCH  33  34
ENDBRANCH   8  33
BRANCH  31  38
ATOM     38  C   UNK d   0      -6.242  -8.330  28.774  0.00  0.00     0.151 C 
BRANCH  38  39
ATOM     39  C   UNK d   0      -6.178  -9.505  27.930  0.00  0.00     0.143 C 
ATOM     40  O   UNK d   0      -5.187 -10.255  27.908  0.00  0.00    -0.650 OA
BRANCH  39  41
ATOM     41  O   UNK d   0      -7.260  -9.818  27.109  0.00  0.00    -0.776 OA
ATOM     42  H   UNK d   0      -7.477  -9.156  26.357  0.00  0.00     0.167 HD
ENDBRANCH  39  41
ENDBRANCH  38  39
ENDBRANCH  31  38
BRANCH  27  43
ATOM     43  C   UNK d   0      -7.932  -6.315  27.165  0.00  0.00     0.052 C 
BRANCH  43  44
ATOM     44  C   UNK d   0      -8.285  -6.865  25.820  0.00  0.00     0.115 C 
BRANCH  44  45
ATOM     45  C   UNK d   0      -9.766  -6.971  25.780  0.00  0.00     0.139 C 
ATOM     46  O   UNK d   0     -10.440  -5.941  26.029  0.00  0.00    -0.650 OA
BRANCH  45  47
ATOM     47  O   UNK d   0     -10.424  -8.143  25.477  0.00  0.00    -0.776 OA
ATOM     48  H   UNK d   0     -10.871  -8.737  26.195  0.00  0.00     0.167 HD
ENDBRANCH  45  47
ENDBRANCH  44  45
ENDBRANCH  43  44
ENDBRANCH  27  43
BRANCH  24  49
ATOM     49  C   UNK d   0      -7.303  -1.347  24.803  0.00  0.00     0.052 C 
BRANCH  49  50
ATOM     50  C   UNK d   0      -8.616  -1.276  25.539  0.00  0.00     0.115 C 
BRANCH  50  51
ATOM     51  C   UNK d   0      -9.423  -2.488  25.578  0.00  0.00     0.139 C 
ATOM     52  O   UNK d   0     -10.073  -2.900  24.588  0.00  0.00    -0.650 OA
BRANCH  51  53
ATOM     53  O   UNK d   0      -9.492  -3.229  26.747  0.00  0.00    -0.776 OA
ATOM     54  H   UNK d   0      -9.250  -4.204  26.707  0.00  0.00     0.167 HD
ENDBRANCH  51  53
ENDBRANCH  50  51
ENDBRANCH  49  50
ENDBRANCH  24  49
BRANCH  21  55
ATOM     55  C   UNK d   0      -5.605   0.924  26.029  0.00  0.00     0.151 C 
BRANCH  55  56
ATOM     56  C   UNK d   0      -4.904   1.333  24.802  0.00  0.00     0.143 C 
ATOM     57  O   UNK d   0      -5.107   2.428  24.241  0.00  0.00    -0.650 OA
BRANCH  56  58
ATOM     58  O   UNK d   0      -3.977   0.446  24.258  0.00  0.00    -0.776 OA
ATOM     59  H   UNK d   0      -3.099   0.345  24.800  0.00  0.00     0.167 HD
ENDBRANCH  56  58
ENDBRANCH  55  56
ENDBRANCH  21  55
BRANCH  18  60
ATOM     60  C   UNK d   0      -0.642   0.322  27.982  0.00  0.00     0.151 C 
BRANCH  60  61
ATOM     61  C   UNK d   0      -1.093   1.459  28.799  0.00  0.00     0.143 C 
ATOM     62  O   UNK d   0      -1.036   1.562  30.024  0.00  0.00    -0.650 OA
BRANCH  61  63
ATOM     63  O   UNK d   0      -1.647   2.540  28.071  0.00  0.00    -0.776 OA
ATOM     64  H   UNK d   0      -1.465   3.492  28.337  0.00  0.00     0.167 HD
ENDBRANCH  61  63
ENDBRANCH  60  61
ENDBRANCH  18  60
BRANCH  14  65
ATOM     65  C   UNK d   0       0.996  -1.592  29.675  0.00  0.00     0.052 C 
BRANCH  65  66
ATOM     66  C   UNK d   0       1.225  -0.833  30.934  0.00  0.00     0.115 C 
BRANCH  66  67
ATOM     67  C   UNK d   0       1.051  -1.486  32.200  0.00  0.00     0.139 C 
ATOM     68  O   UNK d   0       1.800  -2.493  32.479  0.00  0.00    -0.650 OA
BRANCH  67  69
ATOM     69  O   UNK d   0       0.143  -1.165  33.209  0.00  0.00    -0.776 OA
ATOM     70  H   UNK d   0      -0.697  -0.652  32.907  0.00  0.00     0.167 HD
ENDBRANCH  67  69
ENDBRANCH  66  67
ENDBRANCH  65  66
ENDBRANCH  14  65
ENDBRANCH   6   7
ENDBRANCH   5   6
ENDBRANCH   2   5
TORSDOF 28
ENDMDL
MODEL 11
REMARK VINA RESULT:      -9.7      1.313      8.022
REMARK  28 active torsions:
REMARK  status: ('A' for Active; 'I' for Inactive)
REMARK    1  A    between atoms: C_2  and  O_3 
REMARK    2  A    between atoms: C_2  and  C_4 
REMARK    3  A    between atoms: C_4  and  C_5 
REMARK    4  A    between atoms: C_5  and  C_6 
REMARK    5  A    between atoms: C_7  and  C_8 
REMARK    6  A    between atoms: C_8  and  C_9 
REMARK    7  A    between atoms: C_9  and  O_11 
REMARK    8  A    between atoms: C_28  and  C_29 
REMARK    9  A    between atoms: C_29  and  C_30 
REMARK   10  A    between atoms: C_30  and  O_32 
REMARK   11  A    between atoms: C_33  and  C_34 
REMARK   12  A    between atoms: C_34  and  C_35 
REMARK   13  A    between atoms: C_35  and  C_36 
REMARK   14  A    between atoms: C_36  and  O_38 
REMARK   15  A    between atoms: C_39  and  C_40 
REMARK   16  A    between atoms: C_40  and  C_41 
REMARK   17  A    between atoms: C_41  and  C_42 
REMARK   18  A    between atoms: C_42  and  O_44 
REMARK   19  A    between atoms: C_45  and  C_46 
REMARK   20  A    between atoms: C_46  and  C_47 
REMARK   21  A    between atoms: C_47  and  O_49 
REMARK   22  A    between atoms: C_50  and  C_51 
REMARK   23  A    between atoms: C_51  and  C_52 
REMARK   24  A    between atoms: C_52  and  O_54 
REMARK   25  A    between atoms: C_55  and  C_56 
REMARK   26  A    between atoms: C_56  and  C_57 
REMARK   27  A    between atoms: C_57  and  C_58 
REMARK   28  A    between atoms: C_58  and  O_60 
ROOT
ATOM      1  O   UNK d   0       1.191  -3.937  33.204  0.00  0.00    -0.650 OA
ATOM      2  C   UNK d   0       1.264  -4.736  32.245  0.00  0.00     0.139 C 
ENDROOT
BRANCH   2   3
ATOM      3  O   UNK d   0       2.077  -4.435  31.178  0.00  0.00    -0.776 OA
ATOM      4  H   UNK d   0       2.032  -3.522  30.723  0.00  0.00     0.167 HD
ENDBRANCH   2   3
BRANCH   2   5
ATOM      5  C   UNK d   0       0.477  -6.002  32.263  0.00  0.00     0.115 C 
BRANCH   5   6
ATOM      6  C   UNK d   0      -0.968  -5.708  32.564  0.00  0.00     0.052 C 
BRANCH   6   7
ATOM      7  C   UNK d   0      -1.819  -5.641  31.318  0.00  0.00    -0.020 A 
ATOM      8  C   UNK d   0      -2.535  -6.599  30.788  0.00  0.00    -0.011 A 
ATOM      9  C   UNK d   0      -3.172  -6.070  29.594  0.00  0.00     0.067 A 
ATOM     10  C   UNK d   0      -4.054  -6.557  28.616  0.00  0.00     0.062 C 
ATOM     11  N   UNK d   0      -2.784  -4.783  29.469  0.00  0.00    -0.248 NA
ATOM     12  C   UNK d   0      -4.783  -5.809  27.685  0.00  0.00     0.041 A 
ATOM     13  N   UNK d   0      -4.432  -4.756  26.923  0.00  0.00    -0.355 N 
ATOM     14  C   UNK d   0      -6.144  -6.108  27.489  0.00  0.00    -0.022 A 
ATOM     15  C   UNK d   0      -5.536  -4.375  26.254  0.00  0.00     0.042 A 
ATOM     16  H   UNK d   0      -3.418  -4.304  26.844  0.00  0.00     0.166 HD
ATOM     17  C   UNK d   0      -5.726  -3.332  25.325  0.00  0.00     0.062 C 
ATOM     18  C   UNK d   0      -6.630  -5.198  26.583  0.00  0.00    -0.013 A 
ATOM     19  C   UNK d   0      -5.292  -2.033  25.386  0.00  0.00     0.067 A 
ATOM     20  N   UNK d   0      -4.406  -1.735  26.340  0.00  0.00    -0.248 NA
ATOM     21  C   UNK d   0      -5.562  -0.806  24.655  0.00  0.00    -0.011 A 
ATOM     22  C   UNK d   0      -4.078  -0.403  26.287  0.00  0.00     0.066 A 
ATOM     23  C   UNK d   0      -3.134   0.036  27.203  0.00  0.00     0.062 C 
ATOM     24  C   UNK d   0      -4.852   0.145  25.190  0.00  0.00    -0.020 A 
ATOM     25  C   UNK d   0      -2.403  -0.733  28.121  0.00  0.00     0.041 A 
ATOM     26  N   UNK d   0      -2.756  -1.770  28.890  0.00  0.00    -0.355 N 
ATOM     27  C   UNK d   0      -1.036  -0.435  28.315  0.00  0.00    -0.022 A 
ATOM     28  C   UNK d   0      -1.659  -2.147  29.565  0.00  0.00     0.042 A 
ATOM     29  H   UNK d   0      -3.778  -2.216  28.976  0.00  0.00     0.166 HD
ATOM     30  C   UNK d   0      -1.458  -3.176  30.499  0.00  0.00     0.062 C 
ATOM     31  C   UNK d   0      -0.558  -1.326  29.226  0.00  0.00    -0.013 A 
ATOM     32  C   UNK d   0      -1.969  -4.464  30.476  0.00  0.00     0.066 A 
BRANCH   8  33
ATOM     33  C   UNK d   0      -2.679  -7.978  31.291  0.00  0.00     0.151 C 
BRANCH  33  34
ATOM     34  C   UNK d   0      -1.587  -8.863  30.850  0.00  0.00     0.143 C 
ATOM     35  O   UNK d   0      -1.260  -9.853  31.521  0.00  0.00    -0.650 OA
BRANCH  34  36
ATOM     36  O   UNK d   0      -0.921  -8.584  29.679  0.00  0.00    -0.776 OA
ATOM     37  H   UNK d   0      -1.328  -8.822  28.764  0.00  0.00     0.167 HD
ENDBRANCH  34  36
ENDBRANCH  33  34
ENDBRANCH   8  33
BRANCH  31  38
ATOM     38  C   UNK d   0       0.862  -1.403  29.736  0.00  0.00     0.151 C 
BRANCH  38  39
ATOM     39  C   UNK d   0       1.010  -0.863  31.071  0.00  0.00     0.143 C 
ATOM     40  O   UNK d   0       0.300   0.066  31.495  0.00  0.00    -0.650 OA
BRANCH  39  41
ATOM     41  O   UNK d   0       1.977  -1.395  31.923  0.00  0.00    -0.776 OA
ATOM     42  H   UNK d   0       2.803  -1.811  31.481  0.00  0.00     0.167 HD
ENDBRANCH  39  41
ENDBRANCH  38  39
ENDBRANCH  31  38
BRANCH  27  43
ATOM     43  C   UNK d   0      -0.191   0.641  27.680  0.00  0.00     0.052 C 
BRANCH  43  44
ATOM     44  C   UNK d   0       0.208   1.718  28.636  0.00  0.00     0.115 C 
BRANCH  44  45
ATOM     45  C   UNK d   0      -1.048   2.374  29.084  0.00  0.00     0.139 C 
ATOM     46  O   UNK d   0      -1.743   2.972  28.225  0.00  0.00    -0.650 OA
BRANCH  45  47
ATOM     47  O   UNK d   0      -1.479   2.347  30.393  0.00  0.00    -0.776 OA
ATOM     48  H   UNK d   0      -1.377   1.517  30.999  0.00  0.00     0.167 HD
ENDBRANCH  45  47
ENDBRANCH  44  45
ENDBRANCH  43  44
ENDBRANCH  27  43
BRANCH  24  49
ATOM     49  C   UNK d   0      -4.792   1.545  24.735  0.00  0.00     0.052 C 
BRANCH  49  50
ATOM     50  C   UNK d   0      -5.543   2.439  25.688  0.00  0.00     0.115 C 
BRANCH  50  51
ATOM     51  C   UNK d   0      -6.353   3.500  25.106  0.00  0.00     0.139 C 
ATOM     52  O   UNK d   0      -6.623   4.559  25.720  0.00  0.00    -0.650 OA
BRANCH  51  53
ATOM     53  O   UNK d   0      -6.857   3.353  23.823  0.00  0.00    -0.776 OA
ATOM     54  H   UNK d   0      -6.651   2.505  23.325  0.00  0.00     0.167 HD
ENDBRANCH  51  53
ENDBRANCH  50  51
ENDBRANCH  49  50
ENDBRANCH  24  49
BRANCH  21  55
ATOM     55  C   UNK d   0      -6.498  -0.713  23.496  0.00  0.00     0.151 C 
BRANCH  55  56
ATOM     56  C   UNK d   0      -7.886  -0.487  23.925  0.00  0.00     0.143 C 
ATOM     57  O   UNK d   0      -8.284   0.605  24.378  0.00  0.00    -0.650 OA
BRANCH  56  58
ATOM     58  O   UNK d   0      -8.782  -1.549  23.812  0.00  0.00    -0.776 OA
ATOM     59  H   UNK d   0      -8.702  -2.096  22.936  0.00  0.00     0.167 HD
ENDBRANCH  56  58
ENDBRANCH  55  56
ENDBRANCH  21  55
BRANCH  18  60
ATOM     60  C   UNK d   0      -8.054  -5.147  26.089  0.00  0.00     0.151 C 
BRANCH  60  61
ATOM     61  C   UNK d   0      -8.610  -3.880  26.589  0.00  0.00     0.143 C 
ATOM     62  O   UNK d   0      -8.263  -3.265  27.597  0.00  0.00    -0.650 OA
BRANCH  61  63
ATOM     63  O   UNK d   0      -9.655  -3.331  25.807  0.00  0.00    -0.776 OA
ATOM     64  H   UNK d   0     -10.517  -3.035  26.230  0.00  0.00     0.167 HD
ENDBRANCH  61  63
ENDBRANCH  60  61
ENDBRANCH  18  60
BRANCH  14  65
ATOM     65  C   UNK d   0      -6.986  -7.237  28.012  0.00  0.00     0.052 C 
BRANCH  65  66
ATOM     66  C   UNK d   0      -6.975  -8.430  27.124  0.00  0.00     0.115 C 
BRANCH  66  67
ATOM     67  C   UNK d   0      -6.584  -9.707  27.653  0.00  0.00     0.139 C 
ATOM     68  O   UNK d   0      -5.398  -9.836  28.131  0.00  0.00    -0.650 OA
BRANCH  67  69
ATOM     69  O   UNK d   0      -7.347 -10.872  27.720  0.00  0.00    -0.776 OA
ATOM     70  H   UNK d   0      -8.366 -10.738  27.793  0.00  0.00     0.167 HD
ENDBRANCH  67  69
ENDBRANCH  66  67
ENDBRANCH  65  66
ENDBRANCH  14  65
ENDBRANCH   6   7
ENDBRANCH   5   6
ENDBRANCH   2   5
TORSDOF 28
ENDMDL
MODEL 12
REMARK VINA RESULT:      -9.7      1.426     10.838
REMARK  28 active torsions:
REMARK  status: ('A' for Active; 'I' for Inactive)
REMARK    1  A    between atoms: C_2  and  O_3 
REMARK    2  A    between atoms: C_2  and  C_4 
REMARK    3  A    between atoms: C_4  and  C_5 
REMARK    4  A    between atoms: C_5  and  C_6 
REMARK    5  A    between atoms: C_7  and  C_8 
REMARK    6  A    between atoms: C_8  and  C_9 
REMARK    7  A    between atoms: C_9  and  O_11 
REMARK    8  A    between atoms: C_28  and  C_29 
REMARK    9  A    between atoms: C_29  and  C_30 
REMARK   10  A    between atoms: C_30  and  O_32 
REMARK   11  A    between atoms: C_33  and  C_34 
REMARK   12  A    between atoms: C_34  and  C_35 
REMARK   13  A    between atoms: C_35  and  C_36 
REMARK   14  A    between atoms: C_36  and  O_38 
REMARK   15  A    between atoms: C_39  and  C_40 
REMARK   16  A    between atoms: C_40  and  C_41 
REMARK   17  A    between atoms: C_41  and  C_42 
REMARK   18  A    between atoms: C_42  and  O_44 
REMARK   19  A    between atoms: C_45  and  C_46 
REMARK   20  A    between atoms: C_46  and  C_47 
REMARK   21  A    between atoms: C_47  and  O_49 
REMARK   22  A    between atoms: C_50  and  C_51 
REMARK   23  A    between atoms: C_51  and  C_52 
REMARK   24  A    between atoms: C_52  and  O_54 
REMARK   25  A    between atoms: C_55  and  C_56 
REMARK   26  A    between atoms: C_56  and  C_57 
REMARK   27  A    between atoms: C_57  and  C_58 
REMARK   28  A    between atoms: C_58  and  O_60 
ROOT
ATOM      1  O   UNK d   0     -10.161  -8.386  25.476  0.00  0.00    -0.650 OA
ATOM      2  C   UNK d   0     -10.352  -7.356  26.160  0.00  0.00     0.139 C 
ENDROOT
BRANCH   2   3
ATOM      3  O   UNK d   0     -11.637  -6.922  26.380  0.00  0.00    -0.776 OA
ATOM      4  H   UNK d   0     -12.297  -6.812  25.606  0.00  0.00     0.167 HD
ENDBRANCH   2   3
BRANCH   2   5
ATOM      5  C   UNK d   0      -9.194  -6.609  26.727  0.00  0.00     0.115 C 
BRANCH   5   6
ATOM      6  C   UNK d   0      -7.907  -7.305  26.375  0.00  0.00     0.052 C 
BRANCH   6   7
ATOM      7  C   UNK d   0      -6.746  -6.844  27.225  0.00  0.00    -0.020 A 
ATOM      8  C   UNK d   0      -6.155  -7.499  28.191  0.00  0.00    -0.011 A 
ATOM      9  C   UNK d   0      -5.099  -6.653  28.721  0.00  0.00     0.067 A 
ATOM     10  C   UNK d   0      -4.116  -6.764  29.716  0.00  0.00     0.062 C 
ATOM     11  N   UNK d   0      -5.123  -5.498  28.023  0.00  0.00    -0.248 NA
ATOM     12  C   UNK d   0      -2.998  -5.943  29.898  0.00  0.00     0.041 A 
ATOM     13  N   UNK d   0      -2.861  -4.604  29.835  0.00  0.00    -0.355 N 
ATOM     14  C   UNK d   0      -1.747  -6.539  30.140  0.00  0.00    -0.022 A 
ATOM     15  C   UNK d   0      -1.555  -4.337  30.023  0.00  0.00     0.042 A 
ATOM     16  H   UNK d   0      -3.675  -3.862  29.681  0.00  0.00     0.166 HD
ATOM     17  C   UNK d   0      -0.870  -3.106  30.055  0.00  0.00     0.062 C 
ATOM     18  C   UNK d   0      -0.825  -5.526  30.218  0.00  0.00    -0.013 A 
ATOM     19  C   UNK d   0      -0.986  -2.033  29.210  0.00  0.00     0.067 A 
ATOM     20  N   UNK d   0      -2.011  -2.045  28.353  0.00  0.00    -0.248 NA
ATOM     21  C   UNK d   0      -0.240  -0.809  28.966  0.00  0.00    -0.011 A 
ATOM     22  C   UNK d   0      -1.988  -0.920  27.567  0.00  0.00     0.066 A 
ATOM     23  C   UNK d   0      -3.024  -0.786  26.653  0.00  0.00     0.062 C 
ATOM     24  C   UNK d   0      -0.829  -0.165  28.000  0.00  0.00    -0.020 A 
ATOM     25  C   UNK d   0      -4.144  -1.615  26.495  0.00  0.00     0.041 A 
ATOM     26  N   UNK d   0      -4.278  -2.946  26.543  0.00  0.00    -0.355 N 
ATOM     27  C   UNK d   0      -5.400  -1.015  26.257  0.00  0.00    -0.022 A 
ATOM     28  C   UNK d   0      -5.578  -3.216  26.347  0.00  0.00     0.042 A 
ATOM     29  H   UNK d   0      -3.457  -3.691  26.688  0.00  0.00     0.166 HD
ATOM     30  C   UNK d   0      -6.272  -4.435  26.304  0.00  0.00     0.062 C 
ATOM     31  C   UNK d   0      -6.313  -2.020  26.162  0.00  0.00    -0.013 A 
ATOM     32  C   UNK d   0      -6.091  -5.550  27.107  0.00  0.00     0.066 A 
BRANCH   8  33
ATOM     33  C   UNK d   0      -6.486  -8.852  28.675  0.00  0.00     0.151 C 
BRANCH  33  34
ATOM     34  C   UNK d   0      -5.874  -9.916  27.860  0.00  0.00     0.143 C 
ATOM     35  O   UNK d   0      -6.543 -10.547  27.030  0.00  0.00    -0.650 OA
BRANCH  34  36
ATOM     36  O   UNK d   0      -4.540 -10.211  28.027  0.00  0.00    -0.776 OA
ATOM     37  H   UNK d   0      -4.223 -10.851  28.767  0.00  0.00     0.167 HD
ENDBRANCH  34  36
ENDBRANCH  33  34
ENDBRANCH   8  33
BRANCH  31  38
ATOM     38  C   UNK d   0      -7.796  -1.858  25.924  0.00  0.00     0.151 C 
BRANCH  38  39
ATOM     39  C   UNK d   0      -8.574  -1.952  27.142  0.00  0.00     0.143 C 
ATOM     40  O   UNK d   0      -9.707  -2.463  27.169  0.00  0.00    -0.650 OA
BRANCH  39  41
ATOM     41  O   UNK d   0      -8.045  -1.457  28.333  0.00  0.00    -0.776 OA
ATOM     42  H   UNK d   0      -8.654  -1.490  29.157  0.00  0.00     0.167 HD
ENDBRANCH  39  41
ENDBRANCH  38  39
ENDBRANCH  31  38
BRANCH  27  43
ATOM     43  C   UNK d   0      -5.754   0.444  26.117  0.00  0.00     0.052 C 
BRANCH  43  44
ATOM     44  C   UNK d   0      -5.660   0.943  24.711  0.00  0.00     0.115 C 
BRANCH  44  45
ATOM     45  C   UNK d   0      -4.733   2.104  24.733  0.00  0.00     0.139 C 
ATOM     46  O   UNK d   0      -4.982   3.045  25.526  0.00  0.00    -0.650 OA
BRANCH  45  47
ATOM     47  O   UNK d   0      -3.617   2.184  23.928  0.00  0.00    -0.776 OA
ATOM     48  H   UNK d   0      -3.657   2.494  22.944  0.00  0.00     0.167 HD
ENDBRANCH  45  47
ENDBRANCH  44  45
ENDBRANCH  43  44
ENDBRANCH  27  43
BRANCH  24  49
ATOM     49  C   UNK d   0      -0.428   1.145  27.459  0.00  0.00     0.052 C 
BRANCH  49  50
ATOM     50  C   UNK d   0      -1.333   2.230  27.985  0.00  0.00     0.115 C 
BRANCH  50  51
ATOM     51  C   UNK d   0      -0.861   2.989  29.135  0.00  0.00     0.139 C 
ATOM     52  O   UNK d   0       0.010   3.886  29.042  0.00  0.00    -0.650 OA
BRANCH  51  53
ATOM     53  O   UNK d   0      -1.382   2.725  30.392  0.00  0.00    -0.776 OA
ATOM     54  H   UNK d   0      -1.500   3.494  31.029  0.00  0.00     0.167 HD
ENDBRANCH  51  53
ENDBRANCH  50  51
ENDBRANCH  49  50
ENDBRANCH  24  49
BRANCH  21  55
ATOM     55  C   UNK d   0       0.981  -0.410  29.726  0.00  0.00     0.151 C 
BRANCH  55  56
ATOM     56  C   UNK d   0       0.716  -0.281  31.167  0.00  0.00     0.143 C 
ATOM     57  O   UNK d   0      -0.104   0.536  31.632  0.00  0.00    -0.650 OA
BRANCH  56  58
ATOM     58  O   UNK d   0       1.420  -1.115  32.034  0.00  0.00    -0.776 OA
ATOM     59  H   UNK d   0       0.832  -1.642  32.706  0.00  0.00     0.167 HD
ENDBRANCH  56  58
ENDBRANCH  55  56
ENDBRANCH  21  55
BRANCH  18  60
ATOM     60  C   UNK d   0       0.652  -5.717  30.460  0.00  0.00     0.151 C 
BRANCH  60  61
ATOM     61  C   UNK d   0       0.938  -5.068  31.748  0.00  0.00     0.143 C 
ATOM     62  O   UNK d   0       0.376  -5.276  32.824  0.00  0.00    -0.650 OA
BRANCH  61  63
ATOM     63  O   UNK d   0       1.976  -4.106  31.721  0.00  0.00    -0.776 OA
ATOM     64  H   UNK d   0       2.026  -3.418  30.991  0.00  0.00     0.167 HD
ENDBRANCH  61  63
ENDBRANCH  60  61
ENDBRANCH  18  60
BRANCH  14  65
ATOM     65  C   UNK d   0      -1.378  -7.972  30.399  0.00  0.00     0.052 C 
BRANCH  65  66
ATOM     66  C   UNK d   0      -1.004  -8.230  31.816  0.00  0.00     0.115 C 
BRANCH  66  67
ATOM     67  C   UNK d   0      -2.011  -8.175  32.839  0.00  0.00     0.139 C 
ATOM     68  O   UNK d   0      -2.497  -7.029  33.161  0.00  0.00    -0.650 OA
BRANCH  67  69
ATOM     69  O   UNK d   0      -2.555  -9.238  33.559  0.00  0.00    -0.776 OA
ATOM     70  H   UNK d   0      -3.020  -8.988  34.443  0.00  0.00     0.167 HD
ENDBRANCH  67  69
ENDBRANCH  66  67
ENDBRANCH  65  66
ENDBRANCH  14  65
ENDBRANCH   6   7
ENDBRANCH   5   6
ENDBRANCH   2   5
TORSDOF 28
ENDMDL
MODEL 13
REMARK VINA RESULT:      -9.6     32.748     35.230
REMARK  28 active torsions:
REMARK  status: ('A' for Active; 'I' for Inactive)
REMARK    1  A    between atoms: C_2  and  O_3 
REMARK    2  A    between atoms: C_2  and  C_4 
REMARK    3  A    between atoms: C_4  and  C_5 
REMARK    4  A    between atoms: C_5  and  C_6 
REMARK    5  A    between atoms: C_7  and  C_8 
REMARK    6  A    between atoms: C_8  and  C_9 
REMARK    7  A    between atoms: C_9  and  O_11 
REMARK    8  A    between atoms: C_28  and  C_29 
REMARK    9  A    between atoms: C_29  and  C_30 
REMARK   10  A    between atoms: C_30  and  O_32 
REMARK   11  A    between atoms: C_33  and  C_34 
REMARK   12  A    between atoms: C_34  and  C_35 
REMARK   13  A    between atoms: C_35  and  C_36 
REMARK   14  A    between atoms: C_36  and  O_38 
REMARK   15  A    between atoms: C_39  and  C_40 
REMARK   16  A    between atoms: C_40  and  C_41 
REMARK   17  A    between atoms: C_41  and  C_42 
REMARK   18  A    between atoms: C_42  and  O_44 
REMARK   19  A    between atoms: C_45  and  C_46 
REMARK   20  A    between atoms: C_46  and  C_47 
REMARK   21  A    between atoms: C_47  and  O_49 
REMARK   22  A    between atoms: C_50  and  C_51 
REMARK   23  A    between atoms: C_51  and  C_52 
REMARK   24  A    between atoms: C_52  and  O_54 
REMARK   25  A    between atoms: C_55  and  C_56 
REMARK   26  A    between atoms: C_56  and  C_57 
REMARK   27  A    between atoms: C_57  and  C_58 
REMARK   28  A    between atoms: C_58  and  O_60 
ROOT
ATOM      1  O   UNK d   0       9.547 -14.474  -5.102  0.00  0.00    -0.650 OA
ATOM      2  C   UNK d   0       9.492 -15.267  -4.136  0.00  0.00     0.139 C 
ENDROOT
BRANCH   2   3
ATOM      3  O   UNK d   0       8.270 -15.577  -3.588  0.00  0.00    -0.776 OA
ATOM      4  H   UNK d   0       7.402 -15.377  -4.088  0.00  0.00     0.167 HD
ENDBRANCH   2   3
BRANCH   2   5
ATOM      5  C   UNK d   0      10.741 -15.867  -3.588  0.00  0.00     0.115 C 
BRANCH   5   6
ATOM      6  C   UNK d   0      11.931 -15.035  -3.981  0.00  0.00     0.052 C 
BRANCH   6   7
ATOM      7  C   UNK d   0      12.427 -14.160  -2.855  0.00  0.00    -0.020 A 
ATOM      8  C   UNK d   0      13.458 -14.370  -2.077  0.00  0.00    -0.011 A 
ATOM      9  C   UNK d   0      13.538 -13.264  -1.137  0.00  0.00     0.067 A 
ATOM     10  C   UNK d   0      14.393 -12.884  -0.090  0.00  0.00     0.062 C 
ATOM     11  N   UNK d   0      12.513 -12.430  -1.411  0.00  0.00    -0.248 NA
ATOM     12  C   UNK d   0      14.472 -11.631   0.527  0.00  0.00     0.041 A 
ATOM     13  N   UNK d   0      13.509 -10.780   0.931  0.00  0.00    -0.355 N 
ATOM     14  C   UNK d   0      15.738 -11.063   0.756  0.00  0.00    -0.022 A 
ATOM     15  C   UNK d   0      14.133  -9.683   1.402  0.00  0.00     0.042 A 
ATOM     16  H   UNK d   0      12.412 -10.959   0.901  0.00  0.00     0.166 HD
ATOM     17  C   UNK d   0      13.605  -8.495   1.945  0.00  0.00     0.062 C 
ATOM     18  C   UNK d   0      15.531  -9.824   1.308  0.00  0.00    -0.013 A 
ATOM     19  C   UNK d   0      12.560  -7.730   1.493  0.00  0.00     0.067 A 
ATOM     20  N   UNK d   0      11.800  -8.254   0.528  0.00  0.00    -0.248 NA
ATOM     21  C   UNK d   0      12.029  -6.409   1.787  0.00  0.00    -0.011 A 
ATOM     22  C   UNK d   0      10.810  -7.371   0.170  0.00  0.00     0.066 A 
ATOM     23  C   UNK d   0       9.919  -7.806  -0.801  0.00  0.00     0.062 C 
ATOM     24  C   UNK d   0      11.007  -6.204   1.007  0.00  0.00    -0.020 A 
ATOM     25  C   UNK d   0       9.850  -9.073  -1.400  0.00  0.00     0.041 A 
ATOM     26  N   UNK d   0      10.806  -9.913  -1.814  0.00  0.00    -0.355 N 
ATOM     27  C   UNK d   0       8.578  -9.644  -1.624  0.00  0.00    -0.022 A 
ATOM     28  C   UNK d   0      10.186 -11.004  -2.292  0.00  0.00     0.042 A 
ATOM     29  H   UNK d   0      11.908  -9.727  -1.794  0.00  0.00     0.166 HD
ATOM     30  C   UNK d   0      10.699 -12.188  -2.844  0.00  0.00     0.062 C 
ATOM     31  C   UNK d   0       8.782 -10.866  -2.188  0.00  0.00    -0.013 A 
ATOM     32  C   UNK d   0      11.807 -12.913  -2.434  0.00  0.00     0.066 A 
BRANCH   8  33
ATOM     33  C   UNK d   0      14.384 -15.517  -2.123  0.00  0.00     0.151 C 
BRANCH  33  34
ATOM     34  C   UNK d   0      15.651 -15.200  -2.805  0.00  0.00     0.143 C 
ATOM     35  O   UNK d   0      15.692 -14.359  -3.714  0.00  0.00    -0.650 OA
BRANCH  34  36
ATOM     36  O   UNK d   0      16.803 -15.849  -2.425  0.00  0.00    -0.776 OA
ATOM     37  H   UNK d   0      17.082 -15.908  -1.436  0.00  0.00     0.167 HD
ENDBRANCH  34  36
ENDBRANCH  33  34
ENDBRANCH   8  33
BRANCH  31  38
ATOM     38  C   UNK d   0       7.710 -11.851  -2.592  0.00  0.00     0.151 C 
BRANCH  38  39
ATOM     39  C   UNK d   0       7.384 -12.789  -1.540  0.00  0.00     0.143 C 
ATOM     40  O   UNK d   0       7.586 -12.539  -0.339  0.00  0.00    -0.650 OA
BRANCH  39  41
ATOM     41  O   UNK d   0       6.821 -14.022  -1.869  0.00  0.00    -0.776 OA
ATOM     42  H   UNK d   0       5.954 -14.002  -2.415  0.00  0.00     0.167 HD
ENDBRANCH  39  41
ENDBRANCH  38  39
ENDBRANCH  31  38
BRANCH  27  43
ATOM     43  C   UNK d   0       7.210  -9.082  -1.331  0.00  0.00     0.052 C 
BRANCH  43  44
ATOM     44  C   UNK d   0       6.813  -9.211   0.104  0.00  0.00     0.115 C 
BRANCH  44  45
ATOM     45  C   UNK d   0       5.408  -9.693   0.115  0.00  0.00     0.139 C 
ATOM     46  O   UNK d   0       4.489  -8.838   0.139  0.00  0.00    -0.650 OA
BRANCH  45  47
ATOM     47  O   UNK d   0       5.077 -11.031   0.094  0.00  0.00    -0.776 OA
ATOM     48  H   UNK d   0       4.417 -11.456   0.765  0.00  0.00     0.167 HD
ENDBRANCH  45  47
ENDBRANCH  44  45
ENDBRANCH  43  44
ENDBRANCH  27  43
BRANCH  24  49
ATOM     49  C   UNK d   0      10.148  -5.008   0.997  0.00  0.00     0.052 C 
BRANCH  49  50
ATOM     50  C   UNK d   0      10.296  -4.266  -0.307  0.00  0.00     0.115 C 
BRANCH  50  51
ATOM     51  C   UNK d   0      10.298  -2.811  -0.248  0.00  0.00     0.139 C 
ATOM     52  O   UNK d   0      10.246  -2.092  -1.274  0.00  0.00    -0.650 OA
BRANCH  51  53
ATOM     53  O   UNK d   0      10.361  -2.174   0.982  0.00  0.00    -0.776 OA
ATOM     54  H   UNK d   0       9.689  -2.428   1.684  0.00  0.00     0.167 HD
ENDBRANCH  51  53
ENDBRANCH  50  51
ENDBRANCH  49  50
ENDBRANCH  24  49
BRANCH  21  55
ATOM     55  C   UNK d   0      12.595  -5.493   2.820  0.00  0.00     0.151 C 
BRANCH  55  56
ATOM     56  C   UNK d   0      13.852  -4.871   2.377  0.00  0.00     0.143 C 
ATOM     57  O   UNK d   0      14.848  -4.759   3.120  0.00  0.00    -0.650 OA
BRANCH  56  58
ATOM     58  O   UNK d   0      13.915  -4.395   1.069  0.00  0.00    -0.776 OA
ATOM     59  H   UNK d   0      13.462  -5.001   0.362  0.00  0.00     0.167 HD
ENDBRANCH  56  58
ENDBRANCH  55  56
ENDBRANCH  21  55
BRANCH  18  60
ATOM     60  C   UNK d   0      16.622  -8.861   1.705  0.00  0.00     0.151 C 
BRANCH  60  61
ATOM     61  C   UNK d   0      16.938  -8.087   0.495  0.00  0.00     0.143 C 
ATOM     62  O   UNK d   0      17.849  -8.299  -0.305  0.00  0.00    -0.650 OA
BRANCH  61  63
ATOM     63  O   UNK d   0      16.086  -6.984   0.247  0.00  0.00    -0.776 OA
ATOM     64  H   UNK d   0      15.351  -6.742   0.888  0.00  0.00     0.167 HD
ENDBRANCH  61  63
ENDBRANCH  60  61
ENDBRANCH  18  60
BRANCH  14  65
ATOM     65  C   UNK d   0      17.116 -11.638   0.584  0.00  0.00     0.052 C 
BRANCH  65  66
ATOM     66  C   UNK d   0      17.466 -12.632   1.634  0.00  0.00     0.115 C 
BRANCH  66  67
ATOM     67  C   UNK d   0      18.740 -12.553   2.292  0.00  0.00     0.139 C 
ATOM     68  O   UNK d   0      19.490 -11.535   2.058  0.00  0.00    -0.650 OA
BRANCH  67  69
ATOM     69  O   UNK d   0      19.297 -13.468   3.185  0.00  0.00    -0.776 OA
ATOM     70  H   UNK d   0      19.035 -14.453   3.038  0.00  0.00     0.167 HD
ENDBRANCH  67  69
ENDBRANCH  66  67
ENDBRANCH  65  66
ENDBRANCH  14  65
ENDBRANCH   6   7
ENDBRANCH   5   6
ENDBRANCH   2   5
TORSDOF 28
ENDMDL
MODEL 14
REMARK VINA RESULT:      -9.6      1.583      7.438
REMARK  28 active torsions:
REMARK  status: ('A' for Active; 'I' for Inactive)
REMARK    1  A    between atoms: C_2  and  O_3 
REMARK    2  A    between atoms: C_2  and  C_4 
REMARK    3  A    between atoms: C_4  and  C_5 
REMARK    4  A    between atoms: C_5  and  C_6 
REMARK    5  A    between atoms: C_7  and  C_8 
REMARK    6  A    between atoms: C_8  and  C_9 
REMARK    7  A    between atoms: C_9  and  O_11 
REMARK    8  A    between atoms: C_28  and  C_29 
REMARK    9  A    between atoms: C_29  and  C_30 
REMARK   10  A    between atoms: C_30  and  O_32 
REMARK   11  A    between atoms: C_33  and  C_34 
REMARK   12  A    between atoms: C_34  and  C_35 
REMARK   13  A    between atoms: C_35  and  C_36 
REMARK   14  A    between atoms: C_36  and  O_38 
REMARK   15  A    between atoms: C_39  and  C_40 
REMARK   16  A    between atoms: C_40  and  C_41 
REMARK   17  A    between atoms: C_41  and  C_42 
REMARK   18  A    between atoms: C_42  and  O_44 
REMARK   19  A    between atoms: C_45  and  C_46 
REMARK   20  A    between atoms: C_46  and  C_47 
REMARK   21  A    between atoms: C_47  and  O_49 
REMARK   22  A    between atoms: C_50  and  C_51 
REMARK   23  A    between atoms: C_51  and  C_52 
REMARK   24  A    between atoms: C_52  and  O_54 
REMARK   25  A    between atoms: C_55  and  C_56 
REMARK   26  A    between atoms: C_56  and  C_57 
REMARK   27  A    between atoms: C_57  and  C_58 
REMARK   28  A    between atoms: C_58  and  O_60 
ROOT
ATOM      1  O   UNK d   0      -2.443  -7.067  33.005  0.00  0.00    -0.650 OA
ATOM      2  C   UNK d   0      -2.277  -8.231  32.577  0.00  0.00     0.139 C 
ENDROOT
BRANCH   2   3
ATOM      3  O   UNK d   0      -2.163  -9.268  33.472  0.00  0.00    -0.776 OA
ATOM      4  H   UNK d   0      -1.300  -9.810  33.544  0.00  0.00     0.167 HD
ENDBRANCH   2   3
BRANCH   2   5
ATOM      5  C   UNK d   0      -2.203  -8.486  31.111  0.00  0.00     0.115 C 
BRANCH   5   6
ATOM      6  C   UNK d   0      -0.976  -7.834  30.533  0.00  0.00     0.052 C 
BRANCH   6   7
ATOM      7  C   UNK d   0      -1.185  -6.369  30.230  0.00  0.00    -0.020 A 
ATOM      8  C   UNK d   0      -0.475  -5.356  30.658  0.00  0.00    -0.011 A 
ATOM      9  C   UNK d   0      -1.059  -4.142  30.112  0.00  0.00     0.067 A 
ATOM     10  C   UNK d   0      -0.774  -2.769  30.167  0.00  0.00     0.062 C 
ATOM     11  N   UNK d   0      -2.123  -4.509  29.368  0.00  0.00    -0.248 NA
ATOM     12  C   UNK d   0      -1.290  -1.763  29.342  0.00  0.00     0.041 A 
ATOM     13  N   UNK d   0      -2.538  -1.543  28.888  0.00  0.00    -0.355 N 
ATOM     14  C   UNK d   0      -0.410  -0.805  28.806  0.00  0.00    -0.022 A 
ATOM     15  C   UNK d   0      -2.472  -0.474  28.072  0.00  0.00     0.042 A 
ATOM     16  H   UNK d   0      -3.451  -2.119  29.155  0.00  0.00     0.166 HD
ATOM     17  C   UNK d   0      -3.483   0.178  27.338  0.00  0.00     0.062 C 
ATOM     18  C   UNK d   0      -1.154   0.016  27.995  0.00  0.00    -0.013 A 
ATOM     19  C   UNK d   0      -4.482  -0.367  26.573  0.00  0.00     0.067 A 
ATOM     20  N   UNK d   0      -4.669  -1.686  26.673  0.00  0.00    -0.248 NA
ATOM     21  C   UNK d   0      -5.448   0.130  25.608  0.00  0.00    -0.011 A 
ATOM     22  C   UNK d   0      -5.686  -2.087  25.842  0.00  0.00     0.066 A 
ATOM     23  C   UNK d   0      -6.013  -3.435  25.874  0.00  0.00     0.062 C 
ATOM     24  C   UNK d   0      -6.147  -0.882  25.181  0.00  0.00    -0.020 A 
ATOM     25  C   UNK d   0      -5.491  -4.426  26.720  0.00  0.00     0.041 A 
ATOM     26  N   UNK d   0      -4.248  -4.655  27.159  0.00  0.00    -0.355 N 
ATOM     27  C   UNK d   0      -6.375  -5.385  27.261  0.00  0.00    -0.022 A 
ATOM     28  C   UNK d   0      -4.309  -5.725  27.966  0.00  0.00     0.042 A 
ATOM     29  H   UNK d   0      -3.329  -4.081  26.881  0.00  0.00     0.166 HD
ATOM     30  C   UNK d   0      -3.311  -6.390  28.695  0.00  0.00     0.062 C 
ATOM     31  C   UNK d   0      -5.636  -6.210  28.051  0.00  0.00    -0.013 A 
ATOM     32  C   UNK d   0      -2.252  -5.836  29.397  0.00  0.00     0.066 A 
BRANCH   8  33
ATOM     33  C   UNK d   0       0.704  -5.413  31.542  0.00  0.00     0.151 C 
BRANCH  33  34
ATOM     34  C   UNK d   0       0.453  -4.820  32.868  0.00  0.00     0.143 C 
ATOM     35  O   UNK d   0       1.378  -4.336  33.534  0.00  0.00    -0.650 OA
BRANCH  34  36
ATOM     36  O   UNK d   0      -0.828  -4.807  33.370  0.00  0.00    -0.776 OA
ATOM     37  H   UNK d   0      -1.616  -4.446  32.815  0.00  0.00     0.167 HD
ENDBRANCH  34  36
ENDBRANCH  33  34
ENDBRANCH   8  33
BRANCH  31  38
ATOM     38  C   UNK d   0      -6.157  -7.382  28.851  0.00  0.00     0.151 C 
BRANCH  38  39
ATOM     39  C   UNK d   0      -5.986  -8.647  28.170  0.00  0.00     0.143 C 
ATOM     40  O   UNK d   0      -4.996  -9.376  28.359  0.00  0.00    -0.650 OA
BRANCH  39  41
ATOM     41  O   UNK d   0      -6.958  -9.078  27.267  0.00  0.00    -0.776 OA
ATOM     42  H   UNK d   0      -7.311  -8.382  26.603  0.00  0.00     0.167 HD
ENDBRANCH  39  41
ENDBRANCH  38  39
ENDBRANCH  31  38
BRANCH  27  43
ATOM     43  C   UNK d   0      -7.861  -5.542  27.056  0.00  0.00     0.052 C 
BRANCH  43  44
ATOM     44  C   UNK d   0      -8.211  -6.281  25.806  0.00  0.00     0.115 C 
BRANCH  44  45
ATOM     45  C   UNK d   0      -9.663  -6.066  25.577  0.00  0.00     0.139 C 
ATOM     46  O   UNK d   0     -10.279  -6.896  24.863  0.00  0.00    -0.650 OA
BRANCH  45  47
ATOM     47  O   UNK d   0     -10.356  -5.005  26.119  0.00  0.00    -0.776 OA
ATOM     48  H   UNK d   0     -11.336  -5.080  26.438  0.00  0.00     0.167 HD
ENDBRANCH  45  47
ENDBRANCH  44  45
ENDBRANCH  43  44
ENDBRANCH  27  43
BRANCH  24  49
ATOM     49  C   UNK d   0      -7.262  -0.824  24.221  0.00  0.00     0.052 C 
BRANCH  49  50
ATOM     50  C   UNK d   0      -8.569  -0.632  24.946  0.00  0.00     0.115 C 
BRANCH  50  51
ATOM     51  C   UNK d   0      -9.312  -1.832  25.307  0.00  0.00     0.139 C 
ATOM     52  O   UNK d   0      -9.970  -2.497  24.472  0.00  0.00    -0.650 OA
BRANCH  51  53
ATOM     53  O   UNK d   0      -9.307  -2.273  26.622  0.00  0.00    -0.776 OA
ATOM     54  H   UNK d   0      -8.422  -2.490  27.047  0.00  0.00     0.167 HD
ENDBRANCH  51  53
ENDBRANCH  50  51
ENDBRANCH  49  50
ENDBRANCH  24  49
BRANCH  21  55
ATOM     55  C   UNK d   0      -5.575   1.565  25.216  0.00  0.00     0.151 C 
BRANCH  55  56
ATOM     56  C   UNK d   0      -4.269   2.174  24.921  0.00  0.00     0.143 C 
ATOM     57  O   UNK d   0      -3.635   1.937  23.874  0.00  0.00    -0.650 OA
BRANCH  56  58
ATOM     58  O   UNK d   0      -3.734   3.050  25.864  0.00  0.00    -0.776 OA
ATOM     59  H   UNK d   0      -2.884   3.556  25.556  0.00  0.00     0.167 HD
ENDBRANCH  56  58
ENDBRANCH  55  56
ENDBRANCH  21  55
BRANCH  18  60
ATOM     60  C   UNK d   0      -0.606   1.182  27.209  0.00  0.00     0.151 C 
BRANCH  60  61
ATOM     61  C   UNK d   0      -0.822   2.370  28.048  0.00  0.00     0.143 C 
ATOM     62  O   UNK d   0      -1.898   2.910  28.307  0.00  0.00    -0.650 OA
BRANCH  61  63
ATOM     63  O   UNK d   0       0.350   2.935  28.606  0.00  0.00    -0.776 OA
ATOM     64  H   UNK d   0       0.553   3.914  28.506  0.00  0.00     0.167 HD
ENDBRANCH  61  63
ENDBRANCH  60  61
ENDBRANCH  18  60
BRANCH  14  65
ATOM     65  C   UNK d   0       1.045  -0.549  29.077  0.00  0.00     0.052 C 
BRANCH  65  66
ATOM     66  C   UNK d   0       1.947  -1.288  28.153  0.00  0.00     0.115 C 
BRANCH  66  67
ATOM     67  C   UNK d   0       3.311  -0.865  27.999  0.00  0.00     0.139 C 
ATOM     68  O   UNK d   0       4.225  -1.495  28.648  0.00  0.00    -0.650 OA
BRANCH  67  69
ATOM     69  O   UNK d   0       3.797   0.179  27.213  0.00  0.00    -0.776 OA
ATOM     70  H   UNK d   0       3.198   1.016  27.158  0.00  0.00     0.167 HD
ENDBRANCH  67  69
ENDBRANCH  66  67
ENDBRANCH  65  66
ENDBRANCH  14  65
ENDBRANCH   6   7
ENDBRANCH   5   6
ENDBRANCH   2   5
TORSDOF 28
ENDMDL
MODEL 15
REMARK VINA RESULT:      -9.4      1.769      2.342
REMARK  28 active torsions:
REMARK  status: ('A' for Active; 'I' for Inactive)
REMARK    1  A    between atoms: C_2  and  O_3 
REMARK    2  A    between atoms: C_2  and  C_4 
REMARK    3  A    between atoms: C_4  and  C_5 
REMARK    4  A    between atoms: C_5  and  C_6 
REMARK    5  A    between atoms: C_7  and  C_8 
REMARK    6  A    between atoms: C_8  and  C_9 
REMARK    7  A    between atoms: C_9  and  O_11 
REMARK    8  A    between atoms: C_28  and  C_29 
REMARK    9  A    between atoms: C_29  and  C_30 
REMARK   10  A    between atoms: C_30  and  O_32 
REMARK   11  A    between atoms: C_33  and  C_34 
REMARK   12  A    between atoms: C_34  and  C_35 
REMARK   13  A    between atoms: C_35  and  C_36 
REMARK   14  A    between atoms: C_36  and  O_38 
REMARK   15  A    between atoms: C_39  and  C_40 
REMARK   16  A    between atoms: C_40  and  C_41 
REMARK   17  A    between atoms: C_41  and  C_42 
REMARK   18  A    between atoms: C_42  and  O_44 
REMARK   19  A    between atoms: C_45  and  C_46 
REMARK   20  A    between atoms: C_46  and  C_47 
REMARK   21  A    between atoms: C_47  and  O_49 
REMARK   22  A    between atoms: C_50  and  C_51 
REMARK   23  A    between atoms: C_51  and  C_52 
REMARK   24  A    between atoms: C_52  and  O_54 
REMARK   25  A    between atoms: C_55  and  C_56 
REMARK   26  A    between atoms: C_56  and  C_57 
REMARK   27  A    between atoms: C_57  and  C_58 
REMARK   28  A    between atoms: C_58  and  O_60 
ROOT
ATOM      1  O   UNK d   0       4.447  -1.349  28.543  0.00  0.00    -0.650 OA
ATOM      2  C   UNK d   0       3.775  -1.460  27.494  0.00  0.00     0.139 C 
ENDROOT
BRANCH   2   3
ATOM      3  O   UNK d   0       4.323  -1.062  26.298  0.00  0.00    -0.776 OA
ATOM      4  H   UNK d   0       4.656  -0.105  26.162  0.00  0.00     0.167 HD
ENDBRANCH   2   3
BRANCH   2   5
ATOM      5  C   UNK d   0       2.394  -2.018  27.545  0.00  0.00     0.115 C 
BRANCH   5   6
ATOM      6  C   UNK d   0       1.631  -1.405  28.688  0.00  0.00     0.052 C 
BRANCH   6   7
ATOM      7  C   UNK d   0       0.178  -1.164  28.354  0.00  0.00    -0.020 A 
ATOM      8  C   UNK d   0      -0.392  -0.028  28.042  0.00  0.00    -0.011 A 
ATOM      9  C   UNK d   0      -1.803  -0.287  27.812  0.00  0.00     0.067 A 
ATOM     10  C   UNK d   0      -2.924   0.472  27.439  0.00  0.00     0.062 C 
ATOM     11  N   UNK d   0      -2.007  -1.606  28.011  0.00  0.00    -0.248 NA
ATOM     12  C   UNK d   0      -4.160  -0.007  26.993  0.00  0.00     0.041 A 
ATOM     13  N   UNK d   0      -4.926  -1.025  27.429  0.00  0.00    -0.355 N 
ATOM     14  C   UNK d   0      -4.754   0.587  25.864  0.00  0.00    -0.022 A 
ATOM     15  C   UNK d   0      -5.986  -1.097  26.602  0.00  0.00     0.042 A 
ATOM     16  H   UNK d   0      -4.732  -1.667  28.316  0.00  0.00     0.166 HD
ATOM     17  C   UNK d   0      -7.088  -1.975  26.603  0.00  0.00     0.062 C 
ATOM     18  C   UNK d   0      -5.912  -0.102  25.607  0.00  0.00    -0.013 A 
ATOM     19  C   UNK d   0      -7.107  -3.336  26.775  0.00  0.00     0.067 A 
ATOM     20  N   UNK d   0      -5.974  -3.908  27.191  0.00  0.00    -0.248 NA
ATOM     21  C   UNK d   0      -8.084  -4.397  26.602  0.00  0.00    -0.011 A 
ATOM     22  C   UNK d   0      -6.140  -5.267  27.301  0.00  0.00     0.066 A 
ATOM     23  C   UNK d   0      -5.046  -5.986  27.762  0.00  0.00     0.062 C 
ATOM     24  C   UNK d   0      -7.511  -5.525  26.908  0.00  0.00    -0.020 A 
ATOM     25  C   UNK d   0      -3.817  -5.485  28.217  0.00  0.00     0.041 A 
ATOM     26  N   UNK d   0      -3.049  -4.482  27.775  0.00  0.00    -0.355 N 
ATOM     27  C   UNK d   0      -3.225  -6.079  29.353  0.00  0.00    -0.022 A 
ATOM     28  C   UNK d   0      -1.987  -4.414  28.593  0.00  0.00     0.042 A 
ATOM     29  H   UNK d   0      -3.240  -3.844  26.877  0.00  0.00     0.166 HD
ATOM     30  C   UNK d   0      -0.879  -3.552  28.597  0.00  0.00     0.062 C 
ATOM     31  C   UNK d   0      -2.066  -5.407  29.598  0.00  0.00    -0.013 A 
ATOM     32  C   UNK d   0      -0.854  -2.191  28.339  0.00  0.00     0.066 A 
BRANCH   8  33
ATOM     33  C   UNK d   0       0.261   1.291  27.942  0.00  0.00     0.151 C 
BRANCH  33  34
ATOM     34  C   UNK d   0      -0.248   2.255  28.934  0.00  0.00     0.143 C 
ATOM     35  O   UNK d   0      -0.123   3.475  28.757  0.00  0.00    -0.650 OA
BRANCH  34  36
ATOM     36  O   UNK d   0      -0.867   1.791  30.072  0.00  0.00    -0.776 OA
ATOM     37  H   UNK d   0      -0.325   1.391  30.850  0.00  0.00     0.167 HD
ENDBRANCH  34  36
ENDBRANCH  33  34
ENDBRANCH   8  33
BRANCH  31  38
ATOM     38  C   UNK d   0      -1.099  -5.681  30.725  0.00  0.00     0.151 C 
BRANCH  38  39
ATOM     39  C   UNK d   0      -1.549  -5.149  31.994  0.00  0.00     0.143 C 
ATOM     40  O   UNK d   0      -1.744  -3.934  32.174  0.00  0.00    -0.650 OA
BRANCH  39  41
ATOM     41  O   UNK d   0      -1.778  -6.018  33.060  0.00  0.00    -0.776 OA
ATOM     42  H   UNK d   0      -2.100  -6.962  32.825  0.00  0.00     0.167 HD
ENDBRANCH  39  41
ENDBRANCH  38  39
ENDBRANCH  31  38
BRANCH  27  43
ATOM     43  C   UNK d   0      -3.708  -7.236  30.191  0.00  0.00     0.052 C 
BRANCH  43  44
ATOM     44  C   UNK d   0      -3.206  -8.560  29.715  0.00  0.00     0.115 C 
BRANCH  44  45
ATOM     45  C   UNK d   0      -2.103  -8.950  30.632  0.00  0.00     0.139 C 
ATOM     46  O   UNK d   0      -2.272  -8.787  31.865  0.00  0.00    -0.650 OA
BRANCH  45  47
ATOM     47  O   UNK d   0      -0.913  -9.483  30.184  0.00  0.00    -0.776 OA
ATOM     48  H   UNK d   0      -0.009  -9.309  30.653  0.00  0.00     0.167 HD
ENDBRANCH  45  47
ENDBRANCH  44  45
ENDBRANCH  43  44
ENDBRANCH  27  43
BRANCH  24  49
ATOM     49  C   UNK d   0      -8.150  -6.852  26.909  0.00  0.00     0.052 C 
BRANCH  49  50
ATOM     50  C   UNK d   0      -8.165  -7.429  25.517  0.00  0.00     0.115 C 
BRANCH  50  51
ATOM     51  C   UNK d   0      -9.409  -8.034  25.060  0.00  0.00     0.139 C 
ATOM     52  O   UNK d   0      -9.446  -9.132  24.457  0.00  0.00    -0.650 OA
BRANCH  51  53
ATOM     53  O   UNK d   0     -10.613  -7.384  25.291  0.00  0.00    -0.776 OA
ATOM     54  H   UNK d   0     -10.586  -6.426  25.593  0.00  0.00     0.167 HD
ENDBRANCH  51  53
ENDBRANCH  50  51
ENDBRANCH  49  50
ENDBRANCH  24  49
BRANCH  21  55
ATOM     55  C   UNK d   0      -9.490  -4.173  26.154  0.00  0.00     0.151 C 
BRANCH  55  56
ATOM     56  C   UNK d   0     -10.399  -3.939  27.287  0.00  0.00     0.143 C 
ATOM     57  O   UNK d   0     -11.227  -4.786  27.674  0.00  0.00    -0.650 OA
BRANCH  56  58
ATOM     58  O   UNK d   0     -10.316  -2.711  27.943  0.00  0.00    -0.776 OA
ATOM     59  H   UNK d   0      -9.440  -2.559  28.474  0.00  0.00     0.167 HD
ENDBRANCH  56  58
ENDBRANCH  55  56
ENDBRANCH  21  55
BRANCH  18  60
ATOM     60  C   UNK d   0      -6.863   0.196  24.474  0.00  0.00     0.151 C 
BRANCH  60  61
ATOM     61  C   UNK d   0      -6.553  -0.782  23.420  0.00  0.00     0.143 C 
ATOM     62  O   UNK d   0      -5.454  -1.273  23.163  0.00  0.00    -0.650 OA
BRANCH  61  63
ATOM     63  O   UNK d   0      -7.657  -1.186  22.630  0.00  0.00    -0.776 OA
ATOM     64  H   UNK d   0      -8.230  -1.965  22.901  0.00  0.00     0.167 HD
ENDBRANCH  61  63
ENDBRANCH  60  61
ENDBRANCH  18  60
BRANCH  14  65
ATOM     65  C   UNK d   0      -4.363   1.807  25.078  0.00  0.00     0.052 C 
BRANCH  65  66
ATOM     66  C   UNK d   0      -4.877   3.070  25.671  0.00  0.00     0.115 C 
BRANCH  66  67
ATOM     67  C   UNK d   0      -6.055   3.684  25.126  0.00  0.00     0.139 C 
ATOM     68  O   UNK d   0      -6.669   4.568  25.830  0.00  0.00    -0.650 OA
BRANCH  67  69
ATOM     69  O   UNK d   0      -6.648   3.442  23.887  0.00  0.00    -0.776 OA
ATOM     70  H   UNK d   0      -6.083   2.898  23.219  0.00  0.00     0.167 HD
ENDBRANCH  67  69
ENDBRANCH  66  67
ENDBRANCH  65  66
ENDBRANCH  14  65
ENDBRANCH   6   7
ENDBRANCH   5   6
ENDBRANCH   2   5
TORSDOF 28
ENDMDL
MODEL 16
REMARK VINA RESULT:      -9.4      1.855     10.975
REMARK  28 active torsions:
REMARK  status: ('A' for Active; 'I' for Inactive)
REMARK    1  A    between atoms: C_2  and  O_3 
REMARK    2  A    between atoms: C_2  and  C_4 
REMARK    3  A    between atoms: C_4  and  C_5 
REMARK    4  A    between atoms: C_5  and  C_6 
REMARK    5  A    between atoms: C_7  and  C_8 
REMARK    6  A    between atoms: C_8  and  C_9 
REMARK    7  A    between atoms: C_9  and  O_11 
REMARK    8  A    between atoms: C_28  and  C_29 
REMARK    9  A    between atoms: C_29  and  C_30 
REMARK   10  A    between atoms: C_30  and  O_32 
REMARK   11  A    between atoms: C_33  and  C_34 
REMARK   12  A    between atoms: C_34  and  C_35 
REMARK   13  A    between atoms: C_35  and  C_36 
REMARK   14  A    between atoms: C_36  and  O_38 
REMARK   15  A    between atoms: C_39  and  C_40 
REMARK   16  A    between atoms: C_40  and  C_41 
REMARK   17  A    between atoms: C_41  and  C_42 
REMARK   18  A    between atoms: C_42  and  O_44 
REMARK   19  A    between atoms: C_45  and  C_46 
REMARK   20  A    between atoms: C_46  and  C_47 
REMARK   21  A    between atoms: C_47  and  O_49 
REMARK   22  A    between atoms: C_50  and  C_51 
REMARK   23  A    between atoms: C_51  and  C_52 
REMARK   24  A    between atoms: C_52  and  O_54 
REMARK   25  A    between atoms: C_55  and  C_56 
REMARK   26  A    between atoms: C_56  and  C_57 
REMARK   27  A    between atoms: C_57  and  C_58 
REMARK   28  A    between atoms: C_58  and  O_60 
ROOT
ATOM      1  O   UNK d   0      -9.491  -8.845  25.320  0.00  0.00    -0.650 OA
ATOM      2  C   UNK d   0      -9.931  -7.819  25.885  0.00  0.00     0.139 C 
ENDROOT
BRANCH   2   3
ATOM      3  O   UNK d   0     -11.232  -7.800  26.329  0.00  0.00    -0.776 OA
ATOM      4  H   UNK d   0     -11.736  -8.668  26.520  0.00  0.00     0.167 HD
ENDBRANCH   2   3
BRANCH   2   5
ATOM      5  C   UNK d   0      -9.051  -6.631  26.071  0.00  0.00     0.115 C 
BRANCH   5   6
ATOM      6  C   UNK d   0      -7.647  -6.954  25.639  0.00  0.00     0.052 C 
BRANCH   6   7
ATOM      7  C   UNK d   0      -6.623  -6.630  26.700  0.00  0.00    -0.020 A 
ATOM      8  C   UNK d   0      -6.367  -7.301  27.794  0.00  0.00    -0.011 A 
ATOM      9  C   UNK d   0      -5.310  -6.603  28.508  0.00  0.00     0.067 A 
ATOM     10  C   UNK d   0      -4.588  -6.802  29.694  0.00  0.00     0.062 C 
ATOM     11  N   UNK d   0      -4.986  -5.515  27.779  0.00  0.00    -0.248 NA
ATOM     12  C   UNK d   0      -3.404  -6.164  30.082  0.00  0.00     0.041 A 
ATOM     13  N   UNK d   0      -3.024  -4.875  30.001  0.00  0.00    -0.355 N 
ATOM     14  C   UNK d   0      -2.355  -6.939  30.609  0.00  0.00    -0.022 A 
ATOM     15  C   UNK d   0      -1.758  -4.814  30.456  0.00  0.00     0.042 A 
ATOM     16  H   UNK d   0      -3.645  -4.022  29.648  0.00  0.00     0.166 HD
ATOM     17  C   UNK d   0      -0.888  -3.713  30.589  0.00  0.00     0.062 C 
ATOM     18  C   UNK d   0      -1.304  -6.088  30.846  0.00  0.00    -0.013 A 
ATOM     19  C   UNK d   0      -0.637  -2.700  29.700  0.00  0.00     0.067 A 
ATOM     20  N   UNK d   0      -1.450  -2.606  28.644  0.00  0.00    -0.248 NA
ATOM     21  C   UNK d   0       0.347  -1.637  29.577  0.00  0.00    -0.011 A 
ATOM     22  C   UNK d   0      -1.068  -1.560  27.840  0.00  0.00     0.066 A 
ATOM     23  C   UNK d   0      -1.854  -1.325  26.721  0.00  0.00     0.062 C 
ATOM     24  C   UNK d   0       0.091  -0.976  28.485  0.00  0.00    -0.020 A 
ATOM     25  C   UNK d   0      -3.046  -1.968  26.356  0.00  0.00     0.041 A 
ATOM     26  N   UNK d   0      -3.419  -3.252  26.423  0.00  0.00    -0.355 N 
ATOM     27  C   UNK d   0      -4.101  -1.189  25.831  0.00  0.00    -0.022 A 
ATOM     28  C   UNK d   0      -4.678  -3.317  25.962  0.00  0.00     0.042 A 
ATOM     29  H   UNK d   0      -2.790  -4.109  26.768  0.00  0.00     0.166 HD
ATOM     30  C   UNK d   0      -5.552  -4.406  25.815  0.00  0.00     0.062 C 
ATOM     31  C   UNK d   0      -5.137  -2.034  25.580  0.00  0.00    -0.013 A 
ATOM     32  C   UNK d   0      -5.740  -5.474  26.679  0.00  0.00     0.066 A 
BRANCH   8  33
ATOM     33  C   UNK d   0      -7.024  -8.542  28.246  0.00  0.00     0.151 C 
BRANCH  33  34
ATOM     34  C   UNK d   0      -6.504  -9.742  27.567  0.00  0.00     0.143 C 
ATOM     35  O   UNK d   0      -5.381 -10.190  27.838  0.00  0.00    -0.650 OA
BRANCH  34  36
ATOM     36  O   UNK d   0      -7.278 -10.371  26.619  0.00  0.00    -0.776 OA
ATOM     37  H   UNK d   0      -7.368  -9.993  25.666  0.00  0.00     0.167 HD
ENDBRANCH  34  36
ENDBRANCH  33  34
ENDBRANCH   8  33
BRANCH  31  38
ATOM     38  C   UNK d   0      -6.487  -1.648  25.023  0.00  0.00     0.151 C 
BRANCH  38  39
ATOM     39  C   UNK d   0      -6.431  -1.266  23.628  0.00  0.00     0.143 C 
ATOM     40  O   UNK d   0      -7.308  -0.564  23.094  0.00  0.00    -0.650 OA
BRANCH  39  41
ATOM     41  O   UNK d   0      -5.361  -1.694  22.842  0.00  0.00    -0.776 OA
ATOM     42  H   UNK d   0      -4.461  -1.228  22.995  0.00  0.00     0.167 HD
ENDBRANCH  39  41
ENDBRANCH  38  39
ENDBRANCH  31  38
BRANCH  27  43
ATOM     43  C   UNK d   0      -4.155   0.295  25.565  0.00  0.00     0.052 C 
BRANCH  43  44
ATOM     44  C   UNK d   0      -4.228   1.116  26.811  0.00  0.00     0.115 C 
BRANCH  44  45
ATOM     45  C   UNK d   0      -4.439   2.523  26.381  0.00  0.00     0.139 C 
ATOM     46  O   UNK d   0      -5.382   2.764  25.587  0.00  0.00    -0.650 OA
BRANCH  45  47
ATOM     47  O   UNK d   0      -3.651   3.565  26.819  0.00  0.00    -0.776 OA
ATOM     48  H   UNK d   0      -2.848   3.431  27.454  0.00  0.00     0.167 HD
ENDBRANCH  45  47
ENDBRANCH  44  45
ENDBRANCH  43  44
ENDBRANCH  27  43
BRANCH  24  49
ATOM     49  C   UNK d   0       0.820   0.206  27.994  0.00  0.00     0.052 C 
BRANCH  49  50
ATOM     50  C   UNK d   0       0.331   1.450  28.692  0.00  0.00     0.115 C 
BRANCH  50  51
ATOM     51  C   UNK d   0      -0.706   2.223  28.022  0.00  0.00     0.139 C 
ATOM     52  O   UNK d   0      -1.451   3.026  28.632  0.00  0.00    -0.650 OA
BRANCH  51  53
ATOM     53  O   UNK d   0      -0.896   2.079  26.657  0.00  0.00    -0.776 OA
ATOM     54  H   UNK d   0      -1.838   2.029  26.310  0.00  0.00     0.167 HD
ENDBRANCH  51  53
ENDBRANCH  50  51
ENDBRANCH  49  50
ENDBRANCH  24  49
BRANCH  21  55
ATOM     55  C   UNK d   0       1.436  -1.390  30.567  0.00  0.00     0.151 C 
BRANCH  55  56
ATOM     56  C   UNK d   0       0.922  -0.828  31.825  0.00  0.00     0.143 C 
ATOM     57  O   UNK d   0       0.160   0.158  31.863  0.00  0.00    -0.650 OA
BRANCH  56  58
ATOM     58  O   UNK d   0       1.313  -1.439  33.016  0.00  0.00    -0.776 OA
ATOM     59  H   UNK d   0       1.403  -0.798  33.825  0.00  0.00     0.167 HD
ENDBRANCH  56  58
ENDBRANCH  55  56
ENDBRANCH  21  55
BRANCH  18  60
ATOM     60  C   UNK d   0       0.034  -6.502  31.406  0.00  0.00     0.151 C 
BRANCH  60  61
ATOM     61  C   UNK d   0       0.916  -6.693  30.245  0.00  0.00     0.143 C 
ATOM     62  O   UNK d   0       0.576  -6.874  29.076  0.00  0.00    -0.650 OA
BRANCH  61  63
ATOM     63  O   UNK d   0       2.303  -6.661  30.531  0.00  0.00    -0.776 OA
ATOM     64  H   UNK d   0       2.729  -5.849  30.941  0.00  0.00     0.167 HD
ENDBRANCH  61  63
ENDBRANCH  60  61
ENDBRANCH  18  60
BRANCH  14  65
ATOM     65  C   UNK d   0      -2.305  -8.391  30.994  0.00  0.00     0.052 C 
BRANCH  65  66
ATOM     66  C   UNK d   0      -1.938  -9.281  29.860  0.00  0.00     0.115 C 
BRANCH  66  67
ATOM     67  C   UNK d   0      -0.846 -10.202  30.003  0.00  0.00     0.139 C 
ATOM     68  O   UNK d   0      -0.019 -10.028  30.972  0.00  0.00    -0.650 OA
BRANCH  67  69
ATOM     69  O   UNK d   0      -0.549 -11.303  29.201  0.00  0.00    -0.776 OA
ATOM     70  H   UNK d   0       0.242 -11.885  29.514  0.00  0.00     0.167 HD
ENDBRANCH  67  69
ENDBRANCH  66  67
ENDBRANCH  65  66
ENDBRANCH  14  65
ENDBRANCH   6   7
ENDBRANCH   5   6
ENDBRANCH   2   5
TORSDOF 28
ENDMDL
MODEL 17
REMARK VINA RESULT:      -9.4      1.525      7.955
REMARK  28 active torsions:
REMARK  status: ('A' for Active; 'I' for Inactive)
REMARK    1  A    between atoms: C_2  and  O_3 
REMARK    2  A    between atoms: C_2  and  C_4 
REMARK    3  A    between atoms: C_4  and  C_5 
REMARK    4  A    between atoms: C_5  and  C_6 
REMARK    5  A    between atoms: C_7  and  C_8 
REMARK    6  A    between atoms: C_8  and  C_9 
REMARK    7  A    between atoms: C_9  and  O_11 
REMARK    8  A    between atoms: C_28  and  C_29 
REMARK    9  A    between atoms: C_29  and  C_30 
REMARK   10  A    between atoms: C_30  and  O_32 
REMARK   11  A    between atoms: C_33  and  C_34 
REMARK   12  A    between atoms: C_34  and  C_35 
REMARK   13  A    between atoms: C_35  and  C_36 
REMARK   14  A    between atoms: C_36  and  O_38 
REMARK   15  A    between atoms: C_39  and  C_40 
REMARK   16  A    between atoms: C_40  and  C_41 
REMARK   17  A    between atoms: C_41  and  C_42 
REMARK   18  A    between atoms: C_42  and  O_44 
REMARK   19  A    between atoms: C_45  and  C_46 
REMARK   20  A    between atoms: C_46  and  C_47 
REMARK   21  A    between atoms: C_47  and  O_49 
REMARK   22  A    between atoms: C_50  and  C_51 
REMARK   23  A    between atoms: C_51  and  C_52 
REMARK   24  A    between atoms: C_52  and  O_54 
REMARK   25  A    between atoms: C_55  and  C_56 
REMARK   26  A    between atoms: C_56  and  C_57 
REMARK   27  A    between atoms: C_57  and  C_58 
REMARK   28  A    between atoms: C_58  and  O_60 
ROOT
ATOM      1  O   UNK d   0      -1.853  -6.057  33.289  0.00  0.00    -0.650 OA
ATOM      2  C   UNK d   0      -2.120  -7.235  32.963  0.00  0.00     0.139 C 
ENDROOT
BRANCH   2   3
ATOM      3  O   UNK d   0      -2.470  -8.141  33.935  0.00  0.00    -0.776 OA
ATOM      4  H   UNK d   0      -2.760  -9.090  33.693  0.00  0.00     0.167 HD
ENDBRANCH   2   3
BRANCH   2   5
ATOM      5  C   UNK d   0      -2.055  -7.649  31.532  0.00  0.00     0.115 C 
BRANCH   5   6
ATOM      6  C   UNK d   0      -3.392  -8.173  31.084  0.00  0.00     0.052 C 
BRANCH   6   7
ATOM      7  C   UNK d   0      -4.018  -7.323  30.005  0.00  0.00    -0.020 A 
ATOM      8  C   UNK d   0      -5.005  -7.643  29.208  0.00  0.00    -0.011 A 
ATOM      9  C   UNK d   0      -5.255  -6.511  28.332  0.00  0.00     0.067 A 
ATOM     10  C   UNK d   0      -6.159  -6.208  27.302  0.00  0.00     0.062 C 
ATOM     11  N   UNK d   0      -4.370  -5.547  28.660  0.00  0.00    -0.248 NA
ATOM     12  C   UNK d   0      -6.430  -4.949  26.755  0.00  0.00     0.041 A 
ATOM     13  N   UNK d   0      -5.610  -3.938  26.408  0.00  0.00    -0.355 N 
ATOM     14  C   UNK d   0      -7.769  -4.570  26.550  0.00  0.00    -0.022 A 
ATOM     15  C   UNK d   0      -6.395  -2.925  25.995  0.00  0.00     0.042 A 
ATOM     16  H   UNK d   0      -4.499  -3.948  26.436  0.00  0.00     0.166 HD
ATOM     17  C   UNK d   0      -6.057  -1.641  25.524  0.00  0.00     0.062 C 
ATOM     18  C   UNK d   0      -7.755  -3.284  26.070  0.00  0.00    -0.013 A 
ATOM     19  C   UNK d   0      -5.142  -0.752  26.026  0.00  0.00     0.067 A 
ATOM     20  N   UNK d   0      -4.308  -1.207  26.965  0.00  0.00    -0.248 NA
ATOM     21  C   UNK d   0      -4.820   0.649  25.811  0.00  0.00    -0.011 A 
ATOM     22  C   UNK d   0      -3.466  -0.205  27.381  0.00  0.00     0.066 A 
ATOM     23  C   UNK d   0      -2.518  -0.552  28.332  0.00  0.00     0.062 C 
ATOM     24  C   UNK d   0      -3.841   0.964  26.610  0.00  0.00    -0.020 A 
ATOM     25  C   UNK d   0      -2.254  -1.826  28.859  0.00  0.00     0.041 A 
ATOM     26  N   UNK d   0      -3.069  -2.824  29.218  0.00  0.00    -0.355 N 
ATOM     27  C   UNK d   0      -0.909  -2.207  29.061  0.00  0.00    -0.022 A 
ATOM     28  C   UNK d   0      -2.289  -3.833  29.639  0.00  0.00     0.042 A 
ATOM     29  H   UNK d   0      -4.187  -2.809  29.200  0.00  0.00     0.166 HD
ATOM     30  C   UNK d   0      -2.613  -5.112  30.119  0.00  0.00     0.062 C 
ATOM     31  C   UNK d   0      -0.923  -3.476  29.553  0.00  0.00    -0.013 A 
ATOM     32  C   UNK d   0      -3.597  -5.973  29.660  0.00  0.00     0.066 A 
BRANCH   8  33
ATOM     33  C   UNK d   0      -5.744  -8.919  29.183  0.00  0.00     0.151 C 
BRANCH  33  34
ATOM     34  C   UNK d   0      -5.338  -9.791  28.066  0.00  0.00     0.143 C 
ATOM     35  O   UNK d   0      -4.165 -10.175  27.951  0.00  0.00    -0.650 OA
BRANCH  34  36
ATOM     36  O   UNK d   0      -6.276 -10.181  27.138  0.00  0.00    -0.776 OA
ATOM     37  H   UNK d   0      -6.431  -9.641  26.276  0.00  0.00     0.167 HD
ENDBRANCH  34  36
ENDBRANCH  33  34
ENDBRANCH   8  33
BRANCH  31  38
ATOM     38  C   UNK d   0       0.288  -4.306  29.910  0.00  0.00     0.151 C 
BRANCH  38  39
ATOM     39  C   UNK d   0       0.530  -4.364  31.336  0.00  0.00     0.143 C 
ATOM     40  O   UNK d   0       1.475  -5.007  31.825  0.00  0.00    -0.650 OA
BRANCH  39  41
ATOM     41  O   UNK d   0      -0.319  -3.678  32.204  0.00  0.00    -0.776 OA
ATOM     42  H   UNK d   0      -0.167  -3.821  33.207  0.00  0.00     0.167 HD
ENDBRANCH  39  41
ENDBRANCH  38  39
ENDBRANCH  31  38
BRANCH  27  43
ATOM     43  C   UNK d   0       0.356  -1.426  28.810  0.00  0.00     0.052 C 
BRANCH  43  44
ATOM     44  C   UNK d   0       1.179  -1.223  30.041  0.00  0.00     0.115 C 
BRANCH  44  45
ATOM     45  C   UNK d   0       0.351  -0.419  30.978  0.00  0.00     0.139 C 
ATOM     46  O   UNK d   0       0.217  -0.835  32.155  0.00  0.00    -0.650 OA
BRANCH  45  47
ATOM     47  O   UNK d   0      -0.265   0.757  30.609  0.00  0.00    -0.776 OA
ATOM     48  H   UNK d   0      -0.806   1.337  31.271  0.00  0.00     0.167 HD
ENDBRANCH  45  47
ENDBRANCH  44  45
ENDBRANCH  43  44
ENDBRANCH  27  43
BRANCH  24  49
ATOM     49  C   UNK d   0      -3.176   2.276  26.694  0.00  0.00     0.052 C 
BRANCH  49  50
ATOM     50  C   UNK d   0      -1.679   2.109  26.642  0.00  0.00     0.115 C 
BRANCH  50  51
ATOM     51  C   UNK d   0      -0.935   2.402  27.859  0.00  0.00     0.139 C 
ATOM     52  O   UNK d   0      -1.430   3.040  28.818  0.00  0.00    -0.650 OA
BRANCH  51  53
ATOM     53  O   UNK d   0       0.377   1.968  27.983  0.00  0.00    -0.776 OA
ATOM     54  H   UNK d   0       0.768   1.418  27.239  0.00  0.00     0.167 HD
ENDBRANCH  51  53
ENDBRANCH  50  51
ENDBRANCH  49  50
ENDBRANCH  24  49
BRANCH  21  55
ATOM     55  C   UNK d   0      -5.521   1.526  24.827  0.00  0.00     0.151 C 
BRANCH  55  56
ATOM     56  C   UNK d   0      -6.671   2.219  25.427  0.00  0.00     0.143 C 
ATOM     57  O   UNK d   0      -6.685   3.448  25.634  0.00  0.00    -0.650 OA
BRANCH  56  58
ATOM     58  O   UNK d   0      -7.783   1.453  25.772  0.00  0.00    -0.776 OA
ATOM     59  H   UNK d   0      -8.692   1.834  25.452  0.00  0.00     0.167 HD
ENDBRANCH  56  58
ENDBRANCH  55  56
ENDBRANCH  21  55
BRANCH  18  60
ATOM     60  C   UNK d   0      -8.982  -2.479  25.719  0.00  0.00     0.151 C 
BRANCH  60  61
ATOM     61  C   UNK d   0      -9.356  -1.757  26.945  0.00  0.00     0.143 C 
ATOM     62  O   UNK d   0      -8.676  -0.934  27.558  0.00  0.00    -0.650 OA
BRANCH  61  63
ATOM     63  O   UNK d   0     -10.641  -2.060  27.454  0.00  0.00    -0.776 OA
ATOM     64  H   UNK d   0     -11.212  -1.350  27.877  0.00  0.00     0.167 HD
ENDBRANCH  61  63
ENDBRANCH  60  61
ENDBRANCH  18  60
BRANCH  14  65
ATOM     65  C   UNK d   0      -9.042  -5.357  26.678  0.00  0.00     0.052 C 
BRANCH  65  66
ATOM     66  C   UNK d   0      -9.386  -6.112  25.443  0.00  0.00     0.115 C 
BRANCH  66  67
ATOM     67  C   UNK d   0      -8.839  -7.423  25.235  0.00  0.00     0.139 C 
ATOM     68  O   UNK d   0      -8.552  -7.786  24.035  0.00  0.00    -0.650 OA
BRANCH  67  69
ATOM     69  O   UNK d   0      -8.566  -8.396  26.196  0.00  0.00    -0.776 OA
ATOM     70  H   UNK d   0      -8.278  -8.045  27.120  0.00  0.00     0.167 HD
ENDBRANCH  67  69
ENDBRANCH  66  67
ENDBRANCH  65  66
ENDBRANCH  14  65
ENDBRANCH   6   7
ENDBRANCH   5   6
ENDBRANCH   2   5
TORSDOF 28
ENDMDL
MODEL 18
REMARK VINA RESULT:      -9.4      1.599      7.514
REMARK  28 active torsions:
REMARK  status: ('A' for Active; 'I' for Inactive)
REMARK    1  A    between atoms: C_2  and  O_3 
REMARK    2  A    between atoms: C_2  and  C_4 
REMARK    3  A    between atoms: C_4  and  C_5 
REMARK    4  A    between atoms: C_5  and  C_6 
REMARK    5  A    between atoms: C_7  and  C_8 
REMARK    6  A    between atoms: C_8  and  C_9 
REMARK    7  A    between atoms: C_9  and  O_11 
REMARK    8  A    between atoms: C_28  and  C_29 
REMARK    9  A    between atoms: C_29  and  C_30 
REMARK   10  A    between atoms: C_30  and  O_32 
REMARK   11  A    between atoms: C_33  and  C_34 
REMARK   12  A    between atoms: C_34  and  C_35 
REMARK   13  A    between atoms: C_35  and  C_36 
REMARK   14  A    between atoms: C_36  and  O_38 
REMARK   15  A    between atoms: C_39  and  C_40 
REMARK   16  A    between atoms: C_40  and  C_41 
REMARK   17  A    between atoms: C_41  and  C_42 
REMARK   18  A    between atoms: C_42  and  O_44 
REMARK   19  A    between atoms: C_45  and  C_46 
REMARK   20  A    between atoms: C_46  and  C_47 
REMARK   21  A    between atoms: C_47  and  O_49 
REMARK   22  A    between atoms: C_50  and  C_51 
REMARK   23  A    between atoms: C_51  and  C_52 
REMARK   24  A    between atoms: C_52  and  O_54 
REMARK   25  A    between atoms: C_55  and  C_56 
REMARK   26  A    between atoms: C_56  and  C_57 
REMARK   27  A    between atoms: C_57  and  C_58 
REMARK   28  A    between atoms: C_58  and  O_60 
ROOT
ATOM      1  O   UNK d   0      -5.690   2.925  24.180  0.00  0.00    -0.650 OA
ATOM      2  C   UNK d   0      -4.933   3.096  25.161  0.00  0.00     0.139 C 
ENDROOT
BRANCH   2   3
ATOM      3  O   UNK d   0      -5.212   4.099  26.059  0.00  0.00    -0.776 OA
ATOM      4  H   UNK d   0      -4.511   4.412  26.734  0.00  0.00     0.167 HD
ENDBRANCH   2   3
BRANCH   2   5
ATOM      5  C   UNK d   0      -3.742   2.221  25.349  0.00  0.00     0.115 C 
BRANCH   5   6
ATOM      6  C   UNK d   0      -3.479   2.014  26.816  0.00  0.00     0.052 C 
BRANCH   6   7
ATOM      7  C   UNK d   0      -2.823   0.685  27.107  0.00  0.00    -0.020 A 
ATOM      8  C   UNK d   0      -1.554   0.451  27.324  0.00  0.00    -0.011 A 
ATOM      9  C   UNK d   0      -1.396  -0.976  27.548  0.00  0.00     0.067 A 
ATOM     10  C   UNK d   0      -0.333  -1.843  27.846  0.00  0.00     0.062 C 
ATOM     11  N   UNK d   0      -2.620  -1.536  27.444  0.00  0.00    -0.248 NA
ATOM     12  C   UNK d   0      -0.418  -3.162  28.305  0.00  0.00     0.041 A 
ATOM     13  N   UNK d   0      -1.217  -4.180  27.932  0.00  0.00    -0.355 N 
ATOM     14  C   UNK d   0       0.400  -3.564  29.376  0.00  0.00    -0.022 A 
ATOM     15  C   UNK d   0      -0.932  -5.215  28.745  0.00  0.00     0.042 A 
ATOM     16  H   UNK d   0      -1.953  -4.173  27.099  0.00  0.00     0.166 HD
ATOM     17  C   UNK d   0      -1.471  -6.516  28.789  0.00  0.00     0.062 C 
ATOM     18  C   UNK d   0       0.077  -4.866  29.663  0.00  0.00    -0.013 A 
ATOM     19  C   UNK d   0      -2.783  -6.909  28.719  0.00  0.00     0.067 A 
ATOM     20  N   UNK d   0      -3.674  -5.980  28.366  0.00  0.00    -0.248 NA
ATOM     21  C   UNK d   0      -3.518  -8.141  28.953  0.00  0.00    -0.011 A 
ATOM     22  C   UNK d   0      -4.940  -6.513  28.354  0.00  0.00     0.066 A 
ATOM     23  C   UNK d   0      -5.964  -5.662  27.966  0.00  0.00     0.062 C 
ATOM     24  C   UNK d   0      -4.781  -7.901  28.742  0.00  0.00    -0.020 A 
ATOM     25  C   UNK d   0      -5.856  -4.344  27.496  0.00  0.00     0.041 A 
ATOM     26  N   UNK d   0      -5.073  -3.328  27.876  0.00  0.00    -0.355 N 
ATOM     27  C   UNK d   0      -6.674  -3.943  26.418  0.00  0.00    -0.022 A 
ATOM     28  C   UNK d   0      -5.361  -2.292  27.073  0.00  0.00     0.042 A 
ATOM     29  H   UNK d   0      -4.340  -3.333  28.721  0.00  0.00     0.166 HD
ATOM     30  C   UNK d   0      -4.840  -0.989  27.024  0.00  0.00     0.062 C 
ATOM     31  C   UNK d   0      -6.368  -2.646  26.143  0.00  0.00    -0.013 A 
ATOM     32  C   UNK d   0      -3.522  -0.589  27.180  0.00  0.00     0.066 A 
BRANCH   8  33
ATOM     33  C   UNK d   0      -0.462   1.442  27.337  0.00  0.00     0.151 C 
BRANCH  33  34
ATOM     34  C   UNK d   0      -0.319   2.117  28.639  0.00  0.00     0.143 C 
ATOM     35  O   UNK d   0      -0.540   1.512  29.698  0.00  0.00    -0.650 OA
BRANCH  34  36
ATOM     36  O   UNK d   0       0.062   3.439  28.676  0.00  0.00    -0.776 OA
ATOM     37  H   UNK d   0       0.563   3.873  27.889  0.00  0.00     0.167 HD
ENDBRANCH  34  36
ENDBRANCH  33  34
ENDBRANCH   8  33
BRANCH  31  38
ATOM     38  C   UNK d   0      -6.982  -1.796  25.056  0.00  0.00     0.151 C 
BRANCH  38  39
ATOM     39  C   UNK d   0      -8.196  -1.131  25.480  0.00  0.00     0.143 C 
ATOM     40  O   UNK d   0      -9.165  -0.967  24.719  0.00  0.00    -0.650 OA
BRANCH  39  41
ATOM     41  O   UNK d   0      -8.296  -0.654  26.787  0.00  0.00    -0.776 OA
ATOM     42  H   UNK d   0      -7.504  -0.108  27.141  0.00  0.00     0.167 HD
ENDBRANCH  39  41
ENDBRANCH  38  39
ENDBRANCH  31  38
BRANCH  27  43
ATOM     43  C   UNK d   0      -7.714  -4.730  25.660  0.00  0.00     0.052 C 
BRANCH  43  44
ATOM     44  C   UNK d   0      -8.864  -5.163  26.510  0.00  0.00     0.115 C 
BRANCH  44  45
ATOM     45  C   UNK d   0      -9.843  -4.045  26.503  0.00  0.00     0.139 C 
ATOM     46  O   UNK d   0     -10.619  -3.944  25.521  0.00  0.00    -0.650 OA
BRANCH  45  47
ATOM     47  O   UNK d   0      -9.935  -3.126  27.526  0.00  0.00    -0.776 OA
ATOM     48  H   UNK d   0     -10.296  -2.168  27.388  0.00  0.00     0.167 HD
ENDBRANCH  45  47
ENDBRANCH  44  45
ENDBRANCH  43  44
ENDBRANCH  27  43
BRANCH  24  49
ATOM     49  C   UNK d   0      -5.877  -8.881  28.828  0.00  0.00     0.052 C 
BRANCH  49  50
ATOM     50  C   UNK d   0      -6.509  -9.081  27.475  0.00  0.00     0.115 C 
BRANCH  50  51
ATOM     51  C   UNK d   0      -7.010 -10.413  27.165  0.00  0.00     0.139 C 
ATOM     52  O   UNK d   0      -8.125 -10.608  26.625  0.00  0.00    -0.650 OA
BRANCH  51  53
ATOM     53  O   UNK d   0      -6.241 -11.525  27.475  0.00  0.00    -0.776 OA
ATOM     54  H   UNK d   0      -5.630 -11.892  26.767  0.00  0.00     0.167 HD
ENDBRANCH  51  53
ENDBRANCH  50  51
ENDBRANCH  49  50
ENDBRANCH  24  49
BRANCH  21  55
ATOM     55  C   UNK d   0      -2.883  -9.429  29.360  0.00  0.00     0.151 C 
BRANCH  55  56
ATOM     56  C   UNK d   0      -2.481 -10.236  28.197  0.00  0.00     0.143 C 
ATOM     57  O   UNK d   0      -1.382 -10.095  27.625  0.00  0.00    -0.650 OA
BRANCH  56  58
ATOM     58  O   UNK d   0      -3.379 -11.194  27.730  0.00  0.00    -0.776 OA
ATOM     59  H   UNK d   0      -4.291 -11.212  28.220  0.00  0.00     0.167 HD
ENDBRANCH  56  58
ENDBRANCH  55  56
ENDBRANCH  21  55
BRANCH  18  60
ATOM     60  C   UNK d   0       0.710  -5.693  30.755  0.00  0.00     0.151 C 
BRANCH  60  61
ATOM     61  C   UNK d   0      -0.011  -5.351  31.991  0.00  0.00     0.143 C 
ATOM     62  O   UNK d   0      -1.223  -5.178  32.119  0.00  0.00    -0.650 OA
BRANCH  61  63
ATOM     63  O   UNK d   0       0.800  -5.211  33.142  0.00  0.00    -0.776 OA
ATOM     64  H   UNK d   0       1.379  -4.401  33.274  0.00  0.00     0.167 HD
ENDBRANCH  61  63
ENDBRANCH  60  61
ENDBRANCH  18  60
BRANCH  14  65
ATOM     65  C   UNK d   0       1.521  -2.849  30.076  0.00  0.00     0.052 C 
BRANCH  65  66
ATOM     66  C   UNK d   0       1.059  -1.680  30.871  0.00  0.00     0.115 C 
BRANCH  66  67
ATOM     67  C   UNK d   0       1.000  -1.772  32.303  0.00  0.00     0.139 C 
ATOM     68  O   UNK d   0       1.777  -2.606  32.897  0.00  0.00    -0.650 OA
BRANCH  67  69
ATOM     69  O   UNK d   0       0.181  -1.051  33.171  0.00  0.00    -0.776 OA
ATOM     70  H   UNK d   0      -0.500  -0.420  32.725  0.00  0.00     0.167 HD
ENDBRANCH  67  69
ENDBRANCH  66  67
ENDBRANCH  65  66
ENDBRANCH  14  65
ENDBRANCH   6   7
ENDBRANCH   5   6
ENDBRANCH   2   5
TORSDOF 28
ENDMDL
MODEL 19
REMARK VINA RESULT:      -9.3      2.524      7.773
REMARK  28 active torsions:
REMARK  status: ('A' for Active; 'I' for Inactive)
REMARK    1  A    between atoms: C_2  and  O_3 
REMARK    2  A    between atoms: C_2  and  C_4 
REMARK    3  A    between atoms: C_4  and  C_5 
REMARK    4  A    between atoms: C_5  and  C_6 
REMARK    5  A    between atoms: C_7  and  C_8 
REMARK    6  A    between atoms: C_8  and  C_9 
REMARK    7  A    between atoms: C_9  and  O_11 
REMARK    8  A    between atoms: C_28  and  C_29 
REMARK    9  A    between atoms: C_29  and  C_30 
REMARK   10  A    between atoms: C_30  and  O_32 
REMARK   11  A    between atoms: C_33  and  C_34 
REMARK   12  A    between atoms: C_34  and  C_35 
REMARK   13  A    between atoms: C_35  and  C_36 
REMARK   14  A    between atoms: C_36  and  O_38 
REMARK   15  A    between atoms: C_39  and  C_40 
REMARK   16  A    between atoms: C_40  and  C_41 
REMARK   17  A    between atoms: C_41  and  C_42 
REMARK   18  A    between atoms: C_42  and  O_44 
REMARK   19  A    between atoms: C_45  and  C_46 
REMARK   20  A    between atoms: C_46  and  C_47 
REMARK   21  A    between atoms: C_47  and  O_49 
REMARK   22  A    between atoms: C_50  and  C_51 
REMARK   23  A    between atoms: C_51  and  C_52 
REMARK   24  A    between atoms: C_52  and  O_54 
REMARK   25  A    between atoms: C_55  and  C_56 
REMARK   26  A    between atoms: C_56  and  C_57 
REMARK   27  A    between atoms: C_57  and  C_58 
REMARK   28  A    between atoms: C_58  and  O_60 
ROOT
ATOM      1  O   UNK d   0      -4.483   1.963  26.062  0.00  0.00    -0.650 OA
ATOM      2  C   UNK d   0      -3.490   2.659  26.371  0.00  0.00     0.139 C 
ENDROOT
BRANCH   2   3
ATOM      3  O   UNK d   0      -3.683   3.934  26.846  0.00  0.00    -0.776 OA
ATOM      4  H   UNK d   0      -3.045   4.692  26.595  0.00  0.00     0.167 HD
ENDBRANCH   2   3
BRANCH   2   5
ATOM      5  C   UNK d   0      -2.114   2.106  26.223  0.00  0.00     0.115 C 
BRANCH   5   6
ATOM      6  C   UNK d   0      -1.535   1.791  27.576  0.00  0.00     0.052 C 
BRANCH   6   7
ATOM      7  C   UNK d   0      -1.106   0.348  27.702  0.00  0.00    -0.020 A 
ATOM      8  C   UNK d   0       0.114  -0.117  27.791  0.00  0.00    -0.011 A 
ATOM      9  C   UNK d   0       0.033  -1.565  27.885  0.00  0.00     0.067 A 
ATOM     10  C   UNK d   0       0.944  -2.624  28.021  0.00  0.00     0.062 C 
ATOM     11  N   UNK d   0      -1.275  -1.896  27.839  0.00  0.00    -0.248 NA
ATOM     12  C   UNK d   0       0.659  -3.946  28.377  0.00  0.00     0.041 A 
ATOM     13  N   UNK d   0      -0.331  -4.775  27.992  0.00  0.00    -0.355 N 
ATOM     14  C   UNK d   0       1.465  -4.581  29.340  0.00  0.00    -0.022 A 
ATOM     15  C   UNK d   0      -0.178  -5.915  28.691  0.00  0.00     0.042 A 
ATOM     16  H   UNK d   0      -1.110  -4.564  27.226  0.00  0.00     0.166 HD
ATOM     17  C   UNK d   0      -0.934  -7.104  28.675  0.00  0.00     0.062 C 
ATOM     18  C   UNK d   0       0.937  -5.831  29.547  0.00  0.00    -0.013 A 
ATOM     19  C   UNK d   0      -2.296  -7.260  28.683  0.00  0.00     0.067 A 
ATOM     20  N   UNK d   0      -3.032  -6.164  28.483  0.00  0.00    -0.248 NA
ATOM     21  C   UNK d   0      -3.220  -8.365  28.878  0.00  0.00    -0.011 A 
ATOM     22  C   UNK d   0      -4.369  -6.471  28.534  0.00  0.00     0.066 A 
ATOM     23  C   UNK d   0      -5.251  -5.426  28.303  0.00  0.00     0.062 C 
ATOM     24  C   UNK d   0      -4.432  -7.896  28.793  0.00  0.00    -0.020 A 
ATOM     25  C   UNK d   0      -4.945  -4.107  27.934  0.00  0.00     0.041 A 
ATOM     26  N   UNK d   0      -3.970  -3.279  28.329  0.00  0.00    -0.355 N 
ATOM     27  C   UNK d   0      -5.752  -3.472  26.965  0.00  0.00    -0.022 A 
ATOM     28  C   UNK d   0      -4.126  -2.137  27.639  0.00  0.00     0.042 A 
ATOM     29  H   UNK d   0      -3.194  -3.488  29.106  0.00  0.00     0.166 HD
ATOM     30  C   UNK d   0      -3.387  -0.944  27.652  0.00  0.00     0.062 C 
ATOM     31  C   UNK d   0      -5.240  -2.226  26.772  0.00  0.00    -0.013 A 
ATOM     32  C   UNK d   0      -2.012  -0.790  27.729  0.00  0.00     0.066 A 
BRANCH   8  33
ATOM     33  C   UNK d   0       1.363   0.668  27.793  0.00  0.00     0.151 C 
BRANCH  33  34
ATOM     34  C   UNK d   0       2.265   0.302  28.899  0.00  0.00     0.143 C 
ATOM     35  O   UNK d   0       1.894   0.387  30.079  0.00  0.00    -0.650 OA
BRANCH  34  36
ATOM     36  O   UNK d   0       3.537  -0.140  28.615  0.00  0.00    -0.776 OA
ATOM     37  H   UNK d   0       4.081   0.262  27.840  0.00  0.00     0.167 HD
ENDBRANCH  34  36
ENDBRANCH  33  34
ENDBRANCH   8  33
BRANCH  31  38
ATOM     38  C   UNK d   0      -5.767  -1.185  25.812  0.00  0.00     0.151 C 
BRANCH  38  39
ATOM     39  C   UNK d   0      -5.114  -1.229  24.521  0.00  0.00     0.143 C 
ATOM     40  O   UNK d   0      -5.516  -1.956  23.596  0.00  0.00    -0.650 OA
BRANCH  39  41
ATOM     41  O   UNK d   0      -3.992  -0.432  24.292  0.00  0.00    -0.776 OA
ATOM     42  H   UNK d   0      -3.942   0.046  23.387  0.00  0.00     0.167 HD
ENDBRANCH  39  41
ENDBRANCH  38  39
ENDBRANCH  31  38
BRANCH  27  43
ATOM     43  C   UNK d   0      -6.963  -3.996  26.235  0.00  0.00     0.052 C 
BRANCH  43  44
ATOM     44  C   UNK d   0      -8.252  -3.664  26.916  0.00  0.00     0.115 C 
BRANCH  44  45
ATOM     45  C   UNK d   0      -9.199  -3.245  25.850  0.00  0.00     0.139 C 
ATOM     46  O   UNK d   0     -10.329  -3.791  25.814  0.00  0.00    -0.650 OA
BRANCH  45  47
ATOM     47  O   UNK d   0      -8.891  -2.283  24.912  0.00  0.00    -0.776 OA
ATOM     48  H   UNK d   0      -9.018  -1.273  25.083  0.00  0.00     0.167 HD
ENDBRANCH  45  47
ENDBRANCH  44  45
ENDBRANCH  43  44
ENDBRANCH  27  43
BRANCH  24  49
ATOM     49  C   UNK d   0      -5.675  -8.680  28.891  0.00  0.00     0.052 C 
BRANCH  49  50
ATOM     50  C   UNK d   0      -6.343  -8.774  27.543  0.00  0.00     0.115 C 
BRANCH  50  51
ATOM     51  C   UNK d   0      -6.949 -10.050  27.189  0.00  0.00     0.139 C 
ATOM     52  O   UNK d   0      -6.459 -11.151  27.536  0.00  0.00    -0.650 OA
BRANCH  51  53
ATOM     53  O   UNK d   0      -8.113 -10.072  26.436  0.00  0.00    -0.776 OA
ATOM     54  H   UNK d   0      -8.451  -9.205  26.057  0.00  0.00     0.167 HD
ENDBRANCH  51  53
ENDBRANCH  50  51
ENDBRANCH  49  50
ENDBRANCH  24  49
BRANCH  21  55
ATOM     55  C   UNK d   0      -2.796  -9.775  29.123  0.00  0.00     0.151 C 
BRANCH  55  56
ATOM     56  C   UNK d   0      -2.537 -10.500  27.869  0.00  0.00     0.143 C 
ATOM     57  O   UNK d   0      -1.444 -10.444  27.271  0.00  0.00    -0.650 OA
BRANCH  56  58
ATOM     58  O   UNK d   0      -3.568 -11.275  27.343  0.00  0.00    -0.776 OA
ATOM     59  H   UNK d   0      -3.745 -11.138  26.331  0.00  0.00     0.167 HD
ENDBRANCH  56  58
ENDBRANCH  55  56
ENDBRANCH  21  55
BRANCH  18  60
ATOM     60  C   UNK d   0       1.487  -6.853  30.511  0.00  0.00     0.151 C 
BRANCH  60  61
ATOM     61  C   UNK d   0       0.861  -6.561  31.810  0.00  0.00     0.143 C 
ATOM     62  O   UNK d   0       1.307  -5.841  32.703  0.00  0.00    -0.650 OA
BRANCH  61  63
ATOM     63  O   UNK d   0      -0.389  -7.188  32.030  0.00  0.00    -0.776 OA
ATOM     64  H   UNK d   0      -1.123  -7.135  31.347  0.00  0.00     0.167 HD
ENDBRANCH  61  63
ENDBRANCH  60  61
ENDBRANCH  18  60
BRANCH  14  65
ATOM     65  C   UNK d   0       2.739  -4.137  29.999  0.00  0.00     0.052 C 
BRANCH  65  66
ATOM     66  C   UNK d   0       3.950  -4.774  29.415  0.00  0.00     0.115 C 
BRANCH  66  67
ATOM     67  C   UNK d   0       4.633  -4.137  28.324  0.00  0.00     0.139 C 
ATOM     68  O   UNK d   0       4.863  -2.874  28.398  0.00  0.00    -0.650 OA
BRANCH  67  69
ATOM     69  O   UNK d   0       5.100  -4.726  27.150  0.00  0.00    -0.776 OA
ATOM     70  H   UNK d   0       5.467  -5.684  27.243  0.00  0.00     0.167 HD
ENDBRANCH  67  69
ENDBRANCH  66  67
ENDBRANCH  65  66
ENDBRANCH  14  65
ENDBRANCH   6   7
ENDBRANCH   5   6
ENDBRANCH   2   5
TORSDOF 28
ENDMDL
MODEL 20
REMARK VINA RESULT:      -9.2      2.342      7.458
REMARK  28 active torsions:
REMARK  status: ('A' for Active; 'I' for Inactive)
REMARK    1  A    between atoms: C_2  and  O_3 
REMARK    2  A    between atoms: C_2  and  C_4 
REMARK    3  A    between atoms: C_4  and  C_5 
REMARK    4  A    between atoms: C_5  and  C_6 
REMARK    5  A    between atoms: C_7  and  C_8 
REMARK    6  A    between atoms: C_8  and  C_9 
REMARK    7  A    between atoms: C_9  and  O_11 
REMARK    8  A    between atoms: C_28  and  C_29 
REMARK    9  A    between atoms: C_29  and  C_30 
REMARK   10  A    between atoms: C_30  and  O_32 
REMARK   11  A    between atoms: C_33  and  C_34 
REMARK   12  A    between atoms: C_34  and  C_35 
REMARK   13  A    between atoms: C_35  and  C_36 
REMARK   14  A    between atoms: C_36  and  O_38 
REMARK   15  A    between atoms: C_39  and  C_40 
REMARK   16  A    between atoms: C_40  and  C_41 
REMARK   17  A    between atoms: C_41  and  C_42 
REMARK   18  A    between atoms: C_42  and  O_44 
REMARK   19  A    between atoms: C_45  and  C_46 
REMARK   20  A    between atoms: C_46  and  C_47 
REMARK   21  A    between atoms: C_47  and  O_49 
REMARK   22  A    between atoms: C_50  and  C_51 
REMARK   23  A    between atoms: C_51  and  C_52 
REMARK   24  A    between atoms: C_52  and  O_54 
REMARK   25  A    between atoms: C_55  and  C_56 
REMARK   26  A    between atoms: C_56  and  C_57 
REMARK   27  A    between atoms: C_57  and  C_58 
REMARK   28  A    between atoms: C_58  and  O_60 
ROOT
ATOM      1  O   UNK d   0       0.473 -10.486  30.984  0.00  0.00    -0.650 OA
ATOM      2  C   UNK d   0      -0.140  -9.560  30.407  0.00  0.00     0.139 C 
ENDROOT
BRANCH   2   3
ATOM      3  O   UNK d   0      -1.132  -9.867  29.508  0.00  0.00    -0.776 OA
ATOM      4  H   UNK d   0      -1.179  -9.407  28.597  0.00  0.00     0.167 HD
ENDBRANCH   2   3
BRANCH   2   5
ATOM      5  C   UNK d   0       0.207  -8.139  30.696  0.00  0.00     0.115 C 
BRANCH   5   6
ATOM      6  C   UNK d   0       0.676  -7.456  29.441  0.00  0.00     0.052 C 
BRANCH   6   7
ATOM      7  C   UNK d   0       0.305  -5.993  29.402  0.00  0.00    -0.020 A 
ATOM      8  C   UNK d   0       0.968  -4.987  29.913  0.00  0.00    -0.011 A 
ATOM      9  C   UNK d   0       0.220  -3.773  29.634  0.00  0.00     0.067 A 
ATOM     10  C   UNK d   0       0.387  -2.401  29.880  0.00  0.00     0.062 C 
ATOM     11  N   UNK d   0      -0.889  -4.133  28.953  0.00  0.00    -0.248 NA
ATOM     12  C   UNK d   0      -0.309  -1.343  29.287  0.00  0.00     0.041 A 
ATOM     13  N   UNK d   0      -1.618  -1.189  29.006  0.00  0.00    -0.355 N 
ATOM     14  C   UNK d   0       0.412  -0.227  28.825  0.00  0.00    -0.022 A 
ATOM     15  C   UNK d   0      -1.743  -0.009  28.370  0.00  0.00     0.042 A 
ATOM     16  H   UNK d   0      -2.438  -1.892  29.268  0.00  0.00     0.166 HD
ATOM     17  C   UNK d   0      -2.887   0.637  27.860  0.00  0.00     0.062 C 
ATOM     18  C   UNK d   0      -0.492   0.623  28.238  0.00  0.00    -0.013 A 
ATOM     19  C   UNK d   0      -3.918   0.111  27.124  0.00  0.00     0.067 A 
ATOM     20  N   UNK d   0      -3.975  -1.220  27.028  0.00  0.00    -0.248 NA
ATOM     21  C   UNK d   0      -5.032   0.643  26.357  0.00  0.00    -0.011 A 
ATOM     22  C   UNK d   0      -5.044  -1.597  26.253  0.00  0.00     0.066 A 
ATOM     23  C   UNK d   0      -5.244  -2.961  26.100  0.00  0.00     0.062 C 
ATOM     24  C   UNK d   0      -5.684  -0.361  25.846  0.00  0.00    -0.020 A 
ATOM     25  C   UNK d   0      -4.541  -4.008  26.715  0.00  0.00     0.041 A 
ATOM     26  N   UNK d   0      -3.239  -4.167  26.981  0.00  0.00    -0.355 N 
ATOM     27  C   UNK d   0      -5.267  -5.126  27.183  0.00  0.00    -0.022 A 
ATOM     28  C   UNK d   0      -3.110  -5.348  27.607  0.00  0.00     0.042 A 
ATOM     29  H   UNK d   0      -2.414  -3.465  26.707  0.00  0.00     0.166 HD
ATOM     30  C   UNK d   0      -1.978  -6.006  28.111  0.00  0.00     0.062 C 
ATOM     31  C   UNK d   0      -4.369  -5.978  27.749  0.00  0.00    -0.013 A 
ATOM     32  C   UNK d   0      -0.897  -5.456  28.781  0.00  0.00     0.066 A 
BRANCH   8  33
ATOM     33  C   UNK d   0       2.244  -5.051  30.649  0.00  0.00     0.151 C 
BRANCH  33  34
ATOM     34  C   UNK d   0       3.418  -4.914  29.768  0.00  0.00     0.143 C 
ATOM     35  O   UNK d   0       4.246  -5.830  29.664  0.00  0.00    -0.650 OA
BRANCH  34  36
ATOM     36  O   UNK d   0       3.595  -3.751  29.055  0.00  0.00    -0.776 OA
ATOM     37  H   UNK d   0       2.843  -3.054  28.975  0.00  0.00     0.167 HD
ENDBRANCH  34  36
ENDBRANCH  33  34
ENDBRANCH   8  33
BRANCH  31  38
ATOM     38  C   UNK d   0      -4.687  -7.305  28.398  0.00  0.00     0.151 C 
BRANCH  38  39
ATOM     39  C   UNK d   0      -4.340  -7.340  29.802  0.00  0.00     0.143 C 
ATOM     40  O   UNK d   0      -4.815  -6.538  30.626  0.00  0.00    -0.650 OA
BRANCH  39  41
ATOM     41  O   UNK d   0      -3.443  -8.303  30.263  0.00  0.00    -0.776 OA
ATOM     42  H   UNK d   0      -2.501  -8.287  29.860  0.00  0.00     0.167 HD
ENDBRANCH  39  41
ENDBRANCH  38  39
ENDBRANCH  31  38
BRANCH  27  43
ATOM     43  C   UNK d   0      -6.747  -5.406  27.110  0.00  0.00     0.052 C 
BRANCH  43  44
ATOM     44  C   UNK d   0      -7.138  -6.213  25.914  0.00  0.00     0.115 C 
BRANCH  44  45
ATOM     45  C   UNK d   0      -8.610  -6.074  25.771  0.00  0.00     0.139 C 
ATOM     46  O   UNK d   0      -9.230  -6.964  25.139  0.00  0.00    -0.650 OA
BRANCH  45  47
ATOM     47  O   UNK d   0      -9.316  -5.017  26.304  0.00  0.00    -0.776 OA
ATOM     48  H   UNK d   0     -10.342  -5.032  26.423  0.00  0.00     0.167 HD
ENDBRANCH  45  47
ENDBRANCH  44  45
ENDBRANCH  43  44
ENDBRANCH  27  43
BRANCH  24  49
ATOM     49  C   UNK d   0      -6.906  -0.277  25.029  0.00  0.00     0.052 C 
BRANCH  49  50
ATOM     50  C   UNK d   0      -8.129  -0.301  25.909  0.00  0.00     0.115 C 
BRANCH  50  51
ATOM     51  C   UNK d   0      -8.746  -1.598  26.155  0.00  0.00     0.139 C 
ATOM     52  O   UNK d   0      -9.510  -2.151  25.329  0.00  0.00    -0.650 OA
BRANCH  51  53
ATOM     53  O   UNK d   0      -8.494  -2.263  27.345  0.00  0.00    -0.776 OA
ATOM     54  H   UNK d   0      -8.878  -3.184  27.465  0.00  0.00     0.167 HD
ENDBRANCH  51  53
ENDBRANCH  50  51
ENDBRANCH  49  50
ENDBRANCH  24  49
BRANCH  21  55
ATOM     55  C   UNK d   0      -5.330   2.099  26.218  0.00  0.00     0.151 C 
BRANCH  55  56
ATOM     56  C   UNK d   0      -4.348   2.784  25.364  0.00  0.00     0.143 C 
ATOM     57  O   UNK d   0      -3.850   3.888  25.659  0.00  0.00    -0.650 OA
BRANCH  56  58
ATOM     58  O   UNK d   0      -3.971   2.157  24.177  0.00  0.00    -0.776 OA
ATOM     59  H   UNK d   0      -4.634   1.440  23.832  0.00  0.00     0.167 HD
ENDBRANCH  56  58
ENDBRANCH  55  56
ENDBRANCH  21  55
BRANCH  18  60
ATOM     60  C   UNK d   0      -0.146   1.946  27.600  0.00  0.00     0.151 C 
BRANCH  60  61
ATOM     61  C   UNK d   0      -0.212   2.944  28.678  0.00  0.00     0.143 C 
ATOM     62  O   UNK d   0      -1.066   3.028  29.560  0.00  0.00    -0.650 OA
BRANCH  61  63
ATOM     63  O   UNK d   0       0.832   3.901  28.678  0.00  0.00    -0.776 OA
ATOM     64  H   UNK d   0       1.782   3.631  28.860  0.00  0.00     0.167 HD
ENDBRANCH  61  63
ENDBRANCH  60  61
ENDBRANCH  18  60
BRANCH  14  65
ATOM     65  C   UNK d   0       1.861   0.137  28.982  0.00  0.00     0.052 C 
BRANCH  65  66
ATOM     66  C   UNK d   0       2.736  -0.508  27.966  0.00  0.00     0.115 C 
BRANCH  66  67
ATOM     67  C   UNK d   0       4.139  -0.204  27.940  0.00  0.00     0.139 C 
ATOM     68  O   UNK d   0       4.971  -1.113  28.307  0.00  0.00    -0.650 OA
BRANCH  67  69
ATOM     69  O   UNK d   0       4.746   0.991  27.555  0.00  0.00    -0.776 OA
ATOM     70  H   UNK d   0       4.128   1.684  27.109  0.00  0.00     0.167 HD
ENDBRANCH  67  69
ENDBRANCH  66  67
ENDBRANCH  65  66
ENDBRANCH  14  65
ENDBRANCH   6   7
ENDBRANCH   5   6
ENDBRANCH   2   5
TORSDOF 28
ENDMDL
