MODEL 1
REMARK VINA RESULT:      -8.4      0.000      0.000
REMARK  16 active torsions:
REMARK  status: ('A' for Active; 'I' for Inactive)
REMARK    1  A    between atoms: C_6  and  C_7 
REMARK    2  A    between atoms: C_7  and  C_8 
REMARK    3  A    between atoms: C_8  and  C_9 
REMARK    4  A    between atoms: C_9  and  O_11 
REMARK    5  A    between atoms: C_16  and  C_17 
REMARK    6  A    between atoms: C_17  and  C_18 
REMARK    7  A    between atoms: C_18  and  C_19 
REMARK    8  A    between atoms: C_19  and  O_21 
REMARK    9  A    between atoms: C_28  and  C_29 
REMARK   10  A    between atoms: C_29  and  C_30 
REMARK   11  A    between atoms: C_30  and  C_31 
REMARK   12  A    between atoms: C_31  and  O_33 
REMARK   13  A    between atoms: C_42  and  C_43 
REMARK   14  A    between atoms: C_43  and  C_44 
REMARK   15  A    between atoms: C_44  and  C_45 
REMARK   16  A    between atoms: C_45  and  O_47 
ROOT
HETATM    1  C   UNK     0     -23.250  23.785  15.350  0.00  0.00     0.051 C 
HETATM    2  C   UNK     0     -22.409  24.822  16.066  0.00  0.00    -0.031 A 
HETATM    3  C   UNK     0     -22.108  26.122  15.691  0.00  0.00     0.021 A 
HETATM    4  N   UNK     0     -21.296  26.673  16.624  0.00  0.00    -0.361 N 
HETATM    5  C   UNK     0     -21.079  25.756  17.589  0.00  0.00     0.022 A 
HETATM    6  C   UNK     0     -21.759  24.585  17.270  0.00  0.00    -0.027 A 
HETATM    7  C   UNK     0     -20.334  25.890  18.880  0.00  0.00     0.115 C 
HETATM    8  C   UNK     0     -20.556  27.171  19.666  0.00  0.00     0.021 A 
HETATM    9  N   UNK     0     -21.682  27.890  19.791  0.00  0.00    -0.361 N 
HETATM   10  C   UNK     0     -21.394  28.999  20.505  0.00  0.00     0.022 A 
HETATM   11  C   UNK     0     -20.048  28.989  20.857  0.00  0.00    -0.027 A 
HETATM   12  C   UNK     0     -19.514  27.840  20.331  0.00  0.00    -0.031 A 
HETATM   13  C   UNK     0     -18.072  27.405  20.467  0.00  0.00     0.051 C 
HETATM   14  C   UNK     0     -22.360  30.133  20.837  0.00  0.00     0.115 C 
HETATM   15  C   UNK     0     -22.923  30.840  19.615  0.00  0.00     0.021 A 
HETATM   16  N   UNK     0     -23.629  30.297  18.605  0.00  0.00    -0.361 N 
HETATM   17  C   UNK     0     -23.879  31.237  17.690  0.00  0.00     0.022 A 
HETATM   18  C   UNK     0     -23.316  32.452  18.129  0.00  0.00    -0.027 A 
HETATM   19  C   UNK     0     -22.722  32.190  19.336  0.00  0.00    -0.031 A 
HETATM   20  C   UNK     0     -22.023  33.242  20.178  0.00  0.00     0.051 C 
HETATM   21  C   UNK     0     -24.567  31.128  16.348  0.00  0.00     0.115 C 
HETATM   22  C   UNK     0     -24.390  29.842  15.576  0.00  0.00     0.022 A 
HETATM   23  N   UNK     0     -23.282  29.103  15.437  0.00  0.00    -0.361 N 
HETATM   24  C   UNK     0     -23.609  27.966  14.790  0.00  0.00     0.021 A 
HETATM   25  C   UNK     0     -24.959  27.978  14.496  0.00  0.00    -0.031 A 
HETATM   26  C   UNK     0     -25.782  26.949  13.748  0.00  0.00     0.051 C 
HETATM   27  C   UNK     0     -25.481  29.169  14.989  0.00  0.00    -0.027 A 
HETATM   28  C   UNK     0     -22.712  26.780  14.483  0.00  0.00     0.115 C 
HETATM   29  H   UNK     0     -20.849  27.693  16.574  0.00  0.00     0.165 HD
HETATM   30  H   UNK     0     -22.694  27.593  19.420  0.00  0.00     0.165 HD
HETATM   31  H   UNK     0     -24.001  29.241  18.559  0.00  0.00     0.165 HD
HETATM   32  H   UNK     0     -22.248  29.396  15.756  0.00  0.00     0.165 HD
ENDROOT
BRANCH   6  33
HETATM   33  C   UNK     0     -21.834  23.275  18.012  0.00  0.00     0.051 C 
BRANCH  33  34
HETATM   34  C   UNK     0     -20.672  22.384  17.644  0.00  0.00     0.114 C 
BRANCH  34  35
HETATM   35  C   UNK     0     -20.126  21.815  18.910  0.00  0.00     0.139 C 
HETATM   36  O   UNK     0     -20.030  22.538  19.943  0.00  0.00    -0.650 OA
BRANCH  35  37
HETATM   37  O   UNK     0     -19.709  20.494  19.019  0.00  0.00    -0.776 OA
HETATM   38  H   UNK     0     -19.396  19.965  18.222  0.00  0.00     0.167 HD
ENDBRANCH  35  37
ENDBRANCH  34  35
ENDBRANCH  33  34
ENDBRANCH   6  33
BRANCH  27  39
HETATM   39  C   UNK     0     -26.900  29.573  14.798  0.00  0.00     0.051 C 
BRANCH  39  40
HETATM   40  C   UNK     0     -27.858  29.267  15.861  0.00  0.00     0.114 C 
BRANCH  40  41
HETATM   41  C   UNK     0     -27.824  29.933  17.143  0.00  0.00     0.139 C 
HETATM   42  O   UNK     0     -27.192  29.505  18.119  0.00  0.00    -0.650 OA
BRANCH  41  43
HETATM   43  O   UNK     0     -28.549  31.147  17.312  0.00  0.00    -0.776 OA
HETATM   44  H   UNK     0     -28.250  31.901  16.705  0.00  0.00     0.167 HD
ENDBRANCH  41  43
ENDBRANCH  40  41
ENDBRANCH  39  40
ENDBRANCH  27  39
BRANCH  11  45
HETATM   45  C   UNK     0     -19.276  30.005  21.655  0.00  0.00     0.051 C 
BRANCH  45  46
HETATM   46  C   UNK     0     -19.658  30.067  23.089  0.00  0.00     0.114 C 
BRANCH  46  47
HETATM   47  C   UNK     0     -19.442  31.471  23.543  0.00  0.00     0.139 C 
HETATM   48  O   UNK     0     -20.238  31.959  24.357  0.00  0.00    -0.650 OA
BRANCH  47  49
HETATM   49  O   UNK     0     -18.385  32.208  23.070  0.00  0.00    -0.776 OA
HETATM   50  H   UNK     0     -17.687  31.811  22.430  0.00  0.00     0.167 HD
ENDBRANCH  47  49
ENDBRANCH  46  47
ENDBRANCH  45  46
ENDBRANCH  11  45
BRANCH  18  51
HETATM   51  C   UNK     0     -23.361  33.794  17.445  0.00  0.00     0.051 C 
BRANCH  51  52
HETATM   52  C   UNK     0     -22.170  33.830  16.499  0.00  0.00     0.114 C 
BRANCH  52  53
HETATM   53  C   UNK     0     -21.318  35.012  16.734  0.00  0.00     0.139 C 
HETATM   54  O   UNK     0     -21.356  35.972  15.948  0.00  0.00    -0.650 OA
BRANCH  53  55
HETATM   55  O   UNK     0     -20.481  35.041  17.823  0.00  0.00    -0.776 OA
HETATM   56  H   UNK     0     -20.746  35.248  18.758  0.00  0.00     0.167 HD
ENDBRANCH  53  55
ENDBRANCH  52  53
ENDBRANCH  51  52
ENDBRANCH  18  51
TORSDOF 16
ENDMDL
MODEL 2
REMARK VINA RESULT:      -8.3     25.302     28.910
REMARK  16 active torsions:
REMARK  status: ('A' for Active; 'I' for Inactive)
REMARK    1  A    between atoms: C_6  and  C_7 
REMARK    2  A    between atoms: C_7  and  C_8 
REMARK    3  A    between atoms: C_8  and  C_9 
REMARK    4  A    between atoms: C_9  and  O_11 
REMARK    5  A    between atoms: C_16  and  C_17 
REMARK    6  A    between atoms: C_17  and  C_18 
REMARK    7  A    between atoms: C_18  and  C_19 
REMARK    8  A    between atoms: C_19  and  O_21 
REMARK    9  A    between atoms: C_28  and  C_29 
REMARK   10  A    between atoms: C_29  and  C_30 
REMARK   11  A    between atoms: C_30  and  C_31 
REMARK   12  A    between atoms: C_31  and  O_33 
REMARK   13  A    between atoms: C_42  and  C_43 
REMARK   14  A    between atoms: C_43  and  C_44 
REMARK   15  A    between atoms: C_44  and  C_45 
REMARK   16  A    between atoms: C_45  and  O_47 
ROOT
HETATM    1  C   UNK     0     -31.882   2.660   8.712  0.00  0.00     0.051 C 
HETATM    2  C   UNK     0     -31.801   4.005   8.019  0.00  0.00    -0.031 A 
HETATM    3  C   UNK     0     -30.694   4.798   7.765  0.00  0.00     0.021 A 
HETATM    4  N   UNK     0     -31.097   5.935   7.148  0.00  0.00    -0.361 N 
HETATM    5  C   UNK     0     -32.436   5.879   6.996  0.00  0.00     0.022 A 
HETATM    6  C   UNK     0     -32.910   4.686   7.533  0.00  0.00    -0.027 A 
HETATM    7  C   UNK     0     -33.356   6.831   6.297  0.00  0.00     0.115 C 
HETATM    8  C   UNK     0     -32.881   7.383   4.965  0.00  0.00     0.021 A 
HETATM    9  N   UNK     0     -32.163   6.767   4.013  0.00  0.00    -0.361 N 
HETATM   10  C   UNK     0     -31.892   7.668   3.044  0.00  0.00     0.022 A 
HETATM   11  C   UNK     0     -32.459   8.895   3.377  0.00  0.00    -0.027 A 
HETATM   12  C   UNK     0     -33.083   8.722   4.586  0.00  0.00    -0.031 A 
HETATM   13  C   UNK     0     -33.842   9.792   5.338  0.00  0.00     0.051 C 
HETATM   14  C   UNK     0     -31.047   7.423   1.797  0.00  0.00     0.115 C 
HETATM   15  C   UNK     0     -29.608   7.032   2.095  0.00  0.00     0.021 A 
HETATM   16  N   UNK     0     -29.175   5.978   2.811  0.00  0.00    -0.361 N 
HETATM   17  C   UNK     0     -27.844   6.025   2.900  0.00  0.00     0.022 A 
HETATM   18  C   UNK     0     -27.387   7.160   2.201  0.00  0.00    -0.027 A 
HETATM   19  C   UNK     0     -28.502   7.781   1.700  0.00  0.00    -0.031 A 
HETATM   20  C   UNK     0     -28.457   9.034   0.845  0.00  0.00     0.051 C 
HETATM   21  C   UNK     0     -26.888   5.124   3.649  0.00  0.00     0.115 C 
HETATM   22  C   UNK     0     -27.364   4.532   4.954  0.00  0.00     0.022 A 
HETATM   23  N   UNK     0     -28.083   5.121   5.919  0.00  0.00    -0.361 N 
HETATM   24  C   UNK     0     -28.408   4.186   6.835  0.00  0.00     0.021 A 
HETATM   25  C   UNK     0     -27.876   2.969   6.456  0.00  0.00    -0.031 A 
HETATM   26  C   UNK     0     -27.935   1.637   7.176  0.00  0.00     0.051 C 
HETATM   27  C   UNK     0     -27.203   3.165   5.256  0.00  0.00    -0.027 A 
HETATM   28  C   UNK     0     -29.290   4.353   8.060  0.00  0.00     0.115 C 
HETATM   29  H   UNK     0     -30.438   6.786   6.860  0.00  0.00     0.165 HD
HETATM   30  H   UNK     0     -31.889   5.684   3.997  0.00  0.00     0.165 HD
HETATM   31  H   UNK     0     -29.818   5.156   3.222  0.00  0.00     0.165 HD
HETATM   32  H   UNK     0     -28.332   6.212   5.984  0.00  0.00     0.165 HD
ENDROOT
BRANCH   6  33
HETATM   33  C   UNK     0     -34.318   4.152   7.620  0.00  0.00     0.051 C 
BRANCH  33  34
HETATM   34  C   UNK     0     -34.556   3.098   6.564  0.00  0.00     0.114 C 
BRANCH  34  35
HETATM   35  C   UNK     0     -35.349   3.732   5.472  0.00  0.00     0.139 C 
HETATM   36  O   UNK     0     -35.829   4.893   5.624  0.00  0.00    -0.650 OA
BRANCH  35  37
HETATM   37  O   UNK     0     -35.595   3.098   4.260  0.00  0.00    -0.776 OA
HETATM   38  H   UNK     0     -36.286   3.436   3.610  0.00  0.00     0.167 HD
ENDBRANCH  35  37
ENDBRANCH  34  35
ENDBRANCH  33  34
ENDBRANCH   6  33
BRANCH  27  39
HETATM   39  C   UNK     0     -26.437   2.089   4.571  0.00  0.00     0.051 C 
BRANCH  39  40
HETATM   40  C   UNK     0     -25.308   1.483   5.277  0.00  0.00     0.114 C 
BRANCH  40  41
HETATM   41  C   UNK     0     -25.145   0.050   5.382  0.00  0.00     0.139 C 
HETATM   42  O   UNK     0     -25.591  -0.622   6.322  0.00  0.00    -0.650 OA
BRANCH  41  43
HETATM   43  O   UNK     0     -24.436  -0.642   4.360  0.00  0.00    -0.776 OA
HETATM   44  H   UNK     0     -23.590  -0.178   4.049  0.00  0.00     0.167 HD
ENDBRANCH  41  43
ENDBRANCH  40  41
ENDBRANCH  39  40
ENDBRANCH  27  39
BRANCH  11  45
HETATM   45  C   UNK     0     -32.429  10.186   2.605  0.00  0.00     0.051 C 
BRANCH  45  46
HETATM   46  C   UNK     0     -33.764  10.648   2.144  0.00  0.00     0.114 C 
BRANCH  46  47
HETATM   47  C   UNK     0     -34.270   9.636   1.174  0.00  0.00     0.139 C 
HETATM   48  O   UNK     0     -33.624   9.436   0.135  0.00  0.00    -0.650 OA
BRANCH  47  49
HETATM   49  O   UNK     0     -35.427   8.941   1.422  0.00  0.00    -0.776 OA
HETATM   50  H   UNK     0     -36.283   9.094   0.875  0.00  0.00     0.167 HD
ENDBRANCH  47  49
ENDBRANCH  46  47
ENDBRANCH  45  46
ENDBRANCH  11  45
BRANCH  18  51
HETATM   51  C   UNK     0     -25.965   7.615   2.003  0.00  0.00     0.051 C 
BRANCH  51  52
HETATM   52  C   UNK     0     -25.362   7.748   3.393  0.00  0.00     0.114 C 
BRANCH  52  53
HETATM   53  C   UNK     0     -26.134   8.678   4.240  0.00  0.00     0.139 C 
HETATM   54  O   UNK     0     -26.508   8.326   5.370  0.00  0.00    -0.650 OA
BRANCH  53  55
HETATM   55  O   UNK     0     -26.438   9.933   3.769  0.00  0.00    -0.776 OA
HETATM   56  H   UNK     0     -25.792  10.672   3.617  0.00  0.00     0.167 HD
ENDBRANCH  53  55
ENDBRANCH  52  53
ENDBRANCH  51  52
ENDBRANCH  18  51
TORSDOF 16
ENDMDL
MODEL 3
REMARK VINA RESULT:      -8.0      2.533      7.883
REMARK  16 active torsions:
REMARK  status: ('A' for Active; 'I' for Inactive)
REMARK    1  A    between atoms: C_6  and  C_7 
REMARK    2  A    between atoms: C_7  and  C_8 
REMARK    3  A    between atoms: C_8  and  C_9 
REMARK    4  A    between atoms: C_9  and  O_11 
REMARK    5  A    between atoms: C_16  and  C_17 
REMARK    6  A    between atoms: C_17  and  C_18 
REMARK    7  A    between atoms: C_18  and  C_19 
REMARK    8  A    between atoms: C_19  and  O_21 
REMARK    9  A    between atoms: C_28  and  C_29 
REMARK   10  A    between atoms: C_29  and  C_30 
REMARK   11  A    between atoms: C_30  and  C_31 
REMARK   12  A    between atoms: C_31  and  O_33 
REMARK   13  A    between atoms: C_42  and  C_43 
REMARK   14  A    between atoms: C_43  and  C_44 
REMARK   15  A    between atoms: C_44  and  C_45 
REMARK   16  A    between atoms: C_45  and  O_47 
ROOT
HETATM    1  C   UNK     0     -19.109  26.327  21.521  0.00  0.00     0.051 C 
HETATM    2  C   UNK     0     -19.745  27.344  20.595  0.00  0.00    -0.031 A 
HETATM    3  C   UNK     0     -19.888  27.310  19.217  0.00  0.00     0.021 A 
HETATM    4  N   UNK     0     -20.492  28.451  18.808  0.00  0.00    -0.361 N 
HETATM    5  C   UNK     0     -20.744  29.208  19.896  0.00  0.00     0.022 A 
HETATM    6  C   UNK     0     -20.287  28.546  21.031  0.00  0.00    -0.027 A 
HETATM    7  C   UNK     0     -21.474  30.510  20.001  0.00  0.00     0.115 C 
HETATM    8  C   UNK     0     -22.747  30.646  19.184  0.00  0.00     0.021 A 
HETATM    9  N   UNK     0     -23.665  29.708  18.904  0.00  0.00    -0.361 N 
HETATM   10  C   UNK     0     -24.578  30.251  18.071  0.00  0.00     0.022 A 
HETATM   11  C   UNK     0     -24.244  31.577  17.814  0.00  0.00    -0.027 A 
HETATM   12  C   UNK     0     -23.091  31.833  18.513  0.00  0.00    -0.031 A 
HETATM   13  C   UNK     0     -22.359  33.156  18.537  0.00  0.00     0.051 C 
HETATM   14  C   UNK     0     -25.767  29.529  17.443  0.00  0.00     0.115 C 
HETATM   15  C   UNK     0     -25.377  28.357  16.556  0.00  0.00     0.021 A 
HETATM   16  N   UNK     0     -24.670  27.265  16.900  0.00  0.00    -0.361 N 
HETATM   17  C   UNK     0     -24.481  26.506  15.819  0.00  0.00     0.022 A 
HETATM   18  C   UNK     0     -25.103  27.129  14.718  0.00  0.00    -0.027 A 
HETATM   19  C   UNK     0     -25.662  28.287  15.193  0.00  0.00    -0.031 A 
HETATM   20  C   UNK     0     -26.466  29.248  14.338  0.00  0.00     0.051 C 
HETATM   21  C   UNK     0     -23.697  25.223  15.657  0.00  0.00     0.115 C 
HETATM   22  C   UNK     0     -22.452  25.056  16.496  0.00  0.00     0.022 A 
HETATM   23  N   UNK     0     -21.523  25.973  16.795  0.00  0.00    -0.361 N 
HETATM   24  C   UNK     0     -20.667  25.434  17.687  0.00  0.00     0.021 A 
HETATM   25  C   UNK     0     -21.049  24.135  17.962  0.00  0.00    -0.031 A 
HETATM   26  C   UNK     0     -20.384  23.117  18.865  0.00  0.00     0.051 C 
HETATM   27  C   UNK     0     -22.189  23.870  17.211  0.00  0.00    -0.027 A 
HETATM   28  C   UNK     0     -19.505  26.116  18.389  0.00  0.00     0.115 C 
HETATM   29  H   UNK     0     -20.699  28.732  17.749  0.00  0.00     0.165 HD
HETATM   30  H   UNK     0     -23.699  28.677  19.333  0.00  0.00     0.165 HD
HETATM   31  H   UNK     0     -24.337  27.000  17.938  0.00  0.00     0.165 HD
HETATM   32  H   UNK     0     -21.437  26.996  16.345  0.00  0.00     0.165 HD
ENDROOT
BRANCH   6  33
HETATM   33  C   UNK     0     -20.324  28.965  22.479  0.00  0.00     0.051 C 
BRANCH  33  34
HETATM   34  C   UNK     0     -19.171  29.887  22.799  0.00  0.00     0.114 C 
BRANCH  34  35
HETATM   35  C   UNK     0     -19.718  31.030  23.584  0.00  0.00     0.139 C 
HETATM   36  O   UNK     0     -19.487  31.118  24.826  0.00  0.00    -0.650 OA
BRANCH  35  37
HETATM   37  O   UNK     0     -20.487  32.034  23.010  0.00  0.00    -0.776 OA
HETATM   38  H   UNK     0     -21.455  31.894  22.768  0.00  0.00     0.167 HD
ENDBRANCH  35  37
ENDBRANCH  34  35
ENDBRANCH  33  34
ENDBRANCH   6  33
BRANCH  27  39
HETATM   39  C   UNK     0     -22.854  22.539  17.190  0.00  0.00     0.051 C 
BRANCH  39  40
HETATM   40  C   UNK     0     -22.584  21.646  16.063  0.00  0.00     0.114 C 
BRANCH  40  41
HETATM   41  C   UNK     0     -23.237  21.802  14.783  0.00  0.00     0.139 C 
HETATM   42  O   UNK     0     -24.425  21.517  14.582  0.00  0.00    -0.650 OA
BRANCH  41  43
HETATM   43  O   UNK     0     -22.489  22.310  13.683  0.00  0.00    -0.776 OA
HETATM   44  H   UNK     0     -22.962  23.030  13.151  0.00  0.00     0.167 HD
ENDBRANCH  41  43
ENDBRANCH  40  41
ENDBRANCH  39  40
ENDBRANCH  27  39
BRANCH  11  45
HETATM   45  C   UNK     0     -24.964  32.580  16.954  0.00  0.00     0.051 C 
BRANCH  45  46
HETATM   46  C   UNK     0     -24.657  32.469  15.506  0.00  0.00     0.114 C 
BRANCH  46  47
HETATM   47  C   UNK     0     -24.171  33.803  15.053  0.00  0.00     0.139 C 
HETATM   48  O   UNK     0     -23.013  34.140  15.338  0.00  0.00    -0.650 OA
BRANCH  47  49
HETATM   49  O   UNK     0     -24.987  34.643  14.337  0.00  0.00    -0.776 OA
HETATM   50  H   UNK     0     -24.645  35.180  13.532  0.00  0.00     0.167 HD
ENDBRANCH  47  49
ENDBRANCH  46  47
ENDBRANCH  45  46
ENDBRANCH  11  45
BRANCH  18  51
HETATM   51  C   UNK     0     -25.179  26.636  13.296  0.00  0.00     0.051 C 
BRANCH  51  52
HETATM   52  C   UNK     0     -26.445  25.797  13.203  0.00  0.00     0.114 C 
BRANCH  52  53
HETATM   53  C   UNK     0     -26.155  24.353  13.292  0.00  0.00     0.139 C 
HETATM   54  O   UNK     0     -26.859  23.621  14.005  0.00  0.00    -0.650 OA
BRANCH  53  55
HETATM   55  O   UNK     0     -25.102  23.827  12.584  0.00  0.00    -0.776 OA
HETATM   56  H   UNK     0     -24.174  23.710  12.918  0.00  0.00     0.167 HD
ENDBRANCH  53  55
ENDBRANCH  52  53
ENDBRANCH  51  52
ENDBRANCH  18  51
TORSDOF 16
ENDMDL
MODEL 4
REMARK VINA RESULT:      -7.9     15.585     19.155
REMARK  16 active torsions:
REMARK  status: ('A' for Active; 'I' for Inactive)
REMARK    1  A    between atoms: C_6  and  C_7 
REMARK    2  A    between atoms: C_7  and  C_8 
REMARK    3  A    between atoms: C_8  and  C_9 
REMARK    4  A    between atoms: C_9  and  O_11 
REMARK    5  A    between atoms: C_16  and  C_17 
REMARK    6  A    between atoms: C_17  and  C_18 
REMARK    7  A    between atoms: C_18  and  C_19 
REMARK    8  A    between atoms: C_19  and  O_21 
REMARK    9  A    between atoms: C_28  and  C_29 
REMARK   10  A    between atoms: C_29  and  C_30 
REMARK   11  A    between atoms: C_30  and  C_31 
REMARK   12  A    between atoms: C_31  and  O_33 
REMARK   13  A    between atoms: C_42  and  C_43 
REMARK   14  A    between atoms: C_43  and  C_44 
REMARK   15  A    between atoms: C_44  and  C_45 
REMARK   16  A    between atoms: C_45  and  O_47 
ROOT
HETATM    1  C   UNK     0     -26.512  24.185  -4.286  0.00  0.00     0.051 C 
HETATM    2  C   UNK     0     -25.955  24.255  -2.878  0.00  0.00    -0.031 A 
HETATM    3  C   UNK     0     -24.651  24.462  -2.458  0.00  0.00     0.021 A 
HETATM    4  N   UNK     0     -24.610  24.416  -1.105  0.00  0.00    -0.361 N 
HETATM    5  C   UNK     0     -25.862  24.193  -0.654  0.00  0.00     0.022 A 
HETATM    6  C   UNK     0     -26.728  24.085  -1.737  0.00  0.00    -0.027 A 
HETATM    7  C   UNK     0     -26.374  24.148   0.752  0.00  0.00     0.115 C 
HETATM    8  C   UNK     0     -25.849  25.210   1.702  0.00  0.00     0.021 A 
HETATM    9  N   UNK     0     -25.546  26.491   1.440  0.00  0.00    -0.361 N 
HETATM   10  C   UNK     0     -25.027  27.037   2.560  0.00  0.00     0.022 A 
HETATM   11  C   UNK     0     -25.003  26.084   3.574  0.00  0.00    -0.027 A 
HETATM   12  C   UNK     0     -25.520  24.931   3.041  0.00  0.00    -0.031 A 
HETATM   13  C   UNK     0     -25.693  23.625   3.784  0.00  0.00     0.051 C 
HETATM   14  C   UNK     0     -24.486  28.457   2.704  0.00  0.00     0.115 C 
HETATM   15  C   UNK     0     -23.314  28.765   1.786  0.00  0.00     0.021 A 
HETATM   16  N   UNK     0     -23.283  28.700   0.442  0.00  0.00    -0.361 N 
HETATM   17  C   UNK     0     -22.049  28.978   0.017  0.00  0.00     0.022 A 
HETATM   18  C   UNK     0     -21.238  29.246   1.138  0.00  0.00    -0.027 A 
HETATM   19  C   UNK     0     -22.043  29.111   2.239  0.00  0.00    -0.031 A 
HETATM   20  C   UNK     0     -21.572  29.350   3.662  0.00  0.00     0.051 C 
HETATM   21  C   UNK     0     -21.478  28.969  -1.383  0.00  0.00     0.115 C 
HETATM   22  C   UNK     0     -22.023  27.946  -2.352  0.00  0.00     0.022 A 
HETATM   23  N   UNK     0     -22.336  26.665  -2.118  0.00  0.00    -0.361 N 
HETATM   24  C   UNK     0     -22.923  26.164  -3.223  0.00  0.00     0.021 A 
HETATM   25  C   UNK     0     -22.979  27.143  -4.197  0.00  0.00    -0.031 A 
HETATM   26  C   UNK     0     -23.508  27.049  -5.613  0.00  0.00     0.051 C 
HETATM   27  C   UNK     0     -22.409  28.292  -3.663  0.00  0.00    -0.027 A 
HETATM   28  C   UNK     0     -23.532  24.785  -3.408  0.00  0.00     0.115 C 
HETATM   29  H   UNK     0     -23.692  24.502  -0.480  0.00  0.00     0.165 HD
HETATM   30  H   UNK     0     -25.745  27.027   0.480  0.00  0.00     0.165 HD
HETATM   31  H   UNK     0     -24.163  28.500  -0.225  0.00  0.00     0.165 HD
HETATM   32  H   UNK     0     -22.107  26.090  -1.183  0.00  0.00     0.165 HD
ENDROOT
BRANCH   6  33
HETATM   33  C   UNK     0     -28.214  23.832  -1.770  0.00  0.00     0.051 C 
BRANCH  33  34
HETATM   34  C   UNK     0     -28.517  22.382  -1.475  0.00  0.00     0.114 C 
BRANCH  34  35
HETATM   35  C   UNK     0     -29.157  21.803  -2.691  0.00  0.00     0.139 C 
HETATM   36  O   UNK     0     -28.445  21.430  -3.669  0.00  0.00    -0.650 OA
BRANCH  35  37
HETATM   37  O   UNK     0     -30.532  21.646  -2.812  0.00  0.00    -0.776 OA
HETATM   38  H   UNK     0     -31.140  21.631  -2.009  0.00  0.00     0.167 HD
ENDBRANCH  35  37
ENDBRANCH  34  35
ENDBRANCH  33  34
ENDBRANCH   6  33
BRANCH  27  39
HETATM   39  C   UNK     0     -22.225  29.545  -4.445  0.00  0.00     0.051 C 
BRANCH  39  40
HETATM   40  C   UNK     0     -23.241  30.591  -4.330  0.00  0.00     0.114 C 
BRANCH  40  41
HETATM   41  C   UNK     0     -22.922  31.928  -3.883  0.00  0.00     0.139 C 
HETATM   42  O   UNK     0     -22.785  32.890  -4.651  0.00  0.00    -0.650 OA
BRANCH  41  43
HETATM   43  O   UNK     0     -22.753  32.170  -2.490  0.00  0.00    -0.776 OA
HETATM   44  H   UNK     0     -22.358  33.076  -2.267  0.00  0.00     0.167 HD
ENDBRANCH  41  43
ENDBRANCH  40  41
ENDBRANCH  39  40
ENDBRANCH  27  39
BRANCH  11  45
HETATM   45  C   UNK     0     -24.522  26.231   4.993  0.00  0.00     0.051 C 
BRANCH  45  46
HETATM   46  C   UNK     0     -23.046  26.172   5.142  0.00  0.00     0.114 C 
BRANCH  46  47
HETATM   47  C   UNK     0     -22.739  25.026   6.045  0.00  0.00     0.139 C 
HETATM   48  O   UNK     0     -23.665  24.278   6.388  0.00  0.00    -0.650 OA
BRANCH  47  49
HETATM   49  O   UNK     0     -21.460  24.805   6.490  0.00  0.00    -0.776 OA
HETATM   50  H   UNK     0     -20.762  25.557   6.540  0.00  0.00     0.167 HD
ENDBRANCH  47  49
ENDBRANCH  46  47
ENDBRANCH  45  46
ENDBRANCH  11  45
BRANCH  18  51
HETATM   51  C   UNK     0     -19.782  29.632   1.156  0.00  0.00     0.051 C 
BRANCH  51  52
HETATM   52  C   UNK     0     -19.033  28.442   1.737  0.00  0.00     0.114 C 
BRANCH  52  53
HETATM   53  C   UNK     0     -17.591  28.717   1.881  0.00  0.00     0.139 C 
HETATM   54  O   UNK     0     -16.890  27.995   2.608  0.00  0.00    -0.650 OA
BRANCH  53  55
HETATM   55  O   UNK     0     -17.031  29.777   1.211  0.00  0.00    -0.776 OA
HETATM   56  H   UNK     0     -16.109  29.816   0.844  0.00  0.00     0.167 HD
ENDBRANCH  53  55
ENDBRANCH  52  53
ENDBRANCH  51  52
ENDBRANCH  18  51
TORSDOF 16
ENDMDL
MODEL 5
REMARK VINA RESULT:      -7.8      7.421     12.112
REMARK  16 active torsions:
REMARK  status: ('A' for Active; 'I' for Inactive)
REMARK    1  A    between atoms: C_6  and  C_7 
REMARK    2  A    between atoms: C_7  and  C_8 
REMARK    3  A    between atoms: C_8  and  C_9 
REMARK    4  A    between atoms: C_9  and  O_11 
REMARK    5  A    between atoms: C_16  and  C_17 
REMARK    6  A    between atoms: C_17  and  C_18 
REMARK    7  A    between atoms: C_18  and  C_19 
REMARK    8  A    between atoms: C_19  and  O_21 
REMARK    9  A    between atoms: C_28  and  C_29 
REMARK   10  A    between atoms: C_29  and  C_30 
REMARK   11  A    between atoms: C_30  and  C_31 
REMARK   12  A    between atoms: C_31  and  O_33 
REMARK   13  A    between atoms: C_42  and  C_43 
REMARK   14  A    between atoms: C_43  and  C_44 
REMARK   15  A    between atoms: C_44  and  C_45 
REMARK   16  A    between atoms: C_45  and  O_47 
ROOT
HETATM    1  C   UNK     0     -18.735  20.438  21.253  0.00  0.00     0.051 C 
HETATM    2  C   UNK     0     -20.033  19.687  21.036  0.00  0.00    -0.031 A 
HETATM    3  C   UNK     0     -21.273  20.168  20.646  0.00  0.00     0.021 A 
HETATM    4  N   UNK     0     -22.154  19.141  20.611  0.00  0.00    -0.361 N 
HETATM    5  C   UNK     0     -21.501  18.014  20.963  0.00  0.00     0.022 A 
HETATM    6  C   UNK     0     -20.172  18.320  21.238  0.00  0.00    -0.027 A 
HETATM    7  C   UNK     0     -21.991  16.600  20.992  0.00  0.00     0.115 C 
HETATM    8  C   UNK     0     -22.848  16.150  19.822  0.00  0.00     0.021 A 
HETATM    9  N   UNK     0     -22.749  16.499  18.530  0.00  0.00    -0.361 N 
HETATM   10  C   UNK     0     -23.776  15.932  17.863  0.00  0.00     0.022 A 
HETATM   11  C   UNK     0     -24.553  15.190  18.747  0.00  0.00    -0.027 A 
HETATM   12  C   UNK     0     -23.974  15.323  19.984  0.00  0.00    -0.031 A 
HETATM   13  C   UNK     0     -24.476  14.681  21.257  0.00  0.00     0.051 C 
HETATM   14  C   UNK     0     -24.095  16.109  16.381  0.00  0.00     0.115 C 
HETATM   15  C   UNK     0     -24.385  17.547  15.981  0.00  0.00     0.021 A 
HETATM   16  N   UNK     0     -23.577  18.616  16.117  0.00  0.00    -0.361 N 
HETATM   17  C   UNK     0     -24.226  19.710  15.711  0.00  0.00     0.022 A 
HETATM   18  C   UNK     0     -25.515  19.334  15.282  0.00  0.00    -0.027 A 
HETATM   19  C   UNK     0     -25.601  17.977  15.455  0.00  0.00    -0.031 A 
HETATM   20  C   UNK     0     -26.820  17.154  15.081  0.00  0.00     0.051 C 
HETATM   21  C   UNK     0     -23.794  21.158  15.726  0.00  0.00     0.115 C 
HETATM   22  C   UNK     0     -22.904  21.608  16.861  0.00  0.00     0.022 A 
HETATM   23  N   UNK     0     -22.977  21.274  18.156  0.00  0.00    -0.361 N 
HETATM   24  C   UNK     0     -21.901  21.786  18.787  0.00  0.00     0.021 A 
HETATM   25  C   UNK     0     -21.122  22.475  17.879  0.00  0.00    -0.031 A 
HETATM   26  C   UNK     0     -19.842  23.251  18.115  0.00  0.00     0.051 C 
HETATM   27  C   UNK     0     -21.743  22.376  16.639  0.00  0.00    -0.027 A 
HETATM   28  C   UNK     0     -21.499  21.597  20.240  0.00  0.00     0.115 C 
HETATM   29  H   UNK     0     -23.241  19.225  20.377  0.00  0.00     0.165 HD
HETATM   30  H   UNK     0     -21.926  17.105  18.077  0.00  0.00     0.165 HD
HETATM   31  H   UNK     0     -22.511  18.592  16.461  0.00  0.00     0.165 HD
HETATM   32  H   UNK     0     -23.813  20.709  18.646  0.00  0.00     0.165 HD
ENDROOT
BRANCH   6  33
HETATM   33  C   UNK     0     -19.041  17.424  21.675  0.00  0.00     0.051 C 
BRANCH  33  34
HETATM   34  C   UNK     0     -19.079  17.204  23.168  0.00  0.00     0.114 C 
BRANCH  34  35
HETATM   35  C   UNK     0     -18.046  18.089  23.777  0.00  0.00     0.139 C 
HETATM   36  O   UNK     0     -18.196  18.527  24.955  0.00  0.00    -0.650 OA
BRANCH  35  37
HETATM   37  O   UNK     0     -16.892  18.469  23.102  0.00  0.00    -0.776 OA
HETATM   38  H   UNK     0     -16.227  17.794  22.759  0.00  0.00     0.167 HD
ENDBRANCH  35  37
ENDBRANCH  34  35
ENDBRANCH  33  34
ENDBRANCH   6  33
BRANCH  27  39
HETATM   39  C   UNK     0     -21.231  23.057  15.419  0.00  0.00     0.051 C 
BRANCH  39  40
HETATM   40  C   UNK     0     -22.022  24.148  14.849  0.00  0.00     0.114 C 
BRANCH  40  41
HETATM   41  C   UNK     0     -22.915  23.949  13.730  0.00  0.00     0.139 C 
HETATM   42  O   UNK     0     -23.888  24.678  13.495  0.00  0.00    -0.650 OA
BRANCH  41  43
HETATM   43  O   UNK     0     -22.679  22.862  12.842  0.00  0.00    -0.776 OA
HETATM   44  H   UNK     0     -22.475  23.137  11.888  0.00  0.00     0.167 HD
ENDBRANCH  41  43
ENDBRANCH  40  41
ENDBRANCH  39  40
ENDBRANCH  27  39
BRANCH  11  45
HETATM   45  C   UNK     0     -25.789  14.380  18.463  0.00  0.00     0.051 C 
BRANCH  45  46
HETATM   46  C   UNK     0     -27.060  15.110  18.705  0.00  0.00     0.114 C 
BRANCH  46  47
HETATM   47  C   UNK     0     -28.151  14.319  18.067  0.00  0.00     0.139 C 
HETATM   48  O   UNK     0     -28.478  13.239  18.579  0.00  0.00    -0.650 OA
BRANCH  47  49
HETATM   49  O   UNK     0     -28.780  14.775  16.936  0.00  0.00    -0.776 OA
HETATM   50  H   UNK     0     -28.750  15.763  16.656  0.00  0.00     0.167 HD
ENDBRANCH  47  49
ENDBRANCH  46  47
ENDBRANCH  45  46
ENDBRANCH  11  45
BRANCH  18  51
HETATM   51  C   UNK     0     -26.597  20.218  14.717  0.00  0.00     0.051 C 
BRANCH  51  52
HETATM   52  C   UNK     0     -26.213  20.491  13.271  0.00  0.00     0.114 C 
BRANCH  52  53
HETATM   53  C   UNK     0     -26.377  21.914  12.918  0.00  0.00     0.139 C 
HETATM   54  O   UNK     0     -27.364  22.546  13.328  0.00  0.00    -0.650 OA
BRANCH  53  55
HETATM   55  O   UNK     0     -25.435  22.533  12.133  0.00  0.00    -0.776 OA
HETATM   56  H   UNK     0     -24.637  22.102  11.730  0.00  0.00     0.167 HD
ENDBRANCH  53  55
ENDBRANCH  52  53
ENDBRANCH  51  52
ENDBRANCH  18  51
TORSDOF 16
ENDMDL
MODEL 6
REMARK VINA RESULT:      -7.8     22.905     26.338
REMARK  16 active torsions:
REMARK  status: ('A' for Active; 'I' for Inactive)
REMARK    1  A    between atoms: C_6  and  C_7 
REMARK    2  A    between atoms: C_7  and  C_8 
REMARK    3  A    between atoms: C_8  and  C_9 
REMARK    4  A    between atoms: C_9  and  O_11 
REMARK    5  A    between atoms: C_16  and  C_17 
REMARK    6  A    between atoms: C_17  and  C_18 
REMARK    7  A    between atoms: C_18  and  C_19 
REMARK    8  A    between atoms: C_19  and  O_21 
REMARK    9  A    between atoms: C_28  and  C_29 
REMARK   10  A    between atoms: C_29  and  C_30 
REMARK   11  A    between atoms: C_30  and  C_31 
REMARK   12  A    between atoms: C_31  and  O_33 
REMARK   13  A    between atoms: C_42  and  C_43 
REMARK   14  A    between atoms: C_43  and  C_44 
REMARK   15  A    between atoms: C_44  and  C_45 
REMARK   16  A    between atoms: C_45  and  O_47 
ROOT
HETATM    1  C   UNK     0     -34.939   5.229   6.530  0.00  0.00     0.051 C 
HETATM    2  C   UNK     0     -33.605   5.381   5.826  0.00  0.00    -0.031 A 
HETATM    3  C   UNK     0     -33.303   6.046   4.649  0.00  0.00     0.021 A 
HETATM    4  N   UNK     0     -31.984   5.892   4.381  0.00  0.00    -0.361 N 
HETATM    5  C   UNK     0     -31.438   5.150   5.367  0.00  0.00     0.022 A 
HETATM    6  C   UNK     0     -32.425   4.811   6.287  0.00  0.00    -0.027 A 
HETATM    7  C   UNK     0     -30.007   4.774   5.595  0.00  0.00     0.115 C 
HETATM    8  C   UNK     0     -28.973   5.862   5.369  0.00  0.00     0.021 A 
HETATM    9  N   UNK     0     -29.073   7.177   5.619  0.00  0.00    -0.361 N 
HETATM   10  C   UNK     0     -27.947   7.775   5.176  0.00  0.00     0.022 A 
HETATM   11  C   UNK     0     -27.094   6.819   4.633  0.00  0.00    -0.027 A 
HETATM   12  C   UNK     0     -27.734   5.611   4.752  0.00  0.00    -0.031 A 
HETATM   13  C   UNK     0     -27.179   4.280   4.298  0.00  0.00     0.051 C 
HETATM   14  C   UNK     0     -27.654   9.273   5.197  0.00  0.00     0.115 C 
HETATM   15  C   UNK     0     -28.637  10.104   4.389  0.00  0.00     0.021 A 
HETATM   16  N   UNK     0     -29.971  10.184   4.549  0.00  0.00    -0.361 N 
HETATM   17  C   UNK     0     -30.481  10.966   3.595  0.00  0.00     0.022 A 
HETATM   18  C   UNK     0     -29.427  11.427   2.781  0.00  0.00    -0.027 A 
HETATM   19  C   UNK     0     -28.278  10.881   3.289  0.00  0.00    -0.031 A 
HETATM   20  C   UNK     0     -26.894  11.151   2.726  0.00  0.00     0.051 C 
HETATM   21  C   UNK     0     -31.920  11.317   3.292  0.00  0.00     0.115 C 
HETATM   22  C   UNK     0     -32.966  10.258   3.554  0.00  0.00     0.022 A 
HETATM   23  N   UNK     0     -32.892   8.942   3.318  0.00  0.00    -0.361 N 
HETATM   24  C   UNK     0     -33.989   8.356   3.838  0.00  0.00     0.021 A 
HETATM   25  C   UNK     0     -34.795   9.320   4.414  0.00  0.00    -0.031 A 
HETATM   26  C   UNK     0     -36.143   9.159   5.084  0.00  0.00     0.051 C 
HETATM   27  C   UNK     0     -34.161  10.546   4.244  0.00  0.00    -0.027 A 
HETATM   28  C   UNK     0     -34.310   6.873   3.900  0.00  0.00     0.115 C 
HETATM   29  H   UNK     0     -31.456   6.274   3.477  0.00  0.00     0.165 HD
HETATM   30  H   UNK     0     -29.916   7.679   6.154  0.00  0.00     0.165 HD
HETATM   31  H   UNK     0     -30.561   9.717   5.380  0.00  0.00     0.165 HD
HETATM   32  H   UNK     0     -32.083   8.419   2.744  0.00  0.00     0.165 HD
ENDROOT
BRANCH   6  33
HETATM   33  C   UNK     0     -32.334   3.996   7.552  0.00  0.00     0.051 C 
BRANCH  33  34
HETATM   34  C   UNK     0     -31.859   4.848   8.705  0.00  0.00     0.114 C 
BRANCH  34  35
HETATM   35  C   UNK     0     -30.626   4.211   9.252  0.00  0.00     0.139 C 
HETATM   36  O   UNK     0     -29.970   4.781  10.172  0.00  0.00    -0.650 OA
BRANCH  35  37
HETATM   37  O   UNK     0     -30.147   2.990   8.794  0.00  0.00    -0.776 OA
HETATM   38  H   UNK     0     -30.125   2.171   9.379  0.00  0.00     0.167 HD
ENDBRANCH  35  37
ENDBRANCH  34  35
ENDBRANCH  33  34
ENDBRANCH   6  33
BRANCH  27  39
HETATM   39  C   UNK     0     -34.764  11.836   4.674  0.00  0.00     0.051 C 
BRANCH  39  40
HETATM   40  C   UNK     0     -35.580  12.576   3.711  0.00  0.00     0.114 C 
BRANCH  40  41
HETATM   41  C   UNK     0     -36.761  12.006   3.104  0.00  0.00     0.139 C 
HETATM   42  O   UNK     0     -37.841  11.879   3.697  0.00  0.00    -0.650 OA
BRANCH  41  43
HETATM   43  O   UNK     0     -36.698  11.562   1.753  0.00  0.00    -0.776 OA
HETATM   44  H   UNK     0     -36.985  10.601   1.613  0.00  0.00     0.167 HD
ENDBRANCH  41  43
ENDBRANCH  40  41
ENDBRANCH  39  40
ENDBRANCH  27  39
BRANCH  11  45
HETATM   45  C   UNK     0     -25.730   7.009   4.027  0.00  0.00     0.051 C 
BRANCH  45  46
HETATM   46  C   UNK     0     -25.744   7.685   2.704  0.00  0.00     0.114 C 
BRANCH  46  47
HETATM   47  C   UNK     0     -26.532   6.824   1.776  0.00  0.00     0.139 C 
HETATM   48  O   UNK     0     -26.027   5.764   1.380  0.00  0.00    -0.650 OA
BRANCH  47  49
HETATM   49  O   UNK     0     -27.787   7.197   1.368  0.00  0.00    -0.776 OA
HETATM   50  H   UNK     0     -28.382   6.580   0.802  0.00  0.00     0.167 HD
ENDBRANCH  47  49
ENDBRANCH  46  47
ENDBRANCH  45  46
ENDBRANCH  11  45
BRANCH  18  51
HETATM   51  C   UNK     0     -29.510  12.353   1.596  0.00  0.00     0.051 C 
BRANCH  51  52
HETATM   52  C   UNK     0     -29.016  13.709   2.080  0.00  0.00     0.114 C 
BRANCH  52  53
HETATM   53  C   UNK     0     -30.083  14.472   2.756  0.00  0.00     0.139 C 
HETATM   54  O   UNK     0     -31.172  14.656   2.188  0.00  0.00    -0.650 OA
BRANCH  53  55
HETATM   55  O   UNK     0     -29.863  14.981   4.013  0.00  0.00    -0.776 OA
HETATM   56  H   UNK     0     -30.428  15.651   4.479  0.00  0.00     0.167 HD
ENDBRANCH  53  55
ENDBRANCH  52  53
ENDBRANCH  51  52
ENDBRANCH  18  51
TORSDOF 16
ENDMDL
MODEL 7
REMARK VINA RESULT:      -7.7      6.059     11.857
REMARK  16 active torsions:
REMARK  status: ('A' for Active; 'I' for Inactive)
REMARK    1  A    between atoms: C_6  and  C_7 
REMARK    2  A    between atoms: C_7  and  C_8 
REMARK    3  A    between atoms: C_8  and  C_9 
REMARK    4  A    between atoms: C_9  and  O_11 
REMARK    5  A    between atoms: C_16  and  C_17 
REMARK    6  A    between atoms: C_17  and  C_18 
REMARK    7  A    between atoms: C_18  and  C_19 
REMARK    8  A    between atoms: C_19  and  O_21 
REMARK    9  A    between atoms: C_28  and  C_29 
REMARK   10  A    between atoms: C_29  and  C_30 
REMARK   11  A    between atoms: C_30  and  C_31 
REMARK   12  A    between atoms: C_31  and  O_33 
REMARK   13  A    between atoms: C_42  and  C_43 
REMARK   14  A    between atoms: C_43  and  C_44 
REMARK   15  A    between atoms: C_44  and  C_45 
REMARK   16  A    between atoms: C_45  and  O_47 
ROOT
HETATM    1  C   UNK     0     -18.923  20.752  23.752  0.00  0.00     0.051 C 
HETATM    2  C   UNK     0     -19.231  21.299  22.373  0.00  0.00    -0.031 A 
HETATM    3  C   UNK     0     -19.274  20.641  21.154  0.00  0.00     0.021 A 
HETATM    4  N   UNK     0     -19.561  21.536  20.179  0.00  0.00    -0.361 N 
HETATM    5  C   UNK     0     -19.711  22.748  20.751  0.00  0.00     0.022 A 
HETATM    6  C   UNK     0     -19.509  22.637  22.123  0.00  0.00    -0.027 A 
HETATM    7  C   UNK     0     -20.123  24.048  20.134  0.00  0.00     0.115 C 
HETATM    8  C   UNK     0     -21.263  23.996  19.132  0.00  0.00     0.021 A 
HETATM    9  N   UNK     0     -22.351  23.210  19.144  0.00  0.00    -0.361 N 
HETATM   10  C   UNK     0     -23.046  23.440  18.010  0.00  0.00     0.022 A 
HETATM   11  C   UNK     0     -22.393  24.406  17.251  0.00  0.00    -0.027 A 
HETATM   12  C   UNK     0     -21.269  24.761  17.952  0.00  0.00    -0.031 A 
HETATM   13  C   UNK     0     -20.252  25.790  17.511  0.00  0.00     0.051 C 
HETATM   14  C   UNK     0     -24.320  22.722  17.573  0.00  0.00     0.115 C 
HETATM   15  C   UNK     0     -24.149  21.223  17.386  0.00  0.00     0.021 A 
HETATM   16  N   UNK     0     -23.745  20.322  18.301  0.00  0.00    -0.361 N 
HETATM   17  C   UNK     0     -23.657  19.121  17.725  0.00  0.00     0.022 A 
HETATM   18  C   UNK     0     -24.032  19.244  16.372  0.00  0.00    -0.027 A 
HETATM   19  C   UNK     0     -24.339  20.565  16.173  0.00  0.00    -0.031 A 
HETATM   20  C   UNK     0     -24.829  21.127  14.851  0.00  0.00     0.051 C 
HETATM   21  C   UNK     0     -23.185  17.803  18.294  0.00  0.00     0.115 C 
HETATM   22  C   UNK     0     -22.081  17.843  19.324  0.00  0.00     0.022 A 
HETATM   23  N   UNK     0     -20.988  18.618  19.340  0.00  0.00    -0.361 N 
HETATM   24  C   UNK     0     -20.352  18.429  20.514  0.00  0.00     0.021 A 
HETATM   25  C   UNK     0     -21.047  17.503  21.268  0.00  0.00    -0.031 A 
HETATM   26  C   UNK     0     -20.708  16.938  22.632  0.00  0.00     0.051 C 
HETATM   27  C   UNK     0     -22.157  17.113  20.527  0.00  0.00    -0.027 A 
HETATM   28  C   UNK     0     -19.120  19.152  21.030  0.00  0.00     0.115 C 
HETATM   29  H   UNK     0     -19.617  21.312  19.089  0.00  0.00     0.165 HD
HETATM   30  H   UNK     0     -22.658  22.529  19.975  0.00  0.00     0.165 HD
HETATM   31  H   UNK     0     -23.563  20.528  19.388  0.00  0.00     0.165 HD
HETATM   32  H   UNK     0     -20.631  19.273  18.503  0.00  0.00     0.165 HD
ENDROOT
BRANCH   6  33
HETATM   33  C   UNK     0     -19.556  23.692  23.199  0.00  0.00     0.051 C 
BRANCH  33  34
HETATM   34  C   UNK     0     -18.271  24.485  23.228  0.00  0.00     0.114 C 
BRANCH  34  35
HETATM   35  C   UNK     0     -17.697  24.356  24.598  0.00  0.00     0.139 C 
HETATM   36  O   UNK     0     -17.980  25.208  25.490  0.00  0.00    -0.650 OA
BRANCH  35  37
HETATM   37  O   UNK     0     -16.845  23.320  24.959  0.00  0.00    -0.776 OA
HETATM   38  H   UNK     0     -17.083  22.659  25.681  0.00  0.00     0.167 HD
ENDBRANCH  35  37
ENDBRANCH  34  35
ENDBRANCH  33  34
ENDBRANCH   6  33
BRANCH  27  39
HETATM   39  C   UNK     0     -23.111  16.067  20.986  0.00  0.00     0.051 C 
BRANCH  39  40
HETATM   40  C   UNK     0     -22.794  14.667  20.707  0.00  0.00     0.114 C 
BRANCH  40  41
HETATM   41  C   UNK     0     -23.184  14.020  19.474  0.00  0.00     0.139 C 
HETATM   42  O   UNK     0     -22.703  14.306  18.370  0.00  0.00    -0.650 OA
BRANCH  41  43
HETATM   43  O   UNK     0     -24.174  12.998  19.515  0.00  0.00    -0.776 OA
HETATM   44  H   UNK     0     -24.360  12.559  18.621  0.00  0.00     0.167 HD
ENDBRANCH  41  43
ENDBRANCH  40  41
ENDBRANCH  39  40
ENDBRANCH  27  39
BRANCH  11  45
HETATM   45  C   UNK     0     -22.792  24.989  15.922  0.00  0.00     0.051 C 
BRANCH  45  46
HETATM   46  C   UNK     0     -21.951  24.536  14.784  0.00  0.00     0.114 C 
BRANCH  46  47
HETATM   47  C   UNK     0     -22.864  23.935  13.771  0.00  0.00     0.139 C 
HETATM   48  O   UNK     0     -24.004  24.405  13.649  0.00  0.00    -0.650 OA
BRANCH  47  49
HETATM   49  O   UNK     0     -22.454  22.884  12.990  0.00  0.00    -0.776 OA
HETATM   50  H   UNK     0     -22.211  21.970  13.390  0.00  0.00     0.167 HD
ENDBRANCH  47  49
ENDBRANCH  46  47
ENDBRANCH  45  46
ENDBRANCH  11  45
BRANCH  18  51
HETATM   51  C   UNK     0     -24.113  18.157  15.331  0.00  0.00     0.051 C 
BRANCH  51  52
HETATM   52  C   UNK     0     -25.571  17.726  15.278  0.00  0.00     0.114 C 
BRANCH  52  53
HETATM   53  C   UNK     0     -25.717  16.337  14.801  0.00  0.00     0.139 C 
HETATM   54  O   UNK     0     -26.829  15.915  14.447  0.00  0.00    -0.650 OA
BRANCH  53  55
HETATM   55  O   UNK     0     -24.617  15.516  14.756  0.00  0.00    -0.776 OA
HETATM   56  H   UNK     0     -24.327  14.887  15.467  0.00  0.00     0.167 HD
ENDBRANCH  53  55
ENDBRANCH  52  53
ENDBRANCH  51  52
ENDBRANCH  18  51
TORSDOF 16
ENDMDL
MODEL 8
REMARK VINA RESULT:      -7.7      2.819      8.125
REMARK  16 active torsions:
REMARK  status: ('A' for Active; 'I' for Inactive)
REMARK    1  A    between atoms: C_6  and  C_7 
REMARK    2  A    between atoms: C_7  and  C_8 
REMARK    3  A    between atoms: C_8  and  C_9 
REMARK    4  A    between atoms: C_9  and  O_11 
REMARK    5  A    between atoms: C_16  and  C_17 
REMARK    6  A    between atoms: C_17  and  C_18 
REMARK    7  A    between atoms: C_18  and  C_19 
REMARK    8  A    between atoms: C_19  and  O_21 
REMARK    9  A    between atoms: C_28  and  C_29 
REMARK   10  A    between atoms: C_29  and  C_30 
REMARK   11  A    between atoms: C_30  and  C_31 
REMARK   12  A    between atoms: C_31  and  O_33 
REMARK   13  A    between atoms: C_42  and  C_43 
REMARK   14  A    between atoms: C_43  and  C_44 
REMARK   15  A    between atoms: C_44  and  C_45 
REMARK   16  A    between atoms: C_45  and  O_47 
ROOT
HETATM    1  C   UNK     0     -21.897  30.943  19.753  0.00  0.00     0.051 C 
HETATM    2  C   UNK     0     -21.896  29.439  19.938  0.00  0.00    -0.031 A 
HETATM    3  C   UNK     0     -22.920  28.527  19.738  0.00  0.00     0.021 A 
HETATM    4  N   UNK     0     -22.477  27.289  20.058  0.00  0.00    -0.361 N 
HETATM    5  C   UNK     0     -21.190  27.390  20.450  0.00  0.00     0.022 A 
HETATM    6  C   UNK     0     -20.795  28.723  20.390  0.00  0.00    -0.027 A 
HETATM    7  C   UNK     0     -20.218  26.312  20.817  0.00  0.00     0.115 C 
HETATM    8  C   UNK     0     -20.215  25.071  19.941  0.00  0.00     0.021 A 
HETATM    9  N   UNK     0     -20.412  24.982  18.617  0.00  0.00    -0.361 N 
HETATM   10  C   UNK     0     -20.414  23.675  18.281  0.00  0.00     0.022 A 
HETATM   11  C   UNK     0     -20.202  22.901  19.418  0.00  0.00    -0.027 A 
HETATM   12  C   UNK     0     -20.076  23.775  20.468  0.00  0.00    -0.031 A 
HETATM   13  C   UNK     0     -19.828  23.382  21.907  0.00  0.00     0.051 C 
HETATM   14  C   UNK     0     -20.666  23.102  16.889  0.00  0.00     0.115 C 
HETATM   15  C   UNK     0     -22.036  23.441  16.323  0.00  0.00     0.021 A 
HETATM   16  N   UNK     0     -22.557  24.664  16.108  0.00  0.00    -0.361 N 
HETATM   17  C   UNK     0     -23.810  24.536  15.668  0.00  0.00     0.022 A 
HETATM   18  C   UNK     0     -24.119  23.163  15.584  0.00  0.00    -0.027 A 
HETATM   19  C   UNK     0     -22.999  22.488  15.996  0.00  0.00    -0.031 A 
HETATM   20  C   UNK     0     -22.889  20.975  16.024  0.00  0.00     0.051 C 
HETATM   21  C   UNK     0     -24.842  25.594  15.352  0.00  0.00     0.115 C 
HETATM   22  C   UNK     0     -24.829  26.853  16.186  0.00  0.00     0.022 A 
HETATM   23  N   UNK     0     -24.631  26.972  17.506  0.00  0.00    -0.361 N 
HETATM   24  C   UNK     0     -24.556  28.285  17.806  0.00  0.00     0.021 A 
HETATM   25  C   UNK     0     -24.719  29.029  16.653  0.00  0.00    -0.031 A 
HETATM   26  C   UNK     0     -24.753  30.534  16.487  0.00  0.00     0.051 C 
HETATM   27  C   UNK     0     -24.896  28.135  15.604  0.00  0.00    -0.027 A 
HETATM   28  C   UNK     0     -24.250  28.914  19.154  0.00  0.00     0.115 C 
HETATM   29  H   UNK     0     -23.088  26.357  20.044  0.00  0.00     0.165 HD
HETATM   30  H   UNK     0     -20.501  25.842  17.909  0.00  0.00     0.165 HD
HETATM   31  H   UNK     0     -22.012  25.637  16.223  0.00  0.00     0.165 HD
HETATM   32  H   UNK     0     -24.585  26.131  18.245  0.00  0.00     0.165 HD
ENDROOT
BRANCH   6  33
HETATM   33  C   UNK     0     -19.470  29.358  20.726  0.00  0.00     0.051 C 
BRANCH  33  34
HETATM   34  C   UNK     0     -19.338  29.563  22.217  0.00  0.00     0.114 C 
BRANCH  34  35
HETATM   35  C   UNK     0     -19.449  31.027  22.478  0.00  0.00     0.139 C 
HETATM   36  O   UNK     0     -20.524  31.513  22.936  0.00  0.00    -0.650 OA
BRANCH  35  37
HETATM   37  O   UNK     0     -18.404  31.912  22.241  0.00  0.00    -0.776 OA
HETATM   38  H   UNK     0     -18.534  32.910  22.260  0.00  0.00     0.167 HD
ENDBRANCH  35  37
ENDBRANCH  34  35
ENDBRANCH  33  34
ENDBRANCH   6  33
BRANCH  27  39
HETATM   39  C   UNK     0     -25.175  28.569  14.208  0.00  0.00     0.051 C 
BRANCH  39  40
HETATM   40  C   UNK     0     -26.513  28.338  13.663  0.00  0.00     0.114 C 
BRANCH  40  41
HETATM   41  C   UNK     0     -26.807  27.229  12.784  0.00  0.00     0.139 C 
HETATM   42  O   UNK     0     -26.418  27.166  11.610  0.00  0.00    -0.650 OA
BRANCH  41  43
HETATM   43  O   UNK     0     -27.582  26.142  13.279  0.00  0.00    -0.776 OA
HETATM   44  H   UNK     0     -27.148  25.627  14.035  0.00  0.00     0.167 HD
ENDBRANCH  41  43
ENDBRANCH  40  41
ENDBRANCH  39  40
ENDBRANCH  27  39
BRANCH  11  45
HETATM   45  C   UNK     0     -20.115  21.403  19.536  0.00  0.00     0.051 C 
BRANCH  45  46
HETATM   46  C   UNK     0     -18.769  20.849  19.242  0.00  0.00     0.114 C 
BRANCH  46  47
HETATM   47  C   UNK     0     -18.749  19.446  19.748  0.00  0.00     0.139 C 
HETATM   48  O   UNK     0     -19.791  18.779  19.685  0.00  0.00    -0.650 OA
BRANCH  47  49
HETATM   49  O   UNK     0     -17.603  18.905  20.273  0.00  0.00    -0.776 OA
HETATM   50  H   UNK     0     -17.395  18.938  21.278  0.00  0.00     0.167 HD
ENDBRANCH  47  49
ENDBRANCH  46  47
ENDBRANCH  45  46
ENDBRANCH  11  45
BRANCH  18  51
HETATM   51  C   UNK     0     -25.403  22.529  15.116  0.00  0.00     0.051 C 
BRANCH  51  52
HETATM   52  C   UNK     0     -25.231  22.267  13.628  0.00  0.00     0.114 C 
BRANCH  52  53
HETATM   53  C   UNK     0     -25.932  23.273  12.807  0.00  0.00     0.139 C 
HETATM   54  O   UNK     0     -27.159  23.189  12.635  0.00  0.00    -0.650 OA
BRANCH  53  55
HETATM   55  O   UNK     0     -25.220  24.298  12.234  0.00  0.00    -0.776 OA
HETATM   56  H   UNK     0     -25.531  24.883  11.494  0.00  0.00     0.167 HD
ENDBRANCH  53  55
ENDBRANCH  52  53
ENDBRANCH  51  52
ENDBRANCH  18  51
TORSDOF 16
ENDMDL
MODEL 9
REMARK VINA RESULT:      -7.7      2.665      7.722
REMARK  16 active torsions:
REMARK  status: ('A' for Active; 'I' for Inactive)
REMARK    1  A    between atoms: C_6  and  C_7 
REMARK    2  A    between atoms: C_7  and  C_8 
REMARK    3  A    between atoms: C_8  and  C_9 
REMARK    4  A    between atoms: C_9  and  O_11 
REMARK    5  A    between atoms: C_16  and  C_17 
REMARK    6  A    between atoms: C_17  and  C_18 
REMARK    7  A    between atoms: C_18  and  C_19 
REMARK    8  A    between atoms: C_19  and  O_21 
REMARK    9  A    between atoms: C_28  and  C_29 
REMARK   10  A    between atoms: C_29  and  C_30 
REMARK   11  A    between atoms: C_30  and  C_31 
REMARK   12  A    between atoms: C_31  and  O_33 
REMARK   13  A    between atoms: C_42  and  C_43 
REMARK   14  A    between atoms: C_43  and  C_44 
REMARK   15  A    between atoms: C_44  and  C_45 
REMARK   16  A    between atoms: C_45  and  O_47 
ROOT
HETATM    1  C   UNK     0     -24.779  32.858  16.953  0.00  0.00     0.051 C 
HETATM    2  C   UNK     0     -24.102  31.863  17.874  0.00  0.00    -0.031 A 
HETATM    3  C   UNK     0     -24.494  30.582  18.227  0.00  0.00     0.021 A 
HETATM    4  N   UNK     0     -23.598  30.071  19.104  0.00  0.00    -0.361 N 
HETATM    5  C   UNK     0     -22.638  30.995  19.311  0.00  0.00     0.022 A 
HETATM    6  C   UNK     0     -22.923  32.130  18.560  0.00  0.00    -0.027 A 
HETATM    7  C   UNK     0     -21.378  30.896  20.114  0.00  0.00     0.115 C 
HETATM    8  C   UNK     0     -20.590  29.604  19.989  0.00  0.00     0.021 A 
HETATM    9  N   UNK     0     -20.423  28.827  18.908  0.00  0.00    -0.361 N 
HETATM   10  C   UNK     0     -19.727  27.733  19.281  0.00  0.00     0.022 A 
HETATM   11  C   UNK     0     -19.429  27.811  20.638  0.00  0.00    -0.027 A 
HETATM   12  C   UNK     0     -19.970  28.988  21.091  0.00  0.00    -0.031 A 
HETATM   13  C   UNK     0     -19.890  29.497  22.512  0.00  0.00     0.051 C 
HETATM   14  C   UNK     0     -19.362  26.549  18.390  0.00  0.00     0.115 C 
HETATM   15  C   UNK     0     -20.564  25.818  17.815  0.00  0.00     0.021 A 
HETATM   16  N   UNK     0     -21.542  26.325  17.041  0.00  0.00    -0.361 N 
HETATM   17  C   UNK     0     -22.451  25.377  16.805  0.00  0.00     0.022 A 
HETATM   18  C   UNK     0     -22.041  24.191  17.446  0.00  0.00    -0.027 A 
HETATM   19  C   UNK     0     -20.857  24.480  18.074  0.00  0.00    -0.031 A 
HETATM   20  C   UNK     0     -20.048  23.464  18.859  0.00  0.00     0.051 C 
HETATM   21  C   UNK     0     -23.764  25.453  16.058  0.00  0.00     0.115 C 
HETATM   22  C   UNK     0     -24.537  26.749  16.137  0.00  0.00     0.022 A 
HETATM   23  N   UNK     0     -24.716  27.545  17.199  0.00  0.00    -0.361 N 
HETATM   24  C   UNK     0     -25.344  28.665  16.788  0.00  0.00     0.021 A 
HETATM   25  C   UNK     0     -25.584  28.584  15.430  0.00  0.00    -0.031 A 
HETATM   26  C   UNK     0     -26.293  29.571  14.526  0.00  0.00     0.051 C 
HETATM   27  C   UNK     0     -25.076  27.366  14.991  0.00  0.00    -0.027 A 
HETATM   28  C   UNK     0     -25.681  29.897  17.610  0.00  0.00     0.115 C 
HETATM   29  H   UNK     0     -23.670  29.075  19.600  0.00  0.00     0.165 HD
HETATM   30  H   UNK     0     -20.752  29.073  17.868  0.00  0.00     0.165 HD
HETATM   31  H   UNK     0     -21.569  27.362  16.614  0.00  0.00     0.165 HD
HETATM   32  H   UNK     0     -24.440  27.304  18.259  0.00  0.00     0.165 HD
ENDROOT
BRANCH   6  33
HETATM   33  C   UNK     0     -22.173  33.433  18.446  0.00  0.00     0.051 C 
BRANCH  33  34
HETATM   34  C   UNK     0     -22.201  33.945  17.026  0.00  0.00     0.114 C 
BRANCH  34  35
HETATM   35  C   UNK     0     -21.097  34.938  16.887  0.00  0.00     0.139 C 
HETATM   36  O   UNK     0     -21.164  35.848  16.011  0.00  0.00    -0.650 OA
BRANCH  35  37
HETATM   37  O   UNK     0     -19.966  34.918  17.694  0.00  0.00    -0.776 OA
HETATM   38  H   UNK     0     -19.321  34.145  17.692  0.00  0.00     0.167 HD
ENDBRANCH  35  37
ENDBRANCH  34  35
ENDBRANCH  33  34
ENDBRANCH   6  33
BRANCH  27  39
HETATM   39  C   UNK     0     -25.212  26.890  13.587  0.00  0.00     0.051 C 
BRANCH  39  40
HETATM   40  C   UNK     0     -26.118  25.774  13.318  0.00  0.00     0.114 C 
BRANCH  40  41
HETATM   41  C   UNK     0     -25.635  24.456  12.969  0.00  0.00     0.139 C 
HETATM   42  O   UNK     0     -26.380  23.493  12.743  0.00  0.00    -0.650 OA
BRANCH  41  43
HETATM   43  O   UNK     0     -24.231  24.237  12.877  0.00  0.00    -0.776 OA
HETATM   44  H   UNK     0     -23.972  23.309  12.566  0.00  0.00     0.167 HD
ENDBRANCH  41  43
ENDBRANCH  40  41
ENDBRANCH  39  40
ENDBRANCH  27  39
BRANCH  11  45
HETATM   45  C   UNK     0     -18.668  26.834  21.493  0.00  0.00     0.051 C 
BRANCH  45  46
HETATM   46  C   UNK     0     -19.503  25.745  22.060  0.00  0.00     0.114 C 
BRANCH  46  47
HETATM   47  C   UNK     0     -18.793  25.223  23.262  0.00  0.00     0.139 C 
HETATM   48  O   UNK     0     -18.261  26.033  24.034  0.00  0.00    -0.650 OA
BRANCH  47  49
HETATM   49  O   UNK     0     -18.727  23.875  23.510  0.00  0.00    -0.776 OA
HETATM   50  H   UNK     0     -19.556  23.326  23.764  0.00  0.00     0.167 HD
ENDBRANCH  47  49
ENDBRANCH  46  47
ENDBRANCH  45  46
ENDBRANCH  11  45
BRANCH  18  51
HETATM   51  C   UNK     0     -22.729  22.851  17.443  0.00  0.00     0.051 C 
BRANCH  51  52
HETATM   52  C   UNK     0     -22.087  22.046  16.323  0.00  0.00     0.114 C 
BRANCH  52  53
HETATM   53  C   UNK     0     -22.899  22.075  15.091  0.00  0.00     0.139 C 
HETATM   54  O   UNK     0     -24.138  22.059  15.163  0.00  0.00    -0.650 OA
BRANCH  53  55
HETATM   55  O   UNK     0     -22.276  22.117  13.867  0.00  0.00    -0.776 OA
HETATM   56  H   UNK     0     -22.725  22.202  12.986  0.00  0.00     0.167 HD
ENDBRANCH  53  55
ENDBRANCH  52  53
ENDBRANCH  51  52
ENDBRANCH  18  51
TORSDOF 16
ENDMDL
MODEL 10
REMARK VINA RESULT:      -7.7      1.922      2.319
REMARK  16 active torsions:
REMARK  status: ('A' for Active; 'I' for Inactive)
REMARK    1  A    between atoms: C_6  and  C_7 
REMARK    2  A    between atoms: C_7  and  C_8 
REMARK    3  A    between atoms: C_8  and  C_9 
REMARK    4  A    between atoms: C_9  and  O_11 
REMARK    5  A    between atoms: C_16  and  C_17 
REMARK    6  A    between atoms: C_17  and  C_18 
REMARK    7  A    between atoms: C_18  and  C_19 
REMARK    8  A    between atoms: C_19  and  O_21 
REMARK    9  A    between atoms: C_28  and  C_29 
REMARK   10  A    between atoms: C_29  and  C_30 
REMARK   11  A    between atoms: C_30  and  C_31 
REMARK   12  A    between atoms: C_31  and  O_33 
REMARK   13  A    between atoms: C_42  and  C_43 
REMARK   14  A    between atoms: C_43  and  C_44 
REMARK   15  A    between atoms: C_44  and  C_45 
REMARK   16  A    between atoms: C_45  and  O_47 
ROOT
HETATM    1  C   UNK     0     -21.801  22.388  16.063  0.00  0.00     0.051 C 
HETATM    2  C   UNK     0     -21.230  23.668  16.637  0.00  0.00    -0.031 A 
HETATM    3  C   UNK     0     -21.182  24.937  16.081  0.00  0.00     0.021 A 
HETATM    4  N   UNK     0     -20.549  25.772  16.940  0.00  0.00    -0.361 N 
HETATM    5  C   UNK     0     -20.201  25.064  18.035  0.00  0.00     0.022 A 
HETATM    6  C   UNK     0     -20.609  23.744  17.877  0.00  0.00    -0.027 A 
HETATM    7  C   UNK     0     -19.569  25.531  19.308  0.00  0.00     0.115 C 
HETATM    8  C   UNK     0     -20.089  26.833  19.891  0.00  0.00     0.021 A 
HETATM    9  N   UNK     0     -21.344  27.310  19.883  0.00  0.00    -0.361 N 
HETATM   10  C   UNK     0     -21.327  28.543  20.432  0.00  0.00     0.022 A 
HETATM   11  C   UNK     0     -20.027  28.866  20.811  0.00  0.00    -0.027 A 
HETATM   12  C   UNK     0     -19.243  27.793  20.474  0.00  0.00    -0.031 A 
HETATM   13  C   UNK     0     -17.752  27.694  20.705  0.00  0.00     0.051 C 
HETATM   14  C   UNK     0     -22.520  29.484  20.570  0.00  0.00     0.115 C 
HETATM   15  C   UNK     0     -23.151  29.879  19.245  0.00  0.00     0.021 A 
HETATM   16  N   UNK     0     -23.677  29.065  18.311  0.00  0.00    -0.361 N 
HETATM   17  C   UNK     0     -24.064  29.794  17.261  0.00  0.00     0.022 A 
HETATM   18  C   UNK     0     -23.786  31.149  17.529  0.00  0.00    -0.027 A 
HETATM   19  C   UNK     0     -23.215  31.189  18.774  0.00  0.00    -0.031 A 
HETATM   20  C   UNK     0     -22.792  32.471  19.468  0.00  0.00     0.051 C 
HETATM   21  C   UNK     0     -24.643  29.356  15.935  0.00  0.00     0.115 C 
HETATM   22  C   UNK     0     -24.167  28.041  15.365  0.00  0.00     0.022 A 
HETATM   23  N   UNK     0     -22.925  27.539  15.362  0.00  0.00    -0.361 N 
HETATM   24  C   UNK     0     -22.978  26.280  14.883  0.00  0.00     0.021 A 
HETATM   25  C   UNK     0     -24.285  25.967  14.560  0.00  0.00    -0.031 A 
HETATM   26  C   UNK     0     -24.838  24.694  13.954  0.00  0.00     0.051 C 
HETATM   27  C   UNK     0     -25.064  27.079  14.860  0.00  0.00    -0.027 A 
HETATM   28  C   UNK     0     -21.842  25.278  14.775  0.00  0.00     0.115 C 
HETATM   29  H   UNK     0     -20.318  26.845  16.750  0.00  0.00     0.165 HD
HETATM   30  H   UNK     0     -22.252  26.758  19.537  0.00  0.00     0.165 HD
HETATM   31  H   UNK     0     -23.822  27.958  18.412  0.00  0.00     0.165 HD
HETATM   32  H   UNK     0     -21.991  28.085  15.658  0.00  0.00     0.165 HD
ENDROOT
BRANCH   6  33
HETATM   33  C   UNK     0     -20.454  22.563  18.802  0.00  0.00     0.051 C 
BRANCH  33  34
HETATM   34  C   UNK     0     -19.207  21.780  18.466  0.00  0.00     0.114 C 
BRANCH  34  35
HETATM   35  C   UNK     0     -18.913  20.890  19.625  0.00  0.00     0.139 C 
HETATM   36  O   UNK     0     -19.825  20.165  20.119  0.00  0.00    -0.650 OA
BRANCH  35  37
HETATM   37  O   UNK     0     -17.654  20.810  20.208  0.00  0.00    -0.776 OA
HETATM   38  H   UNK     0     -17.357  21.448  20.928  0.00  0.00     0.167 HD
ENDBRANCH  35  37
ENDBRANCH  34  35
ENDBRANCH  33  34
ENDBRANCH   6  33
BRANCH  27  39
HETATM   39  C   UNK     0     -26.524  27.144  14.579  0.00  0.00     0.051 C 
BRANCH  39  40
HETATM   40  C   UNK     0     -26.960  27.708  13.302  0.00  0.00     0.114 C 
BRANCH  40  41
HETATM   41  C   UNK     0     -27.293  26.877  12.167  0.00  0.00     0.139 C 
HETATM   42  O   UNK     0     -27.887  25.794  12.263  0.00  0.00    -0.650 OA
BRANCH  41  43
HETATM   43  O   UNK     0     -26.926  27.311  10.861  0.00  0.00    -0.776 OA
HETATM   44  H   UNK     0     -27.038  26.609  10.139  0.00  0.00     0.167 HD
ENDBRANCH  41  43
ENDBRANCH  40  41
ENDBRANCH  39  40
ENDBRANCH  27  39
BRANCH  11  45
HETATM   45  C   UNK     0     -19.523  30.123  21.468  0.00  0.00     0.051 C 
BRANCH  45  46
HETATM   46  C   UNK     0     -19.634  30.120  22.949  0.00  0.00     0.114 C 
BRANCH  46  47
HETATM   47  C   UNK     0     -18.937  31.341  23.446  0.00  0.00     0.139 C 
HETATM   48  O   UNK     0     -19.083  31.663  24.634  0.00  0.00    -0.650 OA
BRANCH  47  49
HETATM   49  O   UNK     0     -18.153  32.093  22.609  0.00  0.00    -0.776 OA
HETATM   50  H   UNK     0     -17.264  31.741  22.233  0.00  0.00     0.167 HD
ENDBRANCH  47  49
ENDBRANCH  46  47
ENDBRANCH  45  46
ENDBRANCH  11  45
BRANCH  18  51
HETATM   51  C   UNK     0     -24.068  32.342  16.653  0.00  0.00     0.051 C 
BRANCH  51  52
HETATM   52  C   UNK     0     -23.741  33.571  17.490  0.00  0.00     0.114 C 
BRANCH  52  53
HETATM   53  C   UNK     0     -22.913  34.538  16.744  0.00  0.00     0.139 C 
HETATM   54  O   UNK     0     -22.684  34.360  15.538  0.00  0.00    -0.650 OA
BRANCH  53  55
HETATM   55  O   UNK     0     -22.396  35.633  17.394  0.00  0.00    -0.776 OA
HETATM   56  H   UNK     0     -21.814  35.613  18.198  0.00  0.00     0.167 HD
ENDBRANCH  53  55
ENDBRANCH  52  53
ENDBRANCH  51  52
ENDBRANCH  18  51
TORSDOF 16
ENDMDL
MODEL 11
REMARK VINA RESULT:      -7.6      3.826      7.355
REMARK  16 active torsions:
REMARK  status: ('A' for Active; 'I' for Inactive)
REMARK    1  A    between atoms: C_6  and  C_7 
REMARK    2  A    between atoms: C_7  and  C_8 
REMARK    3  A    between atoms: C_8  and  C_9 
REMARK    4  A    between atoms: C_9  and  O_11 
REMARK    5  A    between atoms: C_16  and  C_17 
REMARK    6  A    between atoms: C_17  and  C_18 
REMARK    7  A    between atoms: C_18  and  C_19 
REMARK    8  A    between atoms: C_19  and  O_21 
REMARK    9  A    between atoms: C_28  and  C_29 
REMARK   10  A    between atoms: C_29  and  C_30 
REMARK   11  A    between atoms: C_30  and  C_31 
REMARK   12  A    between atoms: C_31  and  O_33 
REMARK   13  A    between atoms: C_42  and  C_43 
REMARK   14  A    between atoms: C_43  and  C_44 
REMARK   15  A    between atoms: C_44  and  C_45 
REMARK   16  A    between atoms: C_45  and  O_47 
ROOT
HETATM    1  C   UNK     0     -26.203  20.703  13.383  0.00  0.00     0.051 C 
HETATM    2  C   UNK     0     -25.098  20.572  14.413  0.00  0.00    -0.031 A 
HETATM    3  C   UNK     0     -23.895  21.254  14.504  0.00  0.00     0.021 A 
HETATM    4  N   UNK     0     -23.203  20.788  15.570  0.00  0.00    -0.361 N 
HETATM    5  C   UNK     0     -23.943  19.830  16.166  0.00  0.00     0.022 A 
HETATM    6  C   UNK     0     -25.134  19.667  15.466  0.00  0.00    -0.027 A 
HETATM    7  C   UNK     0     -23.678  19.070  17.428  0.00  0.00     0.115 C 
HETATM    8  C   UNK     0     -23.134  19.865  18.602  0.00  0.00     0.021 A 
HETATM    9  N   UNK     0     -23.421  21.126  18.961  0.00  0.00    -0.361 N 
HETATM   10  C   UNK     0     -22.636  21.451  20.011  0.00  0.00     0.022 A 
HETATM   11  C   UNK     0     -21.829  20.366  20.342  0.00  0.00    -0.027 A 
HETATM   12  C   UNK     0     -22.138  19.364  19.458  0.00  0.00    -0.031 A 
HETATM   13  C   UNK     0     -21.509  17.988  19.442  0.00  0.00     0.051 C 
HETATM   14  C   UNK     0     -22.578  22.807  20.707  0.00  0.00     0.115 C 
HETATM   15  C   UNK     0     -22.152  23.948  19.796  0.00  0.00     0.021 A 
HETATM   16  N   UNK     0     -22.747  24.358  18.661  0.00  0.00    -0.361 N 
HETATM   17  C   UNK     0     -22.027  25.343  18.119  0.00  0.00     0.022 A 
HETATM   18  C   UNK     0     -20.914  25.594  18.947  0.00  0.00    -0.027 A 
HETATM   19  C   UNK     0     -21.005  24.714  19.995  0.00  0.00    -0.031 A 
HETATM   20  C   UNK     0     -20.018  24.669  21.147  0.00  0.00     0.051 C 
HETATM   21  C   UNK     0     -22.223  26.089  16.819  0.00  0.00     0.115 C 
HETATM   22  C   UNK     0     -22.804  25.321  15.655  0.00  0.00     0.022 A 
HETATM   23  N   UNK     0     -22.540  24.064  15.276  0.00  0.00    -0.361 N 
HETATM   24  C   UNK     0     -23.388  23.736  14.280  0.00  0.00     0.021 A 
HETATM   25  C   UNK     0     -24.210  24.811  14.004  0.00  0.00    -0.031 A 
HETATM   26  C   UNK     0     -25.288  24.941  12.948  0.00  0.00     0.051 C 
HETATM   27  C   UNK     0     -23.855  25.838  14.871  0.00  0.00    -0.027 A 
HETATM   28  C   UNK     0     -23.534  22.391  13.589  0.00  0.00     0.115 C 
HETATM   29  H   UNK     0     -22.180  21.112  15.872  0.00  0.00     0.165 HD
HETATM   30  H   UNK     0     -24.211  21.773  18.508  0.00  0.00     0.165 HD
HETATM   31  H   UNK     0     -23.721  23.978  18.256  0.00  0.00     0.165 HD
HETATM   32  H   UNK     0     -21.724  23.410  15.679  0.00  0.00     0.165 HD
ENDROOT
BRANCH   6  33
HETATM   33  C   UNK     0     -26.286  18.728  15.717  0.00  0.00     0.051 C 
BRANCH  33  34
HETATM   34  C   UNK     0     -26.254  17.570  14.747  0.00  0.00     0.114 C 
BRANCH  34  35
HETATM   35  C   UNK     0     -25.462  16.478  15.383  0.00  0.00     0.139 C 
HETATM   36  O   UNK     0     -25.613  16.214  16.611  0.00  0.00    -0.650 OA
BRANCH  35  37
HETATM   37  O   UNK     0     -24.544  15.710  14.677  0.00  0.00    -0.776 OA
HETATM   38  H   UNK     0     -23.916  15.071  15.138  0.00  0.00     0.167 HD
ENDBRANCH  35  37
ENDBRANCH  34  35
ENDBRANCH  33  34
ENDBRANCH   6  33
BRANCH  27  39
HETATM   39  C   UNK     0     -24.477  27.189  14.825  0.00  0.00     0.051 C 
BRANCH  39  40
HETATM   40  C   UNK     0     -23.628  28.334  14.495  0.00  0.00     0.114 C 
BRANCH  40  41
HETATM   41  C   UNK     0     -23.834  29.640  15.079  0.00  0.00     0.139 C 
HETATM   42  O   UNK     0     -23.597  30.700  14.483  0.00  0.00    -0.650 OA
BRANCH  41  43
HETATM   43  O   UNK     0     -24.335  29.732  16.409  0.00  0.00    -0.776 OA
HETATM   44  H   UNK     0     -24.652  28.852  16.799  0.00  0.00     0.167 HD
ENDBRANCH  41  43
ENDBRANCH  40  41
ENDBRANCH  39  40
ENDBRANCH  27  39
BRANCH  11  45
HETATM   45  C   UNK     0     -20.806  20.254  21.440  0.00  0.00     0.051 C 
BRANCH  45  46
HETATM   46  C   UNK     0     -19.462  20.767  21.072  0.00  0.00     0.114 C 
BRANCH  46  47
HETATM   47  C   UNK     0     -18.461  19.779  21.567  0.00  0.00     0.139 C 
HETATM   48  O   UNK     0     -18.350  18.699  20.970  0.00  0.00    -0.650 OA
BRANCH  47  49
HETATM   49  O   UNK     0     -17.681  20.057  22.660  0.00  0.00    -0.776 OA
HETATM   50  H   UNK     0     -18.036  19.971  23.620  0.00  0.00     0.167 HD
ENDBRANCH  47  49
ENDBRANCH  46  47
ENDBRANCH  45  46
ENDBRANCH  11  45
BRANCH  18  51
HETATM   51  C   UNK     0     -19.835  26.629  18.761  0.00  0.00     0.051 C 
BRANCH  51  52
HETATM   52  C   UNK     0     -20.338  27.894  19.440  0.00  0.00     0.114 C 
BRANCH  52  53
HETATM   53  C   UNK     0     -19.245  28.633  20.103  0.00  0.00     0.139 C 
HETATM   54  O   UNK     0     -18.306  28.015  20.627  0.00  0.00    -0.650 OA
BRANCH  53  55
HETATM   55  O   UNK     0     -19.277  30.006  20.138  0.00  0.00    -0.776 OA
HETATM   56  H   UNK     0     -19.543  30.564  20.915  0.00  0.00     0.167 HD
ENDBRANCH  53  55
ENDBRANCH  52  53
ENDBRANCH  51  52
ENDBRANCH  18  51
TORSDOF 16
ENDMDL
MODEL 12
REMARK VINA RESULT:      -7.6      3.006      7.717
REMARK  16 active torsions:
REMARK  status: ('A' for Active; 'I' for Inactive)
REMARK    1  A    between atoms: C_6  and  C_7 
REMARK    2  A    between atoms: C_7  and  C_8 
REMARK    3  A    between atoms: C_8  and  C_9 
REMARK    4  A    between atoms: C_9  and  O_11 
REMARK    5  A    between atoms: C_16  and  C_17 
REMARK    6  A    between atoms: C_17  and  C_18 
REMARK    7  A    between atoms: C_18  and  C_19 
REMARK    8  A    between atoms: C_19  and  O_21 
REMARK    9  A    between atoms: C_28  and  C_29 
REMARK   10  A    between atoms: C_29  and  C_30 
REMARK   11  A    between atoms: C_30  and  C_31 
REMARK   12  A    between atoms: C_31  and  O_33 
REMARK   13  A    between atoms: C_42  and  C_43 
REMARK   14  A    between atoms: C_43  and  C_44 
REMARK   15  A    between atoms: C_44  and  C_45 
REMARK   16  A    between atoms: C_45  and  O_47 
ROOT
HETATM    1  C   UNK     0     -18.841  22.180  22.368  0.00  0.00     0.051 C 
HETATM    2  C   UNK     0     -19.821  22.362  21.227  0.00  0.00    -0.031 A 
HETATM    3  C   UNK     0     -21.008  23.078  21.192  0.00  0.00     0.021 A 
HETATM    4  N   UNK     0     -21.573  22.935  19.970  0.00  0.00    -0.361 N 
HETATM    5  C   UNK     0     -20.769  22.152  19.223  0.00  0.00     0.022 A 
HETATM    6  C   UNK     0     -19.665  21.773  19.979  0.00  0.00    -0.027 A 
HETATM    7  C   UNK     0     -20.887  21.766  17.781  0.00  0.00     0.115 C 
HETATM    8  C   UNK     0     -21.296  22.863  16.814  0.00  0.00     0.021 A 
HETATM    9  N   UNK     0     -20.974  24.165  16.841  0.00  0.00    -0.361 N 
HETATM   10  C   UNK     0     -21.635  24.782  15.839  0.00  0.00     0.022 A 
HETATM   11  C   UNK     0     -22.396  23.850  15.141  0.00  0.00    -0.027 A 
HETATM   12  C   UNK     0     -22.187  22.638  15.749  0.00  0.00    -0.031 A 
HETATM   13  C   UNK     0     -22.811  21.328  15.325  0.00  0.00     0.051 C 
HETATM   14  C   UNK     0     -21.617  26.277  15.534  0.00  0.00     0.115 C 
HETATM   15  C   UNK     0     -22.146  27.143  16.666  0.00  0.00     0.021 A 
HETATM   16  N   UNK     0     -21.685  27.216  17.929  0.00  0.00    -0.361 N 
HETATM   17  C   UNK     0     -22.464  28.039  18.633  0.00  0.00     0.022 A 
HETATM   18  C   UNK     0     -23.476  28.534  17.787  0.00  0.00    -0.027 A 
HETATM   19  C   UNK     0     -23.264  27.967  16.557  0.00  0.00    -0.031 A 
HETATM   20  C   UNK     0     -24.114  28.261  15.335  0.00  0.00     0.051 C 
HETATM   21  C   UNK     0     -22.418  28.402  20.100  0.00  0.00     0.115 C 
HETATM   22  C   UNK     0     -21.971  27.334  21.070  0.00  0.00     0.022 A 
HETATM   23  N   UNK     0     -22.273  26.029  21.064  0.00  0.00    -0.361 N 
HETATM   24  C   UNK     0     -21.543  25.421  22.021  0.00  0.00     0.021 A 
HETATM   25  C   UNK     0     -20.760  26.359  22.666  0.00  0.00    -0.031 A 
HETATM   26  C   UNK     0     -19.809  26.170  23.829  0.00  0.00     0.051 C 
HETATM   27  C   UNK     0     -21.017  27.591  22.075  0.00  0.00    -0.027 A 
HETATM   28  C   UNK     0     -21.473  23.937  22.334  0.00  0.00     0.115 C 
HETATM   29  H   UNK     0     -22.556  23.357  19.657  0.00  0.00     0.165 HD
HETATM   30  H   UNK     0     -20.241  24.644  17.536  0.00  0.00     0.165 HD
HETATM   31  H   UNK     0     -20.762  26.713  18.319  0.00  0.00     0.165 HD
HETATM   32  H   UNK     0     -23.037  25.531  20.412  0.00  0.00     0.165 HD
ENDROOT
BRANCH   6  33
HETATM   33  C   UNK     0     -18.489  20.903  19.612  0.00  0.00     0.051 C 
BRANCH  33  34
HETATM   34  C   UNK     0     -18.899  19.451  19.542  0.00  0.00     0.114 C 
BRANCH  34  35
HETATM   35  C   UNK     0     -18.189  18.734  20.640  0.00  0.00     0.139 C 
HETATM   36  O   UNK     0     -18.646  18.762  21.819  0.00  0.00    -0.650 OA
BRANCH  35  37
HETATM   37  O   UNK     0     -17.020  18.012  20.430  0.00  0.00    -0.776 OA
HETATM   38  H   UNK     0     -16.778  17.211  20.989  0.00  0.00     0.167 HD
ENDBRANCH  35  37
ENDBRANCH  34  35
ENDBRANCH  33  34
ENDBRANCH   6  33
BRANCH  27  39
HETATM   39  C   UNK     0     -20.407  28.862  22.552  0.00  0.00     0.051 C 
BRANCH  39  40
HETATM   40  C   UNK     0     -19.211  29.357  21.871  0.00  0.00     0.114 C 
BRANCH  40  41
HETATM   41  C   UNK     0     -18.645  28.686  20.722  0.00  0.00     0.139 C 
HETATM   42  O   UNK     0     -17.689  27.902  20.791  0.00  0.00    -0.650 OA
BRANCH  41  43
HETATM   43  O   UNK     0     -19.205  28.928  19.435  0.00  0.00    -0.776 OA
HETATM   44  H   UNK     0     -20.136  28.551  19.306  0.00  0.00     0.167 HD
ENDBRANCH  41  43
ENDBRANCH  40  41
ENDBRANCH  39  40
ENDBRANCH  27  39
BRANCH  11  45
HETATM   45  C   UNK     0     -23.288  24.066  13.948  0.00  0.00     0.051 C 
BRANCH  45  46
HETATM   46  C   UNK     0     -24.613  24.648  14.279  0.00  0.00     0.114 C 
BRANCH  46  47
HETATM   47  C   UNK     0     -25.447  24.579  13.044  0.00  0.00     0.139 C 
HETATM   48  O   UNK     0     -26.131  25.565  12.736  0.00  0.00    -0.650 OA
BRANCH  47  49
HETATM   49  O   UNK     0     -25.459  23.449  12.267  0.00  0.00    -0.776 OA
HETATM   50  H   UNK     0     -25.940  22.590  12.561  0.00  0.00     0.167 HD
ENDBRANCH  47  49
ENDBRANCH  46  47
ENDBRANCH  45  46
ENDBRANCH  11  45
BRANCH  18  51
HETATM   51  C   UNK     0     -24.571  29.512  18.126  0.00  0.00     0.051 C 
BRANCH  51  52
HETATM   52  C   UNK     0     -23.963  30.899  17.983  0.00  0.00     0.114 C 
BRANCH  52  53
HETATM   53  C   UNK     0     -24.527  31.630  16.832  0.00  0.00     0.139 C 
HETATM   54  O   UNK     0     -23.851  31.784  15.802  0.00  0.00    -0.650 OA
BRANCH  53  55
HETATM   55  O   UNK     0     -25.799  32.142  16.908  0.00  0.00    -0.776 OA
HETATM   56  H   UNK     0     -26.120  32.977  16.478  0.00  0.00     0.167 HD
ENDBRANCH  53  55
ENDBRANCH  52  53
ENDBRANCH  51  52
ENDBRANCH  18  51
TORSDOF 16
ENDMDL
MODEL 13
REMARK VINA RESULT:      -7.6      3.188      7.930
REMARK  16 active torsions:
REMARK  status: ('A' for Active; 'I' for Inactive)
REMARK    1  A    between atoms: C_6  and  C_7 
REMARK    2  A    between atoms: C_7  and  C_8 
REMARK    3  A    between atoms: C_8  and  C_9 
REMARK    4  A    between atoms: C_9  and  O_11 
REMARK    5  A    between atoms: C_16  and  C_17 
REMARK    6  A    between atoms: C_17  and  C_18 
REMARK    7  A    between atoms: C_18  and  C_19 
REMARK    8  A    between atoms: C_19  and  O_21 
REMARK    9  A    between atoms: C_28  and  C_29 
REMARK   10  A    between atoms: C_29  and  C_30 
REMARK   11  A    between atoms: C_30  and  C_31 
REMARK   12  A    between atoms: C_31  and  O_33 
REMARK   13  A    between atoms: C_42  and  C_43 
REMARK   14  A    between atoms: C_43  and  C_44 
REMARK   15  A    between atoms: C_44  and  C_45 
REMARK   16  A    between atoms: C_45  and  O_47 
ROOT
HETATM    1  C   UNK     0     -18.292  24.031  23.692  0.00  0.00     0.051 C 
HETATM    2  C   UNK     0     -19.414  23.667  22.741  0.00  0.00    -0.031 A 
HETATM    3  C   UNK     0     -20.603  24.333  22.488  0.00  0.00     0.021 A 
HETATM    4  N   UNK     0     -21.321  23.626  21.584  0.00  0.00    -0.361 N 
HETATM    5  C   UNK     0     -20.612  22.528  21.249  0.00  0.00     0.022 A 
HETATM    6  C   UNK     0     -19.415  22.522  21.956  0.00  0.00    -0.027 A 
HETATM    7  C   UNK     0     -20.913  21.476  20.228  0.00  0.00     0.115 C 
HETATM    8  C   UNK     0     -21.457  21.956  18.894  0.00  0.00     0.021 A 
HETATM    9  N   UNK     0     -21.149  23.074  18.219  0.00  0.00    -0.361 N 
HETATM   10  C   UNK     0     -21.942  23.137  17.128  0.00  0.00     0.022 A 
HETATM   11  C   UNK     0     -22.777  22.024  17.095  0.00  0.00    -0.027 A 
HETATM   12  C   UNK     0     -22.476  21.276  18.204  0.00  0.00    -0.031 A 
HETATM   13  C   UNK     0     -23.135  19.967  18.580  0.00  0.00     0.051 C 
HETATM   14  C   UNK     0     -21.982  24.270  16.107  0.00  0.00     0.115 C 
HETATM   15  C   UNK     0     -22.368  25.617  16.697  0.00  0.00     0.021 A 
HETATM   16  N   UNK     0     -21.748  26.291  17.683  0.00  0.00    -0.361 N 
HETATM   17  C   UNK     0     -22.438  27.399  17.959  0.00  0.00     0.022 A 
HETATM   18  C   UNK     0     -23.557  27.456  17.105  0.00  0.00    -0.027 A 
HETATM   19  C   UNK     0     -23.501  26.335  16.318  0.00  0.00    -0.031 A 
HETATM   20  C   UNK     0     -24.506  26.019  15.225  0.00  0.00     0.051 C 
HETATM   21  C   UNK     0     -22.206  28.450  19.022  0.00  0.00     0.115 C 
HETATM   22  C   UNK     0     -21.624  27.993  20.339  0.00  0.00     0.022 A 
HETATM   23  N   UNK     0     -21.909  26.882  21.031  0.00  0.00    -0.361 N 
HETATM   24  C   UNK     0     -21.054  26.800  22.070  0.00  0.00     0.021 A 
HETATM   25  C   UNK     0     -20.204  27.890  22.052  0.00  0.00    -0.031 A 
HETATM   26  C   UNK     0     -19.107  28.260  23.029  0.00  0.00     0.051 C 
HETATM   27  C   UNK     0     -20.550  28.668  20.953  0.00  0.00    -0.027 A 
HETATM   28  C   UNK     0     -20.926  25.675  23.082  0.00  0.00     0.115 C 
HETATM   29  H   UNK     0     -22.342  23.886  21.219  0.00  0.00     0.165 HD
HETATM   30  H   UNK     0     -20.337  23.796  18.483  0.00  0.00     0.165 HD
HETATM   31  H   UNK     0     -20.776  26.003  18.163  0.00  0.00     0.165 HD
HETATM   32  H   UNK     0     -22.745  26.167  20.817  0.00  0.00     0.165 HD
ENDROOT
BRANCH   6  33
HETATM   33  C   UNK     0     -18.287  21.521  21.945  0.00  0.00     0.051 C 
BRANCH  33  34
HETATM   34  C   UNK     0     -18.549  20.408  22.932  0.00  0.00     0.114 C 
BRANCH  34  35
HETATM   35  C   UNK     0     -18.093  19.136  22.302  0.00  0.00     0.139 C 
HETATM   36  O   UNK     0     -18.679  18.690  21.273  0.00  0.00    -0.650 OA
BRANCH  35  37
HETATM   37  O   UNK     0     -17.028  18.394  22.797  0.00  0.00    -0.776 OA
HETATM   38  H   UNK     0     -16.474  17.794  22.207  0.00  0.00     0.167 HD
ENDBRANCH  35  37
ENDBRANCH  34  35
ENDBRANCH  33  34
ENDBRANCH   6  33
BRANCH  27  39
HETATM   39  C   UNK     0     -19.898  29.969  20.644  0.00  0.00     0.051 C 
BRANCH  39  40
HETATM   40  C   UNK     0     -20.464  31.185  21.228  0.00  0.00     0.114 C 
BRANCH  40  41
HETATM   41  C   UNK     0     -21.363  32.047  20.494  0.00  0.00     0.139 C 
HETATM   42  O   UNK     0     -22.593  31.907  20.490  0.00  0.00    -0.650 OA
BRANCH  41  43
HETATM   43  O   UNK     0     -20.821  33.119  19.729  0.00  0.00    -0.776 OA
HETATM   44  H   UNK     0     -21.502  33.808  19.433  0.00  0.00     0.167 HD
ENDBRANCH  41  43
ENDBRANCH  40  41
ENDBRANCH  39  40
ENDBRANCH  27  39
BRANCH  11  45
HETATM   45  C   UNK     0     -23.819  21.659  16.072  0.00  0.00     0.051 C 
BRANCH  45  46
HETATM   46  C   UNK     0     -23.260  21.140  14.797  0.00  0.00     0.114 C 
BRANCH  46  47
HETATM   47  C   UNK     0     -23.583  22.137  13.736  0.00  0.00     0.139 C 
HETATM   48  O   UNK     0     -24.764  22.483  13.588  0.00  0.00    -0.650 OA
BRANCH  47  49
HETATM   49  O   UNK     0     -22.596  22.659  12.938  0.00  0.00    -0.776 OA
HETATM   50  H   UNK     0     -22.680  22.688  11.915  0.00  0.00     0.167 HD
ENDBRANCH  47  49
ENDBRANCH  46  47
ENDBRANCH  45  46
ENDBRANCH  11  45
BRANCH  18  51
HETATM   51  C   UNK     0     -24.610  28.531  17.028  0.00  0.00     0.051 C 
BRANCH  51  52
HETATM   52  C   UNK     0     -24.070  29.589  16.077  0.00  0.00     0.114 C 
BRANCH  52  53
HETATM   53  C   UNK     0     -24.753  29.553  14.769  0.00  0.00     0.139 C 
HETATM   54  O   UNK     0     -24.135  29.190  13.756  0.00  0.00    -0.650 OA
BRANCH  53  55
HETATM   55  O   UNK     0     -26.072  29.925  14.681  0.00  0.00    -0.776 OA
HETATM   56  H   UNK     0     -26.734  29.580  14.026  0.00  0.00     0.167 HD
ENDBRANCH  53  55
ENDBRANCH  52  53
ENDBRANCH  51  52
ENDBRANCH  18  51
TORSDOF 16
ENDMDL
MODEL 14
REMARK VINA RESULT:      -7.6      2.838      6.193
REMARK  16 active torsions:
REMARK  status: ('A' for Active; 'I' for Inactive)
REMARK    1  A    between atoms: C_6  and  C_7 
REMARK    2  A    between atoms: C_7  and  C_8 
REMARK    3  A    between atoms: C_8  and  C_9 
REMARK    4  A    between atoms: C_9  and  O_11 
REMARK    5  A    between atoms: C_16  and  C_17 
REMARK    6  A    between atoms: C_17  and  C_18 
REMARK    7  A    between atoms: C_18  and  C_19 
REMARK    8  A    between atoms: C_19  and  O_21 
REMARK    9  A    between atoms: C_28  and  C_29 
REMARK   10  A    between atoms: C_29  and  C_30 
REMARK   11  A    between atoms: C_30  and  C_31 
REMARK   12  A    between atoms: C_31  and  O_33 
REMARK   13  A    between atoms: C_42  and  C_43 
REMARK   14  A    between atoms: C_43  and  C_44 
REMARK   15  A    between atoms: C_44  and  C_45 
REMARK   16  A    between atoms: C_45  and  O_47 
ROOT
HETATM    1  C   UNK     0     -24.892  23.556  14.719  0.00  0.00     0.051 C 
HETATM    2  C   UNK     0     -23.634  23.357  15.540  0.00  0.00    -0.031 A 
HETATM    3  C   UNK     0     -22.572  24.223  15.744  0.00  0.00     0.021 A 
HETATM    4  N   UNK     0     -21.649  23.613  16.526  0.00  0.00    -0.361 N 
HETATM    5  C   UNK     0     -22.105  22.381  16.831  0.00  0.00     0.022 A 
HETATM    6  C   UNK     0     -23.343  22.187  16.228  0.00  0.00    -0.027 A 
HETATM    7  C   UNK     0     -21.515  21.345  17.736  0.00  0.00     0.115 C 
HETATM    8  C   UNK     0     -20.942  21.837  19.054  0.00  0.00     0.021 A 
HETATM    9  N   UNK     0     -21.386  22.830  19.839  0.00  0.00    -0.361 N 
HETATM   10  C   UNK     0     -20.516  22.978  20.861  0.00  0.00     0.022 A 
HETATM   11  C   UNK     0     -19.489  22.048  20.735  0.00  0.00    -0.027 A 
HETATM   12  C   UNK     0     -19.751  21.326  19.599  0.00  0.00    -0.031 A 
HETATM   13  C   UNK     0     -18.900  20.195  19.066  0.00  0.00     0.051 C 
HETATM   14  C   UNK     0     -20.590  24.032  21.962  0.00  0.00     0.115 C 
HETATM   15  C   UNK     0     -20.521  25.462  21.451  0.00  0.00     0.021 A 
HETATM   16  N   UNK     0     -21.350  26.063  20.577  0.00  0.00    -0.361 N 
HETATM   17  C   UNK     0     -20.909  27.299  20.334  0.00  0.00     0.022 A 
HETATM   18  C   UNK     0     -19.742  27.517  21.093  0.00  0.00    -0.027 A 
HETATM   19  C   UNK     0     -19.511  26.360  21.789  0.00  0.00    -0.031 A 
HETATM   20  C   UNK     0     -18.362  26.178  22.765  0.00  0.00     0.051 C 
HETATM   21  C   UNK     0     -21.436  28.348  19.381  0.00  0.00     0.115 C 
HETATM   22  C   UNK     0     -22.048  27.870  18.086  0.00  0.00     0.022 A 
HETATM   23  N   UNK     0     -21.630  26.881  17.285  0.00  0.00    -0.361 N 
HETATM   24  C   UNK     0     -22.552  26.700  16.318  0.00  0.00     0.021 A 
HETATM   25  C   UNK     0     -23.584  27.602  16.494  0.00  0.00    -0.031 A 
HETATM   26  C   UNK     0     -24.821  27.813  15.646  0.00  0.00     0.051 C 
HETATM   27  C   UNK     0     -23.284  28.362  17.619  0.00  0.00    -0.027 A 
HETATM   28  C   UNK     0     -22.565  25.637  15.234  0.00  0.00     0.115 C 
HETATM   29  H   UNK     0     -20.665  24.043  16.824  0.00  0.00     0.165 HD
HETATM   30  H   UNK     0     -22.340  23.396  19.703  0.00  0.00     0.165 HD
HETATM   31  H   UNK     0     -22.293  25.623  20.159  0.00  0.00     0.165 HD
HETATM   32  H   UNK     0     -20.658  26.330  17.370  0.00  0.00     0.165 HD
ENDROOT
BRANCH   6  33
HETATM   33  C   UNK     0     -24.258  20.988  16.254  0.00  0.00     0.051 C 
BRANCH  33  34
HETATM   34  C   UNK     0     -23.995  20.089  15.069  0.00  0.00     0.114 C 
BRANCH  34  35
HETATM   35  C   UNK     0     -24.095  18.680  15.547  0.00  0.00     0.139 C 
HETATM   36  O   UNK     0     -25.065  17.952  15.186  0.00  0.00    -0.650 OA
BRANCH  35  37
HETATM   37  O   UNK     0     -23.151  18.106  16.390  0.00  0.00    -0.776 OA
HETATM   38  H   UNK     0     -22.751  18.609  17.166  0.00  0.00     0.167 HD
ENDBRANCH  35  37
ENDBRANCH  34  35
ENDBRANCH  33  34
ENDBRANCH   6  33
BRANCH  27  39
HETATM   39  C   UNK     0     -24.134  29.491  18.085  0.00  0.00     0.051 C 
BRANCH  39  40
HETATM   40  C   UNK     0     -23.727  30.853  17.743  0.00  0.00     0.114 C 
BRANCH  40  41
HETATM   41  C   UNK     0     -24.292  31.567  16.620  0.00  0.00     0.139 C 
HETATM   42  O   UNK     0     -25.092  32.505  16.739  0.00  0.00    -0.650 OA
BRANCH  41  43
HETATM   43  O   UNK     0     -23.919  31.185  15.300  0.00  0.00    -0.776 OA
HETATM   44  H   UNK     0     -24.694  30.910  14.709  0.00  0.00     0.167 HD
ENDBRANCH  41  43
ENDBRANCH  40  41
ENDBRANCH  39  40
ENDBRANCH  27  39
BRANCH  11  45
HETATM   45  C   UNK     0     -18.302  21.828  21.634  0.00  0.00     0.051 C 
BRANCH  45  46
HETATM   46  C   UNK     0     -18.632  21.163  22.921  0.00  0.00     0.114 C 
BRANCH  46  47
HETATM   47  C   UNK     0     -18.467  19.696  22.716  0.00  0.00     0.139 C 
HETATM   48  O   UNK     0     -19.474  19.012  22.488  0.00  0.00    -0.650 OA
BRANCH  47  49
HETATM   49  O   UNK     0     -17.226  19.113  22.778  0.00  0.00    -0.776 OA
HETATM   50  H   UNK     0     -16.394  19.557  22.372  0.00  0.00     0.167 HD
ENDBRANCH  47  49
ENDBRANCH  46  47
ENDBRANCH  45  46
ENDBRANCH  11  45
BRANCH  18  51
HETATM   51  C   UNK     0     -18.906  28.769  21.167  0.00  0.00     0.051 C 
BRANCH  51  52
HETATM   52  C   UNK     0     -19.461  29.584  22.325  0.00  0.00     0.114 C 
BRANCH  52  53
HETATM   53  C   UNK     0     -20.215  30.763  21.855  0.00  0.00     0.139 C 
HETATM   54  O   UNK     0     -21.450  30.801  21.980  0.00  0.00    -0.650 OA
BRANCH  53  55
HETATM   55  O   UNK     0     -19.544  31.813  21.279  0.00  0.00    -0.776 OA
HETATM   56  H   UNK     0     -18.558  31.927  21.242  0.00  0.00     0.167 HD
ENDBRANCH  53  55
ENDBRANCH  52  53
ENDBRANCH  51  52
ENDBRANCH  18  51
TORSDOF 16
ENDMDL
MODEL 15
REMARK VINA RESULT:      -7.6      6.937     10.504
REMARK  16 active torsions:
REMARK  status: ('A' for Active; 'I' for Inactive)
REMARK    1  A    between atoms: C_6  and  C_7 
REMARK    2  A    between atoms: C_7  and  C_8 
REMARK    3  A    between atoms: C_8  and  C_9 
REMARK    4  A    between atoms: C_9  and  O_11 
REMARK    5  A    between atoms: C_16  and  C_17 
REMARK    6  A    between atoms: C_17  and  C_18 
REMARK    7  A    between atoms: C_18  and  C_19 
REMARK    8  A    between atoms: C_19  and  O_21 
REMARK    9  A    between atoms: C_28  and  C_29 
REMARK   10  A    between atoms: C_29  and  C_30 
REMARK   11  A    between atoms: C_30  and  C_31 
REMARK   12  A    between atoms: C_31  and  O_33 
REMARK   13  A    between atoms: C_42  and  C_43 
REMARK   14  A    between atoms: C_43  and  C_44 
REMARK   15  A    between atoms: C_44  and  C_45 
REMARK   16  A    between atoms: C_45  and  O_47 
ROOT
HETATM    1  C   UNK     0     -26.761  14.672  17.485  0.00  0.00     0.051 C 
HETATM    2  C   UNK     0     -25.476  15.258  18.033  0.00  0.00    -0.031 A 
HETATM    3  C   UNK     0     -24.451  15.910  17.364  0.00  0.00     0.021 A 
HETATM    4  N   UNK     0     -23.482  16.235  18.252  0.00  0.00    -0.361 N 
HETATM    5  C   UNK     0     -23.870  15.812  19.473  0.00  0.00     0.022 A 
HETATM    6  C   UNK     0     -25.112  15.194  19.372  0.00  0.00    -0.027 A 
HETATM    7  C   UNK     0     -23.209  16.005  20.802  0.00  0.00     0.115 C 
HETATM    8  C   UNK     0     -22.629  17.381  21.082  0.00  0.00     0.021 A 
HETATM    9  N   UNK     0     -23.101  18.579  20.706  0.00  0.00    -0.361 N 
HETATM   10  C   UNK     0     -22.215  19.520  21.095  0.00  0.00     0.022 A 
HETATM   11  C   UNK     0     -21.147  18.911  21.748  0.00  0.00    -0.027 A 
HETATM   12  C   UNK     0     -21.402  17.563  21.743  0.00  0.00    -0.031 A 
HETATM   13  C   UNK     0     -20.510  16.503  22.350  0.00  0.00     0.051 C 
HETATM   14  C   UNK     0     -22.312  21.018  20.822  0.00  0.00     0.115 C 
HETATM   15  C   UNK     0     -22.324  21.375  19.344  0.00  0.00     0.021 A 
HETATM   16  N   UNK     0     -23.202  20.968  18.408  0.00  0.00    -0.361 N 
HETATM   17  C   UNK     0     -22.827  21.444  17.219  0.00  0.00     0.022 A 
HETATM   18  C   UNK     0     -21.654  22.205  17.389  0.00  0.00    -0.027 A 
HETATM   19  C   UNK     0     -21.350  22.155  18.725  0.00  0.00    -0.031 A 
HETATM   20  C   UNK     0     -20.171  22.879  19.350  0.00  0.00     0.051 C 
HETATM   21  C   UNK     0     -23.427  21.219  15.849  0.00  0.00     0.115 C 
HETATM   22  C   UNK     0     -24.047  19.869  15.572  0.00  0.00     0.022 A 
HETATM   23  N   UNK     0     -23.601  18.660  15.938  0.00  0.00    -0.361 N 
HETATM   24  C   UNK     0     -24.536  17.747  15.609  0.00  0.00     0.021 A 
HETATM   25  C   UNK     0     -25.606  18.382  15.007  0.00  0.00    -0.031 A 
HETATM   26  C   UNK     0     -26.872  17.780  14.433  0.00  0.00     0.051 C 
HETATM   27  C   UNK     0     -25.316  19.741  14.972  0.00  0.00    -0.027 A 
HETATM   28  C   UNK     0     -24.525  16.257  15.904  0.00  0.00     0.115 C 
HETATM   29  H   UNK     0     -22.512  16.725  18.004  0.00  0.00     0.165 HD
HETATM   30  H   UNK     0     -24.084  18.769  20.209  0.00  0.00     0.165 HD
HETATM   31  H   UNK     0     -24.132  20.371  18.597  0.00  0.00     0.165 HD
HETATM   32  H   UNK     0     -22.601  18.435  16.393  0.00  0.00     0.165 HD
ENDROOT
BRANCH   6  33
HETATM   33  C   UNK     0     -25.967  14.554  20.436  0.00  0.00     0.051 C 
BRANCH  33  34
HETATM   34  C   UNK     0     -25.453  13.176  20.778  0.00  0.00     0.114 C 
BRANCH  34  35
HETATM   35  C   UNK     0     -26.455  12.189  20.281  0.00  0.00     0.139 C 
HETATM   36  O   UNK     0     -27.666  12.527  20.141  0.00  0.00    -0.650 OA
BRANCH  35  37
HETATM   37  O   UNK     0     -26.119  10.882  19.951  0.00  0.00    -0.776 OA
HETATM   38  H   UNK     0     -26.770  10.120  20.055  0.00  0.00     0.167 HD
ENDBRANCH  35  37
ENDBRANCH  34  35
ENDBRANCH  33  34
ENDBRANCH   6  33
BRANCH  27  39
HETATM   39  C   UNK     0     -26.208  20.744  14.329  0.00  0.00     0.051 C 
BRANCH  39  40
HETATM   40  C   UNK     0     -25.878  21.202  12.980  0.00  0.00     0.114 C 
BRANCH  40  41
HETATM   41  C   UNK     0     -25.142  22.422  12.739  0.00  0.00     0.139 C 
HETATM   42  O   UNK     0     -25.677  23.534  12.631  0.00  0.00    -0.650 OA
BRANCH  41  43
HETATM   43  O   UNK     0     -23.725  22.362  12.615  0.00  0.00    -0.776 OA
HETATM   44  H   UNK     0     -23.262  23.262  12.651  0.00  0.00     0.167 HD
ENDBRANCH  41  43
ENDBRANCH  40  41
ENDBRANCH  39  40
ENDBRANCH  27  39
BRANCH  11  45
HETATM   45  C   UNK     0     -19.930  19.550  22.361  0.00  0.00     0.051 C 
BRANCH  45  46
HETATM   46  C   UNK     0     -18.886  19.935  21.376  0.00  0.00     0.114 C 
BRANCH  46  47
HETATM   47  C   UNK     0     -17.864  18.849  21.369  0.00  0.00     0.139 C 
HETATM   48  O   UNK     0     -17.685  18.212  20.322  0.00  0.00    -0.650 OA
BRANCH  47  49
HETATM   49  O   UNK     0     -17.139  18.560  22.497  0.00  0.00    -0.776 OA
HETATM   50  H   UNK     0     -17.539  18.642  23.439  0.00  0.00     0.167 HD
ENDBRANCH  47  49
ENDBRANCH  46  47
ENDBRANCH  45  46
ENDBRANCH  11  45
BRANCH  18  51
HETATM   51  C   UNK     0     -20.877  22.958  16.340  0.00  0.00     0.051 C 
BRANCH  51  52
HETATM   52  C   UNK     0     -21.472  24.357  16.291  0.00  0.00     0.114 C 
BRANCH  52  53
HETATM   53  C   UNK     0     -22.050  24.663  14.968  0.00  0.00     0.139 C 
HETATM   54  O   UNK     0     -22.850  25.604  14.842  0.00  0.00    -0.650 OA
BRANCH  53  55
HETATM   55  O   UNK     0     -21.700  23.899  13.881  0.00  0.00    -0.776 OA
HETATM   56  H   UNK     0     -20.776  23.710  13.573  0.00  0.00     0.167 HD
ENDBRANCH  53  55
ENDBRANCH  52  53
ENDBRANCH  51  52
ENDBRANCH  18  51
TORSDOF 16
ENDMDL
MODEL 16
REMARK VINA RESULT:      -7.5      7.137      9.994
REMARK  16 active torsions:
REMARK  status: ('A' for Active; 'I' for Inactive)
REMARK    1  A    between atoms: C_6  and  C_7 
REMARK    2  A    between atoms: C_7  and  C_8 
REMARK    3  A    between atoms: C_8  and  C_9 
REMARK    4  A    between atoms: C_9  and  O_11 
REMARK    5  A    between atoms: C_16  and  C_17 
REMARK    6  A    between atoms: C_17  and  C_18 
REMARK    7  A    between atoms: C_18  and  C_19 
REMARK    8  A    between atoms: C_19  and  O_21 
REMARK    9  A    between atoms: C_28  and  C_29 
REMARK   10  A    between atoms: C_29  and  C_30 
REMARK   11  A    between atoms: C_30  and  C_31 
REMARK   12  A    between atoms: C_31  and  O_33 
REMARK   13  A    between atoms: C_42  and  C_43 
REMARK   14  A    between atoms: C_43  and  C_44 
REMARK   15  A    between atoms: C_44  and  C_45 
REMARK   16  A    between atoms: C_45  and  O_47 
ROOT
HETATM    1  C   UNK     0     -25.983  14.622  18.647  0.00  0.00     0.051 C 
HETATM    2  C   UNK     0     -24.675  15.359  18.845  0.00  0.00    -0.031 A 
HETATM    3  C   UNK     0     -23.848  15.952  17.904  0.00  0.00     0.021 A 
HETATM    4  N   UNK     0     -22.765  16.470  18.532  0.00  0.00    -0.361 N 
HETATM    5  C   UNK     0     -22.889  16.228  19.853  0.00  0.00     0.022 A 
HETATM    6  C   UNK     0     -24.071  15.532  20.084  0.00  0.00    -0.027 A 
HETATM    7  C   UNK     0     -22.017  16.668  20.987  0.00  0.00     0.115 C 
HETATM    8  C   UNK     0     -21.516  18.101  20.945  0.00  0.00     0.021 A 
HETATM    9  N   UNK     0     -22.149  19.195  20.494  0.00  0.00    -0.361 N 
HETATM   10  C   UNK     0     -21.291  20.235  20.564  0.00  0.00     0.022 A 
HETATM   11  C   UNK     0     -20.074  19.800  21.082  0.00  0.00    -0.027 A 
HETATM   12  C   UNK     0     -20.209  18.457  21.324  0.00  0.00    -0.031 A 
HETATM   13  C   UNK     0     -19.136  17.560  21.898  0.00  0.00     0.051 C 
HETATM   14  C   UNK     0     -21.564  21.662  20.097  0.00  0.00     0.115 C 
HETATM   15  C   UNK     0     -21.874  21.776  18.613  0.00  0.00     0.021 A 
HETATM   16  N   UNK     0     -22.869  21.175  17.933  0.00  0.00    -0.361 N 
HETATM   17  C   UNK     0     -22.757  21.474  16.637  0.00  0.00     0.022 A 
HETATM   18  C   UNK     0     -21.643  22.319  16.466  0.00  0.00    -0.027 A 
HETATM   19  C   UNK     0     -21.099  22.501  17.711  0.00  0.00    -0.031 A 
HETATM   20  C   UNK     0     -19.893  23.380  17.984  0.00  0.00     0.051 C 
HETATM   21  C   UNK     0     -23.573  20.999  15.457  0.00  0.00     0.115 C 
HETATM   22  C   UNK     0     -24.115  19.590  15.505  0.00  0.00     0.022 A 
HETATM   23  N   UNK     0     -23.509  18.482  15.952  0.00  0.00    -0.361 N 
HETATM   24  C   UNK     0     -24.407  17.476  15.947  0.00  0.00     0.021 A 
HETATM   25  C   UNK     0     -25.618  17.945  15.475  0.00  0.00    -0.031 A 
HETATM   26  C   UNK     0     -26.910  17.188  15.249  0.00  0.00     0.051 C 
HETATM   27  C   UNK     0     -25.456  19.295  15.186  0.00  0.00    -0.027 A 
HETATM   28  C   UNK     0     -24.214  16.056  16.450  0.00  0.00     0.115 C 
HETATM   29  H   UNK     0     -21.902  16.968  18.032  0.00  0.00     0.165 HD
HETATM   30  H   UNK     0     -23.219  19.248  20.174  0.00  0.00     0.165 HD
HETATM   31  H   UNK     0     -23.695  20.565  18.383  0.00  0.00     0.165 HD
HETATM   32  H   UNK     0     -22.428  18.390  16.235  0.00  0.00     0.165 HD
ENDROOT
BRANCH   6  33
HETATM   33  C   UNK     0     -24.661  15.023  21.374  0.00  0.00     0.051 C 
BRANCH  33  34
HETATM   34  C   UNK     0     -24.348  13.558  21.565  0.00  0.00     0.114 C 
BRANCH  34  35
HETATM   35  C   UNK     0     -23.062  13.470  22.315  0.00  0.00     0.139 C 
HETATM   36  O   UNK     0     -23.010  13.812  23.532  0.00  0.00    -0.650 OA
BRANCH  35  37
HETATM   37  O   UNK     0     -21.885  13.017  21.733  0.00  0.00    -0.776 OA
HETATM   38  H   UNK     0     -21.788  12.910  20.736  0.00  0.00     0.167 HD
ENDBRANCH  35  37
ENDBRANCH  34  35
ENDBRANCH  33  34
ENDBRANCH   6  33
BRANCH  27  39
HETATM   39  C   UNK     0     -26.532  20.130  14.586  0.00  0.00     0.051 C 
BRANCH  39  40
HETATM   40  C   UNK     0     -26.364  20.595  13.209  0.00  0.00     0.114 C 
BRANCH  40  41
HETATM   41  C   UNK     0     -26.539  21.981  12.837  0.00  0.00     0.139 C 
HETATM   42  O   UNK     0     -27.584  22.615  13.036  0.00  0.00    -0.650 OA
BRANCH  41  43
HETATM   43  O   UNK     0     -25.462  22.668  12.208  0.00  0.00    -0.776 OA
HETATM   44  H   UNK     0     -24.878  23.201  12.841  0.00  0.00     0.167 HD
ENDBRANCH  41  43
ENDBRANCH  40  41
ENDBRANCH  39  40
ENDBRANCH  27  39
BRANCH  11  45
HETATM   45  C   UNK     0     -18.826  20.597  21.349  0.00  0.00     0.051 C 
BRANCH  45  46
HETATM   46  C   UNK     0     -19.021  21.734  22.285  0.00  0.00     0.114 C 
BRANCH  46  47
HETATM   47  C   UNK     0     -18.154  21.482  23.471  0.00  0.00     0.139 C 
HETATM   48  O   UNK     0     -17.743  22.454  24.121  0.00  0.00    -0.650 OA
BRANCH  47  49
HETATM   49  O   UNK     0     -17.816  20.204  23.837  0.00  0.00    -0.776 OA
HETATM   50  H   UNK     0     -17.227  20.008  24.655  0.00  0.00     0.167 HD
ENDBRANCH  47  49
ENDBRANCH  46  47
ENDBRANCH  45  46
ENDBRANCH  11  45
BRANCH  18  51
HETATM   51  C   UNK     0     -21.136  22.935  15.188  0.00  0.00     0.051 C 
BRANCH  51  52
HETATM   52  C   UNK     0     -22.011  24.152  14.926  0.00  0.00     0.114 C 
BRANCH  52  53
HETATM   53  C   UNK     0     -22.881  23.960  13.749  0.00  0.00     0.139 C 
HETATM   54  O   UNK     0     -23.848  24.716  13.561  0.00  0.00    -0.650 OA
BRANCH  53  55
HETATM   55  O   UNK     0     -22.618  22.939  12.869  0.00  0.00    -0.776 OA
HETATM   56  H   UNK     0     -22.458  23.036  11.893  0.00  0.00     0.167 HD
ENDBRANCH  53  55
ENDBRANCH  52  53
ENDBRANCH  51  52
ENDBRANCH  18  51
TORSDOF 16
ENDMDL
MODEL 17
REMARK VINA RESULT:      -7.5      6.893     10.454
REMARK  16 active torsions:
REMARK  status: ('A' for Active; 'I' for Inactive)
REMARK    1  A    between atoms: C_6  and  C_7 
REMARK    2  A    between atoms: C_7  and  C_8 
REMARK    3  A    between atoms: C_8  and  C_9 
REMARK    4  A    between atoms: C_9  and  O_11 
REMARK    5  A    between atoms: C_16  and  C_17 
REMARK    6  A    between atoms: C_17  and  C_18 
REMARK    7  A    between atoms: C_18  and  C_19 
REMARK    8  A    between atoms: C_19  and  O_21 
REMARK    9  A    between atoms: C_28  and  C_29 
REMARK   10  A    between atoms: C_29  and  C_30 
REMARK   11  A    between atoms: C_30  and  C_31 
REMARK   12  A    between atoms: C_31  and  O_33 
REMARK   13  A    between atoms: C_42  and  C_43 
REMARK   14  A    between atoms: C_43  and  C_44 
REMARK   15  A    between atoms: C_44  and  C_45 
REMARK   16  A    between atoms: C_45  and  O_47 
ROOT
HETATM    1  C   UNK     0     -27.504  15.781  16.294  0.00  0.00     0.051 C 
HETATM    2  C   UNK     0     -26.209  15.961  17.059  0.00  0.00    -0.031 A 
HETATM    3  C   UNK     0     -25.004  16.499  16.635  0.00  0.00     0.021 A 
HETATM    4  N   UNK     0     -24.109  16.429  17.648  0.00  0.00    -0.361 N 
HETATM    5  C   UNK     0     -24.719  15.868  18.712  0.00  0.00     0.022 A 
HETATM    6  C   UNK     0     -26.033  15.560  18.377  0.00  0.00    -0.027 A 
HETATM    7  C   UNK     0     -24.203  15.651  20.100  0.00  0.00     0.115 C 
HETATM    8  C   UNK     0     -23.411  16.789  20.719  0.00  0.00     0.021 A 
HETATM    9  N   UNK     0     -23.596  18.111  20.576  0.00  0.00    -0.361 N 
HETATM   10  C   UNK     0     -22.602  18.746  21.231  0.00  0.00     0.022 A 
HETATM   11  C   UNK     0     -21.759  17.808  21.821  0.00  0.00    -0.027 A 
HETATM   12  C   UNK     0     -22.264  16.573  21.502  0.00  0.00    -0.031 A 
HETATM   13  C   UNK     0     -21.673  15.250  21.934  0.00  0.00     0.051 C 
HETATM   14  C   UNK     0     -22.377  20.255  21.284  0.00  0.00     0.115 C 
HETATM   15  C   UNK     0     -22.138  20.889  19.923  0.00  0.00     0.021 A 
HETATM   16  N   UNK     0     -22.954  20.870  18.853  0.00  0.00    -0.361 N 
HETATM   17  C   UNK     0     -22.350  21.480  17.830  0.00  0.00     0.022 A 
HETATM   18  C   UNK     0     -21.084  21.926  18.258  0.00  0.00    -0.027 A 
HETATM   19  C   UNK     0     -20.964  21.551  19.571  0.00  0.00    -0.031 A 
HETATM   20  C   UNK     0     -19.755  21.870  20.432  0.00  0.00     0.051 C 
HETATM   21  C   UNK     0     -22.807  21.661  16.400  0.00  0.00     0.115 C 
HETATM   22  C   UNK     0     -23.633  20.555  15.787  0.00  0.00     0.022 A 
HETATM   23  N   UNK     0     -23.475  19.232  15.915  0.00  0.00    -0.361 N 
HETATM   24  C   UNK     0     -24.519  18.620  15.320  0.00  0.00     0.021 A 
HETATM   25  C   UNK     0     -25.365  19.574  14.786  0.00  0.00    -0.031 A 
HETATM   26  C   UNK     0     -26.641  19.379  13.993  0.00  0.00     0.051 C 
HETATM   27  C   UNK     0     -24.819  20.820  15.072  0.00  0.00    -0.027 A 
HETATM   28  C   UNK     0     -24.829  17.134  15.284  0.00  0.00     0.115 C 
HETATM   29  H   UNK     0     -23.040  16.742  17.592  0.00  0.00     0.165 HD
HETATM   30  H   UNK     0     -24.455  18.599  20.054  0.00  0.00     0.165 HD
HETATM   31  H   UNK     0     -23.997  20.460  18.831  0.00  0.00     0.165 HD
HETATM   32  H   UNK     0     -22.601  18.714  16.390  0.00  0.00     0.165 HD
ENDROOT
BRANCH   6  33
HETATM   33  C   UNK     0     -27.120  14.919  19.203  0.00  0.00     0.051 C 
BRANCH  33  34
HETATM   34  C   UNK     0     -27.230  13.445  18.892  0.00  0.00     0.114 C 
BRANCH  34  35
HETATM   35  C   UNK     0     -26.408  12.714  19.900  0.00  0.00     0.139 C 
HETATM   36  O   UNK     0     -26.885  12.453  21.042  0.00  0.00    -0.650 OA
BRANCH  35  37
HETATM   37  O   UNK     0     -25.110  12.290  19.642  0.00  0.00    -0.776 OA
HETATM   38  H   UNK     0     -24.869  11.781  18.807  0.00  0.00     0.167 HD
ENDBRANCH  35  37
ENDBRANCH  34  35
ENDBRANCH  33  34
ENDBRANCH   6  33
BRANCH  27  39
HETATM   39  C   UNK     0     -25.416  22.096  14.592  0.00  0.00     0.051 C 
BRANCH  39  40
HETATM   40  C   UNK     0     -24.855  22.717  13.393  0.00  0.00     0.114 C 
BRANCH  40  41
HETATM   41  C   UNK     0     -23.604  23.441  13.414  0.00  0.00     0.139 C 
HETATM   42  O   UNK     0     -23.486  24.589  13.865  0.00  0.00    -0.650 OA
BRANCH  41  43
HETATM   43  O   UNK     0     -22.436  22.817  12.893  0.00  0.00    -0.776 OA
HETATM   44  H   UNK     0     -21.842  22.387  13.592  0.00  0.00     0.167 HD
ENDBRANCH  41  43
ENDBRANCH  40  41
ENDBRANCH  39  40
ENDBRANCH  27  39
BRANCH  11  45
HETATM   45  C   UNK     0     -20.528  18.041  22.655  0.00  0.00     0.051 C 
BRANCH  45  46
HETATM   46  C   UNK     0     -19.287  18.238  21.863  0.00  0.00     0.114 C 
BRANCH  46  47
HETATM   47  C   UNK     0     -18.218  18.658  22.814  0.00  0.00     0.139 C 
HETATM   48  O   UNK     0     -17.948  17.914  23.767  0.00  0.00    -0.650 OA
BRANCH  47  49
HETATM   49  O   UNK     0     -17.549  19.842  22.639  0.00  0.00    -0.776 OA
HETATM   50  H   UNK     0     -17.905  20.585  22.026  0.00  0.00     0.167 HD
ENDBRANCH  47  49
ENDBRANCH  46  47
ENDBRANCH  45  46
ENDBRANCH  11  45
BRANCH  18  51
HETATM   51  C   UNK     0     -20.054  22.688  17.464  0.00  0.00     0.051 C 
BRANCH  51  52
HETATM   52  C   UNK     0     -20.508  24.140  17.459  0.00  0.00     0.114 C 
BRANCH  52  53
HETATM   53  C   UNK     0     -20.796  24.621  16.094  0.00  0.00     0.139 C 
HETATM   54  O   UNK     0     -20.523  23.910  15.114  0.00  0.00    -0.650 OA
BRANCH  53  55
HETATM   55  O   UNK     0     -21.364  25.859  15.916  0.00  0.00    -0.776 OA
HETATM   56  H   UNK     0     -22.290  26.118  16.163  0.00  0.00     0.167 HD
ENDBRANCH  53  55
ENDBRANCH  52  53
ENDBRANCH  51  52
ENDBRANCH  18  51
TORSDOF 16
ENDMDL
MODEL 18
REMARK VINA RESULT:      -7.5      5.333     10.729
REMARK  16 active torsions:
REMARK  status: ('A' for Active; 'I' for Inactive)
REMARK    1  A    between atoms: C_6  and  C_7 
REMARK    2  A    between atoms: C_7  and  C_8 
REMARK    3  A    between atoms: C_8  and  C_9 
REMARK    4  A    between atoms: C_9  and  O_11 
REMARK    5  A    between atoms: C_16  and  C_17 
REMARK    6  A    between atoms: C_17  and  C_18 
REMARK    7  A    between atoms: C_18  and  C_19 
REMARK    8  A    between atoms: C_19  and  O_21 
REMARK    9  A    between atoms: C_28  and  C_29 
REMARK   10  A    between atoms: C_29  and  C_30 
REMARK   11  A    between atoms: C_30  and  C_31 
REMARK   12  A    between atoms: C_31  and  O_33 
REMARK   13  A    between atoms: C_42  and  C_43 
REMARK   14  A    between atoms: C_43  and  C_44 
REMARK   15  A    between atoms: C_44  and  C_45 
REMARK   16  A    between atoms: C_45  and  O_47 
ROOT
HETATM    1  C   UNK     0     -23.247  15.676  18.548  0.00  0.00     0.051 C 
HETATM    2  C   UNK     0     -23.792  16.966  17.970  0.00  0.00    -0.031 A 
HETATM    3  C   UNK     0     -23.842  18.231  18.535  0.00  0.00     0.021 A 
HETATM    4  N   UNK     0     -24.444  19.078  17.666  0.00  0.00    -0.361 N 
HETATM    5  C   UNK     0     -24.770  18.383  16.557  0.00  0.00     0.022 A 
HETATM    6  C   UNK     0     -24.379  17.058  16.714  0.00  0.00    -0.027 A 
HETATM    7  C   UNK     0     -25.366  18.867  15.272  0.00  0.00     0.115 C 
HETATM    8  C   UNK     0     -24.818  20.168  14.714  0.00  0.00     0.021 A 
HETATM    9  N   UNK     0     -23.559  20.633  14.758  0.00  0.00    -0.361 N 
HETATM   10  C   UNK     0     -23.551  21.871  14.219  0.00  0.00     0.022 A 
HETATM   11  C   UNK     0     -24.837  22.209  13.809  0.00  0.00    -0.027 A 
HETATM   12  C   UNK     0     -25.640  21.141  14.118  0.00  0.00    -0.031 A 
HETATM   13  C   UNK     0     -27.126  21.058  13.847  0.00  0.00     0.051 C 
HETATM   14  C   UNK     0     -22.345  22.802  14.119  0.00  0.00     0.115 C 
HETATM   15  C   UNK     0     -21.746  23.179  15.464  0.00  0.00     0.021 A 
HETATM   16  N   UNK     0     -21.252  22.353  16.404  0.00  0.00    -0.361 N 
HETATM   17  C   UNK     0     -20.885  23.069  17.469  0.00  0.00     0.022 A 
HETATM   18  C   UNK     0     -21.143  24.429  17.206  0.00  0.00    -0.027 A 
HETATM   19  C   UNK     0     -21.681  24.485  15.947  0.00  0.00    -0.031 A 
HETATM   20  C   UNK     0     -22.074  25.777  15.253  0.00  0.00     0.051 C 
HETATM   21  C   UNK     0     -20.344  22.616  18.806  0.00  0.00     0.115 C 
HETATM   22  C   UNK     0     -20.847  21.300  19.353  0.00  0.00     0.022 A 
HETATM   23  N   UNK     0     -22.094  20.810  19.320  0.00  0.00    -0.361 N 
HETATM   24  C   UNK     0     -22.064  19.547  19.789  0.00  0.00     0.021 A 
HETATM   25  C   UNK     0     -20.770  19.219  20.143  0.00  0.00    -0.031 A 
HETATM   26  C   UNK     0     -20.244  17.936  20.752  0.00  0.00     0.051 C 
HETATM   27  C   UNK     0     -19.973  20.325  19.873  0.00  0.00    -0.027 A 
HETATM   28  C   UNK     0     -23.212  18.555  19.860  0.00  0.00     0.115 C 
HETATM   29  H   UNK     0     -24.670  20.153  17.860  0.00  0.00     0.165 HD
HETATM   30  H   UNK     0     -22.666  20.070  15.122  0.00  0.00     0.165 HD
HETATM   31  H   UNK     0     -21.115  21.245  16.297  0.00  0.00     0.165 HD
HETATM   32  H   UNK     0     -23.014  21.368  19.004  0.00  0.00     0.165 HD
ENDROOT
BRANCH   6  33
HETATM   33  C   UNK     0     -24.521  15.887  15.776  0.00  0.00     0.051 C 
BRANCH  33  34
HETATM   34  C   UNK     0     -25.829  15.168  16.011  0.00  0.00     0.114 C 
BRANCH  34  35
HETATM   35  C   UNK     0     -26.825  15.729  15.053  0.00  0.00     0.139 C 
HETATM   36  O   UNK     0     -27.954  16.123  15.465  0.00  0.00    -0.650 OA
BRANCH  35  37
HETATM   37  O   UNK     0     -26.570  15.848  13.692  0.00  0.00    -0.776 OA
HETATM   38  H   UNK     0     -25.923  16.528  13.326  0.00  0.00     0.167 HD
ENDBRANCH  35  37
ENDBRANCH  34  35
ENDBRANCH  33  34
ENDBRANCH   6  33
BRANCH  27  39
HETATM   39  C   UNK     0     -18.520  20.375  20.192  0.00  0.00     0.051 C 
BRANCH  39  40
HETATM   40  C   UNK     0     -18.117  20.813  21.528  0.00  0.00     0.114 C 
BRANCH  40  41
HETATM   41  C   UNK     0     -18.067  19.907  22.653  0.00  0.00     0.139 C 
HETATM   42  O   UNK     0     -18.801  20.009  23.646  0.00  0.00    -0.650 OA
BRANCH  41  43
HETATM   43  O   UNK     0     -17.131  18.835  22.637  0.00  0.00    -0.776 OA
HETATM   44  H   UNK     0     -17.093  18.324  21.763  0.00  0.00     0.167 HD
ENDBRANCH  41  43
ENDBRANCH  40  41
ENDBRANCH  39  40
ENDBRANCH  27  39
BRANCH  11  45
HETATM   45  C   UNK     0     -25.313  23.476  13.150  0.00  0.00     0.051 C 
BRANCH  45  46
HETATM   46  C   UNK     0     -25.488  24.617  14.086  0.00  0.00     0.114 C 
BRANCH  46  47
HETATM   47  C   UNK     0     -25.670  25.843  13.257  0.00  0.00     0.139 C 
HETATM   48  O   UNK     0     -26.416  25.785  12.270  0.00  0.00    -0.650 OA
BRANCH  47  49
HETATM   49  O   UNK     0     -25.026  27.011  13.579  0.00  0.00    -0.776 OA
HETATM   50  H   UNK     0     -24.658  27.189  14.521  0.00  0.00     0.167 HD
ENDBRANCH  47  49
ENDBRANCH  46  47
ENDBRANCH  45  46
ENDBRANCH  11  45
BRANCH  18  51
HETATM   51  C   UNK     0     -20.873  25.613  18.098  0.00  0.00     0.051 C 
BRANCH  51  52
HETATM   52  C   UNK     0     -22.103  25.773  18.979  0.00  0.00     0.114 C 
BRANCH  52  53
HETATM   53  C   UNK     0     -21.749  25.840  20.410  0.00  0.00     0.139 C 
HETATM   54  O   UNK     0     -20.594  25.575  20.778  0.00  0.00    -0.650 OA
BRANCH  53  55
HETATM   55  O   UNK     0     -22.706  26.192  21.331  0.00  0.00    -0.776 OA
HETATM   56  H   UNK     0     -23.327  26.964  21.261  0.00  0.00     0.167 HD
ENDBRANCH  53  55
ENDBRANCH  52  53
ENDBRANCH  51  52
ENDBRANCH  18  51
TORSDOF 16
ENDMDL
MODEL 19
REMARK VINA RESULT:      -7.4      2.161      8.709
REMARK  16 active torsions:
REMARK  status: ('A' for Active; 'I' for Inactive)
REMARK    1  A    between atoms: C_6  and  C_7 
REMARK    2  A    between atoms: C_7  and  C_8 
REMARK    3  A    between atoms: C_8  and  C_9 
REMARK    4  A    between atoms: C_9  and  O_11 
REMARK    5  A    between atoms: C_16  and  C_17 
REMARK    6  A    between atoms: C_17  and  C_18 
REMARK    7  A    between atoms: C_18  and  C_19 
REMARK    8  A    between atoms: C_19  and  O_21 
REMARK    9  A    between atoms: C_28  and  C_29 
REMARK   10  A    between atoms: C_29  and  C_30 
REMARK   11  A    between atoms: C_30  and  C_31 
REMARK   12  A    between atoms: C_31  and  O_33 
REMARK   13  A    between atoms: C_42  and  C_43 
REMARK   14  A    between atoms: C_43  and  C_44 
REMARK   15  A    between atoms: C_44  and  C_45 
REMARK   16  A    between atoms: C_45  and  O_47 
ROOT
HETATM    1  C   UNK     0     -19.289  27.580  24.437  0.00  0.00     0.051 C 
HETATM    2  C   UNK     0     -19.635  28.327  23.165  0.00  0.00    -0.031 A 
HETATM    3  C   UNK     0     -19.308  28.028  21.852  0.00  0.00     0.021 A 
HETATM    4  N   UNK     0     -19.803  28.994  21.042  0.00  0.00    -0.361 N 
HETATM    5  C   UNK     0     -20.446  29.898  21.810  0.00  0.00     0.022 A 
HETATM    6  C   UNK     0     -20.358  29.513  23.144  0.00  0.00    -0.027 A 
HETATM    7  C   UNK     0     -21.242  31.099  21.403  0.00  0.00     0.115 C 
HETATM    8  C   UNK     0     -22.174  30.928  20.216  0.00  0.00     0.021 A 
HETATM    9  N   UNK     0     -22.892  29.850  19.865  0.00  0.00    -0.361 N 
HETATM   10  C   UNK     0     -23.503  30.117  18.691  0.00  0.00     0.022 A 
HETATM   11  C   UNK     0     -23.177  31.406  18.280  0.00  0.00    -0.027 A 
HETATM   12  C   UNK     0     -22.340  31.923  19.236  0.00  0.00    -0.031 A 
HETATM   13  C   UNK     0     -21.734  33.308  19.211  0.00  0.00     0.051 C 
HETATM   14  C   UNK     0     -24.371  29.154  17.887  0.00  0.00     0.115 C 
HETATM   15  C   UNK     0     -23.643  27.898  17.436  0.00  0.00     0.021 A 
HETATM   16  N   UNK     0     -23.031  26.981  18.208  0.00  0.00    -0.361 N 
HETATM   17  C   UNK     0     -22.449  26.068  17.428  0.00  0.00     0.022 A 
HETATM   18  C   UNK     0     -22.702  26.401  16.082  0.00  0.00    -0.027 A 
HETATM   19  C   UNK     0     -23.452  27.548  16.101  0.00  0.00    -0.031 A 
HETATM   20  C   UNK     0     -23.976  28.234  14.853  0.00  0.00     0.051 C 
HETATM   21  C   UNK     0     -21.585  24.883  17.796  0.00  0.00     0.115 C 
HETATM   22  C   UNK     0     -20.685  25.023  19.001  0.00  0.00     0.022 A 
HETATM   23  N   UNK     0     -19.962  26.086  19.377  0.00  0.00    -0.361 N 
HETATM   24  C   UNK     0     -19.425  25.826  20.586  0.00  0.00     0.021 A 
HETATM   25  C   UNK     0     -19.803  24.561  20.994  0.00  0.00    -0.031 A 
HETATM   26  C   UNK     0     -19.422  23.811  22.253  0.00  0.00     0.051 C 
HETATM   27  C   UNK     0     -20.610  24.027  19.995  0.00  0.00    -0.027 A 
HETATM   28  C   UNK     0     -18.604  26.760  21.459  0.00  0.00     0.115 C 
HETATM   29  H   UNK     0     -19.660  29.051  19.938  0.00  0.00     0.165 HD
HETATM   30  H   UNK     0     -23.009  28.917  20.468  0.00  0.00     0.165 HD
HETATM   31  H   UNK     0     -23.050  26.950  19.329  0.00  0.00     0.165 HD
HETATM   32  H   UNK     0     -19.788  27.014  18.772  0.00  0.00     0.165 HD
ENDROOT
BRANCH   6  33
HETATM   33  C   UNK     0     -20.900  30.179  24.383  0.00  0.00     0.051 C 
BRANCH  33  34
HETATM   34  C   UNK     0     -19.792  30.858  25.153  0.00  0.00     0.114 C 
BRANCH  34  35
HETATM   35  C   UNK     0     -19.538  32.175  24.502  0.00  0.00     0.139 C 
HETATM   36  O   UNK     0     -18.366  32.494  24.147  0.00  0.00    -0.650 OA
BRANCH  35  37
HETATM   37  O   UNK     0     -20.548  33.095  24.253  0.00  0.00    -0.776 OA
HETATM   38  H   UNK     0     -20.405  33.901  23.665  0.00  0.00     0.167 HD
ENDBRANCH  35  37
ENDBRANCH  34  35
ENDBRANCH  33  34
ENDBRANCH   6  33
BRANCH  27  39
HETATM   39  C   UNK     0     -21.154  22.643  20.046  0.00  0.00     0.051 C 
BRANCH  39  40
HETATM   40  C   UNK     0     -20.629  21.656  19.104  0.00  0.00     0.114 C 
BRANCH  40  41
HETATM   41  C   UNK     0     -19.269  21.703  18.616  0.00  0.00     0.139 C 
HETATM   42  O   UNK     0     -18.296  21.290  19.262  0.00  0.00    -0.650 OA
BRANCH  41  43
HETATM   43  O   UNK     0     -19.016  22.252  17.327  0.00  0.00    -0.776 OA
HETATM   44  H   UNK     0     -18.432  21.676  16.733  0.00  0.00     0.167 HD
ENDBRANCH  41  43
ENDBRANCH  40  41
ENDBRANCH  39  40
ENDBRANCH  27  39
BRANCH  11  45
HETATM   45  C   UNK     0     -23.624  32.142  17.045  0.00  0.00     0.051 C 
BRANCH  45  46
HETATM   46  C   UNK     0     -23.862  33.593  17.257  0.00  0.00     0.114 C 
BRANCH  46  47
HETATM   47  C   UNK     0     -23.271  34.312  16.092  0.00  0.00     0.139 C 
HETATM   48  O   UNK     0     -22.421  35.187  16.305  0.00  0.00    -0.650 OA
BRANCH  47  49
HETATM   49  O   UNK     0     -23.661  34.013  14.811  0.00  0.00    -0.776 OA
HETATM   50  H   UNK     0     -24.544  33.528  14.609  0.00  0.00     0.167 HD
ENDBRANCH  47  49
ENDBRANCH  46  47
ENDBRANCH  45  46
ENDBRANCH  11  45
BRANCH  18  51
HETATM   51  C   UNK     0     -22.271  25.654  14.846  0.00  0.00     0.051 C 
BRANCH  51  52
HETATM   52  C   UNK     0     -23.295  24.548  14.638  0.00  0.00     0.114 C 
BRANCH  52  53
HETATM   53  C   UNK     0     -22.661  23.286  14.210  0.00  0.00     0.139 C 
HETATM   54  O   UNK     0     -22.046  22.589  15.033  0.00  0.00    -0.650 OA
BRANCH  53  55
HETATM   55  O   UNK     0     -22.753  22.890  12.898  0.00  0.00    -0.776 OA
HETATM   56  H   UNK     0     -23.075  22.008  12.575  0.00  0.00     0.167 HD
ENDBRANCH  53  55
ENDBRANCH  52  53
ENDBRANCH  51  52
ENDBRANCH  18  51
TORSDOF 16
ENDMDL
MODEL 20
REMARK VINA RESULT:      -7.4      5.966     11.580
REMARK  16 active torsions:
REMARK  status: ('A' for Active; 'I' for Inactive)
REMARK    1  A    between atoms: C_6  and  C_7 
REMARK    2  A    between atoms: C_7  and  C_8 
REMARK    3  A    between atoms: C_8  and  C_9 
REMARK    4  A    between atoms: C_9  and  O_11 
REMARK    5  A    between atoms: C_16  and  C_17 
REMARK    6  A    between atoms: C_17  and  C_18 
REMARK    7  A    between atoms: C_18  and  C_19 
REMARK    8  A    between atoms: C_19  and  O_21 
REMARK    9  A    between atoms: C_28  and  C_29 
REMARK   10  A    between atoms: C_29  and  C_30 
REMARK   11  A    between atoms: C_30  and  C_31 
REMARK   12  A    between atoms: C_31  and  O_33 
REMARK   13  A    between atoms: C_42  and  C_43 
REMARK   14  A    between atoms: C_43  and  C_44 
REMARK   15  A    between atoms: C_44  and  C_45 
REMARK   16  A    between atoms: C_45  and  O_47 
ROOT
HETATM    1  C   UNK     0     -25.091  23.364  13.449  0.00  0.00     0.051 C 
HETATM    2  C   UNK     0     -24.595  22.057  14.033  0.00  0.00    -0.031 A 
HETATM    3  C   UNK     0     -23.301  21.663  14.336  0.00  0.00     0.021 A 
HETATM    4  N   UNK     0     -23.325  20.396  14.812  0.00  0.00    -0.361 N 
HETATM    5  C   UNK     0     -24.607  19.976  14.827  0.00  0.00     0.022 A 
HETATM    6  C   UNK     0     -25.428  20.990  14.344  0.00  0.00    -0.027 A 
HETATM    7  C   UNK     0     -25.183  18.696  15.346  0.00  0.00     0.115 C 
HETATM    8  C   UNK     0     -24.639  18.191  16.671  0.00  0.00     0.021 A 
HETATM    9  N   UNK     0     -24.248  18.902  17.740  0.00  0.00    -0.361 N 
HETATM   10  C   UNK     0     -23.749  18.043  18.654  0.00  0.00     0.022 A 
HETATM   11  C   UNK     0     -23.828  16.743  18.164  0.00  0.00    -0.027 A 
HETATM   12  C   UNK     0     -24.388  16.829  16.915  0.00  0.00    -0.031 A 
HETATM   13  C   UNK     0     -24.673  15.657  16.003  0.00  0.00     0.051 C 
HETATM   14  C   UNK     0     -23.130  18.418  19.998  0.00  0.00     0.115 C 
HETATM   15  C   UNK     0     -21.901  19.305  19.884  0.00  0.00     0.021 A 
HETATM   16  N   UNK     0     -21.814  20.518  19.306  0.00  0.00    -0.361 N 
HETATM   17  C   UNK     0     -20.547  20.936  19.352  0.00  0.00     0.022 A 
HETATM   18  C   UNK     0     -19.773  19.952  20.000  0.00  0.00    -0.027 A 
HETATM   19  C   UNK     0     -20.633  18.937  20.329  0.00  0.00    -0.031 A 
HETATM   20  C   UNK     0     -20.213  17.685  21.079  0.00  0.00     0.051 C 
HETATM   21  C   UNK     0     -19.914  22.186  18.784  0.00  0.00     0.115 C 
HETATM   22  C   UNK     0     -20.475  22.725  17.489  0.00  0.00     0.022 A 
HETATM   23  N   UNK     0     -20.876  22.040  16.410  0.00  0.00    -0.361 N 
HETATM   24  C   UNK     0     -21.442  22.906  15.545  0.00  0.00     0.021 A 
HETATM   25  C   UNK     0     -21.394  24.181  16.076  0.00  0.00    -0.031 A 
HETATM   26  C   UNK     0     -21.864  25.485  15.466  0.00  0.00     0.051 C 
HETATM   27  C   UNK     0     -20.780  24.090  17.320  0.00  0.00    -0.027 A 
HETATM   28  C   UNK     0     -22.123  22.590  14.225  0.00  0.00     0.115 C 
HETATM   29  H   UNK     0     -22.432  19.792  15.096  0.00  0.00     0.165 HD
HETATM   30  H   UNK     0     -24.370  20.005  17.873  0.00  0.00     0.165 HD
HETATM   31  H   UNK     0     -22.672  21.113  18.900  0.00  0.00     0.165 HD
HETATM   32  H   UNK     0     -20.724  20.944  16.230  0.00  0.00     0.165 HD
ENDROOT
BRANCH   6  33
HETATM   33  C   UNK     0     -26.924  21.020  14.156  0.00  0.00     0.051 C 
BRANCH  33  34
HETATM   34  C   UNK     0     -27.313  20.348  12.860  0.00  0.00     0.114 C 
BRANCH  34  35
HETATM   35  C   UNK     0     -28.344  19.320  13.183  0.00  0.00     0.139 C 
HETATM   36  O   UNK     0     -28.582  19.012  14.387  0.00  0.00    -0.650 OA
BRANCH  35  37
HETATM   37  O   UNK     0     -29.081  18.664  12.204  0.00  0.00    -0.776 OA
HETATM   38  H   UNK     0     -29.577  17.808  12.392  0.00  0.00     0.167 HD
ENDBRANCH  35  37
ENDBRANCH  34  35
ENDBRANCH  33  34
ENDBRANCH   6  33
BRANCH  27  39
HETATM   39  C   UNK     0     -20.486  25.278  18.167  0.00  0.00     0.051 C 
BRANCH  39  40
HETATM   40  C   UNK     0     -21.434  25.628  19.224  0.00  0.00     0.114 C 
BRANCH  40  41
HETATM   41  C   UNK     0     -22.652  24.881  19.445  0.00  0.00     0.139 C 
HETATM   42  O   UNK     0     -22.737  23.931  20.235  0.00  0.00    -0.650 OA
BRANCH  41  43
HETATM   43  O   UNK     0     -23.826  25.243  18.726  0.00  0.00    -0.776 OA
HETATM   44  H   UNK     0     -24.292  26.072  19.074  0.00  0.00     0.167 HD
ENDBRANCH  41  43
ENDBRANCH  40  41
ENDBRANCH  39  40
ENDBRANCH  27  39
BRANCH  11  45
HETATM   45  C   UNK     0     -23.404  15.460  18.827  0.00  0.00     0.051 C 
BRANCH  45  46
HETATM   46  C   UNK     0     -24.391  14.924  19.799  0.00  0.00     0.114 C 
BRANCH  46  47
HETATM   47  C   UNK     0     -25.030  13.734  19.168  0.00  0.00     0.139 C 
HETATM   48  O   UNK     0     -26.239  13.783  18.900  0.00  0.00    -0.650 OA
BRANCH  47  49
HETATM   49  O   UNK     0     -24.298  12.607  18.892  0.00  0.00    -0.776 OA
HETATM   50  H   UNK     0     -23.950  12.401  17.949  0.00  0.00     0.167 HD
ENDBRANCH  47  49
ENDBRANCH  46  47
ENDBRANCH  45  46
ENDBRANCH  11  45
BRANCH  18  51
HETATM   51  C   UNK     0     -18.298  19.988  20.307  0.00  0.00     0.051 C 
BRANCH  51  52
HETATM   52  C   UNK     0     -18.159  20.693  21.648  0.00  0.00     0.114 C 
BRANCH  52  53
HETATM   53  C   UNK     0     -18.027  19.735  22.762  0.00  0.00     0.139 C 
HETATM   54  O   UNK     0     -18.685  19.896  23.802  0.00  0.00    -0.650 OA
BRANCH  53  55
HETATM   55  O   UNK     0     -17.170  18.668  22.643  0.00  0.00    -0.776 OA
HETATM   56  H   UNK     0     -17.413  17.755  22.340  0.00  0.00     0.167 HD
ENDBRANCH  53  55
ENDBRANCH  52  53
ENDBRANCH  51  52
ENDBRANCH  18  51
TORSDOF 16
ENDMDL
