MODEL 1
REMARK VINA RESULT:      -9.7      0.000      0.000
REMARK  28 active torsions:
REMARK  status: ('A' for Active; 'I' for Inactive)
REMARK    1  A    between atoms: C_2  and  O_3 
REMARK    2  A    between atoms: C_2  and  C_4 
REMARK    3  A    between atoms: C_4  and  C_5 
REMARK    4  A    between atoms: C_5  and  C_6 
REMARK    5  A    between atoms: C_7  and  C_8 
REMARK    6  A    between atoms: C_8  and  C_9 
REMARK    7  A    between atoms: C_9  and  O_11 
REMARK    8  A    between atoms: C_28  and  C_29 
REMARK    9  A    between atoms: C_29  and  C_30 
REMARK   10  A    between atoms: C_30  and  O_32 
REMARK   11  A    between atoms: C_33  and  C_34 
REMARK   12  A    between atoms: C_34  and  C_35 
REMARK   13  A    between atoms: C_35  and  C_36 
REMARK   14  A    between atoms: C_36  and  O_38 
REMARK   15  A    between atoms: C_39  and  C_40 
REMARK   16  A    between atoms: C_40  and  C_41 
REMARK   17  A    between atoms: C_41  and  C_42 
REMARK   18  A    between atoms: C_42  and  O_44 
REMARK   19  A    between atoms: C_45  and  C_46 
REMARK   20  A    between atoms: C_46  and  C_47 
REMARK   21  A    between atoms: C_47  and  O_49 
REMARK   22  A    between atoms: C_50  and  C_51 
REMARK   23  A    between atoms: C_51  and  C_52 
REMARK   24  A    between atoms: C_52  and  O_54 
REMARK   25  A    between atoms: C_55  and  C_56 
REMARK   26  A    between atoms: C_56  and  C_57 
REMARK   27  A    between atoms: C_57  and  C_58 
REMARK   28  A    between atoms: C_58  and  O_60 
ROOT
ATOM      1  O   UNK d   0      13.908  27.726  -1.731  0.00  0.00    -0.650 OA
ATOM      2  C   UNK d   0      14.681  27.683  -2.714  0.00  0.00     0.139 C 
ENDROOT
BRANCH   2   3
ATOM      3  O   UNK d   0      14.242  28.135  -3.935  0.00  0.00    -0.776 OA
ATOM      4  H   UNK d   0      14.813  28.767  -4.500  0.00  0.00     0.167 HD
ENDBRANCH   2   3
BRANCH   2   5
ATOM      5  C   UNK d   0      16.062  27.146  -2.558  0.00  0.00     0.115 C 
BRANCH   5   6
ATOM      6  C   UNK d   0      16.024  25.648  -2.430  0.00  0.00     0.052 C 
BRANCH   6   7
ATOM      7  C   UNK d   0      15.608  24.966  -3.711  0.00  0.00    -0.020 A 
ATOM      8  C   UNK d   0      16.283  24.888  -4.830  0.00  0.00    -0.011 A 
ATOM      9  C   UNK d   0      15.478  24.144  -5.784  0.00  0.00     0.067 A 
ATOM     10  C   UNK d   0      15.625  23.707  -7.110  0.00  0.00     0.062 C 
ATOM     11  N   UNK d   0      14.326  23.813  -5.165  0.00  0.00    -0.248 NA
ATOM     12  C   UNK d   0      14.850  22.755  -7.780  0.00  0.00     0.041 A 
ATOM     13  N   UNK d   0      13.518  22.554  -7.803  0.00  0.00    -0.355 N 
ATOM     14  C   UNK d   0      15.496  21.764  -8.541  0.00  0.00    -0.022 A 
ATOM     15  C   UNK d   0      13.304  21.456  -8.553  0.00  0.00     0.042 A 
ATOM     16  H   UNK d   0      12.744  23.187  -7.316  0.00  0.00     0.166 HD
ATOM     17  C   UNK d   0      12.102  20.810  -8.903  0.00  0.00     0.062 C 
ATOM     18  C   UNK d   0      14.520  20.933  -9.033  0.00  0.00    -0.013 A 
ATOM     19  C   UNK d   0      11.027  20.499  -8.109  0.00  0.00     0.067 A 
ATOM     20  N   UNK d   0      11.001  21.039  -6.888  0.00  0.00    -0.248 NA
ATOM     21  C   UNK d   0       9.836  19.677  -8.238  0.00  0.00    -0.011 A 
ATOM     22  C   UNK d   0       9.880  20.629  -6.209  0.00  0.00     0.066 A 
ATOM     23  C   UNK d   0       9.707  21.147  -4.934  0.00  0.00     0.062 C 
ATOM     24  C   UNK d   0       9.171  19.753  -7.121  0.00  0.00    -0.020 A 
ATOM     25  C   UNK d   0      10.492  22.113  -4.284  0.00  0.00     0.041 A 
ATOM     26  N   UNK d   0      11.816  22.304  -4.249  0.00  0.00    -0.355 N 
ATOM     27  C   UNK d   0       9.842  23.110  -3.524  0.00  0.00    -0.022 A 
ATOM     28  C   UNK d   0      12.033  23.393  -3.494  0.00  0.00     0.042 A 
ATOM     29  H   UNK d   0      12.593  21.661  -4.730  0.00  0.00     0.166 HD
ATOM     30  C   UNK d   0      13.223  24.042  -3.131  0.00  0.00     0.062 C 
ATOM     31  C   UNK d   0      10.809  23.924  -3.021  0.00  0.00    -0.013 A 
ATOM     32  C   UNK d   0      14.342  24.278  -3.915  0.00  0.00     0.066 A 
BRANCH   8  33
ATOM     33  C   UNK d   0      17.619  25.451  -5.098  0.00  0.00     0.151 C 
BRANCH  33  34
ATOM     34  C   UNK d   0      17.695  26.149  -6.394  0.00  0.00     0.143 C 
ATOM     35  O   UNK d   0      18.463  25.757  -7.284  0.00  0.00    -0.650 OA
BRANCH  34  36
ATOM     36  O   UNK d   0      16.901  27.251  -6.615  0.00  0.00    -0.776 OA
ATOM     37  H   UNK d   0      16.575  27.493  -7.560  0.00  0.00     0.167 HD
ENDBRANCH  34  36
ENDBRANCH  33  34
ENDBRANCH   8  33
BRANCH  31  38
ATOM     38  C   UNK d   0      10.588  25.142  -2.155  0.00  0.00     0.151 C 
BRANCH  38  39
ATOM     39  C   UNK d   0      10.350  26.344  -2.925  0.00  0.00     0.143 C 
ATOM     40  O   UNK d   0      11.275  27.007  -3.427  0.00  0.00    -0.650 OA
BRANCH  39  41
ATOM     41  O   UNK d   0       9.042  26.786  -3.121  0.00  0.00    -0.776 OA
ATOM     42  H   UNK d   0       8.292  26.160  -2.812  0.00  0.00     0.167 HD
ENDBRANCH  39  41
ENDBRANCH  38  39
ENDBRANCH  31  38
BRANCH  27  43
ATOM     43  C   UNK d   0       8.370  23.309  -3.264  0.00  0.00     0.052 C 
BRANCH  43  44
ATOM     44  C   UNK d   0       7.526  23.151  -4.487  0.00  0.00     0.115 C 
BRANCH  44  45
ATOM     45  C   UNK d   0       7.727  24.377  -5.303  0.00  0.00     0.139 C 
ATOM     46  O   UNK d   0       7.236  25.454  -4.883  0.00  0.00    -0.650 OA
BRANCH  45  47
ATOM     47  O   UNK d   0       8.429  24.379  -6.489  0.00  0.00    -0.776 OA
ATOM     48  H   UNK d   0       8.292  25.097  -7.219  0.00  0.00     0.167 HD
ENDBRANCH  45  47
ENDBRANCH  44  45
ENDBRANCH  43  44
ENDBRANCH  27  43
BRANCH  24  49
ATOM     49  C   UNK d   0       7.881  19.104  -6.832  0.00  0.00     0.052 C 
BRANCH  49  50
ATOM     50  C   UNK d   0       6.826  20.141  -6.543  0.00  0.00     0.115 C 
BRANCH  50  51
ATOM     51  C   UNK d   0       6.159  20.068  -5.250  0.00  0.00     0.139 C 
ATOM     52  O   UNK d   0       4.948  20.356  -5.096  0.00  0.00    -0.650 OA
BRANCH  51  53
ATOM     53  O   UNK d   0       6.873  19.669  -4.131  0.00  0.00    -0.776 OA
ATOM     54  H   UNK d   0       7.144  18.704  -4.059  0.00  0.00     0.167 HD
ENDBRANCH  51  53
ENDBRANCH  50  51
ENDBRANCH  49  50
ENDBRANCH  24  49
BRANCH  21  55
ATOM     55  C   UNK d   0       9.484  18.903  -9.466  0.00  0.00     0.151 C 
BRANCH  55  56
ATOM     56  C   UNK d   0       8.762  19.727 -10.448  0.00  0.00     0.143 C 
ATOM     57  O   UNK d   0       7.660  19.394 -10.927  0.00  0.00    -0.650 OA
BRANCH  56  58
ATOM     58  O   UNK d   0       9.350  20.926 -10.847  0.00  0.00    -0.776 OA
ATOM     59  H   UNK d   0       9.245  21.150 -11.853  0.00  0.00     0.167 HD
ENDBRANCH  56  58
ENDBRANCH  55  56
ENDBRANCH  21  55
BRANCH  18  60
ATOM     60  C   UNK d   0      14.771  19.724  -9.900  0.00  0.00     0.151 C 
BRANCH  60  61
ATOM     61  C   UNK d   0      14.882  18.583  -8.979  0.00  0.00     0.143 C 
ATOM     62  O   UNK d   0      15.758  18.392  -8.135  0.00  0.00    -0.650 OA
BRANCH  61  63
ATOM     63  O   UNK d   0      13.857  17.613  -9.095  0.00  0.00    -0.776 OA
ATOM     64  H   UNK d   0      12.899  17.884  -9.229  0.00  0.00     0.167 HD
ENDBRANCH  61  63
ENDBRANCH  60  61
ENDBRANCH  18  60
BRANCH  14  65
ATOM     65  C   UNK d   0      16.942  21.602  -8.915  0.00  0.00     0.052 C 
BRANCH  65  66
ATOM     66  C   UNK d   0      17.588  22.883  -9.308  0.00  0.00     0.115 C 
BRANCH  66  67
ATOM     67  C   UNK d   0      18.778  22.863 -10.110  0.00  0.00     0.139 C 
ATOM     68  O   UNK d   0      19.290  23.984 -10.477  0.00  0.00    -0.650 OA
BRANCH  67  69
ATOM     69  O   UNK d   0      19.483  21.749 -10.564  0.00  0.00    -0.776 OA
ATOM     70  H   UNK d   0      19.385  21.535 -11.567  0.00  0.00     0.167 HD
ENDBRANCH  67  69
ENDBRANCH  66  67
ENDBRANCH  65  66
ENDBRANCH  14  65
ENDBRANCH   6   7
ENDBRANCH   5   6
ENDBRANCH   2   5
TORSDOF 28
ENDMDL
MODEL 2
REMARK VINA RESULT:      -9.7      1.426      7.252
REMARK  28 active torsions:
REMARK  status: ('A' for Active; 'I' for Inactive)
REMARK    1  A    between atoms: C_2  and  O_3 
REMARK    2  A    between atoms: C_2  and  C_4 
REMARK    3  A    between atoms: C_4  and  C_5 
REMARK    4  A    between atoms: C_5  and  C_6 
REMARK    5  A    between atoms: C_7  and  C_8 
REMARK    6  A    between atoms: C_8  and  C_9 
REMARK    7  A    between atoms: C_9  and  O_11 
REMARK    8  A    between atoms: C_28  and  C_29 
REMARK    9  A    between atoms: C_29  and  C_30 
REMARK   10  A    between atoms: C_30  and  O_32 
REMARK   11  A    between atoms: C_33  and  C_34 
REMARK   12  A    between atoms: C_34  and  C_35 
REMARK   13  A    between atoms: C_35  and  C_36 
REMARK   14  A    between atoms: C_36  and  O_38 
REMARK   15  A    between atoms: C_39  and  C_40 
REMARK   16  A    between atoms: C_40  and  C_41 
REMARK   17  A    between atoms: C_41  and  C_42 
REMARK   18  A    between atoms: C_42  and  O_44 
REMARK   19  A    between atoms: C_45  and  C_46 
REMARK   20  A    between atoms: C_46  and  C_47 
REMARK   21  A    between atoms: C_47  and  O_49 
REMARK   22  A    between atoms: C_50  and  C_51 
REMARK   23  A    between atoms: C_51  and  C_52 
REMARK   24  A    between atoms: C_52  and  O_54 
REMARK   25  A    between atoms: C_55  and  C_56 
REMARK   26  A    between atoms: C_56  and  C_57 
REMARK   27  A    between atoms: C_57  and  C_58 
REMARK   28  A    between atoms: C_58  and  O_60 
ROOT
ATOM      1  O   UNK d   0      18.617  25.848  -7.848  0.00  0.00    -0.650 OA
ATOM      2  C   UNK d   0      18.134  26.649  -7.017  0.00  0.00     0.139 C 
ENDROOT
BRANCH   2   3
ATOM      3  O   UNK d   0      18.862  27.753  -6.644  0.00  0.00    -0.776 OA
ATOM      4  H   UNK d   0      19.837  27.667  -6.349  0.00  0.00     0.167 HD
ENDBRANCH   2   3
BRANCH   2   5
ATOM      5  C   UNK d   0      16.782  26.403  -6.439  0.00  0.00     0.115 C 
BRANCH   5   6
ATOM      6  C   UNK d   0      16.884  25.478  -5.257  0.00  0.00     0.052 C 
BRANCH   6   7
ATOM      7  C   UNK d   0      15.593  24.747  -4.977  0.00  0.00    -0.020 A 
ATOM      8  C   UNK d   0      14.845  24.830  -3.907  0.00  0.00    -0.011 A 
ATOM      9  C   UNK d   0      13.710  23.939  -4.087  0.00  0.00     0.067 A 
ATOM     10  C   UNK d   0      12.570  23.590  -3.347  0.00  0.00     0.062 C 
ATOM     11  N   UNK d   0      13.852  23.349  -5.293  0.00  0.00    -0.248 NA
ATOM     12  C   UNK d   0      11.435  22.914  -3.809  0.00  0.00     0.041 A 
ATOM     13  N   UNK d   0      11.307  21.843  -4.615  0.00  0.00    -0.355 N 
ATOM     14  C   UNK d   0      10.163  23.404  -3.461  0.00  0.00    -0.022 A 
ATOM     15  C   UNK d   0       9.987  21.646  -4.794  0.00  0.00     0.042 A 
ATOM     16  H   UNK d   0      12.133  21.227  -5.034  0.00  0.00     0.166 HD
ATOM     17  C   UNK d   0       9.304  20.667  -5.543  0.00  0.00     0.062 C 
ATOM     18  C   UNK d   0       9.238  22.606  -4.086  0.00  0.00    -0.013 A 
ATOM     19  C   UNK d   0       9.562  20.216  -6.812  0.00  0.00     0.067 A 
ATOM     20  N   UNK d   0      10.719  20.589  -7.363  0.00  0.00    -0.248 NA
ATOM     21  C   UNK d   0       8.866  19.398  -7.791  0.00  0.00    -0.011 A 
ATOM     22  C   UNK d   0      10.830  20.076  -8.632  0.00  0.00     0.066 A 
ATOM     23  C   UNK d   0      12.008  20.357  -9.309  0.00  0.00     0.062 C 
ATOM     24  C   UNK d   0       9.612  19.324  -8.856  0.00  0.00    -0.020 A 
ATOM     25  C   UNK d   0      13.142  21.026  -8.823  0.00  0.00     0.041 A 
ATOM     26  N   UNK d   0      13.268  22.100  -8.034  0.00  0.00    -0.355 N 
ATOM     27  C   UNK d   0      14.418  20.531  -9.169  0.00  0.00    -0.022 A 
ATOM     28  C   UNK d   0      14.584  22.304  -7.861  0.00  0.00     0.042 A 
ATOM     29  H   UNK d   0      12.437  22.724  -7.623  0.00  0.00     0.166 HD
ATOM     30  C   UNK d   0      15.278  23.278  -7.127  0.00  0.00     0.062 C 
ATOM     31  C   UNK d   0      15.336  21.333  -8.564  0.00  0.00    -0.013 A 
ATOM     32  C   UNK d   0      14.964  23.793  -5.879  0.00  0.00     0.066 A 
BRANCH   8  33
ATOM     33  C   UNK d   0      15.091  25.666  -2.718  0.00  0.00     0.151 C 
BRANCH  33  34
ATOM     34  C   UNK d   0      14.766  27.086  -2.941  0.00  0.00     0.143 C 
ATOM     35  O   UNK d   0      15.608  27.972  -2.736  0.00  0.00    -0.650 OA
BRANCH  34  36
ATOM     36  O   UNK d   0      13.508  27.430  -3.381  0.00  0.00    -0.776 OA
ATOM     37  H   UNK d   0      12.891  26.738  -3.827  0.00  0.00     0.167 HD
ENDBRANCH  34  36
ENDBRANCH  33  34
ENDBRANCH   8  33
BRANCH  31  38
ATOM     38  C   UNK d   0      16.838  21.181  -8.636  0.00  0.00     0.151 C 
BRANCH  38  39
ATOM     39  C   UNK d   0      17.466  22.199  -9.451  0.00  0.00     0.143 C 
ATOM     40  O   UNK d   0      18.128  21.923 -10.468  0.00  0.00    -0.650 OA
BRANCH  39  41
ATOM     41  O   UNK d   0      17.333  23.541  -9.097  0.00  0.00    -0.776 OA
ATOM     42  H   UNK d   0      16.433  23.985  -9.301  0.00  0.00     0.167 HD
ENDBRANCH  39  41
ENDBRANCH  38  39
ENDBRANCH  31  38
BRANCH  27  43
ATOM     43  C   UNK d   0      14.786  19.353 -10.036  0.00  0.00     0.052 C 
BRANCH  43  44
ATOM     44  C   UNK d   0      14.878  18.068  -9.278  0.00  0.00     0.115 C 
BRANCH  44  45
ATOM     45  C   UNK d   0      13.958  17.113  -9.948  0.00  0.00     0.139 C 
ATOM     46  O   UNK d   0      12.854  16.871  -9.401  0.00  0.00    -0.650 OA
BRANCH  45  47
ATOM     47  O   UNK d   0      14.264  16.492 -11.140  0.00  0.00    -0.776 OA
ATOM     48  H   UNK d   0      15.195  16.092 -11.340  0.00  0.00     0.167 HD
ENDBRANCH  45  47
ENDBRANCH  44  45
ENDBRANCH  43  44
ENDBRANCH  27  43
BRANCH  24  49
ATOM     49  C   UNK d   0       9.306  18.562 -10.079  0.00  0.00     0.052 C 
BRANCH  49  50
ATOM     50  C   UNK d   0       8.013  19.041 -10.687  0.00  0.00     0.115 C 
BRANCH  50  51
ATOM     51  C   UNK d   0       8.035  20.330 -11.365  0.00  0.00     0.139 C 
ATOM     52  O   UNK d   0       9.006  21.119 -11.287  0.00  0.00    -0.650 OA
BRANCH  51  53
ATOM     53  O   UNK d   0       6.947  20.721 -12.131  0.00  0.00    -0.776 OA
ATOM     54  H   UNK d   0       6.271  20.023 -12.387  0.00  0.00     0.167 HD
ENDBRANCH  51  53
ENDBRANCH  50  51
ENDBRANCH  49  50
ENDBRANCH  24  49
BRANCH  21  55
ATOM     55  C   UNK d   0       7.530  18.773  -7.560  0.00  0.00     0.151 C 
BRANCH  55  56
ATOM     56  C   UNK d   0       6.855  19.336  -6.381  0.00  0.00     0.143 C 
ATOM     57  O   UNK d   0       6.079  20.310  -6.448  0.00  0.00    -0.650 OA
BRANCH  56  58
ATOM     58  O   UNK d   0       7.105  18.742  -5.144  0.00  0.00    -0.776 OA
ATOM     59  H   UNK d   0       7.658  19.321  -4.487  0.00  0.00     0.167 HD
ENDBRANCH  56  58
ENDBRANCH  55  56
ENDBRANCH  21  55
BRANCH  18  60
ATOM     60  C   UNK d   0       7.742  22.779  -3.994  0.00  0.00     0.151 C 
BRANCH  60  61
ATOM     61  C   UNK d   0       7.243  21.601  -3.268  0.00  0.00     0.143 C 
ATOM     62  O   UNK d   0       7.815  20.987  -2.367  0.00  0.00    -0.650 OA
BRANCH  61  63
ATOM     63  O   UNK d   0       5.965  21.143  -3.669  0.00  0.00    -0.776 OA
ATOM     64  H   UNK d   0       5.596  21.366  -4.576  0.00  0.00     0.167 HD
ENDBRANCH  61  63
ENDBRANCH  60  61
ENDBRANCH  18  60
BRANCH  14  65
ATOM     65  C   UNK d   0       9.758  24.498  -2.514  0.00  0.00     0.052 C 
BRANCH  65  66
ATOM     66  C   UNK d   0      10.268  25.836  -2.917  0.00  0.00     0.115 C 
BRANCH  66  67
ATOM     67  C   UNK d   0      10.337  26.893  -1.949  0.00  0.00     0.139 C 
ATOM     68  O   UNK d   0      11.480  27.179  -1.432  0.00  0.00    -0.650 OA
BRANCH  67  69
ATOM     69  O   UNK d   0       9.292  27.683  -1.472  0.00  0.00    -0.776 OA
ATOM     70  H   UNK d   0       8.568  27.190  -0.930  0.00  0.00     0.167 HD
ENDBRANCH  67  69
ENDBRANCH  66  67
ENDBRANCH  65  66
ENDBRANCH  14  65
ENDBRANCH   6   7
ENDBRANCH   5   6
ENDBRANCH   2   5
TORSDOF 28
ENDMDL
MODEL 3
REMARK VINA RESULT:      -9.1      2.020      8.398
REMARK  28 active torsions:
REMARK  status: ('A' for Active; 'I' for Inactive)
REMARK    1  A    between atoms: C_2  and  O_3 
REMARK    2  A    between atoms: C_2  and  C_4 
REMARK    3  A    between atoms: C_4  and  C_5 
REMARK    4  A    between atoms: C_5  and  C_6 
REMARK    5  A    between atoms: C_7  and  C_8 
REMARK    6  A    between atoms: C_8  and  C_9 
REMARK    7  A    between atoms: C_9  and  O_11 
REMARK    8  A    between atoms: C_28  and  C_29 
REMARK    9  A    between atoms: C_29  and  C_30 
REMARK   10  A    between atoms: C_30  and  O_32 
REMARK   11  A    between atoms: C_33  and  C_34 
REMARK   12  A    between atoms: C_34  and  C_35 
REMARK   13  A    between atoms: C_35  and  C_36 
REMARK   14  A    between atoms: C_36  and  O_38 
REMARK   15  A    between atoms: C_39  and  C_40 
REMARK   16  A    between atoms: C_40  and  C_41 
REMARK   17  A    between atoms: C_41  and  C_42 
REMARK   18  A    between atoms: C_42  and  O_44 
REMARK   19  A    between atoms: C_45  and  C_46 
REMARK   20  A    between atoms: C_46  and  C_47 
REMARK   21  A    between atoms: C_47  and  O_49 
REMARK   22  A    between atoms: C_50  and  C_51 
REMARK   23  A    between atoms: C_51  and  C_52 
REMARK   24  A    between atoms: C_52  and  O_54 
REMARK   25  A    between atoms: C_55  and  C_56 
REMARK   26  A    between atoms: C_56  and  C_57 
REMARK   27  A    between atoms: C_57  and  C_58 
REMARK   28  A    between atoms: C_58  and  O_60 
ROOT
ATOM      1  O   UNK d   0       7.662  20.702  -2.715  0.00  0.00    -0.650 OA
ATOM      2  C   UNK d   0       8.274  21.629  -3.292  0.00  0.00     0.139 C 
ENDROOT
BRANCH   2   3
ATOM      3  O   UNK d   0       7.835  22.063  -4.520  0.00  0.00    -0.776 OA
ATOM      4  H   UNK d   0       8.117  22.974  -4.888  0.00  0.00     0.167 HD
ENDBRANCH   2   3
BRANCH   2   5
ATOM      5  C   UNK d   0       9.466  22.251  -2.650  0.00  0.00     0.115 C 
BRANCH   5   6
ATOM      6  C   UNK d   0       9.471  23.735  -2.898  0.00  0.00     0.052 C 
BRANCH   6   7
ATOM      7  C   UNK d   0      10.764  24.217  -3.511  0.00  0.00    -0.020 A 
ATOM      8  C   UNK d   0      11.441  25.294  -3.204  0.00  0.00    -0.011 A 
ATOM      9  C   UNK d   0      12.610  25.346  -4.065  0.00  0.00     0.067 A 
ATOM     10  C   UNK d   0      13.712  26.200  -4.226  0.00  0.00     0.062 C 
ATOM     11  N   UNK d   0      12.563  24.263  -4.870  0.00  0.00    -0.248 NA
ATOM     12  C   UNK d   0      14.894  25.935  -4.927  0.00  0.00     0.041 A 
ATOM     13  N   UNK d   0      15.105  25.348  -6.121  0.00  0.00    -0.355 N 
ATOM     14  C   UNK d   0      16.126  26.258  -4.330  0.00  0.00    -0.022 A 
ATOM     15  C   UNK d   0      16.439  25.283  -6.292  0.00  0.00     0.042 A 
ATOM     16  H   UNK d   0      14.326  25.005  -6.836  0.00  0.00     0.166 HD
ATOM     17  C   UNK d   0      17.198  24.768  -7.362  0.00  0.00     0.062 C 
ATOM     18  C   UNK d   0      17.112  25.844  -5.190  0.00  0.00    -0.013 A 
ATOM     19  C   UNK d   0      17.034  23.591  -8.047  0.00  0.00     0.067 A 
ATOM     20  N   UNK d   0      15.902  22.917  -7.828  0.00  0.00    -0.248 NA
ATOM     21  C   UNK d   0      17.815  22.820  -9.000  0.00  0.00    -0.011 A 
ATOM     22  C   UNK d   0      15.887  21.759  -8.568  0.00  0.00     0.066 A 
ATOM     23  C   UNK d   0      14.746  20.977  -8.464  0.00  0.00     0.062 C 
ATOM     24  C   UNK d   0      17.140  21.747  -9.297  0.00  0.00    -0.020 A 
ATOM     25  C   UNK d   0      13.564  21.267  -7.765  0.00  0.00     0.041 A 
ATOM     26  N   UNK d   0      13.356  21.836  -6.572  0.00  0.00    -0.355 N 
ATOM     27  C   UNK d   0      12.328  20.946  -8.367  0.00  0.00    -0.022 A 
ATOM     28  C   UNK d   0      12.026  21.895  -6.395  0.00  0.00     0.042 A 
ATOM     29  H   UNK d   0      14.140  22.172  -5.850  0.00  0.00     0.166 HD
ATOM     30  C   UNK d   0      11.258  22.396  -5.332  0.00  0.00     0.062 C 
ATOM     31  C   UNK d   0      11.350  21.341  -7.508  0.00  0.00    -0.013 A 
ATOM     32  C   UNK d   0      11.477  23.543  -4.586  0.00  0.00     0.066 A 
BRANCH   8  33
ATOM     33  C   UNK d   0      11.094  26.294  -2.177  0.00  0.00     0.151 C 
BRANCH  33  34
ATOM     34  C   UNK d   0       9.934  27.120  -2.553  0.00  0.00     0.143 C 
ATOM     35  O   UNK d   0       8.831  26.952  -2.013  0.00  0.00    -0.650 OA
BRANCH  34  36
ATOM     36  O   UNK d   0      10.079  28.090  -3.518  0.00  0.00    -0.776 OA
ATOM     37  H   UNK d   0      10.962  28.607  -3.627  0.00  0.00     0.167 HD
ENDBRANCH  34  36
ENDBRANCH  33  34
ENDBRANCH   8  33
BRANCH  31  38
ATOM     38  C   UNK d   0       9.861  21.213  -7.732  0.00  0.00     0.151 C 
BRANCH  38  39
ATOM     39  C   UNK d   0       9.309  20.002  -7.163  0.00  0.00     0.143 C 
ATOM     40  O   UNK d   0       8.723  19.150  -7.853  0.00  0.00    -0.650 OA
BRANCH  39  41
ATOM     41  O   UNK d   0       9.432  19.769  -5.794  0.00  0.00    -0.776 OA
ATOM     42  H   UNK d   0       9.554  20.592  -5.195  0.00  0.00     0.167 HD
ENDBRANCH  39  41
ENDBRANCH  38  39
ENDBRANCH  31  38
BRANCH  27  43
ATOM     43  C   UNK d   0      12.051  20.293  -9.698  0.00  0.00     0.052 C 
BRANCH  43  44
ATOM     44  C   UNK d   0      11.691  18.847  -9.583  0.00  0.00     0.115 C 
BRANCH  44  45
ATOM     45  C   UNK d   0      12.929  18.077  -9.871  0.00  0.00     0.139 C 
ATOM     46  O   UNK d   0      13.096  16.981  -9.281  0.00  0.00    -0.650 OA
BRANCH  45  47
ATOM     47  O   UNK d   0      13.890  18.513 -10.758  0.00  0.00    -0.776 OA
ATOM     48  H   UNK d   0      14.813  18.058 -10.852  0.00  0.00     0.167 HD
ENDBRANCH  45  47
ENDBRANCH  44  45
ENDBRANCH  43  44
ENDBRANCH  27  43
BRANCH  24  49
ATOM     49  C   UNK d   0      17.544  20.704 -10.256  0.00  0.00     0.052 C 
BRANCH  49  50
ATOM     50  C   UNK d   0      17.529  19.350  -9.596  0.00  0.00     0.115 C 
BRANCH  50  51
ATOM     51  C   UNK d   0      17.842  18.199 -10.432  0.00  0.00     0.139 C 
ATOM     52  O   UNK d   0      19.017  17.825 -10.655  0.00  0.00    -0.650 OA
BRANCH  51  53
ATOM     53  O   UNK d   0      16.814  17.475 -11.016  0.00  0.00    -0.776 OA
ATOM     54  H   UNK d   0      16.552  16.599 -10.599  0.00  0.00     0.167 HD
ENDBRANCH  51  53
ENDBRANCH  50  51
ENDBRANCH  49  50
ENDBRANCH  24  49
BRANCH  21  55
ATOM     55  C   UNK d   0      19.151  23.237  -9.516  0.00  0.00     0.151 C 
BRANCH  55  56
ATOM     56  C   UNK d   0      19.041  24.251 -10.577  0.00  0.00     0.143 C 
ATOM     57  O   UNK d   0      19.079  23.966 -11.790  0.00  0.00    -0.650 OA
BRANCH  56  58
ATOM     58  O   UNK d   0      18.886  25.581 -10.190  0.00  0.00    -0.776 OA
ATOM     59  H   UNK d   0      18.254  25.730  -9.383  0.00  0.00     0.167 HD
ENDBRANCH  56  58
ENDBRANCH  55  56
ENDBRANCH  21  55
BRANCH  18  60
ATOM     60  C   UNK d   0      18.593  25.987  -4.941  0.00  0.00     0.151 C 
BRANCH  60  61
ATOM     61  C   UNK d   0      19.055  27.049  -5.848  0.00  0.00     0.143 C 
ATOM     62  O   UNK d   0      18.355  27.835  -6.487  0.00  0.00    -0.650 OA
BRANCH  61  63
ATOM     63  O   UNK d   0      20.460  27.157  -5.983  0.00  0.00    -0.776 OA
ATOM     64  H   UNK d   0      21.053  26.352  -5.891  0.00  0.00     0.167 HD
ENDBRANCH  61  63
ENDBRANCH  60  61
ENDBRANCH  18  60
BRANCH  14  65
ATOM     65  C   UNK d   0      16.437  27.009  -3.066  0.00  0.00     0.052 C 
BRANCH  65  66
ATOM     66  C   UNK d   0      16.163  26.218  -1.837  0.00  0.00     0.115 C 
BRANCH  66  67
ATOM     67  C   UNK d   0      17.026  26.352  -0.697  0.00  0.00     0.139 C 
ATOM     68  O   UNK d   0      17.813  27.367  -0.639  0.00  0.00    -0.650 OA
BRANCH  67  69
ATOM     69  O   UNK d   0      17.131  25.496   0.399  0.00  0.00    -0.776 OA
ATOM     70  H   UNK d   0      16.244  25.112   0.754  0.00  0.00     0.167 HD
ENDBRANCH  67  69
ENDBRANCH  66  67
ENDBRANCH  65  66
ENDBRANCH  14  65
ENDBRANCH   6   7
ENDBRANCH   5   6
ENDBRANCH   2   5
TORSDOF 28
ENDMDL
MODEL 4
REMARK VINA RESULT:      -8.9      1.455      7.516
REMARK  28 active torsions:
REMARK  status: ('A' for Active; 'I' for Inactive)
REMARK    1  A    between atoms: C_2  and  O_3 
REMARK    2  A    between atoms: C_2  and  C_4 
REMARK    3  A    between atoms: C_4  and  C_5 
REMARK    4  A    between atoms: C_5  and  C_6 
REMARK    5  A    between atoms: C_7  and  C_8 
REMARK    6  A    between atoms: C_8  and  C_9 
REMARK    7  A    between atoms: C_9  and  O_11 
REMARK    8  A    between atoms: C_28  and  C_29 
REMARK    9  A    between atoms: C_29  and  C_30 
REMARK   10  A    between atoms: C_30  and  O_32 
REMARK   11  A    between atoms: C_33  and  C_34 
REMARK   12  A    between atoms: C_34  and  C_35 
REMARK   13  A    between atoms: C_35  and  C_36 
REMARK   14  A    between atoms: C_36  and  O_38 
REMARK   15  A    between atoms: C_39  and  C_40 
REMARK   16  A    between atoms: C_40  and  C_41 
REMARK   17  A    between atoms: C_41  and  C_42 
REMARK   18  A    between atoms: C_42  and  O_44 
REMARK   19  A    between atoms: C_45  and  C_46 
REMARK   20  A    between atoms: C_46  and  C_47 
REMARK   21  A    between atoms: C_47  and  O_49 
REMARK   22  A    between atoms: C_50  and  C_51 
REMARK   23  A    between atoms: C_51  and  C_52 
REMARK   24  A    between atoms: C_52  and  O_54 
REMARK   25  A    between atoms: C_55  and  C_56 
REMARK   26  A    between atoms: C_56  and  C_57 
REMARK   27  A    between atoms: C_57  and  C_58 
REMARK   28  A    between atoms: C_58  and  O_60 
ROOT
ATOM      1  O   UNK d   0      14.745  29.300  -1.474  0.00  0.00    -0.650 OA
ATOM      2  C   UNK d   0      15.320  28.223  -1.750  0.00  0.00     0.139 C 
ENDROOT
BRANCH   2   3
ATOM      3  O   UNK d   0      16.134  27.635  -0.812  0.00  0.00    -0.776 OA
ATOM      4  H   UNK d   0      17.149  27.621  -0.929  0.00  0.00     0.167 HD
ENDBRANCH   2   3
BRANCH   2   5
ATOM      5  C   UNK d   0      15.123  27.590  -3.084  0.00  0.00     0.115 C 
BRANCH   5   6
ATOM      6  C   UNK d   0      13.712  27.811  -3.559  0.00  0.00     0.052 C 
BRANCH   6   7
ATOM      7  C   UNK d   0      12.978  26.519  -3.824  0.00  0.00    -0.020 A 
ATOM      8  C   UNK d   0      11.972  26.020  -3.152  0.00  0.00    -0.011 A 
ATOM      9  C   UNK d   0      11.606  24.757  -3.772  0.00  0.00     0.067 A 
ATOM     10  C   UNK d   0      10.631  23.770  -3.559  0.00  0.00     0.062 C 
ATOM     11  N   UNK d   0      12.445  24.562  -4.810  0.00  0.00    -0.248 NA
ATOM     12  C   UNK d   0      10.253  22.749  -4.437  0.00  0.00     0.041 A 
ATOM     13  N   UNK d   0      10.989  21.933  -5.217  0.00  0.00    -0.355 N 
ATOM     14  C   UNK d   0       8.884  22.499  -4.642  0.00  0.00    -0.022 A 
ATOM     15  C   UNK d   0      10.121  21.178  -5.917  0.00  0.00     0.042 A 
ATOM     16  H   UNK d   0      12.099  21.879  -5.257  0.00  0.00     0.166 HD
ATOM     17  C   UNK d   0      10.353  20.167  -6.871  0.00  0.00     0.062 C 
ATOM     18  C   UNK d   0       8.792  21.504  -5.584  0.00  0.00    -0.013 A 
ATOM     19  C   UNK d   0      11.236  20.159  -7.921  0.00  0.00     0.067 A 
ATOM     20  N   UNK d   0      12.144  21.137  -7.955  0.00  0.00    -0.248 NA
ATOM     21  C   UNK d   0      11.457  19.328  -9.092  0.00  0.00    -0.011 A 
ATOM     22  C   UNK d   0      12.943  21.006  -9.065  0.00  0.00     0.066 A 
ATOM     23  C   UNK d   0      13.960  21.940  -9.205  0.00  0.00     0.062 C 
ATOM     24  C   UNK d   0      12.455  19.831  -9.760  0.00  0.00    -0.020 A 
ATOM     25  C   UNK d   0      14.331  22.950  -8.305  0.00  0.00     0.041 A 
ATOM     26  N   UNK d   0      13.600  23.771  -7.541  0.00  0.00    -0.355 N 
ATOM     27  C   UNK d   0      15.705  23.197  -8.096  0.00  0.00    -0.022 A 
ATOM     28  C   UNK d   0      14.463  24.531  -6.848  0.00  0.00     0.042 A 
ATOM     29  H   UNK d   0      12.484  23.831  -7.509  0.00  0.00     0.166 HD
ATOM     30  C   UNK d   0      14.246  25.546  -5.903  0.00  0.00     0.062 C 
ATOM     31  C   UNK d   0      15.798  24.195  -7.176  0.00  0.00    -0.013 A 
ATOM     32  C   UNK d   0      13.295  25.587  -4.896  0.00  0.00     0.066 A 
BRANCH   8  33
ATOM     33  C   UNK d   0      11.315  26.612  -1.972  0.00  0.00     0.151 C 
BRANCH  33  34
ATOM     34  C   UNK d   0       9.887  26.900  -2.199  0.00  0.00     0.143 C 
ATOM     35  O   UNK d   0       9.020  26.468  -1.426  0.00  0.00    -0.650 OA
BRANCH  34  36
ATOM     36  O   UNK d   0       9.515  27.658  -3.285  0.00  0.00    -0.776 OA
ATOM     37  H   UNK d   0       8.899  28.476  -3.180  0.00  0.00     0.167 HD
ENDBRANCH  34  36
ENDBRANCH  33  34
ENDBRANCH   8  33
BRANCH  31  38
ATOM     38  C   UNK d   0      17.075  24.788  -6.629  0.00  0.00     0.151 C 
BRANCH  38  39
ATOM     39  C   UNK d   0      17.470  26.001  -7.313  0.00  0.00     0.143 C 
ATOM     40  O   UNK d   0      17.137  27.130  -6.911  0.00  0.00    -0.650 OA
BRANCH  39  41
ATOM     41  O   UNK d   0      18.252  25.915  -8.464  0.00  0.00    -0.776 OA
ATOM     42  H   UNK d   0      18.566  24.980  -8.741  0.00  0.00     0.167 HD
ENDBRANCH  39  41
ENDBRANCH  38  39
ENDBRANCH  31  38
BRANCH  27  43
ATOM     43  C   UNK d   0      16.904  22.535  -8.728  0.00  0.00     0.052 C 
BRANCH  43  44
ATOM     44  C   UNK d   0      16.734  21.063  -8.920  0.00  0.00     0.115 C 
BRANCH  44  45
ATOM     45  C   UNK d   0      17.916  20.595  -9.688  0.00  0.00     0.139 C 
ATOM     46  O   UNK d   0      18.708  21.459 -10.141  0.00  0.00    -0.650 OA
BRANCH  45  47
ATOM     47  O   UNK d   0      18.179  19.262  -9.918  0.00  0.00    -0.776 OA
ATOM     48  H   UNK d   0      18.060  18.535  -9.194  0.00  0.00     0.167 HD
ENDBRANCH  45  47
ENDBRANCH  44  45
ENDBRANCH  43  44
ENDBRANCH  27  43
BRANCH  24  49
ATOM     49  C   UNK d   0      13.040  19.281 -10.995  0.00  0.00     0.052 C 
BRANCH  49  50
ATOM     50  C   UNK d   0      13.524  17.873 -10.763  0.00  0.00     0.115 C 
BRANCH  50  51
ATOM     51  C   UNK d   0      14.801  17.712 -10.082  0.00  0.00     0.139 C 
ATOM     52  O   UNK d   0      14.903  17.694  -8.832  0.00  0.00    -0.650 OA
BRANCH  51  53
ATOM     53  O   UNK d   0      15.964  17.575 -10.825  0.00  0.00    -0.776 OA
ATOM     54  H   UNK d   0      16.094  18.177 -11.619  0.00  0.00     0.167 HD
ENDBRANCH  51  53
ENDBRANCH  50  51
ENDBRANCH  49  50
ENDBRANCH  24  49
BRANCH  21  55
ATOM     55  C   UNK d   0      10.652  18.114  -9.420  0.00  0.00     0.151 C 
BRANCH  55  56
ATOM     56  C   UNK d   0       9.210  18.402  -9.454  0.00  0.00     0.143 C 
ATOM     57  O   UNK d   0       8.651  18.936 -10.432  0.00  0.00    -0.650 OA
BRANCH  56  58
ATOM     58  O   UNK d   0       8.452  18.057  -8.336  0.00  0.00    -0.776 OA
ATOM     59  H   UNK d   0       7.595  18.622  -8.198  0.00  0.00     0.167 HD
ENDBRANCH  56  58
ENDBRANCH  55  56
ENDBRANCH  21  55
BRANCH  18  60
ATOM     60  C   UNK d   0       7.501  20.929  -6.110  0.00  0.00     0.151 C 
BRANCH  60  61
ATOM     61  C   UNK d   0       7.142  19.836  -5.193  0.00  0.00     0.143 C 
ATOM     62  O   UNK d   0       7.077  19.889  -3.965  0.00  0.00    -0.650 OA
BRANCH  61  63
ATOM     63  O   UNK d   0       6.843  18.601  -5.816  0.00  0.00    -0.776 OA
ATOM     64  H   UNK d   0       7.272  17.747  -5.506  0.00  0.00     0.167 HD
ENDBRANCH  61  63
ENDBRANCH  60  61
ENDBRANCH  18  60
BRANCH  14  65
ATOM     65  C   UNK d   0       7.672  23.054  -3.951  0.00  0.00     0.052 C 
BRANCH  65  66
ATOM     66  C   UNK d   0       6.755  23.775  -4.874  0.00  0.00     0.115 C 
BRANCH  66  67
ATOM     67  C   UNK d   0       7.125  25.067  -5.380  0.00  0.00     0.139 C 
ATOM     68  O   UNK d   0       7.269  26.034  -4.546  0.00  0.00    -0.650 OA
BRANCH  67  69
ATOM     69  O   UNK d   0       7.358  25.429  -6.706  0.00  0.00    -0.776 OA
ATOM     70  H   UNK d   0       7.151  24.706  -7.411  0.00  0.00     0.167 HD
ENDBRANCH  67  69
ENDBRANCH  66  67
ENDBRANCH  65  66
ENDBRANCH  14  65
ENDBRANCH   6   7
ENDBRANCH   5   6
ENDBRANCH   2   5
TORSDOF 28
ENDMDL
MODEL 5
REMARK VINA RESULT:      -8.8      1.809     10.049
REMARK  28 active torsions:
REMARK  status: ('A' for Active; 'I' for Inactive)
REMARK    1  A    between atoms: C_2  and  O_3 
REMARK    2  A    between atoms: C_2  and  C_4 
REMARK    3  A    between atoms: C_4  and  C_5 
REMARK    4  A    between atoms: C_5  and  C_6 
REMARK    5  A    between atoms: C_7  and  C_8 
REMARK    6  A    between atoms: C_8  and  C_9 
REMARK    7  A    between atoms: C_9  and  O_11 
REMARK    8  A    between atoms: C_28  and  C_29 
REMARK    9  A    between atoms: C_29  and  C_30 
REMARK   10  A    between atoms: C_30  and  O_32 
REMARK   11  A    between atoms: C_33  and  C_34 
REMARK   12  A    between atoms: C_34  and  C_35 
REMARK   13  A    between atoms: C_35  and  C_36 
REMARK   14  A    between atoms: C_36  and  O_38 
REMARK   15  A    between atoms: C_39  and  C_40 
REMARK   16  A    between atoms: C_40  and  C_41 
REMARK   17  A    between atoms: C_41  and  C_42 
REMARK   18  A    between atoms: C_42  and  O_44 
REMARK   19  A    between atoms: C_45  and  C_46 
REMARK   20  A    between atoms: C_46  and  C_47 
REMARK   21  A    between atoms: C_47  and  O_49 
REMARK   22  A    between atoms: C_50  and  C_51 
REMARK   23  A    between atoms: C_51  and  C_52 
REMARK   24  A    between atoms: C_52  and  O_54 
REMARK   25  A    between atoms: C_55  and  C_56 
REMARK   26  A    between atoms: C_56  and  C_57 
REMARK   27  A    between atoms: C_57  and  C_58 
REMARK   28  A    between atoms: C_58  and  O_60 
ROOT
ATOM      1  O   UNK d   0      13.697  15.878 -11.243  0.00  0.00    -0.650 OA
ATOM      2  C   UNK d   0      14.624  16.556 -10.748  0.00  0.00     0.139 C 
ENDROOT
BRANCH   2   3
ATOM      3  O   UNK d   0      15.911  16.359 -11.187  0.00  0.00    -0.776 OA
ATOM      4  H   UNK d   0      16.100  15.867 -12.062  0.00  0.00     0.167 HD
ENDBRANCH   2   3
BRANCH   2   5
ATOM      5  C   UNK d   0      14.331  17.566  -9.692  0.00  0.00     0.115 C 
BRANCH   5   6
ATOM      6  C   UNK d   0      13.935  18.874 -10.323  0.00  0.00     0.052 C 
BRANCH   6   7
ATOM      7  C   UNK d   0      13.115  19.741  -9.397  0.00  0.00    -0.020 A 
ATOM      8  C   UNK d   0      11.833  19.655  -9.150  0.00  0.00    -0.011 A 
ATOM      9  C   UNK d   0      11.491  20.704  -8.204  0.00  0.00     0.067 A 
ATOM     10  C   UNK d   0      10.330  21.129  -7.540  0.00  0.00     0.062 C 
ATOM     11  N   UNK d   0      12.624  21.384  -7.933  0.00  0.00    -0.248 NA
ATOM     12  C   UNK d   0      10.250  21.993  -6.442  0.00  0.00     0.041 A 
ATOM     13  N   UNK d   0      10.893  23.145  -6.172  0.00  0.00    -0.355 N 
ATOM     14  C   UNK d   0       9.416  21.647  -5.363  0.00  0.00    -0.022 A 
ATOM     15  C   UNK d   0      10.495  23.534  -4.946  0.00  0.00     0.042 A 
ATOM     16  H   UNK d   0      11.599  23.682  -6.842  0.00  0.00     0.166 HD
ATOM     17  C   UNK d   0      10.855  24.664  -4.185  0.00  0.00     0.062 C 
ATOM     18  C   UNK d   0       9.569  22.620  -4.407  0.00  0.00    -0.013 A 
ATOM     19  C   UNK d   0      12.099  25.199  -3.970  0.00  0.00     0.067 A 
ATOM     20  N   UNK d   0      13.097  24.729  -4.723  0.00  0.00    -0.248 NA
ATOM     21  C   UNK d   0      12.669  26.194  -3.077  0.00  0.00    -0.011 A 
ATOM     22  C   UNK d   0      14.279  25.343  -4.386  0.00  0.00     0.066 A 
ATOM     23  C   UNK d   0      15.396  24.974  -5.120  0.00  0.00     0.062 C 
ATOM     24  C   UNK d   0      13.945  26.271  -3.323  0.00  0.00    -0.020 A 
ATOM     25  C   UNK d   0      15.453  24.114  -6.227  0.00  0.00     0.041 A 
ATOM     26  N   UNK d   0      14.825  22.962  -6.490  0.00  0.00    -0.355 N 
ATOM     27  C   UNK d   0      16.287  24.465  -7.312  0.00  0.00    -0.022 A 
ATOM     28  C   UNK d   0      15.227  22.567  -7.708  0.00  0.00     0.042 A 
ATOM     29  H   UNK d   0      14.124  22.418  -5.811  0.00  0.00     0.166 HD
ATOM     30  C   UNK d   0      14.885  21.441  -8.473  0.00  0.00     0.062 C 
ATOM     31  C   UNK d   0      16.149  23.491  -8.253  0.00  0.00    -0.013 A 
ATOM     32  C   UNK d   0      13.638  20.854  -8.619  0.00  0.00     0.066 A 
BRANCH   8  33
ATOM     33  C   UNK d   0      10.884  18.682  -9.723  0.00  0.00     0.151 C 
BRANCH  33  34
ATOM     34  C   UNK d   0       9.494  19.172  -9.722  0.00  0.00     0.143 C 
ATOM     35  O   UNK d   0       9.143  20.090 -10.477  0.00  0.00    -0.650 OA
BRANCH  34  36
ATOM     36  O   UNK d   0       8.577  18.601  -8.871  0.00  0.00    -0.776 OA
ATOM     37  H   UNK d   0       7.595  18.908  -8.859  0.00  0.00     0.167 HD
ENDBRANCH  34  36
ENDBRANCH  33  34
ENDBRANCH   8  33
BRANCH  31  38
ATOM     38  C   UNK d   0      16.841  23.446  -9.596  0.00  0.00     0.151 C 
BRANCH  38  39
ATOM     39  C   UNK d   0      18.122  22.776  -9.546  0.00  0.00     0.143 C 
ATOM     40  O   UNK d   0      19.189  23.391  -9.376  0.00  0.00    -0.650 OA
BRANCH  39  41
ATOM     41  O   UNK d   0      18.178  21.390  -9.690  0.00  0.00    -0.776 OA
ATOM     42  H   UNK d   0      18.425  20.848  -8.856  0.00  0.00     0.167 HD
ENDBRANCH  39  41
ENDBRANCH  38  39
ENDBRANCH  31  38
BRANCH  27  43
ATOM     43  C   UNK d   0      17.189  25.662  -7.479  0.00  0.00     0.052 C 
BRANCH  43  44
ATOM     44  C   UNK d   0      18.428  25.588  -6.648  0.00  0.00     0.115 C 
BRANCH  44  45
ATOM     45  C   UNK d   0      18.632  26.942  -6.070  0.00  0.00     0.139 C 
ATOM     46  O   UNK d   0      18.802  27.036  -4.829  0.00  0.00    -0.650 OA
BRANCH  45  47
ATOM     47  O   UNK d   0      18.648  28.087  -6.836  0.00  0.00    -0.776 OA
ATOM     48  H   UNK d   0      17.795  28.626  -7.057  0.00  0.00     0.167 HD
ENDBRANCH  45  47
ENDBRANCH  44  45
ENDBRANCH  43  44
ENDBRANCH  27  43
BRANCH  24  49
ATOM     49  C   UNK d   0      14.902  27.183  -2.672  0.00  0.00     0.052 C 
BRANCH  49  50
ATOM     50  C   UNK d   0      15.841  26.410  -1.783  0.00  0.00     0.115 C 
BRANCH  50  51
ATOM     51  C   UNK d   0      17.106  27.046  -1.438  0.00  0.00     0.139 C 
ATOM     52  O   UNK d   0      17.645  26.915  -0.314  0.00  0.00    -0.650 OA
BRANCH  51  53
ATOM     53  O   UNK d   0      17.754  27.835  -2.376  0.00  0.00    -0.776 OA
ATOM     54  H   UNK d   0      17.527  27.705  -3.346  0.00  0.00     0.167 HD
ENDBRANCH  51  53
ENDBRANCH  50  51
ENDBRANCH  49  50
ENDBRANCH  24  49
BRANCH  21  55
ATOM     55  C   UNK d   0      11.878  26.967  -2.075  0.00  0.00     0.151 C 
BRANCH  55  56
ATOM     56  C   UNK d   0      10.432  26.739  -2.219  0.00  0.00     0.143 C 
ATOM     57  O   UNK d   0       9.713  27.420  -2.977  0.00  0.00    -0.650 OA
BRANCH  56  58
ATOM     58  O   UNK d   0       9.859  25.714  -1.468  0.00  0.00    -0.776 OA
ATOM     59  H   UNK d   0       9.706  25.939  -0.468  0.00  0.00     0.167 HD
ENDBRANCH  56  58
ENDBRANCH  55  56
ENDBRANCH  21  55
BRANCH  18  60
ATOM     60  C   UNK d   0       8.862  22.641  -3.074  0.00  0.00     0.151 C 
BRANCH  60  61
ATOM     61  C   UNK d   0       9.678  21.814  -2.172  0.00  0.00     0.143 C 
ATOM     62  O   UNK d   0      10.905  21.710  -2.167  0.00  0.00    -0.650 OA
BRANCH  61  63
ATOM     63  O   UNK d   0       8.949  21.069  -1.214  0.00  0.00    -0.776 OA
ATOM     64  H   UNK d   0       9.223  20.134  -0.967  0.00  0.00     0.167 HD
ENDBRANCH  61  63
ENDBRANCH  60  61
ENDBRANCH  18  60
BRANCH  14  65
ATOM     65  C   UNK d   0       8.422  20.531  -5.210  0.00  0.00     0.052 C 
BRANCH  65  66
ATOM     66  C   UNK d   0       7.099  20.844  -5.813  0.00  0.00     0.115 C 
BRANCH  66  67
ATOM     67  C   UNK d   0       5.926  20.863  -4.985  0.00  0.00     0.139 C 
ATOM     68  O   UNK d   0       4.779  20.695  -5.541  0.00  0.00    -0.650 OA
BRANCH  67  69
ATOM     69  O   UNK d   0       5.859  21.048  -3.604  0.00  0.00    -0.776 OA
ATOM     70  H   UNK d   0       4.966  21.412  -3.244  0.00  0.00     0.167 HD
ENDBRANCH  67  69
ENDBRANCH  66  67
ENDBRANCH  65  66
ENDBRANCH  14  65
ENDBRANCH   6   7
ENDBRANCH   5   6
ENDBRANCH   2   5
TORSDOF 28
ENDMDL
MODEL 6
REMARK VINA RESULT:      -7.9      1.677     10.315
REMARK  28 active torsions:
REMARK  status: ('A' for Active; 'I' for Inactive)
REMARK    1  A    between atoms: C_2  and  O_3 
REMARK    2  A    between atoms: C_2  and  C_4 
REMARK    3  A    between atoms: C_4  and  C_5 
REMARK    4  A    between atoms: C_5  and  C_6 
REMARK    5  A    between atoms: C_7  and  C_8 
REMARK    6  A    between atoms: C_8  and  C_9 
REMARK    7  A    between atoms: C_9  and  O_11 
REMARK    8  A    between atoms: C_28  and  C_29 
REMARK    9  A    between atoms: C_29  and  C_30 
REMARK   10  A    between atoms: C_30  and  O_32 
REMARK   11  A    between atoms: C_33  and  C_34 
REMARK   12  A    between atoms: C_34  and  C_35 
REMARK   13  A    between atoms: C_35  and  C_36 
REMARK   14  A    between atoms: C_36  and  O_38 
REMARK   15  A    between atoms: C_39  and  C_40 
REMARK   16  A    between atoms: C_40  and  C_41 
REMARK   17  A    between atoms: C_41  and  C_42 
REMARK   18  A    between atoms: C_42  and  O_44 
REMARK   19  A    between atoms: C_45  and  C_46 
REMARK   20  A    between atoms: C_46  and  C_47 
REMARK   21  A    between atoms: C_47  and  O_49 
REMARK   22  A    between atoms: C_50  and  C_51 
REMARK   23  A    between atoms: C_51  and  C_52 
REMARK   24  A    between atoms: C_52  and  O_54 
REMARK   25  A    between atoms: C_55  and  C_56 
REMARK   26  A    between atoms: C_56  and  C_57 
REMARK   27  A    between atoms: C_57  and  C_58 
REMARK   28  A    between atoms: C_58  and  O_60 
ROOT
ATOM      1  O   UNK d   0      13.839  15.529 -11.293  0.00  0.00    -0.650 OA
ATOM      2  C   UNK d   0      14.459  16.531 -10.873  0.00  0.00     0.139 C 
ENDROOT
BRANCH   2   3
ATOM      3  O   UNK d   0      15.727  16.783 -11.338  0.00  0.00    -0.776 OA
ATOM      4  H   UNK d   0      16.530  16.783 -10.705  0.00  0.00     0.167 HD
ENDBRANCH   2   3
BRANCH   2   5
ATOM      5  C   UNK d   0      13.823  17.440  -9.877  0.00  0.00     0.115 C 
BRANCH   5   6
ATOM      6  C   UNK d   0      13.816  18.853 -10.397  0.00  0.00     0.052 C 
BRANCH   6   7
ATOM      7  C   UNK d   0      13.222  19.831  -9.412  0.00  0.00    -0.020 A 
ATOM      8  C   UNK d   0      11.974  19.922  -9.031  0.00  0.00    -0.011 A 
ATOM      9  C   UNK d   0      11.877  21.016  -8.079  0.00  0.00     0.067 A 
ATOM     10  C   UNK d   0      10.860  21.601  -7.308  0.00  0.00     0.062 C 
ATOM     11  N   UNK d   0      13.114  21.539  -7.944  0.00  0.00    -0.248 NA
ATOM     12  C   UNK d   0      11.013  22.478  -6.229  0.00  0.00     0.041 A 
ATOM     13  N   UNK d   0      11.829  23.535  -6.055  0.00  0.00    -0.355 N 
ATOM     14  C   UNK d   0      10.261  22.258  -5.061  0.00  0.00    -0.022 A 
ATOM     15  C   UNK d   0      11.619  23.986  -4.804  0.00  0.00     0.042 A 
ATOM     16  H   UNK d   0      12.526  23.965  -6.808  0.00  0.00     0.166 HD
ATOM     17  C   UNK d   0      12.206  25.065  -4.112  0.00  0.00     0.062 C 
ATOM     18  C   UNK d   0      10.643  23.211  -4.150  0.00  0.00    -0.013 A 
ATOM     19  C   UNK d   0      13.526  25.428  -4.040  0.00  0.00     0.067 A 
ATOM     20  N   UNK d   0      14.367  24.820  -4.881  0.00  0.00    -0.248 NA
ATOM     21  C   UNK d   0      14.315  26.346  -3.236  0.00  0.00    -0.011 A 
ATOM     22  C   UNK d   0      15.648  25.273  -4.684  0.00  0.00     0.066 A 
ATOM     23  C   UNK d   0      16.623  24.750  -5.521  0.00  0.00     0.062 C 
ATOM     24  C   UNK d   0      15.557  26.247  -3.614  0.00  0.00    -0.020 A 
ATOM     25  C   UNK d   0      16.446  23.879  -6.608  0.00  0.00     0.041 A 
ATOM     26  N   UNK d   0      15.646  22.820  -6.776  0.00  0.00    -0.355 N 
ATOM     27  C   UNK d   0      17.199  24.103  -7.781  0.00  0.00    -0.022 A 
ATOM     28  C   UNK d   0      15.860  22.362  -8.020  0.00  0.00     0.042 A 
ATOM     29  H   UNK d   0      14.954  22.382  -6.015  0.00  0.00     0.166 HD
ATOM     30  C   UNK d   0      15.291  21.285  -8.718  0.00  0.00     0.062 C 
ATOM     31  C   UNK d   0      16.834  23.149  -8.680  0.00  0.00    -0.013 A 
ATOM     32  C   UNK d   0      13.969  20.870  -8.719  0.00  0.00     0.066 A 
BRANCH   8  33
ATOM     33  C   UNK d   0      10.849  19.080  -9.478  0.00  0.00     0.151 C 
BRANCH  33  34
ATOM     34  C   UNK d   0       9.612  19.851  -9.700  0.00  0.00     0.143 C 
ATOM     35  O   UNK d   0       8.575  19.583  -9.077  0.00  0.00    -0.650 OA
BRANCH  34  36
ATOM     36  O   UNK d   0       9.612  20.881 -10.612  0.00  0.00    -0.776 OA
ATOM     37  H   UNK d   0      10.442  21.087 -11.185  0.00  0.00     0.167 HD
ENDBRANCH  34  36
ENDBRANCH  33  34
ENDBRANCH   8  33
BRANCH  31  38
ATOM     38  C   UNK d   0      17.366  22.997 -10.086  0.00  0.00     0.151 C 
BRANCH  38  39
ATOM     39  C   UNK d   0      18.583  22.216 -10.145  0.00  0.00     0.143 C 
ATOM     40  O   UNK d   0      19.708  22.742 -10.216  0.00  0.00    -0.650 OA
BRANCH  39  41
ATOM     41  O   UNK d   0      18.507  20.824 -10.120  0.00  0.00    -0.776 OA
ATOM     42  H   UNK d   0      18.419  20.383  -9.199  0.00  0.00     0.167 HD
ENDBRANCH  39  41
ENDBRANCH  38  39
ENDBRANCH  31  38
BRANCH  27  43
ATOM     43  C   UNK d   0      18.230  25.166  -8.070  0.00  0.00     0.052 C 
BRANCH  43  44
ATOM     44  C   UNK d   0      17.636  26.446  -8.563  0.00  0.00     0.115 C 
BRANCH  44  45
ATOM     45  C   UNK d   0      17.634  27.384  -7.410  0.00  0.00     0.139 C 
ATOM     46  O   UNK d   0      16.528  27.817  -7.001  0.00  0.00    -0.650 OA
BRANCH  45  47
ATOM     47  O   UNK d   0      18.788  27.788  -6.774  0.00  0.00    -0.776 OA
ATOM     48  H   UNK d   0      19.726  27.679  -7.191  0.00  0.00     0.167 HD
ENDBRANCH  45  47
ENDBRANCH  44  45
ENDBRANCH  43  44
ENDBRANCH  27  43
BRANCH  24  49
ATOM     49  C   UNK d   0      16.690  27.028  -3.089  0.00  0.00     0.052 C 
BRANCH  49  50
ATOM     50  C   UNK d   0      17.462  26.217  -2.080  0.00  0.00     0.115 C 
BRANCH  50  51
ATOM     51  C   UNK d   0      17.314  26.586  -0.678  0.00  0.00     0.139 C 
ATOM     52  O   UNK d   0      18.275  26.983   0.022  0.00  0.00    -0.650 OA
BRANCH  51  53
ATOM     53  O   UNK d   0      16.070  26.498  -0.073  0.00  0.00    -0.776 OA
ATOM     54  H   UNK d   0      15.311  27.027  -0.467  0.00  0.00     0.167 HD
ENDBRANCH  51  53
ENDBRANCH  50  51
ENDBRANCH  49  50
ENDBRANCH  24  49
BRANCH  21  55
ATOM     55  C   UNK d   0      13.745  27.229  -2.176  0.00  0.00     0.151 C 
BRANCH  55  56
ATOM     56  C   UNK d   0      14.331  28.578  -2.207  0.00  0.00     0.143 C 
ATOM     57  O   UNK d   0      14.772  29.146  -1.188  0.00  0.00    -0.650 OA
BRANCH  56  58
ATOM     58  O   UNK d   0      14.388  29.232  -3.436  0.00  0.00    -0.776 OA
ATOM     59  H   UNK d   0      13.556  29.805  -3.664  0.00  0.00     0.167 HD
ENDBRANCH  56  58
ENDBRANCH  55  56
ENDBRANCH  21  55
BRANCH  18  60
ATOM     60  C   UNK d   0      10.091  23.340  -2.752  0.00  0.00     0.151 C 
BRANCH  60  61
ATOM     61  C   UNK d   0       9.477  24.674  -2.681  0.00  0.00     0.143 C 
ATOM     62  O   UNK d   0       9.652  25.527  -1.810  0.00  0.00    -0.650 OA
BRANCH  61  63
ATOM     63  O   UNK d   0       8.594  24.988  -3.743  0.00  0.00    -0.776 OA
ATOM     64  H   UNK d   0       7.656  24.630  -3.759  0.00  0.00     0.167 HD
ENDBRANCH  61  63
ENDBRANCH  60  61
ENDBRANCH  18  60
BRANCH  14  65
ATOM     65  C   UNK d   0       9.149  21.288  -4.779  0.00  0.00     0.052 C 
BRANCH  65  66
ATOM     66  C   UNK d   0       7.798  21.867  -5.011  0.00  0.00     0.115 C 
BRANCH  66  67
ATOM     67  C   UNK d   0       6.723  21.016  -5.436  0.00  0.00     0.139 C 
ATOM     68  O   UNK d   0       5.589  21.114  -4.836  0.00  0.00    -0.650 OA
BRANCH  67  69
ATOM     69  O   UNK d   0       6.741  20.060  -6.451  0.00  0.00    -0.776 OA
ATOM     70  H   UNK d   0       6.142  19.236  -6.301  0.00  0.00     0.167 HD
ENDBRANCH  67  69
ENDBRANCH  66  67
ENDBRANCH  65  66
ENDBRANCH  14  65
ENDBRANCH   6   7
ENDBRANCH   5   6
ENDBRANCH   2   5
TORSDOF 28
ENDMDL
MODEL 7
REMARK VINA RESULT:      -7.0     24.829     27.816
REMARK  28 active torsions:
REMARK  status: ('A' for Active; 'I' for Inactive)
REMARK    1  A    between atoms: C_2  and  O_3 
REMARK    2  A    between atoms: C_2  and  C_4 
REMARK    3  A    between atoms: C_4  and  C_5 
REMARK    4  A    between atoms: C_5  and  C_6 
REMARK    5  A    between atoms: C_7  and  C_8 
REMARK    6  A    between atoms: C_8  and  C_9 
REMARK    7  A    between atoms: C_9  and  O_11 
REMARK    8  A    between atoms: C_28  and  C_29 
REMARK    9  A    between atoms: C_29  and  C_30 
REMARK   10  A    between atoms: C_30  and  O_32 
REMARK   11  A    between atoms: C_33  and  C_34 
REMARK   12  A    between atoms: C_34  and  C_35 
REMARK   13  A    between atoms: C_35  and  C_36 
REMARK   14  A    between atoms: C_36  and  O_38 
REMARK   15  A    between atoms: C_39  and  C_40 
REMARK   16  A    between atoms: C_40  and  C_41 
REMARK   17  A    between atoms: C_41  and  C_42 
REMARK   18  A    between atoms: C_42  and  O_44 
REMARK   19  A    between atoms: C_45  and  C_46 
REMARK   20  A    between atoms: C_46  and  C_47 
REMARK   21  A    between atoms: C_47  and  O_49 
REMARK   22  A    between atoms: C_50  and  C_51 
REMARK   23  A    between atoms: C_51  and  C_52 
REMARK   24  A    between atoms: C_52  and  O_54 
REMARK   25  A    between atoms: C_55  and  C_56 
REMARK   26  A    between atoms: C_56  and  C_57 
REMARK   27  A    between atoms: C_57  and  C_58 
REMARK   28  A    between atoms: C_58  and  O_60 
ROOT
ATOM      1  O   UNK d   0      17.421  -0.871  12.373  0.00  0.00    -0.650 OA
ATOM      2  C   UNK d   0      16.381  -0.505  11.781  0.00  0.00     0.139 C 
ENDROOT
BRANCH   2   3
ATOM      3  O   UNK d   0      15.164  -0.658  12.402  0.00  0.00    -0.776 OA
ATOM      4  H   UNK d   0      14.620  -1.516  12.291  0.00  0.00     0.167 HD
ENDBRANCH   2   3
BRANCH   2   5
ATOM      5  C   UNK d   0      16.465   0.088  10.417  0.00  0.00     0.115 C 
BRANCH   5   6
ATOM      6  C   UNK d   0      15.394  -0.490   9.533  0.00  0.00     0.052 C 
BRANCH   6   7
ATOM      7  C   UNK d   0      15.958  -1.286   8.381  0.00  0.00    -0.020 A 
ATOM      8  C   UNK d   0      16.536  -2.459   8.428  0.00  0.00    -0.011 A 
ATOM      9  C   UNK d   0      16.922  -2.819   7.074  0.00  0.00     0.067 A 
ATOM     10  C   UNK d   0      17.541  -3.917   6.455  0.00  0.00     0.062 C 
ATOM     11  N   UNK d   0      16.547  -1.805   6.267  0.00  0.00    -0.248 NA
ATOM     12  C   UNK d   0      17.580  -4.207   5.087  0.00  0.00     0.041 A 
ATOM     13  N   UNK d   0      17.792  -3.416   4.018  0.00  0.00    -0.355 N 
ATOM     14  C   UNK d   0      17.310  -5.521   4.662  0.00  0.00    -0.022 A 
ATOM     15  C   UNK d   0      17.655  -4.191   2.926  0.00  0.00     0.042 A 
ATOM     16  H   UNK d   0      18.052  -2.334   4.036  0.00  0.00     0.166 HD
ATOM     17  C   UNK d   0      17.772  -3.872   1.559  0.00  0.00     0.062 C 
ATOM     18  C   UNK d   0      17.352  -5.518   3.290  0.00  0.00    -0.013 A 
ATOM     19  C   UNK d   0      17.267  -2.794   0.878  0.00  0.00     0.067 A 
ATOM     20  N   UNK d   0      16.761  -1.799   1.612  0.00  0.00    -0.248 NA
ATOM     21  C   UNK d   0      17.110  -2.420  -0.517  0.00  0.00    -0.011 A 
ATOM     22  C   UNK d   0      16.283  -0.802   0.797  0.00  0.00     0.066 A 
ATOM     23  C   UNK d   0      15.761   0.315   1.432  0.00  0.00     0.062 C 
ATOM     24  C   UNK d   0      16.530  -1.255  -0.558  0.00  0.00    -0.020 A 
ATOM     25  C   UNK d   0      15.743   0.593   2.807  0.00  0.00     0.041 A 
ATOM     26  N   UNK d   0      15.518  -0.190   3.869  0.00  0.00    -0.355 N 
ATOM     27  C   UNK d   0      16.019   1.911   3.233  0.00  0.00    -0.022 A 
ATOM     28  C   UNK d   0      15.645   0.583   4.959  0.00  0.00     0.042 A 
ATOM     29  H   UNK d   0      15.246  -1.274   3.849  0.00  0.00     0.166 HD
ATOM     30  C   UNK d   0      15.522   0.281   6.324  0.00  0.00     0.062 C 
ATOM     31  C   UNK d   0      15.960   1.913   4.593  0.00  0.00    -0.013 A 
ATOM     32  C   UNK d   0      15.960  -0.851   6.992  0.00  0.00     0.066 A 
BRANCH   8  33
ATOM     33  C   UNK d   0      16.769  -3.283   9.628  0.00  0.00     0.151 C 
BRANCH  33  34
ATOM     34  C   UNK d   0      18.201  -3.473   9.920  0.00  0.00     0.143 C 
ATOM     35  O   UNK d   0      18.707  -4.605   9.919  0.00  0.00    -0.650 OA
BRANCH  34  36
ATOM     36  O   UNK d   0      18.985  -2.377  10.199  0.00  0.00    -0.776 OA
ATOM     37  H   UNK d   0      19.684  -2.035   9.525  0.00  0.00     0.167 HD
ENDBRANCH  34  36
ENDBRANCH  33  34
ENDBRANCH   8  33
BRANCH  31  38
ATOM     38  C   UNK d   0      16.200   3.102   5.493  0.00  0.00     0.151 C 
BRANCH  38  39
ATOM     39  C   UNK d   0      17.604   3.426   5.633  0.00  0.00     0.143 C 
ATOM     40  O   UNK d   0      18.482   2.551   5.730  0.00  0.00    -0.650 OA
BRANCH  39  41
ATOM     41  O   UNK d   0      18.001   4.763   5.661  0.00  0.00    -0.776 OA
ATOM     42  H   UNK d   0      17.504   5.405   5.036  0.00  0.00     0.167 HD
ENDBRANCH  39  41
ENDBRANCH  38  39
ENDBRANCH  31  38
BRANCH  27  43
ATOM     43  C   UNK d   0      16.327   3.139   2.412  0.00  0.00     0.052 C 
BRANCH  43  44
ATOM     44  C   UNK d   0      17.771   3.258   2.046  0.00  0.00     0.115 C 
BRANCH  44  45
ATOM     45  C   UNK d   0      18.109   4.703   2.120  0.00  0.00     0.139 C 
ATOM     46  O   UNK d   0      17.360   5.453   2.793  0.00  0.00    -0.650 OA
BRANCH  45  47
ATOM     47  O   UNK d   0      19.207   5.246   1.488  0.00  0.00    -0.776 OA
ATOM     48  H   UNK d   0      19.609   4.850   0.623  0.00  0.00     0.167 HD
ENDBRANCH  45  47
ENDBRANCH  44  45
ENDBRANCH  43  44
ENDBRANCH  27  43
BRANCH  24  49
ATOM     49  C   UNK d   0      16.213  -0.484  -1.773  0.00  0.00     0.052 C 
BRANCH  49  50
ATOM     50  C   UNK d   0      14.748  -0.604  -2.103  0.00  0.00     0.115 C 
BRANCH  50  51
ATOM     51  C   UNK d   0      14.402  -1.199  -3.387  0.00  0.00     0.139 C 
ATOM     52  O   UNK d   0      13.804  -0.565  -4.288  0.00  0.00    -0.650 OA
BRANCH  51  53
ATOM     53  O   UNK d   0      14.736  -2.521  -3.643  0.00  0.00    -0.776 OA
ATOM     54  H   UNK d   0      14.999  -2.771  -4.580  0.00  0.00     0.167 HD
ENDBRANCH  51  53
ENDBRANCH  50  51
ENDBRANCH  49  50
ENDBRANCH  24  49
BRANCH  21  55
ATOM     55  C   UNK d   0      17.560  -3.263  -1.664  0.00  0.00     0.151 C 
BRANCH  55  56
ATOM     56  C   UNK d   0      18.246  -2.470  -2.695  0.00  0.00     0.143 C 
ATOM     57  O   UNK d   0      19.310  -1.857  -2.478  0.00  0.00    -0.650 OA
BRANCH  56  58
ATOM     58  O   UNK d   0      17.669  -2.415  -3.963  0.00  0.00    -0.776 OA
ATOM     59  H   UNK d   0      16.834  -3.015  -4.088  0.00  0.00     0.167 HD
ENDBRANCH  56  58
ENDBRANCH  55  56
ENDBRANCH  21  55
BRANCH  18  60
ATOM     60  C   UNK d   0      17.110  -6.723   2.415  0.00  0.00     0.151 C 
BRANCH  60  61
ATOM     61  C   UNK d   0      18.307  -7.567   2.552  0.00  0.00     0.143 C 
ATOM     62  O   UNK d   0      18.339  -8.786   2.728  0.00  0.00    -0.650 OA
BRANCH  61  63
ATOM     63  O   UNK d   0      19.542  -6.881   2.467  0.00  0.00    -0.776 OA
ATOM     64  H   UNK d   0      20.314  -7.127   3.062  0.00  0.00     0.167 HD
ENDBRANCH  61  63
ENDBRANCH  60  61
ENDBRANCH  18  60
BRANCH  14  65
ATOM     65  C   UNK d   0      17.114  -6.786   5.449  0.00  0.00     0.052 C 
BRANCH  65  66
ATOM     66  C   UNK d   0      18.347  -7.228   6.155  0.00  0.00     0.115 C 
BRANCH  66  67
ATOM     67  C   UNK d   0      18.270  -7.646   7.526  0.00  0.00     0.139 C 
ATOM     68  O   UNK d   0      17.389  -8.524   7.852  0.00  0.00    -0.650 OA
BRANCH  67  69
ATOM     69  O   UNK d   0      19.053  -7.212   8.596  0.00  0.00    -0.776 OA
ATOM     70  H   UNK d   0      18.674  -6.421   9.136  0.00  0.00     0.167 HD
ENDBRANCH  67  69
ENDBRANCH  66  67
ENDBRANCH  65  66
ENDBRANCH  14  65
ENDBRANCH   6   7
ENDBRANCH   5   6
ENDBRANCH   2   5
TORSDOF 28
ENDMDL
MODEL 8
REMARK VINA RESULT:      -6.9     27.962     31.052
REMARK  28 active torsions:
REMARK  status: ('A' for Active; 'I' for Inactive)
REMARK    1  A    between atoms: C_2  and  O_3 
REMARK    2  A    between atoms: C_2  and  C_4 
REMARK    3  A    between atoms: C_4  and  C_5 
REMARK    4  A    between atoms: C_5  and  C_6 
REMARK    5  A    between atoms: C_7  and  C_8 
REMARK    6  A    between atoms: C_8  and  C_9 
REMARK    7  A    between atoms: C_9  and  O_11 
REMARK    8  A    between atoms: C_28  and  C_29 
REMARK    9  A    between atoms: C_29  and  C_30 
REMARK   10  A    between atoms: C_30  and  O_32 
REMARK   11  A    between atoms: C_33  and  C_34 
REMARK   12  A    between atoms: C_34  and  C_35 
REMARK   13  A    between atoms: C_35  and  C_36 
REMARK   14  A    between atoms: C_36  and  O_38 
REMARK   15  A    between atoms: C_39  and  C_40 
REMARK   16  A    between atoms: C_40  and  C_41 
REMARK   17  A    between atoms: C_41  and  C_42 
REMARK   18  A    between atoms: C_42  and  O_44 
REMARK   19  A    between atoms: C_45  and  C_46 
REMARK   20  A    between atoms: C_46  and  C_47 
REMARK   21  A    between atoms: C_47  and  O_49 
REMARK   22  A    between atoms: C_50  and  C_51 
REMARK   23  A    between atoms: C_51  and  C_52 
REMARK   24  A    between atoms: C_52  and  O_54 
REMARK   25  A    between atoms: C_55  and  C_56 
REMARK   26  A    between atoms: C_56  and  C_57 
REMARK   27  A    between atoms: C_57  and  C_58 
REMARK   28  A    between atoms: C_58  and  O_60 
ROOT
ATOM      1  O   UNK d   0      10.550  -4.713  11.286  0.00  0.00    -0.650 OA
ATOM      2  C   UNK d   0      11.158  -3.652  11.022  0.00  0.00     0.139 C 
ENDROOT
BRANCH   2   3
ATOM      3  O   UNK d   0      10.458  -2.471  10.963  0.00  0.00    -0.776 OA
ATOM      4  H   UNK d   0      10.282  -2.006  10.070  0.00  0.00     0.167 HD
ENDBRANCH   2   3
BRANCH   2   5
ATOM      5  C   UNK d   0      12.628  -3.673  10.775  0.00  0.00     0.115 C 
BRANCH   5   6
ATOM      6  C   UNK d   0      13.103  -5.090  10.600  0.00  0.00     0.052 C 
BRANCH   6   7
ATOM      7  C   UNK d   0      14.443  -5.173   9.909  0.00  0.00    -0.020 A 
ATOM      8  C   UNK d   0      15.016  -6.235   9.403  0.00  0.00    -0.011 A 
ATOM      9  C   UNK d   0      16.298  -5.829   8.853  0.00  0.00     0.067 A 
ATOM     10  C   UNK d   0      17.354  -6.459   8.175  0.00  0.00     0.062 C 
ATOM     11  N   UNK d   0      16.427  -4.504   9.073  0.00  0.00    -0.248 NA
ATOM     12  C   UNK d   0      18.395  -5.844   7.471  0.00  0.00     0.041 A 
ATOM     13  N   UNK d   0      19.152  -4.770   7.766  0.00  0.00    -0.355 N 
ATOM     14  C   UNK d   0      18.741  -6.336   6.199  0.00  0.00    -0.022 A 
ATOM     15  C   UNK d   0      19.963  -4.563   6.712  0.00  0.00     0.042 A 
ATOM     16  H   UNK d   0      19.126  -4.181   8.709  0.00  0.00     0.166 HD
ATOM     17  C   UNK d   0      20.949  -3.580   6.496  0.00  0.00     0.062 C 
ATOM     18  C   UNK d   0      19.734  -5.526   5.709  0.00  0.00    -0.013 A 
ATOM     19  C   UNK d   0      20.889  -2.231   6.737  0.00  0.00     0.067 A 
ATOM     20  N   UNK d   0      19.848  -1.789   7.448  0.00  0.00    -0.248 NA
ATOM     21  C   UNK d   0      21.696  -1.072   6.394  0.00  0.00    -0.011 A 
ATOM     22  C   UNK d   0      19.915  -0.425   7.593  0.00  0.00     0.066 A 
ATOM     23  C   UNK d   0      18.911   0.164   8.347  0.00  0.00     0.062 C 
ATOM     24  C   UNK d   0      21.118  -0.018   6.895  0.00  0.00    -0.020 A 
ATOM     25  C   UNK d   0      17.882  -0.473   9.057  0.00  0.00     0.041 A 
ATOM     26  N   UNK d   0      17.119  -1.531   8.757  0.00  0.00    -0.355 N 
ATOM     27  C   UNK d   0      17.538   0.019  10.335  0.00  0.00    -0.022 A 
ATOM     28  C   UNK d   0      16.303  -1.734   9.804  0.00  0.00     0.042 A 
ATOM     29  H   UNK d   0      17.139  -2.116   7.804  0.00  0.00     0.166 HD
ATOM     30  C   UNK d   0      15.312  -2.702  10.027  0.00  0.00     0.062 C 
ATOM     31  C   UNK d   0      16.541  -0.773  10.815  0.00  0.00    -0.013 A 
ATOM     32  C   UNK d   0      15.344  -4.049   9.704  0.00  0.00     0.066 A 
BRANCH   8  33
ATOM     33  C   UNK d   0      14.479  -7.608   9.388  0.00  0.00     0.151 C 
BRANCH  33  34
ATOM     34  C   UNK d   0      14.742  -8.338  10.642  0.00  0.00     0.143 C 
ATOM     35  O   UNK d   0      15.739  -8.080  11.331  0.00  0.00    -0.650 OA
BRANCH  34  36
ATOM     36  O   UNK d   0      13.867  -9.319  11.049  0.00  0.00    -0.776 OA
ATOM     37  H   UNK d   0      13.766 -10.197  10.521  0.00  0.00     0.167 HD
ENDBRANCH  34  36
ENDBRANCH  33  34
ENDBRANCH   8  33
BRANCH  31  38
ATOM     38  C   UNK d   0      15.862  -0.636  12.158  0.00  0.00     0.151 C 
BRANCH  38  39
ATOM     39  C   UNK d   0      14.459  -0.299  12.046  0.00  0.00     0.143 C 
ATOM     40  O   UNK d   0      13.955   0.108  10.984  0.00  0.00    -0.650 OA
BRANCH  39  41
ATOM     41  O   UNK d   0      13.630  -0.433  13.159  0.00  0.00    -0.776 OA
ATOM     42  H   UNK d   0      14.038  -0.196  14.069  0.00  0.00     0.167 HD
ENDBRANCH  39  41
ENDBRANCH  38  39
ENDBRANCH  31  38
BRANCH  27  43
ATOM     43  C   UNK d   0      18.110   1.189  11.097  0.00  0.00     0.052 C 
BRANCH  43  44
ATOM     44  C   UNK d   0      19.048   0.783  12.187  0.00  0.00     0.115 C 
BRANCH  44  45
ATOM     45  C   UNK d   0      20.420   0.879  11.623  0.00  0.00     0.139 C 
ATOM     46  O   UNK d   0      20.973  -0.178  11.231  0.00  0.00    -0.650 OA
BRANCH  45  47
ATOM     47  O   UNK d   0      21.100   2.072  11.511  0.00  0.00    -0.776 OA
ATOM     48  H   UNK d   0      22.047   2.141  11.105  0.00  0.00     0.167 HD
ENDBRANCH  45  47
ENDBRANCH  44  45
ENDBRANCH  43  44
ENDBRANCH  27  43
BRANCH  24  49
ATOM     49  C   UNK d   0      21.619   1.365   6.818  0.00  0.00     0.052 C 
BRANCH  49  50
ATOM     50  C   UNK d   0      20.481   2.321   6.566  0.00  0.00     0.115 C 
BRANCH  50  51
ATOM     51  C   UNK d   0      20.323   3.428   7.501  0.00  0.00     0.139 C 
ATOM     52  O   UNK d   0      20.471   3.294   8.738  0.00  0.00    -0.650 OA
BRANCH  51  53
ATOM     53  O   UNK d   0      19.994   4.687   7.023  0.00  0.00    -0.776 OA
ATOM     54  H   UNK d   0      20.741   5.307   6.762  0.00  0.00     0.167 HD
ENDBRANCH  51  53
ENDBRANCH  50  51
ENDBRANCH  49  50
ENDBRANCH  24  49
BRANCH  21  55
ATOM     55  C   UNK d   0      22.962  -1.139   5.606  0.00  0.00     0.151 C 
BRANCH  55  56
ATOM     56  C   UNK d   0      22.707  -1.260   4.162  0.00  0.00     0.143 C 
ATOM     57  O   UNK d   0      22.519  -2.356   3.599  0.00  0.00    -0.650 OA
BRANCH  56  58
ATOM     58  O   UNK d   0      22.677  -0.088   3.408  0.00  0.00    -0.776 OA
ATOM     59  H   UNK d   0      22.791  -0.223   2.387  0.00  0.00     0.167 HD
ENDBRANCH  56  58
ENDBRANCH  55  56
ENDBRANCH  21  55
BRANCH  18  60
ATOM     60  C   UNK d   0      20.397  -5.688   4.364  0.00  0.00     0.151 C 
BRANCH  60  61
ATOM     61  C   UNK d   0      19.415  -5.226   3.371  0.00  0.00     0.143 C 
ATOM     62  O   UNK d   0      18.807  -4.155   3.371  0.00  0.00    -0.650 OA
BRANCH  61  63
ATOM     63  O   UNK d   0      19.160  -6.129   2.311  0.00  0.00    -0.776 OA
ATOM     64  H   UNK d   0      19.791  -6.208   1.534  0.00  0.00     0.167 HD
ENDBRANCH  61  63
ENDBRANCH  60  61
ENDBRANCH  18  60
BRANCH  14  65
ATOM     65  C   UNK d   0      18.277  -7.560   5.462  0.00  0.00     0.052 C 
BRANCH  65  66
ATOM     66  C   UNK d   0      16.930  -7.397   4.852  0.00  0.00     0.115 C 
BRANCH  66  67
ATOM     67  C   UNK d   0      15.932  -8.410   5.049  0.00  0.00     0.139 C 
ATOM     68  O   UNK d   0      15.300  -8.441   6.168  0.00  0.00    -0.650 OA
BRANCH  67  69
ATOM     69  O   UNK d   0      15.540  -9.406   4.155  0.00  0.00    -0.776 OA
ATOM     70  H   UNK d   0      16.072 -10.287   4.203  0.00  0.00     0.167 HD
ENDBRANCH  67  69
ENDBRANCH  66  67
ENDBRANCH  65  66
ENDBRANCH  14  65
ENDBRANCH   6   7
ENDBRANCH   5   6
ENDBRANCH   2   5
TORSDOF 28
ENDMDL
MODEL 9
REMARK VINA RESULT:      -6.9     27.499     31.415
REMARK  28 active torsions:
REMARK  status: ('A' for Active; 'I' for Inactive)
REMARK    1  A    between atoms: C_2  and  O_3 
REMARK    2  A    between atoms: C_2  and  C_4 
REMARK    3  A    between atoms: C_4  and  C_5 
REMARK    4  A    between atoms: C_5  and  C_6 
REMARK    5  A    between atoms: C_7  and  C_8 
REMARK    6  A    between atoms: C_8  and  C_9 
REMARK    7  A    between atoms: C_9  and  O_11 
REMARK    8  A    between atoms: C_28  and  C_29 
REMARK    9  A    between atoms: C_29  and  C_30 
REMARK   10  A    between atoms: C_30  and  O_32 
REMARK   11  A    between atoms: C_33  and  C_34 
REMARK   12  A    between atoms: C_34  and  C_35 
REMARK   13  A    between atoms: C_35  and  C_36 
REMARK   14  A    between atoms: C_36  and  O_38 
REMARK   15  A    between atoms: C_39  and  C_40 
REMARK   16  A    between atoms: C_40  and  C_41 
REMARK   17  A    between atoms: C_41  and  C_42 
REMARK   18  A    between atoms: C_42  and  O_44 
REMARK   19  A    between atoms: C_45  and  C_46 
REMARK   20  A    between atoms: C_46  and  C_47 
REMARK   21  A    between atoms: C_47  and  O_49 
REMARK   22  A    between atoms: C_50  and  C_51 
REMARK   23  A    between atoms: C_51  and  C_52 
REMARK   24  A    between atoms: C_52  and  O_54 
REMARK   25  A    between atoms: C_55  and  C_56 
REMARK   26  A    between atoms: C_56  and  C_57 
REMARK   27  A    between atoms: C_57  and  C_58 
REMARK   28  A    between atoms: C_58  and  O_60 
ROOT
ATOM      1  O   UNK d   0      14.303 -10.396   0.038  0.00  0.00    -0.650 OA
ATOM      2  C   UNK d   0      14.289  -9.160   0.235  0.00  0.00     0.139 C 
ENDROOT
BRANCH   2   3
ATOM      3  O   UNK d   0      14.001  -8.315  -0.810  0.00  0.00    -0.776 OA
ATOM      4  H   UNK d   0      14.412  -7.380  -0.861  0.00  0.00     0.167 HD
ENDBRANCH   2   3
BRANCH   2   5
ATOM      5  C   UNK d   0      14.584  -8.615   1.590  0.00  0.00     0.115 C 
BRANCH   5   6
ATOM      6  C   UNK d   0      16.006  -8.129   1.655  0.00  0.00     0.052 C 
BRANCH   6   7
ATOM      7  C   UNK d   0      16.347  -7.503   2.986  0.00  0.00    -0.020 A 
ATOM      8  C   UNK d   0      16.078  -7.969   4.179  0.00  0.00    -0.011 A 
ATOM      9  C   UNK d   0      16.592  -7.020   5.153  0.00  0.00     0.067 A 
ATOM     10  C   UNK d   0      16.647  -6.937   6.553  0.00  0.00     0.062 C 
ATOM     11  N   UNK d   0      17.152  -6.004   4.465  0.00  0.00    -0.248 NA
ATOM     12  C   UNK d   0      17.436  -6.071   7.320  0.00  0.00     0.041 A 
ATOM     13  N   UNK d   0      17.710  -4.761   7.175  0.00  0.00    -0.355 N 
ATOM     14  C   UNK d   0      18.142  -6.589   8.420  0.00  0.00    -0.022 A 
ATOM     15  C   UNK d   0      18.579  -4.436   8.151  0.00  0.00     0.042 A 
ATOM     16  H   UNK d   0      17.284  -4.075   6.411  0.00  0.00     0.166 HD
ATOM     17  C   UNK d   0      19.187  -3.203   8.459  0.00  0.00     0.062 C 
ATOM     18  C   UNK d   0      18.874  -5.557   8.952  0.00  0.00    -0.013 A 
ATOM     19  C   UNK d   0      19.769  -2.293   7.614  0.00  0.00     0.067 A 
ATOM     20  N   UNK d   0      19.578  -2.476   6.305  0.00  0.00    -0.248 NA
ATOM     21  C   UNK d   0      20.604  -1.113   7.763  0.00  0.00    -0.011 A 
ATOM     22  C   UNK d   0      20.228  -1.502   5.588  0.00  0.00     0.066 A 
ATOM     23  C   UNK d   0      20.082  -1.550   4.209  0.00  0.00     0.062 C 
ATOM     24  C   UNK d   0      20.873  -0.657   6.574  0.00  0.00    -0.020 A 
ATOM     25  C   UNK d   0      19.275  -2.419   3.459  0.00  0.00     0.041 A 
ATOM     26  N   UNK d   0      19.013  -3.725   3.594  0.00  0.00    -0.355 N 
ATOM     27  C   UNK d   0      18.563  -1.898   2.357  0.00  0.00    -0.022 A 
ATOM     28  C   UNK d   0      18.154  -4.054   2.616  0.00  0.00     0.042 A 
ATOM     29  H   UNK d   0      19.451  -4.415   4.356  0.00  0.00     0.166 HD
ATOM     30  C   UNK d   0      17.548  -5.278   2.293  0.00  0.00     0.062 C 
ATOM     31  C   UNK d   0      17.850  -2.925   1.819  0.00  0.00    -0.013 A 
ATOM     32  C   UNK d   0      17.038  -6.234   3.156  0.00  0.00     0.066 A 
BRANCH   8  33
ATOM     33  C   UNK d   0      15.377  -9.226   4.501  0.00  0.00     0.151 C 
BRANCH  33  34
ATOM     34  C   UNK d   0      14.155  -9.010   5.295  0.00  0.00     0.143 C 
ATOM     35  O   UNK d   0      14.176  -9.089   6.532  0.00  0.00    -0.650 OA
BRANCH  34  36
ATOM     36  O   UNK d   0      12.974  -8.717   4.652  0.00  0.00    -0.776 OA
ATOM     37  H   UNK d   0      12.203  -9.397   4.615  0.00  0.00     0.167 HD
ENDBRANCH  34  36
ENDBRANCH  33  34
ENDBRANCH   8  33
BRANCH  31  38
ATOM     38  C   UNK d   0      16.926  -2.840   0.627  0.00  0.00     0.151 C 
BRANCH  38  39
ATOM     39  C   UNK d   0      17.623  -2.971  -0.635  0.00  0.00     0.143 C 
ATOM     40  O   UNK d   0      18.079  -1.990  -1.248  0.00  0.00    -0.650 OA
BRANCH  39  41
ATOM     41  O   UNK d   0      17.797  -4.236  -1.195  0.00  0.00    -0.776 OA
ATOM     42  H   UNK d   0      18.761  -4.531  -1.377  0.00  0.00     0.167 HD
ENDBRANCH  39  41
ENDBRANCH  38  39
ENDBRANCH  31  38
BRANCH  27  43
ATOM     43  C   UNK d   0      18.538  -0.492   1.811  0.00  0.00     0.052 C 
BRANCH  43  44
ATOM     44  C   UNK d   0      17.274   0.241   2.123  0.00  0.00     0.115 C 
BRANCH  44  45
ATOM     45  C   UNK d   0      17.653   1.391   2.985  0.00  0.00     0.139 C 
ATOM     46  O   UNK d   0      16.814   1.804   3.823  0.00  0.00    -0.650 OA
BRANCH  45  47
ATOM     47  O   UNK d   0      18.880   2.013   2.903  0.00  0.00    -0.776 OA
ATOM     48  H   UNK d   0      19.448   2.243   3.735  0.00  0.00     0.167 HD
ENDBRANCH  45  47
ENDBRANCH  44  45
ENDBRANCH  43  44
ENDBRANCH  27  43
BRANCH  24  49
ATOM     49  C   UNK d   0      21.659   0.549   6.263  0.00  0.00     0.052 C 
BRANCH  49  50
ATOM     50  C   UNK d   0      20.988   1.774   6.830  0.00  0.00     0.115 C 
BRANCH  50  51
ATOM     51  C   UNK d   0      19.917   2.369   6.041  0.00  0.00     0.139 C 
ATOM     52  O   UNK d   0      20.116   3.299   5.225  0.00  0.00    -0.650 OA
BRANCH  51  53
ATOM     53  O   UNK d   0      18.619   1.906   6.186  0.00  0.00    -0.776 OA
ATOM     54  H   UNK d   0      17.941   2.167   5.491  0.00  0.00     0.167 HD
ENDBRANCH  51  53
ENDBRANCH  50  51
ENDBRANCH  49  50
ENDBRANCH  24  49
BRANCH  21  55
ATOM     55  C   UNK d   0      21.043  -0.562   9.080  0.00  0.00     0.151 C 
BRANCH  55  56
ATOM     56  C   UNK d   0      21.880  -1.514   9.825  0.00  0.00     0.143 C 
ATOM     57  O   UNK d   0      22.966  -1.943   9.389  0.00  0.00    -0.650 OA
BRANCH  56  58
ATOM     58  O   UNK d   0      21.422  -1.944  11.070  0.00  0.00    -0.776 OA
ATOM     59  H   UNK d   0      21.601  -2.943  11.279  0.00  0.00     0.167 HD
ENDBRANCH  56  58
ENDBRANCH  55  56
ENDBRANCH  21  55
BRANCH  18  60
ATOM     60  C   UNK d   0      19.788  -5.670  10.147  0.00  0.00     0.151 C 
BRANCH  60  61
ATOM     61  C   UNK d   0      21.148  -5.803   9.603  0.00  0.00     0.143 C 
ATOM     62  O   UNK d   0      21.537  -6.619   8.767  0.00  0.00    -0.650 OA
BRANCH  61  63
ATOM     63  O   UNK d   0      22.093  -4.881  10.113  0.00  0.00    -0.776 OA
ATOM     64  H   UNK d   0      21.866  -3.908  10.214  0.00  0.00     0.167 HD
ENDBRANCH  61  63
ENDBRANCH  60  61
ENDBRANCH  18  60
BRANCH  14  65
ATOM     65  C   UNK d   0      18.102  -7.948   9.060  0.00  0.00     0.052 C 
BRANCH  65  66
ATOM     66  C   UNK d   0      17.195  -8.010  10.238  0.00  0.00     0.115 C 
BRANCH  66  67
ATOM     67  C   UNK d   0      15.838  -7.558  10.115  0.00  0.00     0.139 C 
ATOM     68  O   UNK d   0      15.456  -6.559  10.829  0.00  0.00    -0.650 OA
BRANCH  67  69
ATOM     69  O   UNK d   0      14.837  -8.077   9.294  0.00  0.00    -0.776 OA
ATOM     70  H   UNK d   0      14.214  -7.385   8.855  0.00  0.00     0.167 HD
ENDBRANCH  67  69
ENDBRANCH  66  67
ENDBRANCH  65  66
ENDBRANCH  14  65
ENDBRANCH   6   7
ENDBRANCH   5   6
ENDBRANCH   2   5
TORSDOF 28
ENDMDL
MODEL 10
REMARK VINA RESULT:      -6.8     26.370     30.086
REMARK  28 active torsions:
REMARK  status: ('A' for Active; 'I' for Inactive)
REMARK    1  A    between atoms: C_2  and  O_3 
REMARK    2  A    between atoms: C_2  and  C_4 
REMARK    3  A    between atoms: C_4  and  C_5 
REMARK    4  A    between atoms: C_5  and  C_6 
REMARK    5  A    between atoms: C_7  and  C_8 
REMARK    6  A    between atoms: C_8  and  C_9 
REMARK    7  A    between atoms: C_9  and  O_11 
REMARK    8  A    between atoms: C_28  and  C_29 
REMARK    9  A    between atoms: C_29  and  C_30 
REMARK   10  A    between atoms: C_30  and  O_32 
REMARK   11  A    between atoms: C_33  and  C_34 
REMARK   12  A    between atoms: C_34  and  C_35 
REMARK   13  A    between atoms: C_35  and  C_36 
REMARK   14  A    between atoms: C_36  and  O_38 
REMARK   15  A    between atoms: C_39  and  C_40 
REMARK   16  A    between atoms: C_40  and  C_41 
REMARK   17  A    between atoms: C_41  and  C_42 
REMARK   18  A    between atoms: C_42  and  O_44 
REMARK   19  A    between atoms: C_45  and  C_46 
REMARK   20  A    between atoms: C_46  and  C_47 
REMARK   21  A    between atoms: C_47  and  O_49 
REMARK   22  A    between atoms: C_50  and  C_51 
REMARK   23  A    between atoms: C_51  and  C_52 
REMARK   24  A    between atoms: C_52  and  O_54 
REMARK   25  A    between atoms: C_55  and  C_56 
REMARK   26  A    between atoms: C_56  and  C_57 
REMARK   27  A    between atoms: C_57  and  C_58 
REMARK   28  A    between atoms: C_58  and  O_60 
ROOT
ATOM      1  O   UNK d   0      16.796  -8.983   5.389  0.00  0.00    -0.650 OA
ATOM      2  C   UNK d   0      15.670  -8.581   5.755  0.00  0.00     0.139 C 
ENDROOT
BRANCH   2   3
ATOM      3  O   UNK d   0      14.689  -8.378   4.815  0.00  0.00    -0.776 OA
ATOM      4  H   UNK d   0      14.530  -9.053   4.063  0.00  0.00     0.167 HD
ENDBRANCH   2   3
BRANCH   2   5
ATOM      5  C   UNK d   0      15.399  -8.325   7.198  0.00  0.00     0.115 C 
BRANCH   5   6
ATOM      6  C   UNK d   0      16.652  -7.853   7.884  0.00  0.00     0.052 C 
BRANCH   6   7
ATOM      7  C   UNK d   0      16.738  -6.348   7.967  0.00  0.00    -0.020 A 
ATOM      8  C   UNK d   0      16.375  -5.582   8.964  0.00  0.00    -0.011 A 
ATOM      9  C   UNK d   0      16.638  -4.204   8.584  0.00  0.00     0.067 A 
ATOM     10  C   UNK d   0      16.500  -2.943   9.186  0.00  0.00     0.062 C 
ATOM     11  N   UNK d   0      17.156  -4.223   7.338  0.00  0.00    -0.248 NA
ATOM     12  C   UNK d   0      17.071  -1.737   8.767  0.00  0.00     0.041 A 
ATOM     13  N   UNK d   0      17.201  -1.198   7.540  0.00  0.00    -0.355 N 
ATOM     14  C   UNK d   0      17.686  -0.906   9.721  0.00  0.00    -0.022 A 
ATOM     15  C   UNK d   0      17.890  -0.050   7.690  0.00  0.00     0.042 A 
ATOM     16  H   UNK d   0      16.798  -1.610   6.589  0.00  0.00     0.166 HD
ATOM     17  C   UNK d   0      18.299   0.902   6.735  0.00  0.00     0.062 C 
ATOM     18  C   UNK d   0      18.211   0.166   9.044  0.00  0.00    -0.013 A 
ATOM     19  C   UNK d   0      18.871   0.699   5.505  0.00  0.00     0.067 A 
ATOM     20  N   UNK d   0      18.875  -0.553   5.040  0.00  0.00    -0.248 NA
ATOM     21  C   UNK d   0      19.530   1.528   4.510  0.00  0.00    -0.011 A 
ATOM     22  C   UNK d   0      19.491  -0.602   3.813  0.00  0.00     0.066 A 
ATOM     23  C   UNK d   0      19.532  -1.843   3.194  0.00  0.00     0.062 C 
ATOM     24  C   UNK d   0      19.894   0.760   3.524  0.00  0.00    -0.020 A 
ATOM     25  C   UNK d   0      18.941  -3.040   3.626  0.00  0.00     0.041 A 
ATOM     26  N   UNK d   0      18.824  -3.584   4.844  0.00  0.00    -0.355 N 
ATOM     27  C   UNK d   0      18.320  -3.871   2.668  0.00  0.00    -0.022 A 
ATOM     28  C   UNK d   0      18.146  -4.732   4.695  0.00  0.00     0.042 A 
ATOM     29  H   UNK d   0      19.240  -3.174   5.797  0.00  0.00     0.166 HD
ATOM     30  C   UNK d   0      17.741  -5.693   5.635  0.00  0.00     0.062 C 
ATOM     31  C   UNK d   0      17.814  -4.944   3.336  0.00  0.00    -0.013 A 
ATOM     32  C   UNK d   0      17.242  -5.484   6.911  0.00  0.00     0.066 A 
BRANCH   8  33
ATOM     33  C   UNK d   0      15.795  -6.016  10.248  0.00  0.00     0.151 C 
BRANCH  33  34
ATOM     34  C   UNK d   0      16.815  -6.479  11.207  0.00  0.00     0.143 C 
ATOM     35  O   UNK d   0      17.991  -6.646  10.854  0.00  0.00    -0.650 OA
BRANCH  34  36
ATOM     36  O   UNK d   0      16.452  -6.731  12.510  0.00  0.00    -0.776 OA
ATOM     37  H   UNK d   0      15.552  -6.402  12.887  0.00  0.00     0.167 HD
ENDBRANCH  34  36
ENDBRANCH  33  34
ENDBRANCH   8  33
BRANCH  31  38
ATOM     38  C   UNK d   0      17.049  -6.094   2.724  0.00  0.00     0.151 C 
BRANCH  38  39
ATOM     39  C   UNK d   0      17.808  -7.327   2.708  0.00  0.00     0.143 C 
ATOM     40  O   UNK d   0      19.051  -7.343   2.678  0.00  0.00    -0.650 OA
BRANCH  39  41
ATOM     41  O   UNK d   0      17.134  -8.548   2.728  0.00  0.00    -0.776 OA
ATOM     42  H   UNK d   0      16.437  -8.678   3.468  0.00  0.00     0.167 HD
ENDBRANCH  39  41
ENDBRANCH  38  39
ENDBRANCH  31  38
BRANCH  27  43
ATOM     43  C   UNK d   0      18.197  -3.687   1.176  0.00  0.00     0.052 C 
BRANCH  43  44
ATOM     44  C   UNK d   0      17.169  -2.673   0.789  0.00  0.00     0.115 C 
BRANCH  44  45
ATOM     45  C   UNK d   0      17.224  -2.557  -0.692  0.00  0.00     0.139 C 
ATOM     46  O   UNK d   0      17.528  -3.580  -1.354  0.00  0.00    -0.650 OA
BRANCH  45  47
ATOM     47  O   UNK d   0      16.952  -1.383  -1.360  0.00  0.00    -0.776 OA
ATOM     48  H   UNK d   0      17.614  -0.592  -1.394  0.00  0.00     0.167 HD
ENDBRANCH  45  47
ENDBRANCH  44  45
ENDBRANCH  43  44
ENDBRANCH  27  43
BRANCH  24  49
ATOM     49  C   UNK d   0      20.562   1.195   2.286  0.00  0.00     0.052 C 
BRANCH  49  50
ATOM     50  C   UNK d   0      19.559   1.782   1.327  0.00  0.00     0.115 C 
BRANCH  50  51
ATOM     51  C   UNK d   0      18.796   0.848   0.509  0.00  0.00     0.139 C 
ATOM     52  O   UNK d   0      19.328   0.122  -0.363  0.00  0.00    -0.650 OA
BRANCH  51  53
ATOM     53  O   UNK d   0      17.424   0.745   0.684  0.00  0.00    -0.776 OA
ATOM     54  H   UNK d   0      16.835   0.807  -0.127  0.00  0.00     0.167 HD
ENDBRANCH  51  53
ENDBRANCH  50  51
ENDBRANCH  49  50
ENDBRANCH  24  49
BRANCH  21  55
ATOM     55  C   UNK d   0      19.723   3.002   4.647  0.00  0.00     0.151 C 
BRANCH  55  56
ATOM     56  C   UNK d   0      18.445   3.730   4.622  0.00  0.00     0.143 C 
ATOM     57  O   UNK d   0      17.623   3.618   3.692  0.00  0.00    -0.650 OA
BRANCH  56  58
ATOM     58  O   UNK d   0      18.160   4.577   5.691  0.00  0.00    -0.776 OA
ATOM     59  H   UNK d   0      17.711   4.117   6.504  0.00  0.00     0.167 HD
ENDBRANCH  56  58
ENDBRANCH  55  56
ENDBRANCH  21  55
BRANCH  18  60
ATOM     60  C   UNK d   0      18.969   1.304   9.682  0.00  0.00     0.151 C 
BRANCH  60  61
ATOM     61  C   UNK d   0      20.383   0.901   9.677  0.00  0.00     0.143 C 
ATOM     62  O   UNK d   0      21.166   0.953   8.728  0.00  0.00    -0.650 OA
BRANCH  61  63
ATOM     63  O   UNK d   0      20.873   0.402  10.908  0.00  0.00    -0.776 OA
ATOM     64  H   UNK d   0      20.283  -0.131  11.523  0.00  0.00     0.167 HD
ENDBRANCH  61  63
ENDBRANCH  60  61
ENDBRANCH  18  60
BRANCH  14  65
ATOM     65  C   UNK d   0      17.728  -0.999  11.220  0.00  0.00     0.052 C 
BRANCH  65  66
ATOM     66  C   UNK d   0      16.593  -0.297  11.878  0.00  0.00     0.115 C 
BRANCH  66  67
ATOM     67  C   UNK d   0      15.246  -0.589  11.475  0.00  0.00     0.139 C 
ATOM     68  O   UNK d   0      14.812  -1.792  11.609  0.00  0.00    -0.650 OA
BRANCH  67  69
ATOM     69  O   UNK d   0      14.307   0.291  10.937  0.00  0.00    -0.776 OA
ATOM     70  H   UNK d   0      13.320   0.016  11.049  0.00  0.00     0.167 HD
ENDBRANCH  67  69
ENDBRANCH  66  67
ENDBRANCH  65  66
ENDBRANCH  14  65
ENDBRANCH   6   7
ENDBRANCH   5   6
ENDBRANCH   2   5
TORSDOF 28
ENDMDL
MODEL 11
REMARK VINA RESULT:      -6.8     26.454     29.649
REMARK  28 active torsions:
REMARK  status: ('A' for Active; 'I' for Inactive)
REMARK    1  A    between atoms: C_2  and  O_3 
REMARK    2  A    between atoms: C_2  and  C_4 
REMARK    3  A    between atoms: C_4  and  C_5 
REMARK    4  A    between atoms: C_5  and  C_6 
REMARK    5  A    between atoms: C_7  and  C_8 
REMARK    6  A    between atoms: C_8  and  C_9 
REMARK    7  A    between atoms: C_9  and  O_11 
REMARK    8  A    between atoms: C_28  and  C_29 
REMARK    9  A    between atoms: C_29  and  C_30 
REMARK   10  A    between atoms: C_30  and  O_32 
REMARK   11  A    between atoms: C_33  and  C_34 
REMARK   12  A    between atoms: C_34  and  C_35 
REMARK   13  A    between atoms: C_35  and  C_36 
REMARK   14  A    between atoms: C_36  and  O_38 
REMARK   15  A    between atoms: C_39  and  C_40 
REMARK   16  A    between atoms: C_40  and  C_41 
REMARK   17  A    between atoms: C_41  and  C_42 
REMARK   18  A    between atoms: C_42  and  O_44 
REMARK   19  A    between atoms: C_45  and  C_46 
REMARK   20  A    between atoms: C_46  and  C_47 
REMARK   21  A    between atoms: C_47  and  O_49 
REMARK   22  A    between atoms: C_50  and  C_51 
REMARK   23  A    between atoms: C_51  and  C_52 
REMARK   24  A    between atoms: C_52  and  O_54 
REMARK   25  A    between atoms: C_55  and  C_56 
REMARK   26  A    between atoms: C_56  and  C_57 
REMARK   27  A    between atoms: C_57  and  C_58 
REMARK   28  A    between atoms: C_58  and  O_60 
ROOT
ATOM      1  O   UNK d   0      15.750  -5.826   9.833  0.00  0.00    -0.650 OA
ATOM      2  C   UNK d   0      16.695  -5.740  10.647  0.00  0.00     0.139 C 
ENDROOT
BRANCH   2   3
ATOM      3  O   UNK d   0      16.808  -4.617  11.432  0.00  0.00    -0.776 OA
ATOM      4  H   UNK d   0      16.007  -4.001  11.590  0.00  0.00     0.167 HD
ENDBRANCH   2   3
BRANCH   2   5
ATOM      5  C   UNK d   0      17.688  -6.845  10.762  0.00  0.00     0.115 C 
BRANCH   5   6
ATOM      6  C   UNK d   0      19.066  -6.340  10.430  0.00  0.00     0.052 C 
BRANCH   6   7
ATOM      7  C   UNK d   0      19.162  -5.795   9.025  0.00  0.00    -0.020 A 
ATOM      8  C   UNK d   0      19.099  -6.464   7.903  0.00  0.00    -0.011 A 
ATOM      9  C   UNK d   0      19.249  -5.517   6.811  0.00  0.00     0.067 A 
ATOM     10  C   UNK d   0      19.252  -5.580   5.408  0.00  0.00     0.062 C 
ATOM     11  N   UNK d   0      19.405  -4.294   7.360  0.00  0.00    -0.248 NA
ATOM     12  C   UNK d   0      19.132  -4.513   4.512  0.00  0.00     0.041 A 
ATOM     13  N   UNK d   0      19.691  -3.288   4.513  0.00  0.00    -0.355 N 
ATOM     14  C   UNK d   0      18.255  -4.637   3.419  0.00  0.00    -0.022 A 
ATOM     15  C   UNK d   0      19.185  -2.628   3.453  0.00  0.00     0.042 A 
ATOM     16  H   UNK d   0      20.443  -2.903   5.236  0.00  0.00     0.166 HD
ATOM     17  C   UNK d   0      19.429  -1.321   2.989  0.00  0.00     0.062 C 
ATOM     18  C   UNK d   0      18.280  -3.442   2.744  0.00  0.00    -0.013 A 
ATOM     19  C   UNK d   0      19.504  -0.152   3.704  0.00  0.00     0.067 A 
ATOM     20  N   UNK d   0      19.551  -0.258   5.034  0.00  0.00    -0.248 NA
ATOM     21  C   UNK d   0      19.534   1.266   3.387  0.00  0.00    -0.011 A 
ATOM     22  C   UNK d   0      19.608   0.987   5.610  0.00  0.00     0.066 A 
ATOM     23  C   UNK d   0      19.700   1.023   6.994  0.00  0.00     0.062 C 
ATOM     24  C   UNK d   0      19.591   1.927   4.507  0.00  0.00    -0.020 A 
ATOM     25  C   UNK d   0      19.832  -0.061   7.875  0.00  0.00     0.041 A 
ATOM     26  N   UNK d   0      19.265  -1.274   7.883  0.00  0.00    -0.355 N 
ATOM     27  C   UNK d   0      20.716   0.063   8.969  0.00  0.00    -0.022 A 
ATOM     28  C   UNK d   0      19.762  -1.930   8.943  0.00  0.00     0.042 A 
ATOM     29  H   UNK d   0      18.502  -1.655   7.161  0.00  0.00     0.166 HD
ATOM     30  C   UNK d   0      19.521  -3.227   9.422  0.00  0.00     0.062 C 
ATOM     31  C   UNK d   0      20.679  -1.115   9.650  0.00  0.00    -0.013 A 
ATOM     32  C   UNK d   0      19.361  -4.393   8.689  0.00  0.00     0.066 A 
BRANCH   8  33
ATOM     33  C   UNK d   0      18.915  -7.919   7.749  0.00  0.00     0.151 C 
BRANCH  33  34
ATOM     34  C   UNK d   0      17.593  -8.272   7.201  0.00  0.00     0.143 C 
ATOM     35  O   UNK d   0      17.464  -8.599   6.012  0.00  0.00    -0.650 OA
BRANCH  34  36
ATOM     36  O   UNK d   0      16.489  -8.235   8.021  0.00  0.00    -0.776 OA
ATOM     37  H   UNK d   0      15.614  -8.710   7.761  0.00  0.00     0.167 HD
ENDBRANCH  34  36
ENDBRANCH  33  34
ENDBRANCH   8  33
BRANCH  31  38
ATOM     38  C   UNK d   0      21.474  -1.455  10.888  0.00  0.00     0.151 C 
BRANCH  38  39
ATOM     39  C   UNK d   0      22.658  -2.236  10.599  0.00  0.00     0.143 C 
ATOM     40  O   UNK d   0      23.657  -1.748  10.041  0.00  0.00    -0.650 OA
BRANCH  39  41
ATOM     41  O   UNK d   0      22.695  -3.584  10.954  0.00  0.00    -0.776 OA
ATOM     42  H   UNK d   0      23.006  -4.243  10.233  0.00  0.00     0.167 HD
ENDBRANCH  39  41
ENDBRANCH  38  39
ENDBRANCH  31  38
BRANCH  27  43
ATOM     43  C   UNK d   0      21.573   1.234   9.381  0.00  0.00     0.052 C 
BRANCH  43  44
ATOM     44  C   UNK d   0      20.813   2.294  10.110  0.00  0.00     0.115 C 
BRANCH  44  45
ATOM     45  C   UNK d   0      21.187   3.590   9.485  0.00  0.00     0.139 C 
ATOM     46  O   UNK d   0      21.525   3.587   8.275  0.00  0.00    -0.650 OA
BRANCH  45  47
ATOM     47  O   UNK d   0      21.172   4.783  10.173  0.00  0.00    -0.776 OA
ATOM     48  H   UNK d   0      21.665   5.628   9.841  0.00  0.00     0.167 HD
ENDBRANCH  45  47
ENDBRANCH  44  45
ENDBRANCH  43  44
ENDBRANCH  27  43
BRANCH  24  49
ATOM     49  C   UNK d   0      19.677   3.391   4.648  0.00  0.00     0.052 C 
BRANCH  49  50
ATOM     50  C   UNK d   0      18.576   3.897   5.545  0.00  0.00     0.115 C 
BRANCH  50  51
ATOM     51  C   UNK d   0      17.400   4.464   4.900  0.00  0.00     0.139 C 
ATOM     52  O   UNK d   0      16.483   5.028   5.541  0.00  0.00    -0.650 OA
BRANCH  51  53
ATOM     53  O   UNK d   0      17.269   4.387   3.522  0.00  0.00    -0.776 OA
ATOM     54  H   UNK d   0      17.764   3.659   3.037  0.00  0.00     0.167 HD
ENDBRANCH  51  53
ENDBRANCH  50  51
ENDBRANCH  49  50
ENDBRANCH  24  49
BRANCH  21  55
ATOM     55  C   UNK d   0      19.508   1.812   1.997  0.00  0.00     0.151 C 
BRANCH  55  56
ATOM     56  C   UNK d   0      18.201   1.613   1.352  0.00  0.00     0.143 C 
ATOM     57  O   UNK d   0      17.161   2.175   1.745  0.00  0.00    -0.650 OA
BRANCH  56  58
ATOM     58  O   UNK d   0      18.144   0.755   0.254  0.00  0.00    -0.776 OA
ATOM     59  H   UNK d   0      17.221   0.707  -0.214  0.00  0.00     0.167 HD
ENDBRANCH  56  58
ENDBRANCH  55  56
ENDBRANCH  21  55
BRANCH  18  60
ATOM     60  C   UNK d   0      17.476  -3.132   1.506  0.00  0.00     0.151 C 
BRANCH  60  61
ATOM     61  C   UNK d   0      16.399  -2.229   1.939  0.00  0.00     0.143 C 
ATOM     62  O   UNK d   0      15.786  -2.264   3.007  0.00  0.00    -0.650 OA
BRANCH  61  63
ATOM     63  O   UNK d   0      16.049  -1.219   1.011  0.00  0.00    -0.776 OA
ATOM     64  H   UNK d   0      15.200  -0.692   1.114  0.00  0.00     0.167 HD
ENDBRANCH  61  63
ENDBRANCH  60  61
ENDBRANCH  18  60
BRANCH  14  65
ATOM     65  C   UNK d   0      17.478  -5.820   2.915  0.00  0.00     0.052 C 
BRANCH  65  66
ATOM     66  C   UNK d   0      16.323  -6.171   3.784  0.00  0.00     0.115 C 
BRANCH  66  67
ATOM     67  C   UNK d   0      15.677  -7.444   3.630  0.00  0.00     0.139 C 
ATOM     68  O   UNK d   0      15.772  -8.047   2.498  0.00  0.00    -0.650 OA
BRANCH  67  69
ATOM     69  O   UNK d   0      14.931  -8.143   4.578  0.00  0.00    -0.776 OA
ATOM     70  H   UNK d   0      13.961  -8.361   4.312  0.00  0.00     0.167 HD
ENDBRANCH  67  69
ENDBRANCH  66  67
ENDBRANCH  65  66
ENDBRANCH  14  65
ENDBRANCH   6   7
ENDBRANCH   5   6
ENDBRANCH   2   5
TORSDOF 28
ENDMDL
