MODEL 1
REMARK VINA RESULT:     -10.4      0.000      0.000
REMARK  28 active torsions:
REMARK  status: ('A' for Active; 'I' for Inactive)
REMARK    1  A    between atoms: C_2  and  O_3 
REMARK    2  A    between atoms: C_2  and  C_4 
REMARK    3  A    between atoms: C_4  and  C_5 
REMARK    4  A    between atoms: C_5  and  C_6 
REMARK    5  A    between atoms: C_7  and  C_8 
REMARK    6  A    between atoms: C_8  and  C_9 
REMARK    7  A    between atoms: C_9  and  O_11 
REMARK    8  A    between atoms: C_28  and  C_29 
REMARK    9  A    between atoms: C_29  and  C_30 
REMARK   10  A    between atoms: C_30  and  O_32 
REMARK   11  A    between atoms: C_33  and  C_34 
REMARK   12  A    between atoms: C_34  and  C_35 
REMARK   13  A    between atoms: C_35  and  C_36 
REMARK   14  A    between atoms: C_36  and  O_38 
REMARK   15  A    between atoms: C_39  and  C_40 
REMARK   16  A    between atoms: C_40  and  C_41 
REMARK   17  A    between atoms: C_41  and  C_42 
REMARK   18  A    between atoms: C_42  and  O_44 
REMARK   19  A    between atoms: C_45  and  C_46 
REMARK   20  A    between atoms: C_46  and  C_47 
REMARK   21  A    between atoms: C_47  and  O_49 
REMARK   22  A    between atoms: C_50  and  C_51 
REMARK   23  A    between atoms: C_51  and  C_52 
REMARK   24  A    between atoms: C_52  and  O_54 
REMARK   25  A    between atoms: C_55  and  C_56 
REMARK   26  A    between atoms: C_56  and  C_57 
REMARK   27  A    between atoms: C_57  and  C_58 
REMARK   28  A    between atoms: C_58  and  O_60 
ROOT
ATOM      1  O   UNK d   0      18.749  27.563  -6.451  0.00  0.00    -0.650 OA
ATOM      2  C   UNK d   0      17.953  26.886  -7.139  0.00  0.00     0.139 C 
ENDROOT
BRANCH   2   3
ATOM      3  O   UNK d   0      18.341  26.447  -8.382  0.00  0.00    -0.776 OA
ATOM      4  H   UNK d   0      17.672  26.387  -9.152  0.00  0.00     0.167 HD
ENDBRANCH   2   3
BRANCH   2   5
ATOM      5  C   UNK d   0      16.597  26.562  -6.611  0.00  0.00     0.115 C 
BRANCH   5   6
ATOM      6  C   UNK d   0      16.711  25.675  -5.401  0.00  0.00     0.052 C 
BRANCH   6   7
ATOM      7  C   UNK d   0      15.436  24.920  -5.111  0.00  0.00    -0.020 A 
ATOM      8  C   UNK d   0      14.667  25.026  -4.058  0.00  0.00    -0.011 A 
ATOM      9  C   UNK d   0      13.562  24.096  -4.218  0.00  0.00     0.067 A 
ATOM     10  C   UNK d   0      12.419  23.746  -3.483  0.00  0.00     0.062 C 
ATOM     11  N   UNK d   0      13.740  23.461  -5.396  0.00  0.00    -0.248 NA
ATOM     12  C   UNK d   0      11.311  23.019  -3.934  0.00  0.00     0.041 A 
ATOM     13  N   UNK d   0      11.228  21.912  -4.696  0.00  0.00    -0.355 N 
ATOM     14  C   UNK d   0      10.020  23.487  -3.628  0.00  0.00    -0.022 A 
ATOM     15  C   UNK d   0       9.917  21.670  -4.888  0.00  0.00     0.042 A 
ATOM     16  H   UNK d   0      12.078  21.303  -5.075  0.00  0.00     0.166 HD
ATOM     17  C   UNK d   0       9.274  20.642  -5.606  0.00  0.00     0.062 C 
ATOM     18  C   UNK d   0       9.129  22.636  -4.234  0.00  0.00    -0.013 A 
ATOM     19  C   UNK d   0       9.567  20.145  -6.850  0.00  0.00     0.067 A 
ATOM     20  N   UNK d   0      10.723  20.528  -7.398  0.00  0.00    -0.248 NA
ATOM     21  C   UNK d   0       8.911  19.268  -7.805  0.00  0.00    -0.011 A 
ATOM     22  C   UNK d   0      10.870  19.966  -8.642  0.00  0.00     0.066 A 
ATOM     23  C   UNK d   0      12.051  20.251  -9.311  0.00  0.00     0.062 C 
ATOM     24  C   UNK d   0       9.677  19.170  -8.853  0.00  0.00    -0.020 A 
ATOM     25  C   UNK d   0      13.157  20.973  -8.836  0.00  0.00     0.041 A 
ATOM     26  N   UNK d   0      13.240  22.081  -8.091  0.00  0.00    -0.355 N 
ATOM     27  C   UNK d   0      14.452  20.500  -9.140  0.00  0.00    -0.022 A 
ATOM     28  C   UNK d   0      14.546  22.330  -7.905  0.00  0.00     0.042 A 
ATOM     29  H   UNK d   0      12.385  22.698  -7.720  0.00  0.00     0.166 HD
ATOM     30  C   UNK d   0      15.200  23.354  -7.202  0.00  0.00     0.062 C 
ATOM     31  C   UNK d   0      15.337  21.353  -8.554  0.00  0.00    -0.013 A 
ATOM     32  C   UNK d   0      14.850  23.912  -5.982  0.00  0.00     0.066 A 
BRANCH   8  33
ATOM     33  C   UNK d   0      14.870  25.917  -2.901  0.00  0.00     0.151 C 
BRANCH  33  34
ATOM     34  C   UNK d   0      14.015  27.117  -2.949  0.00  0.00     0.143 C 
ATOM     35  O   UNK d   0      13.735  27.741  -1.915  0.00  0.00    -0.650 OA
BRANCH  34  36
ATOM     36  O   UNK d   0      13.523  27.548  -4.159  0.00  0.00    -0.776 OA
ATOM     37  H   UNK d   0      13.843  28.430  -4.583  0.00  0.00     0.167 HD
ENDBRANCH  34  36
ENDBRANCH  33  34
ENDBRANCH   8  33
BRANCH  31  38
ATOM     38  C   UNK d   0      16.843  21.241  -8.596  0.00  0.00     0.151 C 
BRANCH  38  39
ATOM     39  C   UNK d   0      17.461  22.273  -9.401  0.00  0.00     0.143 C 
ATOM     40  O   UNK d   0      17.377  23.481  -9.115  0.00  0.00    -0.650 OA
BRANCH  39  41
ATOM     41  O   UNK d   0      18.179  21.916 -10.542  0.00  0.00    -0.776 OA
ATOM     42  H   UNK d   0      18.246  22.619 -11.285  0.00  0.00     0.167 HD
ENDBRANCH  39  41
ENDBRANCH  38  39
ENDBRANCH  31  38
BRANCH  27  43
ATOM     43  C   UNK d   0      14.868  19.298  -9.950  0.00  0.00     0.052 C 
BRANCH  43  44
ATOM     44  C   UNK d   0      15.298  18.140  -9.109  0.00  0.00     0.115 C 
BRANCH  44  45
ATOM     45  C   UNK d   0      16.574  17.645  -9.689  0.00  0.00     0.139 C 
ATOM     46  O   UNK d   0      16.575  17.272 -10.888  0.00  0.00    -0.650 OA
BRANCH  45  47
ATOM     47  O   UNK d   0      17.748  17.586  -8.969  0.00  0.00    -0.776 OA
ATOM     48  H   UNK d   0      18.413  16.800  -9.045  0.00  0.00     0.167 HD
ENDBRANCH  45  47
ENDBRANCH  44  45
ENDBRANCH  43  44
ENDBRANCH  27  43
BRANCH  24  49
ATOM     49  C   UNK d   0       9.414  18.349 -10.048  0.00  0.00     0.052 C 
BRANCH  49  50
ATOM     50  C   UNK d   0       8.033  18.629 -10.583  0.00  0.00     0.115 C 
BRANCH  50  51
ATOM     51  C   UNK d   0       7.828  19.901 -11.262  0.00  0.00     0.139 C 
ATOM     52  O   UNK d   0       8.686  20.815 -11.259  0.00  0.00    -0.650 OA
BRANCH  51  53
ATOM     53  O   UNK d   0       6.644  20.132 -11.944  0.00  0.00    -0.776 OA
ATOM     54  H   UNK d   0       6.697  20.414 -12.907  0.00  0.00     0.167 HD
ENDBRANCH  51  53
ENDBRANCH  50  51
ENDBRANCH  49  50
ENDBRANCH  24  49
BRANCH  21  55
ATOM     55  C   UNK d   0       7.589  18.615  -7.569  0.00  0.00     0.151 C 
BRANCH  55  56
ATOM     56  C   UNK d   0       6.863  19.230  -6.448  0.00  0.00     0.143 C 
ATOM     57  O   UNK d   0       6.123  20.224  -6.588  0.00  0.00    -0.650 OA
BRANCH  56  58
ATOM     58  O   UNK d   0       7.020  18.665  -5.184  0.00  0.00    -0.776 OA
ATOM     59  H   UNK d   0       7.941  18.837  -4.741  0.00  0.00     0.167 HD
ENDBRANCH  56  58
ENDBRANCH  55  56
ENDBRANCH  21  55
BRANCH  18  60
ATOM     60  C   UNK d   0       7.628  22.771  -4.172  0.00  0.00     0.151 C 
BRANCH  60  61
ATOM     61  C   UNK d   0       7.148  21.601  -3.421  0.00  0.00     0.143 C 
ATOM     62  O   UNK d   0       7.741  21.000  -2.525  0.00  0.00    -0.650 OA
BRANCH  61  63
ATOM     63  O   UNK d   0       5.862  21.136  -3.786  0.00  0.00    -0.776 OA
ATOM     64  H   UNK d   0       5.562  21.141  -4.745  0.00  0.00     0.167 HD
ENDBRANCH  61  63
ENDBRANCH  60  61
ENDBRANCH  18  60
BRANCH  14  65
ATOM     65  C   UNK d   0       9.569  24.607  -2.734  0.00  0.00     0.052 C 
BRANCH  65  66
ATOM     66  C   UNK d   0      10.559  25.713  -2.643  0.00  0.00     0.115 C 
BRANCH  66  67
ATOM     67  C   UNK d   0      10.178  26.962  -2.046  0.00  0.00     0.139 C 
ATOM     68  O   UNK d   0       8.989  27.405  -2.255  0.00  0.00    -0.650 OA
BRANCH  67  69
ATOM     69  O   UNK d   0      10.953  27.793  -1.237  0.00  0.00    -0.776 OA
ATOM     70  H   UNK d   0      11.930  27.498  -1.099  0.00  0.00     0.167 HD
ENDBRANCH  67  69
ENDBRANCH  66  67
ENDBRANCH  65  66
ENDBRANCH  14  65
ENDBRANCH   6   7
ENDBRANCH   5   6
ENDBRANCH   2   5
TORSDOF 28
ENDMDL
MODEL 2
REMARK VINA RESULT:     -10.0      1.985      8.265
REMARK  28 active torsions:
REMARK  status: ('A' for Active; 'I' for Inactive)
REMARK    1  A    between atoms: C_2  and  O_3 
REMARK    2  A    between atoms: C_2  and  C_4 
REMARK    3  A    between atoms: C_4  and  C_5 
REMARK    4  A    between atoms: C_5  and  C_6 
REMARK    5  A    between atoms: C_7  and  C_8 
REMARK    6  A    between atoms: C_8  and  C_9 
REMARK    7  A    between atoms: C_9  and  O_11 
REMARK    8  A    between atoms: C_28  and  C_29 
REMARK    9  A    between atoms: C_29  and  C_30 
REMARK   10  A    between atoms: C_30  and  O_32 
REMARK   11  A    between atoms: C_33  and  C_34 
REMARK   12  A    between atoms: C_34  and  C_35 
REMARK   13  A    between atoms: C_35  and  C_36 
REMARK   14  A    between atoms: C_36  and  O_38 
REMARK   15  A    between atoms: C_39  and  C_40 
REMARK   16  A    between atoms: C_40  and  C_41 
REMARK   17  A    between atoms: C_41  and  C_42 
REMARK   18  A    between atoms: C_42  and  O_44 
REMARK   19  A    between atoms: C_45  and  C_46 
REMARK   20  A    between atoms: C_46  and  C_47 
REMARK   21  A    between atoms: C_47  and  O_49 
REMARK   22  A    between atoms: C_50  and  C_51 
REMARK   23  A    between atoms: C_51  and  C_52 
REMARK   24  A    between atoms: C_52  and  O_54 
REMARK   25  A    between atoms: C_55  and  C_56 
REMARK   26  A    between atoms: C_56  and  C_57 
REMARK   27  A    between atoms: C_57  and  C_58 
REMARK   28  A    between atoms: C_58  and  O_60 
ROOT
ATOM      1  O   UNK d   0       7.662  20.977  -3.102  0.00  0.00    -0.650 OA
ATOM      2  C   UNK d   0       7.406  21.687  -4.100  0.00  0.00     0.139 C 
ENDROOT
BRANCH   2   3
ATOM      3  O   UNK d   0       6.411  21.300  -4.965  0.00  0.00    -0.776 OA
ATOM      4  H   UNK d   0       6.521  20.477  -5.561  0.00  0.00     0.167 HD
ENDBRANCH   2   3
BRANCH   2   5
ATOM      5  C   UNK d   0       8.178  22.939  -4.345  0.00  0.00     0.115 C 
BRANCH   5   6
ATOM      6  C   UNK d   0       9.194  23.142  -3.255  0.00  0.00     0.052 C 
BRANCH   6   7
ATOM      7  C   UNK d   0      10.492  23.717  -3.770  0.00  0.00    -0.020 A 
ATOM      8  C   UNK d   0      11.105  24.798  -3.358  0.00  0.00    -0.011 A 
ATOM      9  C   UNK d   0      12.310  24.956  -4.155  0.00  0.00     0.067 A 
ATOM     10  C   UNK d   0      13.379  25.864  -4.204  0.00  0.00     0.062 C 
ATOM     11  N   UNK d   0      12.349  23.930  -5.032  0.00  0.00    -0.248 NA
ATOM     12  C   UNK d   0      14.603  25.697  -4.862  0.00  0.00     0.041 A 
ATOM     13  N   UNK d   0      14.895  25.203  -6.080  0.00  0.00    -0.355 N 
ATOM     14  C   UNK d   0      15.790  26.028  -4.184  0.00  0.00    -0.022 A 
ATOM     15  C   UNK d   0      16.237  25.204  -6.189  0.00  0.00     0.042 A 
ATOM     16  H   UNK d   0      14.166  24.877  -6.854  0.00  0.00     0.166 HD
ATOM     17  C   UNK d   0      17.067  24.795  -7.252  0.00  0.00     0.062 C 
ATOM     18  C   UNK d   0      16.833  25.715  -5.020  0.00  0.00    -0.013 A 
ATOM     19  C   UNK d   0      16.987  23.663  -8.022  0.00  0.00     0.067 A 
ATOM     20  N   UNK d   0      15.878  22.929  -7.905  0.00  0.00    -0.248 NA
ATOM     21  C   UNK d   0      17.845  22.991  -8.984  0.00  0.00    -0.011 A 
ATOM     22  C   UNK d   0      15.948  21.825  -8.720  0.00  0.00     0.066 A 
ATOM     23  C   UNK d   0      14.840  20.991  -8.725  0.00  0.00     0.062 C 
ATOM     24  C   UNK d   0      17.233  21.915  -9.385  0.00  0.00    -0.020 A 
ATOM     25  C   UNK d   0      13.615  21.184  -8.067  0.00  0.00     0.041 A 
ATOM     26  N   UNK d   0      13.326  21.661  -6.851  0.00  0.00    -0.355 N 
ATOM     27  C   UNK d   0      12.424  20.855  -8.750  0.00  0.00    -0.022 A 
ATOM     28  C   UNK d   0      11.989  21.652  -6.736  0.00  0.00     0.042 A 
ATOM     29  H   UNK d   0      14.060  21.978  -6.070  0.00  0.00     0.166 HD
ATOM     30  C   UNK d   0      11.150  22.048  -5.682  0.00  0.00     0.062 C 
ATOM     31  C   UNK d   0      11.390  21.149  -7.915  0.00  0.00    -0.013 A 
ATOM     32  C   UNK d   0      11.283  23.149  -4.851  0.00  0.00     0.066 A 
BRANCH   8  33
ATOM     33  C   UNK d   0      10.667  25.709  -2.285  0.00  0.00     0.151 C 
BRANCH  33  34
ATOM     34  C   UNK d   0       9.859  26.835  -2.787  0.00  0.00     0.143 C 
ATOM     35  O   UNK d   0      10.377  27.938  -3.016  0.00  0.00    -0.650 OA
BRANCH  34  36
ATOM     36  O   UNK d   0       8.512  26.657  -3.001  0.00  0.00    -0.776 OA
ATOM     37  H   UNK d   0       7.942  26.081  -2.367  0.00  0.00     0.167 HD
ENDBRANCH  34  36
ENDBRANCH  33  34
ENDBRANCH   8  33
BRANCH  31  38
ATOM     38  C   UNK d   0       9.920  20.976  -8.221  0.00  0.00     0.151 C 
BRANCH  38  39
ATOM     39  C   UNK d   0       9.309  19.909  -7.457  0.00  0.00     0.143 C 
ATOM     40  O   UNK d   0       8.273  20.076  -6.790  0.00  0.00    -0.650 OA
BRANCH  39  41
ATOM     41  O   UNK d   0       9.893  18.642  -7.461  0.00  0.00    -0.776 OA
ATOM     42  H   UNK d   0      10.669  18.493  -8.114  0.00  0.00     0.167 HD
ENDBRANCH  39  41
ENDBRANCH  38  39
ENDBRANCH  31  38
BRANCH  27  43
ATOM     43  C   UNK d   0      12.238  20.284 -10.133  0.00  0.00     0.052 C 
BRANCH  43  44
ATOM     44  C   UNK d   0      13.101  19.094 -10.402  0.00  0.00     0.115 C 
BRANCH  44  45
ATOM     45  C   UNK d   0      12.390  17.917  -9.837  0.00  0.00     0.139 C 
ATOM     46  O   UNK d   0      13.079  16.974  -9.376  0.00  0.00    -0.650 OA
BRANCH  45  47
ATOM     47  O   UNK d   0      11.016  17.824  -9.796  0.00  0.00    -0.776 OA
ATOM     48  H   UNK d   0      10.438  17.681 -10.641  0.00  0.00     0.167 HD
ENDBRANCH  45  47
ENDBRANCH  44  45
ENDBRANCH  43  44
ENDBRANCH  27  43
BRANCH  24  49
ATOM     49  C   UNK d   0      17.728  20.958 -10.390  0.00  0.00     0.052 C 
BRANCH  49  50
ATOM     50  C   UNK d   0      18.428  19.805  -9.718  0.00  0.00     0.115 C 
BRANCH  50  51
ATOM     51  C   UNK d   0      17.720  18.533  -9.673  0.00  0.00     0.139 C 
ATOM     52  O   UNK d   0      16.590  18.369 -10.189  0.00  0.00    -0.650 OA
BRANCH  51  53
ATOM     53  O   UNK d   0      18.302  17.447  -9.036  0.00  0.00    -0.776 OA
ATOM     54  H   UNK d   0      19.305  17.406  -8.986  0.00  0.00     0.167 HD
ENDBRANCH  51  53
ENDBRANCH  50  51
ENDBRANCH  49  50
ENDBRANCH  24  49
BRANCH  21  55
ATOM     55  C   UNK d   0      19.184  23.498  -9.405  0.00  0.00     0.151 C 
BRANCH  55  56
ATOM     56  C   UNK d   0      19.083  24.495 -10.482  0.00  0.00     0.143 C 
ATOM     57  O   UNK d   0      19.192  24.199 -11.688  0.00  0.00    -0.650 OA
BRANCH  56  58
ATOM     58  O   UNK d   0      18.856  25.821 -10.119  0.00  0.00    -0.776 OA
ATOM     59  H   UNK d   0      17.879  26.039  -9.852  0.00  0.00     0.167 HD
ENDBRANCH  56  58
ENDBRANCH  55  56
ENDBRANCH  21  55
BRANCH  18  60
ATOM     60  C   UNK d   0      18.293  25.901  -4.689  0.00  0.00     0.151 C 
BRANCH  60  61
ATOM     61  C   UNK d   0      18.831  26.794  -5.726  0.00  0.00     0.143 C 
ATOM     62  O   UNK d   0      18.211  27.635  -6.377  0.00  0.00    -0.650 OA
BRANCH  61  63
ATOM     63  O   UNK d   0      20.216  26.651  -5.985  0.00  0.00    -0.776 OA
ATOM     64  H   UNK d   0      20.782  26.020  -5.446  0.00  0.00     0.167 HD
ENDBRANCH  61  63
ENDBRANCH  60  61
ENDBRANCH  18  60
BRANCH  14  65
ATOM     65  C   UNK d   0      16.008  26.703  -2.860  0.00  0.00     0.052 C 
BRANCH  65  66
ATOM     66  C   UNK d   0      16.212  25.741  -1.743  0.00  0.00     0.115 C 
BRANCH  66  67
ATOM     67  C   UNK d   0      17.008  26.122  -0.611  0.00  0.00     0.139 C 
ATOM     68  O   UNK d   0      17.619  27.254  -0.644  0.00  0.00    -0.650 OA
BRANCH  67  69
ATOM     69  O   UNK d   0      17.219  25.404   0.565  0.00  0.00    -0.776 OA
ATOM     70  H   UNK d   0      17.389  24.394   0.449  0.00  0.00     0.167 HD
ENDBRANCH  67  69
ENDBRANCH  66  67
ENDBRANCH  65  66
ENDBRANCH  14  65
ENDBRANCH   6   7
ENDBRANCH   5   6
ENDBRANCH   2   5
TORSDOF 28
ENDMDL
MODEL 3
REMARK VINA RESULT:      -9.9      1.908      4.618
REMARK  28 active torsions:
REMARK  status: ('A' for Active; 'I' for Inactive)
REMARK    1  A    between atoms: C_2  and  O_3 
REMARK    2  A    between atoms: C_2  and  C_4 
REMARK    3  A    between atoms: C_4  and  C_5 
REMARK    4  A    between atoms: C_5  and  C_6 
REMARK    5  A    between atoms: C_7  and  C_8 
REMARK    6  A    between atoms: C_8  and  C_9 
REMARK    7  A    between atoms: C_9  and  O_11 
REMARK    8  A    between atoms: C_28  and  C_29 
REMARK    9  A    between atoms: C_29  and  C_30 
REMARK   10  A    between atoms: C_30  and  O_32 
REMARK   11  A    between atoms: C_33  and  C_34 
REMARK   12  A    between atoms: C_34  and  C_35 
REMARK   13  A    between atoms: C_35  and  C_36 
REMARK   14  A    between atoms: C_36  and  O_38 
REMARK   15  A    between atoms: C_39  and  C_40 
REMARK   16  A    between atoms: C_40  and  C_41 
REMARK   17  A    between atoms: C_41  and  C_42 
REMARK   18  A    between atoms: C_42  and  O_44 
REMARK   19  A    between atoms: C_45  and  C_46 
REMARK   20  A    between atoms: C_46  and  C_47 
REMARK   21  A    between atoms: C_47  and  O_49 
REMARK   22  A    between atoms: C_50  and  C_51 
REMARK   23  A    between atoms: C_51  and  C_52 
REMARK   24  A    between atoms: C_52  and  O_54 
REMARK   25  A    between atoms: C_55  and  C_56 
REMARK   26  A    between atoms: C_56  and  C_57 
REMARK   27  A    between atoms: C_57  and  C_58 
REMARK   28  A    between atoms: C_58  and  O_60 
ROOT
ATOM      1  O   UNK d   0      19.015  21.939 -11.060  0.00  0.00    -0.650 OA
ATOM      2  C   UNK d   0      19.108  23.148 -10.753  0.00  0.00     0.139 C 
ENDROOT
BRANCH   2   3
ATOM      3  O   UNK d   0      18.985  24.103 -11.733  0.00  0.00    -0.776 OA
ATOM      4  H   UNK d   0      18.875  23.841 -12.715  0.00  0.00     0.167 HD
ENDBRANCH   2   3
BRANCH   2   5
ATOM      5  C   UNK d   0      19.350  23.544  -9.337  0.00  0.00     0.115 C 
BRANCH   5   6
ATOM      6  C   UNK d   0      18.831  24.936  -9.093  0.00  0.00     0.052 C 
BRANCH   6   7
ATOM      7  C   UNK d   0      17.793  24.985  -7.997  0.00  0.00    -0.020 A 
ATOM      8  C   UNK d   0      17.793  25.743  -6.931  0.00  0.00    -0.011 A 
ATOM      9  C   UNK d   0      16.597  25.434  -6.165  0.00  0.00     0.067 A 
ATOM     10  C   UNK d   0      16.010  25.892  -4.975  0.00  0.00     0.062 C 
ATOM     11  N   UNK d   0      15.929  24.473  -6.837  0.00  0.00    -0.248 NA
ATOM     12  C   UNK d   0      14.701  25.668  -4.535  0.00  0.00     0.041 A 
ATOM     13  N   UNK d   0      13.939  24.558  -4.549  0.00  0.00    -0.355 N 
ATOM     14  C   UNK d   0      13.961  26.749  -4.023  0.00  0.00    -0.022 A 
ATOM     15  C   UNK d   0      12.732  24.909  -4.067  0.00  0.00     0.042 A 
ATOM     16  H   UNK d   0      14.254  23.542  -4.874  0.00  0.00     0.166 HD
ATOM     17  C   UNK d   0      11.569  24.138  -3.866  0.00  0.00     0.062 C 
ATOM     18  C   UNK d   0      12.707  26.275  -3.727  0.00  0.00    -0.013 A 
ATOM     19  C   UNK d   0      10.989  23.219  -4.703  0.00  0.00     0.067 A 
ATOM     20  N   UNK d   0      11.698  22.839  -5.768  0.00  0.00    -0.248 NA
ATOM     21  C   UNK d   0       9.721  22.510  -4.756  0.00  0.00    -0.011 A 
ATOM     22  C   UNK d   0      10.985  21.933  -6.516  0.00  0.00     0.066 A 
ATOM     23  C   UNK d   0      11.622  21.424  -7.638  0.00  0.00     0.062 C 
ATOM     24  C   UNK d   0       9.724  21.762  -5.822  0.00  0.00    -0.020 A 
ATOM     25  C   UNK d   0      12.942  21.651  -8.056  0.00  0.00     0.041 A 
ATOM     26  N   UNK d   0      13.695  22.758  -8.056  0.00  0.00    -0.355 N 
ATOM     27  C   UNK d   0      13.686  20.564  -8.564  0.00  0.00    -0.022 A 
ATOM     28  C   UNK d   0      14.897  22.413  -8.544  0.00  0.00     0.042 A 
ATOM     29  H   UNK d   0      13.374  23.780  -7.738  0.00  0.00     0.166 HD
ATOM     30  C   UNK d   0      16.059  23.171  -8.758  0.00  0.00     0.062 C 
ATOM     31  C   UNK d   0      14.924  21.037  -8.875  0.00  0.00    -0.013 A 
ATOM     32  C   UNK d   0      16.596  24.159  -7.948  0.00  0.00     0.066 A 
BRANCH   8  33
ATOM     33  C   UNK d   0      18.816  26.735  -6.550  0.00  0.00     0.151 C 
BRANCH  33  34
ATOM     34  C   UNK d   0      19.640  26.296  -5.409  0.00  0.00     0.143 C 
ATOM     35  O   UNK d   0      20.723  25.722  -5.590  0.00  0.00    -0.650 OA
BRANCH  34  36
ATOM     36  O   UNK d   0      19.196  26.527  -4.128  0.00  0.00    -0.776 OA
ATOM     37  H   UNK d   0      18.207  26.400  -3.874  0.00  0.00     0.167 HD
ENDBRANCH  34  36
ENDBRANCH  33  34
ENDBRANCH   8  33
BRANCH  31  38
ATOM     38  C   UNK d   0      16.070  20.231  -9.440  0.00  0.00     0.151 C 
BRANCH  38  39
ATOM     39  C   UNK d   0      16.275  18.979  -8.742  0.00  0.00     0.143 C 
ATOM     40  O   UNK d   0      15.958  18.823  -7.549  0.00  0.00    -0.650 OA
BRANCH  39  41
ATOM     41  O   UNK d   0      16.845  17.901  -9.418  0.00  0.00    -0.776 OA
ATOM     42  H   UNK d   0      16.390  16.990  -9.302  0.00  0.00     0.167 HD
ENDBRANCH  39  41
ENDBRANCH  38  39
ENDBRANCH  31  38
BRANCH  27  43
ATOM     43  C   UNK d   0      13.271  19.128  -8.763  0.00  0.00     0.052 C 
BRANCH  43  44
ATOM     44  C   UNK d   0      12.784  18.839 -10.146  0.00  0.00     0.115 C 
BRANCH  44  45
ATOM     45  C   UNK d   0      13.470  17.597 -10.586  0.00  0.00     0.139 C 
ATOM     46  O   UNK d   0      12.981  16.495 -10.234  0.00  0.00    -0.650 OA
BRANCH  45  47
ATOM     47  O   UNK d   0      14.607  17.606 -11.364  0.00  0.00    -0.776 OA
ATOM     48  H   UNK d   0      15.023  16.747 -11.759  0.00  0.00     0.167 HD
ENDBRANCH  45  47
ENDBRANCH  44  45
ENDBRANCH  43  44
ENDBRANCH  27  43
BRANCH  24  49
ATOM     49  C   UNK d   0       8.650  20.846  -6.243  0.00  0.00     0.052 C 
BRANCH  49  50
ATOM     50  C   UNK d   0       9.119  19.976  -7.381  0.00  0.00     0.115 C 
BRANCH  50  51
ATOM     51  C   UNK d   0       8.186  18.974  -7.879  0.00  0.00     0.139 C 
ATOM     52  O   UNK d   0       6.954  19.025  -7.654  0.00  0.00    -0.650 OA
BRANCH  51  53
ATOM     53  O   UNK d   0       8.660  17.911  -8.634  0.00  0.00    -0.776 OA
ATOM     54  H   UNK d   0       8.261  17.760  -9.544  0.00  0.00     0.167 HD
ENDBRANCH  51  53
ENDBRANCH  50  51
ENDBRANCH  49  50
ENDBRANCH  24  49
BRANCH  21  55
ATOM     55  C   UNK d   0       8.642  22.650  -3.735  0.00  0.00     0.151 C 
BRANCH  55  56
ATOM     56  C   UNK d   0       8.745  21.630  -2.680  0.00  0.00     0.143 C 
ATOM     57  O   UNK d   0       7.866  20.766  -2.488  0.00  0.00    -0.650 OA
BRANCH  56  58
ATOM     58  O   UNK d   0       9.880  21.645  -1.871  0.00  0.00    -0.776 OA
ATOM     59  H   UNK d   0      10.103  20.742  -1.416  0.00  0.00     0.167 HD
ENDBRANCH  56  58
ENDBRANCH  55  56
ENDBRANCH  21  55
BRANCH  18  60
ATOM     60  C   UNK d   0      11.581  27.104  -3.160  0.00  0.00     0.151 C 
BRANCH  60  61
ATOM     61  C   UNK d   0      11.470  26.720  -1.745  0.00  0.00     0.143 C 
ATOM     62  O   UNK d   0      12.194  27.084  -0.818  0.00  0.00    -0.650 OA
BRANCH  61  63
ATOM     63  O   UNK d   0      10.408  25.834  -1.443  0.00  0.00    -0.776 OA
ATOM     64  H   UNK d   0       9.784  25.510  -2.160  0.00  0.00     0.167 HD
ENDBRANCH  61  63
ENDBRANCH  60  61
ENDBRANCH  18  60
BRANCH  14  65
ATOM     65  C   UNK d   0      14.374  28.158  -3.705  0.00  0.00     0.052 C 
BRANCH  65  66
ATOM     66  C   UNK d   0      14.856  28.321  -2.307  0.00  0.00     0.115 C 
BRANCH  66  67
ATOM     67  C   UNK d   0      16.038  27.629  -1.876  0.00  0.00     0.139 C 
ATOM     68  O   UNK d   0      15.950  26.829  -0.874  0.00  0.00    -0.650 OA
BRANCH  67  69
ATOM     69  O   UNK d   0      17.320  27.711  -2.419  0.00  0.00    -0.776 OA
ATOM     70  H   UNK d   0      17.370  27.980  -3.412  0.00  0.00     0.167 HD
ENDBRANCH  67  69
ENDBRANCH  66  67
ENDBRANCH  65  66
ENDBRANCH  14  65
ENDBRANCH   6   7
ENDBRANCH   5   6
ENDBRANCH   2   5
TORSDOF 28
ENDMDL
MODEL 4
REMARK VINA RESULT:      -8.9      1.910     10.880
REMARK  28 active torsions:
REMARK  status: ('A' for Active; 'I' for Inactive)
REMARK    1  A    between atoms: C_2  and  O_3 
REMARK    2  A    between atoms: C_2  and  C_4 
REMARK    3  A    between atoms: C_4  and  C_5 
REMARK    4  A    between atoms: C_5  and  C_6 
REMARK    5  A    between atoms: C_7  and  C_8 
REMARK    6  A    between atoms: C_8  and  C_9 
REMARK    7  A    between atoms: C_9  and  O_11 
REMARK    8  A    between atoms: C_28  and  C_29 
REMARK    9  A    between atoms: C_29  and  C_30 
REMARK   10  A    between atoms: C_30  and  O_32 
REMARK   11  A    between atoms: C_33  and  C_34 
REMARK   12  A    between atoms: C_34  and  C_35 
REMARK   13  A    between atoms: C_35  and  C_36 
REMARK   14  A    between atoms: C_36  and  O_38 
REMARK   15  A    between atoms: C_39  and  C_40 
REMARK   16  A    between atoms: C_40  and  C_41 
REMARK   17  A    between atoms: C_41  and  C_42 
REMARK   18  A    between atoms: C_42  and  O_44 
REMARK   19  A    between atoms: C_45  and  C_46 
REMARK   20  A    between atoms: C_46  and  C_47 
REMARK   21  A    between atoms: C_47  and  O_49 
REMARK   22  A    between atoms: C_50  and  C_51 
REMARK   23  A    between atoms: C_51  and  C_52 
REMARK   24  A    between atoms: C_52  and  O_54 
REMARK   25  A    between atoms: C_55  and  C_56 
REMARK   26  A    between atoms: C_56  and  C_57 
REMARK   27  A    between atoms: C_57  and  C_58 
REMARK   28  A    between atoms: C_58  and  O_60 
ROOT
ATOM      1  O   UNK d   0       7.846  19.102  -9.536  0.00  0.00    -0.650 OA
ATOM      2  C   UNK d   0       8.561  18.770  -8.565  0.00  0.00     0.139 C 
ENDROOT
BRANCH   2   3
ATOM      3  O   UNK d   0       7.969  18.482  -7.359  0.00  0.00    -0.776 OA
ATOM      4  H   UNK d   0       7.046  18.853  -7.123  0.00  0.00     0.167 HD
ENDBRANCH   2   3
BRANCH   2   5
ATOM      5  C   UNK d   0      10.042  18.691  -8.719  0.00  0.00     0.115 C 
BRANCH   5   6
ATOM      6  C   UNK d   0      10.534  19.823  -9.579  0.00  0.00     0.052 C 
BRANCH   6   7
ATOM      7  C   UNK d   0      11.772  20.482  -9.018  0.00  0.00    -0.020 A 
ATOM      8  C   UNK d   0      13.005  20.350  -9.435  0.00  0.00    -0.011 A 
ATOM      9  C   UNK d   0      13.852  21.168  -8.583  0.00  0.00     0.067 A 
ATOM     10  C   UNK d   0      15.220  21.475  -8.511  0.00  0.00     0.062 C 
ATOM     11  N   UNK d   0      13.052  21.759  -7.671  0.00  0.00    -0.248 NA
ATOM     12  C   UNK d   0      15.819  22.512  -7.786  0.00  0.00     0.041 A 
ATOM     13  N   UNK d   0      15.594  22.965  -6.538  0.00  0.00    -0.355 N 
ATOM     14  C   UNK d   0      16.798  23.303  -8.413  0.00  0.00    -0.022 A 
ATOM     15  C   UNK d   0      16.400  24.029  -6.359  0.00  0.00     0.042 A 
ATOM     16  H   UNK d   0      14.894  22.530  -5.791  0.00  0.00     0.166 HD
ATOM     17  C   UNK d   0      16.568  24.871  -5.242  0.00  0.00     0.062 C 
ATOM     18  C   UNK d   0      17.170  24.272  -7.514  0.00  0.00    -0.013 A 
ATOM     19  C   UNK d   0      15.612  25.438  -4.439  0.00  0.00     0.067 A 
ATOM     20  N   UNK d   0      14.359  24.999  -4.587  0.00  0.00    -0.248 NA
ATOM     21  C   UNK d   0      15.586  26.465  -3.411  0.00  0.00    -0.011 A 
ATOM     22  C   UNK d   0      13.516  25.665  -3.731  0.00  0.00     0.066 A 
ATOM     23  C   UNK d   0      12.184  25.279  -3.754  0.00  0.00     0.062 C 
ATOM     24  C   UNK d   0      14.356  26.596  -3.004  0.00  0.00    -0.020 A 
ATOM     25  C   UNK d   0      11.605  24.227  -4.480  0.00  0.00     0.041 A 
ATOM     26  N   UNK d   0      11.817  23.786  -5.726  0.00  0.00    -0.355 N 
ATOM     27  C   UNK d   0      10.626  23.430  -3.848  0.00  0.00    -0.022 A 
ATOM     28  C   UNK d   0      11.008  22.730  -5.909  0.00  0.00     0.042 A 
ATOM     29  H   UNK d   0      12.513  24.231  -6.479  0.00  0.00     0.166 HD
ATOM     30  C   UNK d   0      10.825  21.889  -7.018  0.00  0.00     0.062 C 
ATOM     31  C   UNK d   0      10.243  22.480  -4.745  0.00  0.00    -0.013 A 
ATOM     32  C   UNK d   0      11.788  21.387  -7.879  0.00  0.00     0.066 A 
BRANCH   8  33
ATOM     33  C   UNK d   0      13.475  19.522 -10.560  0.00  0.00     0.151 C 
BRANCH  33  34
ATOM     34  C   UNK d   0      13.950  18.194 -10.132  0.00  0.00     0.143 C 
ATOM     35  O   UNK d   0      15.100  17.814 -10.394  0.00  0.00    -0.650 OA
BRANCH  34  36
ATOM     36  O   UNK d   0      13.102  17.366  -9.433  0.00  0.00    -0.776 OA
ATOM     37  H   UNK d   0      13.464  16.600  -8.849  0.00  0.00     0.167 HD
ENDBRANCH  34  36
ENDBRANCH  33  34
ENDBRANCH   8  33
BRANCH  31  38
ATOM     38  C   UNK d   0       9.222  21.391  -4.509  0.00  0.00     0.151 C 
BRANCH  38  39
ATOM     39  C   UNK d   0       7.907  21.738  -5.005  0.00  0.00     0.143 C 
ATOM     40  O   UNK d   0       7.095  20.879  -5.393  0.00  0.00    -0.650 OA
BRANCH  39  41
ATOM     41  O   UNK d   0       7.523  23.077  -5.055  0.00  0.00    -0.776 OA
ATOM     42  H   UNK d   0       7.109  23.471  -4.204  0.00  0.00     0.167 HD
ENDBRANCH  39  41
ENDBRANCH  38  39
ENDBRANCH  31  38
BRANCH  27  43
ATOM     43  C   UNK d   0      10.053  23.538  -2.457  0.00  0.00     0.052 C 
BRANCH  43  44
ATOM     44  C   UNK d   0      10.194  24.903  -1.865  0.00  0.00     0.115 C 
BRANCH  44  45
ATOM     45  C   UNK d   0       9.222  25.776  -2.573  0.00  0.00     0.139 C 
ATOM     46  O   UNK d   0       9.172  26.989  -2.251  0.00  0.00    -0.650 OA
BRANCH  45  47
ATOM     47  O   UNK d   0       8.386  25.312  -3.565  0.00  0.00    -0.776 OA
ATOM     48  H   UNK d   0       7.357  25.304  -3.472  0.00  0.00     0.167 HD
ENDBRANCH  45  47
ENDBRANCH  44  45
ENDBRANCH  43  44
ENDBRANCH  27  43
BRANCH  24  49
ATOM     49  C   UNK d   0      13.885  27.502  -1.942  0.00  0.00     0.052 C 
BRANCH  49  50
ATOM     50  C   UNK d   0      14.591  28.830  -2.033  0.00  0.00     0.115 C 
BRANCH  50  51
ATOM     51  C   UNK d   0      14.506  29.709  -0.875  0.00  0.00     0.139 C 
ATOM     52  O   UNK d   0      14.474  29.277   0.301  0.00  0.00    -0.650 OA
BRANCH  51  53
ATOM     53  O   UNK d   0      14.454  31.082  -1.058  0.00  0.00    -0.776 OA
ATOM     54  H   UNK d   0      15.121  31.653  -0.569  0.00  0.00     0.167 HD
ENDBRANCH  51  53
ENDBRANCH  50  51
ENDBRANCH  49  50
ENDBRANCH  24  49
BRANCH  21  55
ATOM     55  C   UNK d   0      16.794  27.205  -2.939  0.00  0.00     0.151 C 
BRANCH  55  56
ATOM     56  C   UNK d   0      17.275  26.705  -1.643  0.00  0.00     0.143 C 
ATOM     57  O   UNK d   0      17.854  27.433  -0.812  0.00  0.00    -0.650 OA
BRANCH  56  58
ATOM     58  O   UNK d   0      17.067  25.359  -1.348  0.00  0.00    -0.776 OA
ATOM     59  H   UNK d   0      17.894  24.862  -0.970  0.00  0.00     0.167 HD
ENDBRANCH  56  58
ENDBRANCH  55  56
ENDBRANCH  21  55
BRANCH  18  60
ATOM     60  C   UNK d   0      18.196  25.346  -7.776  0.00  0.00     0.151 C 
BRANCH  60  61
ATOM     61  C   UNK d   0      17.453  26.616  -7.804  0.00  0.00     0.143 C 
ATOM     62  O   UNK d   0      16.349  26.818  -8.309  0.00  0.00    -0.650 OA
BRANCH  61  63
ATOM     63  O   UNK d   0      18.100  27.706  -7.175  0.00  0.00    -0.776 OA
ATOM     64  H   UNK d   0      18.355  28.528  -7.694  0.00  0.00     0.167 HD
ENDBRANCH  61  63
ENDBRANCH  60  61
ENDBRANCH  18  60
BRANCH  14  65
ATOM     65  C   UNK d   0      17.472  23.155  -9.747  0.00  0.00     0.052 C 
BRANCH  65  66
ATOM     66  C   UNK d   0      18.431  22.019  -9.791  0.00  0.00     0.115 C 
BRANCH  66  67
ATOM     67  C   UNK d   0      19.368  21.920 -10.875  0.00  0.00     0.139 C 
ATOM     68  O   UNK d   0      19.312  22.793 -11.816  0.00  0.00    -0.650 OA
BRANCH  67  69
ATOM     69  O   UNK d   0      20.370  20.966 -11.051  0.00  0.00    -0.776 OA
ATOM     70  H   UNK d   0      20.674  20.473 -10.200  0.00  0.00     0.167 HD
ENDBRANCH  67  69
ENDBRANCH  66  67
ENDBRANCH  65  66
ENDBRANCH  14  65
ENDBRANCH   6   7
ENDBRANCH   5   6
ENDBRANCH   2   5
TORSDOF 28
ENDMDL
MODEL 5
REMARK VINA RESULT:      -7.9     22.637     28.026
REMARK  28 active torsions:
REMARK  status: ('A' for Active; 'I' for Inactive)
REMARK    1  A    between atoms: C_2  and  O_3 
REMARK    2  A    between atoms: C_2  and  C_4 
REMARK    3  A    between atoms: C_4  and  C_5 
REMARK    4  A    between atoms: C_5  and  C_6 
REMARK    5  A    between atoms: C_7  and  C_8 
REMARK    6  A    between atoms: C_8  and  C_9 
REMARK    7  A    between atoms: C_9  and  O_11 
REMARK    8  A    between atoms: C_28  and  C_29 
REMARK    9  A    between atoms: C_29  and  C_30 
REMARK   10  A    between atoms: C_30  and  O_32 
REMARK   11  A    between atoms: C_33  and  C_34 
REMARK   12  A    between atoms: C_34  and  C_35 
REMARK   13  A    between atoms: C_35  and  C_36 
REMARK   14  A    between atoms: C_36  and  O_38 
REMARK   15  A    between atoms: C_39  and  C_40 
REMARK   16  A    between atoms: C_40  and  C_41 
REMARK   17  A    between atoms: C_41  and  C_42 
REMARK   18  A    between atoms: C_42  and  O_44 
REMARK   19  A    between atoms: C_45  and  C_46 
REMARK   20  A    between atoms: C_46  and  C_47 
REMARK   21  A    between atoms: C_47  and  O_49 
REMARK   22  A    between atoms: C_50  and  C_51 
REMARK   23  A    between atoms: C_51  and  C_52 
REMARK   24  A    between atoms: C_52  and  O_54 
REMARK   25  A    between atoms: C_55  and  C_56 
REMARK   26  A    between atoms: C_56  and  C_57 
REMARK   27  A    between atoms: C_57  and  C_58 
REMARK   28  A    between atoms: C_58  and  O_60 
ROOT
ATOM      1  O   UNK d   0      -7.707  18.723  17.262  0.00  0.00    -0.650 OA
ATOM      2  C   UNK d   0      -8.193  19.442  16.362  0.00  0.00     0.139 C 
ENDROOT
BRANCH   2   3
ATOM      3  O   UNK d   0      -8.489  18.886  15.141  0.00  0.00    -0.776 OA
ATOM      4  H   UNK d   0      -7.784  18.828  14.403  0.00  0.00     0.167 HD
ENDBRANCH   2   3
BRANCH   2   5
ATOM      5  C   UNK d   0      -8.446  20.889  16.615  0.00  0.00     0.115 C 
BRANCH   5   6
ATOM      6  C   UNK d   0      -7.331  21.719  16.039  0.00  0.00     0.052 C 
BRANCH   6   7
ATOM      7  C   UNK d   0      -7.823  22.747  15.049  0.00  0.00    -0.020 A 
ATOM      8  C   UNK d   0      -8.148  23.992  15.287  0.00  0.00    -0.011 A 
ATOM      9  C   UNK d   0      -8.571  24.589  14.031  0.00  0.00     0.067 A 
ATOM     10  C   UNK d   0      -9.009  25.854  13.608  0.00  0.00     0.062 C 
ATOM     11  N   UNK d   0      -8.479  23.634  13.082  0.00  0.00    -0.248 NA
ATOM     12  C   UNK d   0      -9.109  26.319  12.292  0.00  0.00     0.041 A 
ATOM     13  N   UNK d   0      -9.568  25.725  11.174  0.00  0.00    -0.355 N 
ATOM     14  C   UNK d   0      -8.619  27.601  11.985  0.00  0.00    -0.022 A 
ATOM     15  C   UNK d   0      -9.374  26.594  10.164  0.00  0.00     0.042 A 
ATOM     16  H   UNK d   0     -10.037  24.719  11.104  0.00  0.00     0.166 HD
ATOM     17  C   UNK d   0      -9.673  26.481   8.792  0.00  0.00     0.062 C 
ATOM     18  C   UNK d   0      -8.781  27.782  10.634  0.00  0.00    -0.013 A 
ATOM     19  C   UNK d   0      -9.456  25.422   7.947  0.00  0.00     0.067 A 
ATOM     20  N   UNK d   0      -9.098  24.265   8.507  0.00  0.00    -0.248 NA
ATOM     21  C   UNK d   0      -9.500  25.207   6.510  0.00  0.00    -0.011 A 
ATOM     22  C   UNK d   0      -8.902  23.308   7.541  0.00  0.00     0.066 A 
ATOM     23  C   UNK d   0      -8.561  22.040   7.989  0.00  0.00     0.062 C 
ATOM     24  C   UNK d   0      -9.170  23.969   6.279  0.00  0.00    -0.020 A 
ATOM     25  C   UNK d   0      -8.478  21.590   9.316  0.00  0.00     0.041 A 
ATOM     26  N   UNK d   0      -8.009  22.175  10.424  0.00  0.00    -0.355 N 
ATOM     27  C   UNK d   0      -8.974  20.304   9.624  0.00  0.00    -0.022 A 
ATOM     28  C   UNK d   0      -8.192  21.306  11.431  0.00  0.00     0.042 A 
ATOM     29  H   UNK d   0      -7.528  23.182  10.492  0.00  0.00     0.166 HD
ATOM     30  C   UNK d   0      -7.892  21.402  12.799  0.00  0.00     0.062 C 
ATOM     31  C   UNK d   0      -8.798  20.117  10.961  0.00  0.00    -0.013 A 
ATOM     32  C   UNK d   0      -8.034  22.502  13.630  0.00  0.00     0.066 A 
BRANCH   8  33
ATOM     33  C   UNK d   0      -8.105  24.685  16.588  0.00  0.00     0.151 C 
BRANCH  33  34
ATOM     34  C   UNK d   0      -9.445  24.909  17.159  0.00  0.00     0.143 C 
ATOM     35  O   UNK d   0      -9.895  26.056  17.297  0.00  0.00    -0.650 OA
BRANCH  34  36
ATOM     36  O   UNK d   0     -10.204  23.828  17.546  0.00  0.00    -0.776 OA
ATOM     37  H   UNK d   0      -9.775  22.909  17.718  0.00  0.00     0.167 HD
ENDBRANCH  34  36
ENDBRANCH  33  34
ENDBRANCH   8  33
BRANCH  31  38
ATOM     38  C   UNK d   0      -9.192  18.890  11.748  0.00  0.00     0.151 C 
BRANCH  38  39
ATOM     39  C   UNK d   0     -10.554  18.947  12.233  0.00  0.00     0.143 C 
ATOM     40  O   UNK d   0     -10.856  19.496  13.307  0.00  0.00    -0.650 OA
BRANCH  39  41
ATOM     41  O   UNK d   0     -11.576  18.370  11.479  0.00  0.00    -0.776 OA
ATOM     42  H   UNK d   0     -11.296  17.681  10.774  0.00  0.00     0.167 HD
ENDBRANCH  39  41
ENDBRANCH  38  39
ENDBRANCH  31  38
BRANCH  27  43
ATOM     43  C   UNK d   0      -9.593  19.272   8.715  0.00  0.00     0.052 C 
BRANCH  43  44
ATOM     44  C   UNK d   0      -8.642  18.190   8.317  0.00  0.00     0.115 C 
BRANCH  44  45
ATOM     45  C   UNK d   0      -9.282  16.903   8.695  0.00  0.00     0.139 C 
ATOM     46  O   UNK d   0      -8.588  15.858   8.634  0.00  0.00    -0.650 OA
BRANCH  45  47
ATOM     47  O   UNK d   0     -10.592  16.814   9.112  0.00  0.00    -0.776 OA
ATOM     48  H   UNK d   0     -10.878  16.290   9.954  0.00  0.00     0.167 HD
ENDBRANCH  45  47
ENDBRANCH  44  45
ENDBRANCH  43  44
ENDBRANCH  27  43
BRANCH  24  49
ATOM     49  C   UNK d   0      -9.123  23.314   4.960  0.00  0.00     0.052 C 
BRANCH  49  50
ATOM     50  C   UNK d   0      -7.695  23.154   4.506  0.00  0.00     0.115 C 
BRANCH  50  51
ATOM     51  C   UNK d   0      -7.221  24.060   3.469  0.00  0.00     0.139 C 
ATOM     52  O   UNK d   0      -7.991  24.602   2.641  0.00  0.00    -0.650 OA
BRANCH  51  53
ATOM     53  O   UNK d   0      -5.868  24.347   3.374  0.00  0.00    -0.776 OA
ATOM     54  H   UNK d   0      -5.336  24.415   4.223  0.00  0.00     0.167 HD
ENDBRANCH  51  53
ENDBRANCH  50  51
ENDBRANCH  49  50
ENDBRANCH  24  49
BRANCH  21  55
ATOM     55  C   UNK d   0      -9.870  26.260   5.519  0.00  0.00     0.151 C 
BRANCH  55  56
ATOM     56  C   UNK d   0     -11.295  26.200   5.157  0.00  0.00     0.143 C 
ATOM     57  O   UNK d   0     -12.208  26.223   6.005  0.00  0.00    -0.650 OA
BRANCH  56  58
ATOM     58  O   UNK d   0     -11.618  26.114   3.803  0.00  0.00    -0.776 OA
ATOM     59  H   UNK d   0     -10.872  25.720   3.201  0.00  0.00     0.167 HD
ENDBRANCH  56  58
ENDBRANCH  55  56
ENDBRANCH  21  55
BRANCH  18  60
ATOM     60  C   UNK d   0      -8.381  29.022   9.873  0.00  0.00     0.151 C 
BRANCH  60  61
ATOM     61  C   UNK d   0      -7.084  28.713   9.252  0.00  0.00     0.143 C 
ATOM     62  O   UNK d   0      -6.107  28.194   9.793  0.00  0.00    -0.650 OA
BRANCH  61  63
ATOM     63  O   UNK d   0      -6.973  29.060   7.884  0.00  0.00    -0.776 OA
ATOM     64  H   UNK d   0      -7.534  28.604   7.187  0.00  0.00     0.167 HD
ENDBRANCH  61  63
ENDBRANCH  60  61
ENDBRANCH  18  60
BRANCH  14  65
ATOM     65  C   UNK d   0      -8.106  28.695  12.878  0.00  0.00     0.052 C 
BRANCH  65  66
ATOM     66  C   UNK d   0      -6.677  28.519  13.251  0.00  0.00     0.115 C 
BRANCH  66  67
ATOM     67  C   UNK d   0      -6.336  27.753  14.417  0.00  0.00     0.139 C 
ATOM     68  O   UNK d   0      -5.728  26.631  14.259  0.00  0.00    -0.650 OA
BRANCH  67  69
ATOM     69  O   UNK d   0      -6.583  28.075  15.751  0.00  0.00    -0.776 OA
ATOM     70  H   UNK d   0      -7.505  28.492  15.948  0.00  0.00     0.167 HD
ENDBRANCH  67  69
ENDBRANCH  66  67
ENDBRANCH  65  66
ENDBRANCH  14  65
ENDBRANCH   6   7
ENDBRANCH   5   6
ENDBRANCH   2   5
TORSDOF 28
ENDMDL
MODEL 6
REMARK VINA RESULT:      -7.8     26.306     29.264
REMARK  28 active torsions:
REMARK  status: ('A' for Active; 'I' for Inactive)
REMARK    1  A    between atoms: C_2  and  O_3 
REMARK    2  A    between atoms: C_2  and  C_4 
REMARK    3  A    between atoms: C_4  and  C_5 
REMARK    4  A    between atoms: C_5  and  C_6 
REMARK    5  A    between atoms: C_7  and  C_8 
REMARK    6  A    between atoms: C_8  and  C_9 
REMARK    7  A    between atoms: C_9  and  O_11 
REMARK    8  A    between atoms: C_28  and  C_29 
REMARK    9  A    between atoms: C_29  and  C_30 
REMARK   10  A    between atoms: C_30  and  O_32 
REMARK   11  A    between atoms: C_33  and  C_34 
REMARK   12  A    between atoms: C_34  and  C_35 
REMARK   13  A    between atoms: C_35  and  C_36 
REMARK   14  A    between atoms: C_36  and  O_38 
REMARK   15  A    between atoms: C_39  and  C_40 
REMARK   16  A    between atoms: C_40  and  C_41 
REMARK   17  A    between atoms: C_41  and  C_42 
REMARK   18  A    between atoms: C_42  and  O_44 
REMARK   19  A    between atoms: C_45  and  C_46 
REMARK   20  A    between atoms: C_46  and  C_47 
REMARK   21  A    between atoms: C_47  and  O_49 
REMARK   22  A    between atoms: C_50  and  C_51 
REMARK   23  A    between atoms: C_51  and  C_52 
REMARK   24  A    between atoms: C_52  and  O_54 
REMARK   25  A    between atoms: C_55  and  C_56 
REMARK   26  A    between atoms: C_56  and  C_57 
REMARK   27  A    between atoms: C_57  and  C_58 
REMARK   28  A    between atoms: C_58  and  O_60 
ROOT
ATOM      1  O   UNK d   0      16.469   5.555   4.493  0.00  0.00    -0.650 OA
ATOM      2  C   UNK d   0      15.694   5.021   5.318  0.00  0.00     0.139 C 
ENDROOT
BRANCH   2   3
ATOM      3  O   UNK d   0      14.918   5.815   6.126  0.00  0.00    -0.776 OA
ATOM      4  H   UNK d   0      14.295   5.407   6.826  0.00  0.00     0.167 HD
ENDBRANCH   2   3
BRANCH   2   5
ATOM      5  C   UNK d   0      15.618   3.535   5.419  0.00  0.00     0.115 C 
BRANCH   5   6
ATOM      6  C   UNK d   0      16.665   2.903   4.543  0.00  0.00     0.052 C 
BRANCH   6   7
ATOM      7  C   UNK d   0      17.639   2.051   5.323  0.00  0.00    -0.020 A 
ATOM      8  C   UNK d   0      18.679   2.452   6.007  0.00  0.00    -0.011 A 
ATOM      9  C   UNK d   0      19.317   1.277   6.577  0.00  0.00     0.067 A 
ATOM     10  C   UNK d   0      20.424   1.025   7.403  0.00  0.00     0.062 C 
ATOM     11  N   UNK d   0      18.600   0.203   6.184  0.00  0.00    -0.248 NA
ATOM     12  C   UNK d   0      20.723  -0.162   8.080  0.00  0.00     0.041 A 
ATOM     13  N   UNK d   0      20.654  -1.448   7.687  0.00  0.00    -0.355 N 
ATOM     14  C   UNK d   0      21.123  -0.094   9.427  0.00  0.00    -0.022 A 
ATOM     15  C   UNK d   0      20.991  -2.199   8.753  0.00  0.00     0.042 A 
ATOM     16  H   UNK d   0      20.390  -1.817   6.672  0.00  0.00     0.166 HD
ATOM     17  C   UNK d   0      21.083  -3.598   8.892  0.00  0.00     0.062 C 
ATOM     18  C   UNK d   0      21.292  -1.385   9.863  0.00  0.00    -0.013 A 
ATOM     19  C   UNK d   0      20.211  -4.566   8.464  0.00  0.00     0.067 A 
ATOM     20  N   UNK d   0      19.239  -4.180   7.633  0.00  0.00    -0.248 NA
ATOM     21  C   UNK d   0      20.036  -5.991   8.693  0.00  0.00    -0.011 A 
ATOM     22  C   UNK d   0      18.441  -5.248   7.304  0.00  0.00     0.066 A 
ATOM     23  C   UNK d   0      17.409  -4.995   6.413  0.00  0.00     0.062 C 
ATOM     24  C   UNK d   0      18.997  -6.383   8.015  0.00  0.00    -0.020 A 
ATOM     25  C   UNK d   0      17.133  -3.798   5.733  0.00  0.00     0.041 A 
ATOM     26  N   UNK d   0      17.187  -2.521   6.128  0.00  0.00    -0.355 N 
ATOM     27  C   UNK d   0      16.736  -3.867   4.380  0.00  0.00    -0.022 A 
ATOM     28  C   UNK d   0      16.843  -1.770   5.069  0.00  0.00     0.042 A 
ATOM     29  H   UNK d   0      17.442  -2.152   7.152  0.00  0.00     0.166 HD
ATOM     30  C   UNK d   0      16.739  -0.378   4.919  0.00  0.00     0.062 C 
ATOM     31  C   UNK d   0      16.551  -2.588   3.952  0.00  0.00    -0.013 A 
ATOM     32  C   UNK d   0      17.577   0.601   5.427  0.00  0.00     0.066 A 
BRANCH   8  33
ATOM     33  C   UNK d   0      19.145   3.841   6.178  0.00  0.00     0.151 C 
BRANCH  33  34
ATOM     34  C   UNK d   0      19.872   4.348   5.001  0.00  0.00     0.143 C 
ATOM     35  O   UNK d   0      20.847   3.735   4.542  0.00  0.00    -0.650 OA
BRANCH  34  36
ATOM     36  O   UNK d   0      19.462   5.519   4.406  0.00  0.00    -0.776 OA
ATOM     37  H   UNK d   0      19.342   6.382   4.953  0.00  0.00     0.167 HD
ENDBRANCH  34  36
ENDBRANCH  33  34
ENDBRANCH   8  33
BRANCH  31  38
ATOM     38  C   UNK d   0      16.136  -2.164   2.562  0.00  0.00     0.151 C 
BRANCH  38  39
ATOM     39  C   UNK d   0      17.254  -2.061   1.649  0.00  0.00     0.143 C 
ATOM     40  O   UNK d   0      17.127  -2.214   0.421  0.00  0.00    -0.650 OA
BRANCH  39  41
ATOM     41  O   UNK d   0      18.525  -1.779   2.149  0.00  0.00    -0.776 OA
ATOM     42  H   UNK d   0      19.160  -2.574   2.271  0.00  0.00     0.167 HD
ENDBRANCH  39  41
ENDBRANCH  38  39
ENDBRANCH  31  38
BRANCH  27  43
ATOM     43  C   UNK d   0      16.530  -5.075   3.502  0.00  0.00     0.052 C 
BRANCH  43  44
ATOM     44  C   UNK d   0      17.729  -5.421   2.680  0.00  0.00     0.115 C 
BRANCH  44  45
ATOM     45  C   UNK d   0      18.118  -6.804   3.057  0.00  0.00     0.139 C 
ATOM     46  O   UNK d   0      17.415  -7.406   3.907  0.00  0.00    -0.650 OA
BRANCH  45  47
ATOM     47  O   UNK d   0      19.206  -7.450   2.512  0.00  0.00    -0.776 OA
ATOM     48  H   UNK d   0      19.810  -8.087   3.056  0.00  0.00     0.167 HD
ENDBRANCH  45  47
ENDBRANCH  44  45
ENDBRANCH  43  44
ENDBRANCH  27  43
BRANCH  24  49
ATOM     49  C   UNK d   0      18.484  -7.761   7.931  0.00  0.00     0.052 C 
BRANCH  49  50
ATOM     50  C   UNK d   0      17.369  -7.967   8.924  0.00  0.00     0.115 C 
BRANCH  50  51
ATOM     51  C   UNK d   0      16.005  -7.914   8.413  0.00  0.00     0.139 C 
ATOM     52  O   UNK d   0      15.722  -8.158   7.217  0.00  0.00    -0.650 OA
BRANCH  51  53
ATOM     53  O   UNK d   0      14.965  -7.580   9.267  0.00  0.00    -0.776 OA
ATOM     54  H   UNK d   0      14.462  -8.325   9.717  0.00  0.00     0.167 HD
ENDBRANCH  51  53
ENDBRANCH  50  51
ENDBRANCH  49  50
ENDBRANCH  24  49
BRANCH  21  55
ATOM     55  C   UNK d   0      20.930  -6.812   9.563  0.00  0.00     0.151 C 
BRANCH  55  56
ATOM     56  C   UNK d   0      22.250  -7.025   8.952  0.00  0.00     0.143 C 
ATOM     57  O   UNK d   0      22.413  -7.150   7.722  0.00  0.00    -0.650 OA
BRANCH  56  58
ATOM     58  O   UNK d   0      23.355  -7.086   9.799  0.00  0.00    -0.776 OA
ATOM     59  H   UNK d   0      24.191  -6.573   9.464  0.00  0.00     0.167 HD
ENDBRANCH  56  58
ENDBRANCH  55  56
ENDBRANCH  21  55
BRANCH  18  60
ATOM     60  C   UNK d   0      21.711  -1.779  11.257  0.00  0.00     0.151 C 
BRANCH  60  61
ATOM     61  C   UNK d   0      23.177  -1.888  11.222  0.00  0.00     0.143 C 
ATOM     62  O   UNK d   0      23.897  -1.904  10.223  0.00  0.00    -0.650 OA
BRANCH  61  63
ATOM     63  O   UNK d   0      23.805  -1.982  12.488  0.00  0.00    -0.776 OA
ATOM     64  H   UNK d   0      24.265  -1.189  12.899  0.00  0.00     0.167 HD
ENDBRANCH  61  63
ENDBRANCH  60  61
ENDBRANCH  18  60
BRANCH  14  65
ATOM     65  C   UNK d   0      21.449   1.087  10.295  0.00  0.00     0.052 C 
BRANCH  65  66
ATOM     66  C   UNK d   0      20.270   1.604  11.042  0.00  0.00     0.115 C 
BRANCH  66  67
ATOM     67  C   UNK d   0      19.134   0.752  11.254  0.00  0.00     0.139 C 
ATOM     68  O   UNK d   0      18.159   0.810  10.417  0.00  0.00    -0.650 OA
BRANCH  67  69
ATOM     69  O   UNK d   0      18.935  -0.165  12.286  0.00  0.00    -0.776 OA
ATOM     70  H   UNK d   0      19.144   0.177  13.235  0.00  0.00     0.167 HD
ENDBRANCH  67  69
ENDBRANCH  66  67
ENDBRANCH  65  66
ENDBRANCH  14  65
ENDBRANCH   6   7
ENDBRANCH   5   6
ENDBRANCH   2   5
TORSDOF 28
ENDMDL
MODEL 7
REMARK VINA RESULT:      -7.8     26.305     30.141
REMARK  28 active torsions:
REMARK  status: ('A' for Active; 'I' for Inactive)
REMARK    1  A    between atoms: C_2  and  O_3 
REMARK    2  A    between atoms: C_2  and  C_4 
REMARK    3  A    between atoms: C_4  and  C_5 
REMARK    4  A    between atoms: C_5  and  C_6 
REMARK    5  A    between atoms: C_7  and  C_8 
REMARK    6  A    between atoms: C_8  and  C_9 
REMARK    7  A    between atoms: C_9  and  O_11 
REMARK    8  A    between atoms: C_28  and  C_29 
REMARK    9  A    between atoms: C_29  and  C_30 
REMARK   10  A    between atoms: C_30  and  O_32 
REMARK   11  A    between atoms: C_33  and  C_34 
REMARK   12  A    between atoms: C_34  and  C_35 
REMARK   13  A    between atoms: C_35  and  C_36 
REMARK   14  A    between atoms: C_36  and  O_38 
REMARK   15  A    between atoms: C_39  and  C_40 
REMARK   16  A    between atoms: C_40  and  C_41 
REMARK   17  A    between atoms: C_41  and  C_42 
REMARK   18  A    between atoms: C_42  and  O_44 
REMARK   19  A    between atoms: C_45  and  C_46 
REMARK   20  A    between atoms: C_46  and  C_47 
REMARK   21  A    between atoms: C_47  and  O_49 
REMARK   22  A    between atoms: C_50  and  C_51 
REMARK   23  A    between atoms: C_51  and  C_52 
REMARK   24  A    between atoms: C_52  and  O_54 
REMARK   25  A    between atoms: C_55  and  C_56 
REMARK   26  A    between atoms: C_56  and  C_57 
REMARK   27  A    between atoms: C_57  and  C_58 
REMARK   28  A    between atoms: C_58  and  O_60 
ROOT
ATOM      1  O   UNK d   0      16.697  -8.263  11.098  0.00  0.00    -0.650 OA
ATOM      2  C   UNK d   0      16.930  -7.196  11.709  0.00  0.00     0.139 C 
ENDROOT
BRANCH   2   3
ATOM      3  O   UNK d   0      16.685  -7.126  13.059  0.00  0.00    -0.776 OA
ATOM      4  H   UNK d   0      15.940  -6.533  13.430  0.00  0.00     0.167 HD
ENDBRANCH   2   3
BRANCH   2   5
ATOM      5  C   UNK d   0      17.468  -6.016  10.974  0.00  0.00     0.115 C 
BRANCH   5   6
ATOM      6  C   UNK d   0      18.809  -6.346  10.376  0.00  0.00     0.052 C 
BRANCH   6   7
ATOM      7  C   UNK d   0      18.966  -5.811   8.973  0.00  0.00    -0.020 A 
ATOM      8  C   UNK d   0      18.908  -6.483   7.852  0.00  0.00    -0.011 A 
ATOM      9  C   UNK d   0      19.126  -5.548   6.761  0.00  0.00     0.067 A 
ATOM     10  C   UNK d   0      19.166  -5.618   5.359  0.00  0.00     0.062 C 
ATOM     11  N   UNK d   0      19.316  -4.329   7.309  0.00  0.00    -0.248 NA
ATOM     12  C   UNK d   0      19.114  -4.551   4.456  0.00  0.00     0.041 A 
ATOM     13  N   UNK d   0      19.721  -3.349   4.468  0.00  0.00    -0.355 N 
ATOM     14  C   UNK d   0      18.263  -4.645   3.340  0.00  0.00    -0.022 A 
ATOM     15  C   UNK d   0      19.271  -2.675   3.393  0.00  0.00     0.042 A 
ATOM     16  H   UNK d   0      20.468  -2.991   5.211  0.00  0.00     0.166 HD
ATOM     17  C   UNK d   0      19.581  -1.380   2.931  0.00  0.00     0.062 C 
ATOM     18  C   UNK d   0      18.355  -3.455   2.661  0.00  0.00    -0.013 A 
ATOM     19  C   UNK d   0      19.683  -0.212   3.643  0.00  0.00     0.067 A 
ATOM     20  N   UNK d   0      19.689  -0.314   4.974  0.00  0.00    -0.248 NA
ATOM     21  C   UNK d   0      19.779   1.202   3.321  0.00  0.00    -0.011 A 
ATOM     22  C   UNK d   0      19.780   0.931   5.547  0.00  0.00     0.066 A 
ATOM     23  C   UNK d   0      19.834   0.969   6.932  0.00  0.00     0.062 C 
ATOM     24  C   UNK d   0      19.831   1.866   4.440  0.00  0.00    -0.020 A 
ATOM     25  C   UNK d   0      19.898  -0.115   7.822  0.00  0.00     0.041 A 
ATOM     26  N   UNK d   0      19.283  -1.303   7.818  0.00  0.00    -0.355 N 
ATOM     27  C   UNK d   0      20.756  -0.021   8.939  0.00  0.00    -0.022 A 
ATOM     28  C   UNK d   0      19.723  -1.974   8.894  0.00  0.00     0.042 A 
ATOM     29  H   UNK d   0      18.525  -1.657   7.076  0.00  0.00     0.166 HD
ATOM     30  C   UNK d   0      19.417  -3.258   9.370  0.00  0.00     0.062 C 
ATOM     31  C   UNK d   0      20.652  -1.193   9.623  0.00  0.00    -0.013 A 
ATOM     32  C   UNK d   0      19.231  -4.420   8.637  0.00  0.00     0.066 A 
BRANCH   8  33
ATOM     33  C   UNK d   0      18.669  -7.930   7.699  0.00  0.00     0.151 C 
BRANCH  33  34
ATOM     34  C   UNK d   0      17.271  -8.245   7.357  0.00  0.00     0.143 C 
ATOM     35  O   UNK d   0      16.958  -8.591   6.208  0.00  0.00    -0.650 OA
BRANCH  34  36
ATOM     36  O   UNK d   0      16.300  -8.151   8.328  0.00  0.00    -0.776 OA
ATOM     37  H   UNK d   0      15.360  -8.543   8.183  0.00  0.00     0.167 HD
ENDBRANCH  34  36
ENDBRANCH  33  34
ENDBRANCH   8  33
BRANCH  31  38
ATOM     38  C   UNK d   0      21.398  -1.559  10.885  0.00  0.00     0.151 C 
BRANCH  38  39
ATOM     39  C   UNK d   0      22.598  -2.325  10.625  0.00  0.00     0.143 C 
ATOM     40  O   UNK d   0      23.633  -1.807  10.169  0.00  0.00    -0.650 OA
BRANCH  39  41
ATOM     41  O   UNK d   0      22.610  -3.694  10.893  0.00  0.00    -0.776 OA
ATOM     42  H   UNK d   0      21.787  -4.228  10.598  0.00  0.00     0.167 HD
ENDBRANCH  39  41
ENDBRANCH  38  39
ENDBRANCH  31  38
BRANCH  27  43
ATOM     43  C   UNK d   0      21.647   1.117   9.371  0.00  0.00     0.052 C 
BRANCH  43  44
ATOM     44  C   UNK d   0      21.220   1.747  10.657  0.00  0.00     0.115 C 
BRANCH  44  45
ATOM     45  C   UNK d   0      20.260   2.824  10.303  0.00  0.00     0.139 C 
ATOM     46  O   UNK d   0      19.262   2.996  11.046  0.00  0.00    -0.650 OA
BRANCH  45  47
ATOM     47  O   UNK d   0      20.423   3.639   9.203  0.00  0.00    -0.776 OA
ATOM     48  H   UNK d   0      19.645   3.891   8.572  0.00  0.00     0.167 HD
ENDBRANCH  45  47
ENDBRANCH  44  45
ENDBRANCH  43  44
ENDBRANCH  27  43
BRANCH  24  49
ATOM     49  C   UNK d   0      19.972   3.325   4.578  0.00  0.00     0.052 C 
BRANCH  49  50
ATOM     50  C   UNK d   0      21.228   3.662   5.340  0.00  0.00     0.115 C 
BRANCH  50  51
ATOM     51  C   UNK d   0      21.240   4.916   6.081  0.00  0.00     0.139 C 
ATOM     52  O   UNK d   0      20.327   5.241   6.876  0.00  0.00    -0.650 OA
BRANCH  51  53
ATOM     53  O   UNK d   0      22.293   5.802   5.913  0.00  0.00    -0.776 OA
ATOM     54  H   UNK d   0      22.703   6.214   6.733  0.00  0.00     0.167 HD
ENDBRANCH  51  53
ENDBRANCH  50  51
ENDBRANCH  49  50
ENDBRANCH  24  49
BRANCH  21  55
ATOM     55  C   UNK d   0      19.813   1.742   1.930  0.00  0.00     0.151 C 
BRANCH  55  56
ATOM     56  C   UNK d   0      18.477   1.770   1.316  0.00  0.00     0.143 C 
ATOM     57  O   UNK d   0      18.150   1.019   0.376  0.00  0.00    -0.650 OA
BRANCH  56  58
ATOM     58  O   UNK d   0      17.550   2.680   1.821  0.00  0.00    -0.776 OA
ATOM     59  H   UNK d   0      17.378   3.506   1.220  0.00  0.00     0.167 HD
ENDBRANCH  56  58
ENDBRANCH  55  56
ENDBRANCH  21  55
BRANCH  18  60
ATOM     60  C   UNK d   0      17.599  -3.119   1.400  0.00  0.00     0.151 C 
BRANCH  60  61
ATOM     61  C   UNK d   0      16.502  -2.230   1.811  0.00  0.00     0.143 C 
ATOM     62  O   UNK d   0      15.838  -2.301   2.846  0.00  0.00    -0.650 OA
BRANCH  61  63
ATOM     63  O   UNK d   0      16.196  -1.190   0.902  0.00  0.00    -0.776 OA
ATOM     64  H   UNK d   0      15.423  -1.269   0.264  0.00  0.00     0.167 HD
ENDBRANCH  61  63
ENDBRANCH  60  61
ENDBRANCH  18  60
BRANCH  14  65
ATOM     65  C   UNK d   0      17.454  -5.798   2.818  0.00  0.00     0.052 C 
BRANCH  65  66
ATOM     66  C   UNK d   0      16.358  -6.203   3.739  0.00  0.00     0.115 C 
BRANCH  66  67
ATOM     67  C   UNK d   0      15.691  -7.460   3.542  0.00  0.00     0.139 C 
ATOM     68  O   UNK d   0      16.034  -8.186   2.537  0.00  0.00    -0.650 OA
BRANCH  67  69
ATOM     69  O   UNK d   0      14.682  -8.022   4.322  0.00  0.00    -0.776 OA
ATOM     70  H   UNK d   0      14.923  -8.901   4.801  0.00  0.00     0.167 HD
ENDBRANCH  67  69
ENDBRANCH  66  67
ENDBRANCH  65  66
ENDBRANCH  14  65
ENDBRANCH   6   7
ENDBRANCH   5   6
ENDBRANCH   2   5
TORSDOF 28
ENDMDL
MODEL 8
REMARK VINA RESULT:      -7.8     27.449     31.264
REMARK  28 active torsions:
REMARK  status: ('A' for Active; 'I' for Inactive)
REMARK    1  A    between atoms: C_2  and  O_3 
REMARK    2  A    between atoms: C_2  and  C_4 
REMARK    3  A    between atoms: C_4  and  C_5 
REMARK    4  A    between atoms: C_5  and  C_6 
REMARK    5  A    between atoms: C_7  and  C_8 
REMARK    6  A    between atoms: C_8  and  C_9 
REMARK    7  A    between atoms: C_9  and  O_11 
REMARK    8  A    between atoms: C_28  and  C_29 
REMARK    9  A    between atoms: C_29  and  C_30 
REMARK   10  A    between atoms: C_30  and  O_32 
REMARK   11  A    between atoms: C_33  and  C_34 
REMARK   12  A    between atoms: C_34  and  C_35 
REMARK   13  A    between atoms: C_35  and  C_36 
REMARK   14  A    between atoms: C_36  and  O_38 
REMARK   15  A    between atoms: C_39  and  C_40 
REMARK   16  A    between atoms: C_40  and  C_41 
REMARK   17  A    between atoms: C_41  and  C_42 
REMARK   18  A    between atoms: C_42  and  O_44 
REMARK   19  A    between atoms: C_45  and  C_46 
REMARK   20  A    between atoms: C_46  and  C_47 
REMARK   21  A    between atoms: C_47  and  O_49 
REMARK   22  A    between atoms: C_50  and  C_51 
REMARK   23  A    between atoms: C_51  and  C_52 
REMARK   24  A    between atoms: C_52  and  O_54 
REMARK   25  A    between atoms: C_55  and  C_56 
REMARK   26  A    between atoms: C_56  and  C_57 
REMARK   27  A    between atoms: C_57  and  C_58 
REMARK   28  A    between atoms: C_58  and  O_60 
ROOT
ATOM      1  O   UNK d   0      10.901  -2.125  10.875  0.00  0.00    -0.650 OA
ATOM      2  C   UNK d   0      11.532  -3.203  10.946  0.00  0.00     0.139 C 
ENDROOT
BRANCH   2   3
ATOM      3  O   UNK d   0      10.895  -4.327  11.413  0.00  0.00    -0.776 OA
ATOM      4  H   UNK d   0      10.159  -4.781  10.868  0.00  0.00     0.167 HD
ENDBRANCH   2   3
BRANCH   2   5
ATOM      5  C   UNK d   0      12.962  -3.261  10.529  0.00  0.00     0.115 C 
BRANCH   5   6
ATOM      6  C   UNK d   0      13.445  -4.686  10.537  0.00  0.00     0.052 C 
BRANCH   6   7
ATOM      7  C   UNK d   0      14.784  -4.849   9.858  0.00  0.00    -0.020 A 
ATOM      8  C   UNK d   0      15.306  -5.948   9.376  0.00  0.00    -0.011 A 
ATOM      9  C   UNK d   0      16.611  -5.617   8.827  0.00  0.00     0.067 A 
ATOM     10  C   UNK d   0      17.638  -6.311   8.169  0.00  0.00     0.062 C 
ATOM     11  N   UNK d   0      16.805  -4.296   9.024  0.00  0.00    -0.248 NA
ATOM     12  C   UNK d   0      18.713  -5.763   7.461  0.00  0.00     0.041 A 
ATOM     13  N   UNK d   0      19.521  -4.723   7.742  0.00  0.00    -0.355 N 
ATOM     14  C   UNK d   0      19.042  -6.296   6.202  0.00  0.00    -0.022 A 
ATOM     15  C   UNK d   0      20.348  -4.577   6.690  0.00  0.00     0.042 A 
ATOM     16  H   UNK d   0      19.519  -4.116   8.674  0.00  0.00     0.166 HD
ATOM     17  C   UNK d   0      21.384  -3.649   6.464  0.00  0.00     0.062 C 
ATOM     18  C   UNK d   0      20.078  -5.546   5.704  0.00  0.00    -0.013 A 
ATOM     19  C   UNK d   0      21.390  -2.295   6.679  0.00  0.00     0.067 A 
ATOM     20  N   UNK d   0      20.368  -1.788   7.374  0.00  0.00    -0.248 NA
ATOM     21  C   UNK d   0      22.256  -1.184   6.320  0.00  0.00    -0.011 A 
ATOM     22  C   UNK d   0      20.503  -0.426   7.494  0.00  0.00     0.066 A 
ATOM     23  C   UNK d   0      19.525   0.227   8.230  0.00  0.00     0.062 C 
ATOM     24  C   UNK d   0      21.729  -0.093   6.797  0.00  0.00    -0.020 A 
ATOM     25  C   UNK d   0      18.460  -0.344   8.944  0.00  0.00     0.041 A 
ATOM     26  N   UNK d   0      17.648  -1.369   8.658  0.00  0.00    -0.355 N 
ATOM     27  C   UNK d   0      18.134   0.189  10.210  0.00  0.00    -0.022 A 
ATOM     28  C   UNK d   0      16.816  -1.510   9.702  0.00  0.00     0.042 A 
ATOM     29  H   UNK d   0      17.644  -1.971   7.716  0.00  0.00     0.166 HD
ATOM     30  C   UNK d   0      15.775  -2.423   9.936  0.00  0.00     0.062 C 
ATOM     31  C   UNK d   0      17.095  -0.543  10.697  0.00  0.00    -0.013 A 
ATOM     32  C   UNK d   0      15.742  -3.776   9.639  0.00  0.00     0.066 A 
BRANCH   8  33
ATOM     33  C   UNK d   0      14.701  -7.292   9.383  0.00  0.00     0.151 C 
BRANCH  33  34
ATOM     34  C   UNK d   0      15.008  -8.051  10.609  0.00  0.00     0.143 C 
ATOM     35  O   UNK d   0      14.254  -8.951  11.006  0.00  0.00    -0.650 OA
BRANCH  34  36
ATOM     36  O   UNK d   0      16.146  -7.751  11.321  0.00  0.00    -0.776 OA
ATOM     37  H   UNK d   0      16.472  -6.780  11.423  0.00  0.00     0.167 HD
ENDBRANCH  34  36
ENDBRANCH  33  34
ENDBRANCH   8  33
BRANCH  31  38
ATOM     38  C   UNK d   0      16.415  -0.347  12.032  0.00  0.00     0.151 C 
BRANCH  38  39
ATOM     39  C   UNK d   0      14.977  -0.230  11.918  0.00  0.00     0.143 C 
ATOM     40  O   UNK d   0      14.205  -0.602  12.819  0.00  0.00    -0.650 OA
BRANCH  39  41
ATOM     41  O   UNK d   0      14.422   0.318  10.761  0.00  0.00    -0.776 OA
ATOM     42  H   UNK d   0      14.483  -0.247   9.908  0.00  0.00     0.167 HD
ENDBRANCH  39  41
ENDBRANCH  38  39
ENDBRANCH  31  38
BRANCH  27  43
ATOM     43  C   UNK d   0      18.758   1.343  10.954  0.00  0.00     0.052 C 
BRANCH  43  44
ATOM     44  C   UNK d   0      20.149   1.061  11.421  0.00  0.00     0.115 C 
BRANCH  44  45
ATOM     45  C   UNK d   0      20.065   0.820  12.885  0.00  0.00     0.139 C 
ATOM     46  O   UNK d   0      19.869   1.807  13.637  0.00  0.00    -0.650 OA
BRANCH  45  47
ATOM     47  O   UNK d   0      20.185  -0.434  13.445  0.00  0.00    -0.776 OA
ATOM     48  H   UNK d   0      20.451  -1.268  12.897  0.00  0.00     0.167 HD
ENDBRANCH  45  47
ENDBRANCH  44  45
ENDBRANCH  43  44
ENDBRANCH  27  43
BRANCH  24  49
ATOM     49  C   UNK d   0      22.299   1.262   6.698  0.00  0.00     0.052 C 
BRANCH  49  50
ATOM     50  C   UNK d   0      21.784   1.958   5.464  0.00  0.00     0.115 C 
BRANCH  50  51
ATOM     51  C   UNK d   0      20.590   2.779   5.614  0.00  0.00     0.139 C 
ATOM     52  O   UNK d   0      20.635   3.978   5.980  0.00  0.00    -0.650 OA
BRANCH  51  53
ATOM     53  O   UNK d   0      19.344   2.233   5.349  0.00  0.00    -0.776 OA
ATOM     54  H   UNK d   0      18.556   2.568   5.875  0.00  0.00     0.167 HD
ENDBRANCH  51  53
ENDBRANCH  50  51
ENDBRANCH  49  50
ENDBRANCH  24  49
BRANCH  21  55
ATOM     55  C   UNK d   0      23.522  -1.329   5.543  0.00  0.00     0.151 C 
BRANCH  55  56
ATOM     56  C   UNK d   0      23.270  -1.467   4.100  0.00  0.00     0.143 C 
ATOM     57  O   UNK d   0      23.068  -0.490   3.353  0.00  0.00    -0.650 OA
BRANCH  56  58
ATOM     58  O   UNK d   0      23.262  -2.754   3.563  0.00  0.00    -0.776 OA
ATOM     59  H   UNK d   0      23.164  -2.795   2.532  0.00  0.00     0.167 HD
ENDBRANCH  56  58
ENDBRANCH  55  56
ENDBRANCH  21  55
BRANCH  18  60
ATOM     60  C   UNK d   0      20.740  -5.767   4.367  0.00  0.00     0.151 C 
BRANCH  60  61
ATOM     61  C   UNK d   0      19.762  -5.339   3.355  0.00  0.00     0.143 C 
ATOM     62  O   UNK d   0      19.158  -4.267   3.314  0.00  0.00    -0.650 OA
BRANCH  61  63
ATOM     63  O   UNK d   0      19.504  -6.280   2.330  0.00  0.00    -0.776 OA
ATOM     64  H   UNK d   0      18.888  -6.061   1.568  0.00  0.00     0.167 HD
ENDBRANCH  61  63
ENDBRANCH  60  61
ENDBRANCH  18  60
BRANCH  14  65
ATOM     65  C   UNK d   0      18.522  -7.509   5.484  0.00  0.00     0.052 C 
BRANCH  65  66
ATOM     66  C   UNK d   0      17.078  -7.407   5.139  0.00  0.00     0.115 C 
BRANCH  66  67
ATOM     67  C   UNK d   0      16.661  -6.533   4.078  0.00  0.00     0.139 C 
ATOM     68  O   UNK d   0      16.566  -7.013   2.889  0.00  0.00    -0.650 OA
BRANCH  67  69
ATOM     69  O   UNK d   0      16.332  -5.181   4.167  0.00  0.00    -0.776 OA
ATOM     70  H   UNK d   0      16.918  -4.540   3.613  0.00  0.00     0.167 HD
ENDBRANCH  67  69
ENDBRANCH  66  67
ENDBRANCH  65  66
ENDBRANCH  14  65
ENDBRANCH   6   7
ENDBRANCH   5   6
ENDBRANCH   2   5
TORSDOF 28
ENDMDL
MODEL 9
REMARK VINA RESULT:      -7.7     24.474     28.009
REMARK  28 active torsions:
REMARK  status: ('A' for Active; 'I' for Inactive)
REMARK    1  A    between atoms: C_2  and  O_3 
REMARK    2  A    between atoms: C_2  and  C_4 
REMARK    3  A    between atoms: C_4  and  C_5 
REMARK    4  A    between atoms: C_5  and  C_6 
REMARK    5  A    between atoms: C_7  and  C_8 
REMARK    6  A    between atoms: C_8  and  C_9 
REMARK    7  A    between atoms: C_9  and  O_11 
REMARK    8  A    between atoms: C_28  and  C_29 
REMARK    9  A    between atoms: C_29  and  C_30 
REMARK   10  A    between atoms: C_30  and  O_32 
REMARK   11  A    between atoms: C_33  and  C_34 
REMARK   12  A    between atoms: C_34  and  C_35 
REMARK   13  A    between atoms: C_35  and  C_36 
REMARK   14  A    between atoms: C_36  and  O_38 
REMARK   15  A    between atoms: C_39  and  C_40 
REMARK   16  A    between atoms: C_40  and  C_41 
REMARK   17  A    between atoms: C_41  and  C_42 
REMARK   18  A    between atoms: C_42  and  O_44 
REMARK   19  A    between atoms: C_45  and  C_46 
REMARK   20  A    between atoms: C_46  and  C_47 
REMARK   21  A    between atoms: C_47  and  O_49 
REMARK   22  A    between atoms: C_50  and  C_51 
REMARK   23  A    between atoms: C_51  and  C_52 
REMARK   24  A    between atoms: C_52  and  O_54 
REMARK   25  A    between atoms: C_55  and  C_56 
REMARK   26  A    between atoms: C_56  and  C_57 
REMARK   27  A    between atoms: C_57  and  C_58 
REMARK   28  A    between atoms: C_58  and  O_60 
ROOT
ATOM      1  O   UNK d   0      14.155  -0.709  12.136  0.00  0.00    -0.650 OA
ATOM      2  C   UNK d   0      13.712  -1.282  11.116  0.00  0.00     0.139 C 
ENDROOT
BRANCH   2   3
ATOM      3  O   UNK d   0      12.922  -2.398  11.260  0.00  0.00    -0.776 OA
ATOM      4  H   UNK d   0      13.311  -3.278  11.605  0.00  0.00     0.167 HD
ENDBRANCH   2   3
BRANCH   2   5
ATOM      5  C   UNK d   0      14.039  -0.757   9.761  0.00  0.00     0.115 C 
BRANCH   5   6
ATOM      6  C   UNK d   0      15.528  -0.598   9.613  0.00  0.00     0.052 C 
BRANCH   6   7
ATOM      7  C   UNK d   0      16.082  -1.374   8.442  0.00  0.00    -0.020 A 
ATOM      8  C   UNK d   0      16.673  -2.541   8.466  0.00  0.00    -0.011 A 
ATOM      9  C   UNK d   0      17.041  -2.881   7.101  0.00  0.00     0.067 A 
ATOM     10  C   UNK d   0      17.661  -3.965   6.460  0.00  0.00     0.062 C 
ATOM     11  N   UNK d   0      16.642  -1.862   6.313  0.00  0.00    -0.248 NA
ATOM     12  C   UNK d   0      17.682  -4.239   5.088  0.00  0.00     0.041 A 
ATOM     13  N   UNK d   0      17.868  -3.432   4.026  0.00  0.00    -0.355 N 
ATOM     14  C   UNK d   0      17.418  -5.550   4.652  0.00  0.00    -0.022 A 
ATOM     15  C   UNK d   0      17.721  -4.197   2.927  0.00  0.00     0.042 A 
ATOM     16  H   UNK d   0      18.117  -2.349   4.053  0.00  0.00     0.166 HD
ATOM     17  C   UNK d   0      17.814  -3.860   1.562  0.00  0.00     0.062 C 
ATOM     18  C   UNK d   0      17.438  -5.530   3.280  0.00  0.00    -0.013 A 
ATOM     19  C   UNK d   0      17.287  -2.779   0.902  0.00  0.00     0.067 A 
ATOM     20  N   UNK d   0      16.782  -1.799   1.655  0.00  0.00    -0.248 NA
ATOM     21  C   UNK d   0      17.103  -2.390  -0.486  0.00  0.00    -0.011 A 
ATOM     22  C   UNK d   0      16.281  -0.797   0.860  0.00  0.00     0.066 A 
ATOM     23  C   UNK d   0      15.757   0.307   1.517  0.00  0.00     0.062 C 
ATOM     24  C   UNK d   0      16.510  -1.231  -0.504  0.00  0.00    -0.020 A 
ATOM     25  C   UNK d   0      15.758   0.569   2.896  0.00  0.00     0.041 A 
ATOM     26  N   UNK d   0      15.558  -0.230   3.951  0.00  0.00    -0.355 N 
ATOM     27  C   UNK d   0      16.027   1.884   3.333  0.00  0.00    -0.022 A 
ATOM     28  C   UNK d   0      15.695   0.532   5.048  0.00  0.00     0.042 A 
ATOM     29  H   UNK d   0      15.297  -1.316   3.922  0.00  0.00     0.166 HD
ATOM     30  C   UNK d   0      15.597   0.212   6.411  0.00  0.00     0.062 C 
ATOM     31  C   UNK d   0      15.990   1.870   4.693  0.00  0.00    -0.013 A 
ATOM     32  C   UNK d   0      16.057  -0.923   7.059  0.00  0.00     0.066 A 
BRANCH   8  33
ATOM     33  C   UNK d   0      16.934  -3.377   9.652  0.00  0.00     0.151 C 
BRANCH  33  34
ATOM     34  C   UNK d   0      18.371  -3.509   9.952  0.00  0.00     0.143 C 
ATOM     35  O   UNK d   0      19.152  -2.569   9.750  0.00  0.00    -0.650 OA
BRANCH  34  36
ATOM     36  O   UNK d   0      18.848  -4.695  10.462  0.00  0.00    -0.776 OA
ATOM     37  H   UNK d   0      19.242  -5.420   9.848  0.00  0.00     0.167 HD
ENDBRANCH  34  36
ENDBRANCH  33  34
ENDBRANCH   8  33
BRANCH  31  38
ATOM     38  C   UNK d   0      16.232   3.050   5.604  0.00  0.00     0.151 C 
BRANCH  38  39
ATOM     39  C   UNK d   0      17.626   3.439   5.661  0.00  0.00     0.143 C 
ATOM     40  O   UNK d   0      18.547   2.606   5.720  0.00  0.00    -0.650 OA
BRANCH  39  41
ATOM     41  O   UNK d   0      17.961   4.792   5.649  0.00  0.00    -0.776 OA
ATOM     42  H   UNK d   0      17.609   5.362   6.425  0.00  0.00     0.167 HD
ENDBRANCH  39  41
ENDBRANCH  38  39
ENDBRANCH  31  38
BRANCH  27  43
ATOM     43  C   UNK d   0      16.309   3.124   2.522  0.00  0.00     0.052 C 
BRANCH  43  44
ATOM     44  C   UNK d   0      17.727   3.219   2.060  0.00  0.00     0.115 C 
BRANCH  44  45
ATOM     45  C   UNK d   0      17.686   3.306   0.577  0.00  0.00     0.139 C 
ATOM     46  O   UNK d   0      18.776   3.294  -0.047  0.00  0.00    -0.650 OA
BRANCH  45  47
ATOM     47  O   UNK d   0      16.509   3.392  -0.134  0.00  0.00    -0.776 OA
ATOM     48  H   UNK d   0      16.429   3.105  -1.122  0.00  0.00     0.167 HD
ENDBRANCH  45  47
ENDBRANCH  44  45
ENDBRANCH  43  44
ENDBRANCH  27  43
BRANCH  24  49
ATOM     49  C   UNK d   0      16.167  -0.450  -1.704  0.00  0.00     0.052 C 
BRANCH  49  50
ATOM     50  C   UNK d   0      14.775  -0.791  -2.171  0.00  0.00     0.115 C 
BRANCH  50  51
ATOM     51  C   UNK d   0      14.650  -1.441  -3.469  0.00  0.00     0.139 C 
ATOM     52  O   UNK d   0      13.781  -2.312  -3.709  0.00  0.00    -0.650 OA
BRANCH  51  53
ATOM     53  O   UNK d   0      15.519  -1.099  -4.494  0.00  0.00    -0.776 OA
ATOM     54  H   UNK d   0      16.385  -1.602  -4.571  0.00  0.00     0.167 HD
ENDBRANCH  51  53
ENDBRANCH  50  51
ENDBRANCH  49  50
ENDBRANCH  24  49
BRANCH  21  55
ATOM     55  C   UNK d   0      17.543  -3.215  -1.650  0.00  0.00     0.151 C 
BRANCH  55  56
ATOM     56  C   UNK d   0      18.287  -2.420  -2.639  0.00  0.00     0.143 C 
ATOM     57  O   UNK d   0      17.995  -2.407  -3.851  0.00  0.00    -0.650 OA
BRANCH  56  58
ATOM     58  O   UNK d   0      19.360  -1.656  -2.184  0.00  0.00    -0.776 OA
ATOM     59  H   UNK d   0      19.129  -0.986  -1.428  0.00  0.00     0.167 HD
ENDBRANCH  56  58
ENDBRANCH  55  56
ENDBRANCH  21  55
BRANCH  18  60
ATOM     60  C   UNK d   0      17.195  -6.728   2.394  0.00  0.00     0.151 C 
BRANCH  60  61
ATOM     61  C   UNK d   0      18.399  -7.565   2.508  0.00  0.00     0.143 C 
ATOM     62  O   UNK d   0      18.442  -8.780   2.700  0.00  0.00    -0.650 OA
BRANCH  61  63
ATOM     63  O   UNK d   0      19.628  -6.874   2.379  0.00  0.00    -0.776 OA
ATOM     64  H   UNK d   0      20.446  -7.173   2.880  0.00  0.00     0.167 HD
ENDBRANCH  61  63
ENDBRANCH  60  61
ENDBRANCH  18  60
BRANCH  14  65
ATOM     65  C   UNK d   0      17.248  -6.826   5.427  0.00  0.00     0.052 C 
BRANCH  65  66
ATOM     66  C   UNK d   0      18.477  -7.228   6.162  0.00  0.00     0.115 C 
BRANCH  66  67
ATOM     67  C   UNK d   0      18.383  -7.639   7.535  0.00  0.00     0.139 C 
ATOM     68  O   UNK d   0      17.655  -8.659   7.821  0.00  0.00    -0.650 OA
BRANCH  67  69
ATOM     69  O   UNK d   0      18.998  -7.058   8.643  0.00  0.00    -0.776 OA
ATOM     70  H   UNK d   0      19.277  -6.072   8.536  0.00  0.00     0.167 HD
ENDBRANCH  67  69
ENDBRANCH  66  67
ENDBRANCH  65  66
ENDBRANCH  14  65
ENDBRANCH   6   7
ENDBRANCH   5   6
ENDBRANCH   2   5
TORSDOF 28
ENDMDL
MODEL 10
REMARK VINA RESULT:      -7.7     22.864     28.595
REMARK  28 active torsions:
REMARK  status: ('A' for Active; 'I' for Inactive)
REMARK    1  A    between atoms: C_2  and  O_3 
REMARK    2  A    between atoms: C_2  and  C_4 
REMARK    3  A    between atoms: C_4  and  C_5 
REMARK    4  A    between atoms: C_5  and  C_6 
REMARK    5  A    between atoms: C_7  and  C_8 
REMARK    6  A    between atoms: C_8  and  C_9 
REMARK    7  A    between atoms: C_9  and  O_11 
REMARK    8  A    between atoms: C_28  and  C_29 
REMARK    9  A    between atoms: C_29  and  C_30 
REMARK   10  A    between atoms: C_30  and  O_32 
REMARK   11  A    between atoms: C_33  and  C_34 
REMARK   12  A    between atoms: C_34  and  C_35 
REMARK   13  A    between atoms: C_35  and  C_36 
REMARK   14  A    between atoms: C_36  and  O_38 
REMARK   15  A    between atoms: C_39  and  C_40 
REMARK   16  A    between atoms: C_40  and  C_41 
REMARK   17  A    between atoms: C_41  and  C_42 
REMARK   18  A    between atoms: C_42  and  O_44 
REMARK   19  A    between atoms: C_45  and  C_46 
REMARK   20  A    between atoms: C_46  and  C_47 
REMARK   21  A    between atoms: C_47  and  O_49 
REMARK   22  A    between atoms: C_50  and  C_51 
REMARK   23  A    between atoms: C_51  and  C_52 
REMARK   24  A    between atoms: C_52  and  O_54 
REMARK   25  A    between atoms: C_55  and  C_56 
REMARK   26  A    between atoms: C_56  and  C_57 
REMARK   27  A    between atoms: C_57  and  C_58 
REMARK   28  A    between atoms: C_58  and  O_60 
ROOT
ATOM      1  O   UNK d   0      -9.802  15.905  17.353  0.00  0.00    -0.650 OA
ATOM      2  C   UNK d   0      -9.045  16.226  16.410  0.00  0.00     0.139 C 
ENDROOT
BRANCH   2   3
ATOM      3  O   UNK d   0      -7.857  15.555  16.241  0.00  0.00    -0.776 OA
ATOM      4  H   UNK d   0      -7.704  14.639  16.667  0.00  0.00     0.167 HD
ENDBRANCH   2   3
BRANCH   2   5
ATOM      5  C   UNK d   0      -9.430  17.326  15.481  0.00  0.00     0.115 C 
BRANCH   5   6
ATOM      6  C   UNK d   0      -8.384  18.408  15.497  0.00  0.00     0.052 C 
BRANCH   6   7
ATOM      7  C   UNK d   0      -8.847  19.674  14.817  0.00  0.00    -0.020 A 
ATOM      8  C   UNK d   0      -9.281  20.771  15.383  0.00  0.00    -0.011 A 
ATOM      9  C   UNK d   0      -9.619  21.712  14.329  0.00  0.00     0.067 A 
ATOM     10  C   UNK d   0     -10.101  23.029  14.263  0.00  0.00     0.062 C 
ATOM     11  N   UNK d   0      -9.365  21.103  13.152  0.00  0.00    -0.248 NA
ATOM     12  C   UNK d   0     -10.103  23.876  13.150  0.00  0.00     0.041 A 
ATOM     13  N   UNK d   0     -10.405  23.642  11.858  0.00  0.00    -0.355 N 
ATOM     14  C   UNK d   0      -9.676  25.207  13.307  0.00  0.00    -0.022 A 
ATOM     15  C   UNK d   0     -10.174  24.788  11.191  0.00  0.00     0.042 A 
ATOM     16  H   UNK d   0     -10.793  22.691  11.431  0.00  0.00     0.166 HD
ATOM     17  C   UNK d   0     -10.326  25.096   9.824  0.00  0.00     0.062 C 
ATOM     18  C   UNK d   0      -9.716  25.793  12.065  0.00  0.00    -0.013 A 
ATOM     19  C   UNK d   0      -9.953  24.361   8.728  0.00  0.00     0.067 A 
ATOM     20  N   UNK d   0      -9.571  23.101   8.947  0.00  0.00    -0.248 NA
ATOM     21  C   UNK d   0      -9.838  24.601   7.299  0.00  0.00    -0.011 A 
ATOM     22  C   UNK d   0      -9.213  22.499   7.765  0.00  0.00     0.066 A 
ATOM     23  C   UNK d   0      -8.829  21.168   7.842  0.00  0.00     0.062 C 
ATOM     24  C   UNK d   0      -9.401  23.509   6.742  0.00  0.00    -0.020 A 
ATOM     25  C   UNK d   0      -8.847  20.332   8.968  0.00  0.00     0.041 A 
ATOM     26  N   UNK d   0      -8.532  20.560  10.249  0.00  0.00    -0.355 N 
ATOM     27  C   UNK d   0      -9.279  18.997   8.811  0.00  0.00    -0.022 A 
ATOM     28  C   UNK d   0      -8.753  19.416  10.915  0.00  0.00     0.042 A 
ATOM     29  H   UNK d   0      -8.133  21.513  10.675  0.00  0.00     0.166 HD
ATOM     30  C   UNK d   0      -8.597  19.093  12.272  0.00  0.00     0.062 C 
ATOM     31  C   UNK d   0      -9.224  18.410  10.038  0.00  0.00    -0.013 A 
ATOM     32  C   UNK d   0      -8.898  19.874  13.377  0.00  0.00     0.066 A 
BRANCH   8  33
ATOM     33  C   UNK d   0      -9.416  21.027  16.829  0.00  0.00     0.151 C 
BRANCH  33  34
ATOM     34  C   UNK d   0      -8.419  21.987  17.335  0.00  0.00     0.143 C 
ATOM     35  O   UNK d   0      -8.614  22.613  18.386  0.00  0.00    -0.650 OA
BRANCH  34  36
ATOM     36  O   UNK d   0      -7.257  22.191  16.626  0.00  0.00    -0.776 OA
ATOM     37  H   UNK d   0      -6.365  22.373  17.105  0.00  0.00     0.167 HD
ENDBRANCH  34  36
ENDBRANCH  33  34
ENDBRANCH   8  33
BRANCH  31  38
ATOM     38  C   UNK d   0      -9.606  16.985  10.362  0.00  0.00     0.151 C 
BRANCH  38  39
ATOM     39  C   UNK d   0     -11.036  16.803  10.491  0.00  0.00     0.143 C 
ATOM     40  O   UNK d   0     -11.775  17.669  10.991  0.00  0.00    -0.650 OA
BRANCH  39  41
ATOM     41  O   UNK d   0     -11.620  15.619  10.042  0.00  0.00    -0.776 OA
ATOM     42  H   UNK d   0     -12.412  15.710   9.398  0.00  0.00     0.167 HD
ENDBRANCH  39  41
ENDBRANCH  38  39
ENDBRANCH  31  38
BRANCH  27  43
ATOM     43  C   UNK d   0      -9.730  18.276   7.565  0.00  0.00     0.052 C 
BRANCH  43  44
ATOM     44  C   UNK d   0     -11.162  18.529   7.221  0.00  0.00     0.115 C 
BRANCH  44  45
ATOM     45  C   UNK d   0     -11.772  17.204   6.940  0.00  0.00     0.139 C 
ATOM     46  O   UNK d   0     -12.975  17.170   6.581  0.00  0.00    -0.650 OA
BRANCH  45  47
ATOM     47  O   UNK d   0     -11.073  16.021   7.051  0.00  0.00    -0.776 OA
ATOM     48  H   UNK d   0     -10.165  15.950   7.537  0.00  0.00     0.167 HD
ENDBRANCH  45  47
ENDBRANCH  44  45
ENDBRANCH  43  44
ENDBRANCH  27  43
BRANCH  24  49
ATOM     49  C   UNK d   0      -9.177  23.299   5.301  0.00  0.00     0.052 C 
BRANCH  49  50
ATOM     50  C   UNK d   0      -7.712  23.435   4.973  0.00  0.00     0.115 C 
BRANCH  50  51
ATOM     51  C   UNK d   0      -7.371  24.024   3.686  0.00  0.00     0.139 C 
ATOM     52  O   UNK d   0      -8.234  24.302   2.819  0.00  0.00    -0.650 OA
BRANCH  51  53
ATOM     53  O   UNK d   0      -6.045  24.296   3.385  0.00  0.00    -0.776 OA
ATOM     54  H   UNK d   0      -5.465  24.690   4.105  0.00  0.00     0.167 HD
ENDBRANCH  51  53
ENDBRANCH  50  51
ENDBRANCH  49  50
ENDBRANCH  24  49
BRANCH  21  55
ATOM     55  C   UNK d   0     -10.182  25.896   6.639  0.00  0.00     0.151 C 
BRANCH  55  56
ATOM     56  C   UNK d   0      -9.479  27.032   7.255  0.00  0.00     0.143 C 
ATOM     57  O   UNK d   0     -10.075  27.955   7.843  0.00  0.00    -0.650 OA
BRANCH  56  58
ATOM     58  O   UNK d   0      -8.089  27.060   7.166  0.00  0.00    -0.776 OA
ATOM     59  H   UNK d   0      -7.596  26.439   7.834  0.00  0.00     0.167 HD
ENDBRANCH  56  58
ENDBRANCH  55  56
ENDBRANCH  21  55
BRANCH  18  60
ATOM     60  C   UNK d   0      -9.330  27.221  11.771  0.00  0.00     0.151 C 
BRANCH  60  61
ATOM     61  C   UNK d   0      -8.171  27.148  10.869  0.00  0.00     0.143 C 
ATOM     62  O   UNK d   0      -7.353  26.232  10.784  0.00  0.00    -0.650 OA
BRANCH  61  63
ATOM     63  O   UNK d   0      -8.000  28.266  10.016  0.00  0.00    -0.776 OA
ATOM     64  H   UNK d   0      -8.009  28.161   9.017  0.00  0.00     0.167 HD
ENDBRANCH  61  63
ENDBRANCH  60  61
ENDBRANCH  18  60
BRANCH  14  65
ATOM     65  C   UNK d   0      -9.333  25.988  14.543  0.00  0.00     0.052 C 
BRANCH  65  66
ATOM     66  C   UNK d   0      -7.921  25.802  14.975  0.00  0.00     0.115 C 
BRANCH  66  67
ATOM     67  C   UNK d   0      -7.005  26.905  14.907  0.00  0.00     0.139 C 
ATOM     68  O   UNK d   0      -6.213  26.984  13.897  0.00  0.00    -0.650 OA
BRANCH  67  69
ATOM     69  O   UNK d   0      -6.850  27.943  15.825  0.00  0.00    -0.776 OA
ATOM     70  H   UNK d   0      -6.252  28.725  15.520  0.00  0.00     0.167 HD
ENDBRANCH  67  69
ENDBRANCH  66  67
ENDBRANCH  65  66
ENDBRANCH  14  65
ENDBRANCH   6   7
ENDBRANCH   5   6
ENDBRANCH   2   5
TORSDOF 28
ENDMDL
MODEL 11
REMARK VINA RESULT:      -7.7     12.406     15.999
REMARK  28 active torsions:
REMARK  status: ('A' for Active; 'I' for Inactive)
REMARK    1  A    between atoms: C_2  and  O_3 
REMARK    2  A    between atoms: C_2  and  C_4 
REMARK    3  A    between atoms: C_4  and  C_5 
REMARK    4  A    between atoms: C_5  and  C_6 
REMARK    5  A    between atoms: C_7  and  C_8 
REMARK    6  A    between atoms: C_8  and  C_9 
REMARK    7  A    between atoms: C_9  and  O_11 
REMARK    8  A    between atoms: C_28  and  C_29 
REMARK    9  A    between atoms: C_29  and  C_30 
REMARK   10  A    between atoms: C_30  and  O_32 
REMARK   11  A    between atoms: C_33  and  C_34 
REMARK   12  A    between atoms: C_34  and  C_35 
REMARK   13  A    between atoms: C_35  and  C_36 
REMARK   14  A    between atoms: C_36  and  O_38 
REMARK   15  A    between atoms: C_39  and  C_40 
REMARK   16  A    between atoms: C_40  and  C_41 
REMARK   17  A    between atoms: C_41  and  C_42 
REMARK   18  A    between atoms: C_42  and  O_44 
REMARK   19  A    between atoms: C_45  and  C_46 
REMARK   20  A    between atoms: C_46  and  C_47 
REMARK   21  A    between atoms: C_47  and  O_49 
REMARK   22  A    between atoms: C_50  and  C_51 
REMARK   23  A    between atoms: C_51  and  C_52 
REMARK   24  A    between atoms: C_52  and  O_54 
REMARK   25  A    between atoms: C_55  and  C_56 
REMARK   26  A    between atoms: C_56  and  C_57 
REMARK   27  A    between atoms: C_57  and  C_58 
REMARK   28  A    between atoms: C_58  and  O_60 
ROOT
ATOM      1  O   UNK d   0      25.010  22.113   2.175  0.00  0.00    -0.650 OA
ATOM      2  C   UNK d   0      24.134  21.257   2.428  0.00  0.00     0.139 C 
ENDROOT
BRANCH   2   3
ATOM      3  O   UNK d   0      22.978  21.644   3.061  0.00  0.00    -0.776 OA
ATOM      4  H   UNK d   0      22.910  22.549   3.530  0.00  0.00     0.167 HD
ENDBRANCH   2   3
BRANCH   2   5
ATOM      5  C   UNK d   0      24.347  19.832   2.046  0.00  0.00     0.115 C 
BRANCH   5   6
ATOM      6  C   UNK d   0      25.692  19.667   1.391  0.00  0.00     0.052 C 
BRANCH   6   7
ATOM      7  C   UNK d   0      25.929  18.260   0.897  0.00  0.00    -0.020 A 
ATOM      8  C   UNK d   0      26.548  17.289   1.520  0.00  0.00    -0.011 A 
ATOM      9  C   UNK d   0      26.537  16.125   0.650  0.00  0.00     0.067 A 
ATOM     10  C   UNK d   0      26.997  14.801   0.724  0.00  0.00     0.062 C 
ATOM     11  N   UNK d   0      25.896  16.478  -0.484  0.00  0.00    -0.248 NA
ATOM     12  C   UNK d   0      26.647  13.734  -0.111  0.00  0.00     0.041 A 
ATOM     13  N   UNK d   0      26.500  13.666  -1.448  0.00  0.00    -0.355 N 
ATOM     14  C   UNK d   0      26.323  12.494   0.469  0.00  0.00    -0.022 A 
ATOM     15  C   UNK d   0      26.085  12.417  -1.730  0.00  0.00     0.042 A 
ATOM     16  H   UNK d   0      26.705  14.479  -2.178  0.00  0.00     0.166 HD
ATOM     17  C   UNK d   0      25.783  11.813  -2.967  0.00  0.00     0.062 C 
ATOM     18  C   UNK d   0      25.962  11.653  -0.554  0.00  0.00    -0.013 A 
ATOM     19  C   UNK d   0      25.052  12.313  -4.015  0.00  0.00     0.067 A 
ATOM     20  N   UNK d   0      24.739  13.610  -3.970  0.00  0.00    -0.248 NA
ATOM     21  C   UNK d   0      24.477  11.776  -5.237  0.00  0.00    -0.011 A 
ATOM     22  C   UNK d   0      23.999  13.960  -5.072  0.00  0.00     0.066 A 
ATOM     23  C   UNK d   0      23.635  15.295  -5.172  0.00  0.00     0.062 C 
ATOM     24  C   UNK d   0      23.858  12.744  -5.849  0.00  0.00    -0.020 A 
ATOM     25  C   UNK d   0      24.008  16.354  -4.329  0.00  0.00     0.041 A 
ATOM     26  N   UNK d   0      24.139  16.425  -2.999  0.00  0.00    -0.355 N 
ATOM     27  C   UNK d   0      24.336  17.597  -4.912  0.00  0.00    -0.022 A 
ATOM     28  C   UNK d   0      24.545  17.673  -2.714  0.00  0.00     0.042 A 
ATOM     29  H   UNK d   0      23.922  15.611  -2.265  0.00  0.00     0.166 HD
ATOM     30  C   UNK d   0      24.840  18.290  -1.488  0.00  0.00     0.062 C 
ATOM     31  C   UNK d   0      24.678  18.437  -3.897  0.00  0.00    -0.013 A 
ATOM     32  C   UNK d   0      25.505  17.750  -0.398  0.00  0.00     0.066 A 
BRANCH   8  33
ATOM     33  C   UNK d   0      27.159  17.346   2.860  0.00  0.00     0.151 C 
BRANCH  33  34
ATOM     34  C   UNK d   0      26.336  16.688   3.891  0.00  0.00     0.143 C 
ATOM     35  O   UNK d   0      26.815  15.812   4.626  0.00  0.00    -0.650 OA
BRANCH  34  36
ATOM     36  O   UNK d   0      25.017  17.052   4.035  0.00  0.00    -0.776 OA
ATOM     37  H   UNK d   0      24.622  17.846   3.514  0.00  0.00     0.167 HD
ENDBRANCH  34  36
ENDBRANCH  33  34
ENDBRANCH   8  33
BRANCH  31  38
ATOM     38  C   UNK d   0      25.118  19.876  -4.041  0.00  0.00     0.151 C 
BRANCH  38  39
ATOM     39  C   UNK d   0      24.005  20.798  -4.117  0.00  0.00     0.143 C 
ATOM     40  O   UNK d   0      23.665  21.344  -5.182  0.00  0.00    -0.650 OA
BRANCH  39  41
ATOM     41  O   UNK d   0      23.277  21.093  -2.965  0.00  0.00    -0.776 OA
ATOM     42  H   UNK d   0      23.732  20.892  -2.068  0.00  0.00     0.167 HD
ENDBRANCH  39  41
ENDBRANCH  38  39
ENDBRANCH  31  38
BRANCH  27  43
ATOM     43  C   UNK d   0      24.335  18.005  -6.364  0.00  0.00     0.052 C 
BRANCH  43  44
ATOM     44  C   UNK d   0      22.989  18.428  -6.858  0.00  0.00     0.115 C 
BRANCH  44  45
ATOM     45  C   UNK d   0      22.865  17.911  -8.246  0.00  0.00     0.139 C 
ATOM     46  O   UNK d   0      22.893  18.739  -9.190  0.00  0.00    -0.650 OA
BRANCH  45  47
ATOM     47  O   UNK d   0      22.727  16.571  -8.535  0.00  0.00    -0.776 OA
ATOM     48  H   UNK d   0      22.921  15.826  -7.846  0.00  0.00     0.167 HD
ENDBRANCH  45  47
ENDBRANCH  44  45
ENDBRANCH  43  44
ENDBRANCH  27  43
BRANCH  24  49
ATOM     49  C   UNK d   0      23.166  12.650  -7.146  0.00  0.00     0.052 C 
BRANCH  49  50
ATOM     50  C   UNK d   0      24.165  12.638  -8.274  0.00  0.00     0.115 C 
BRANCH  50  51
ATOM     51  C   UNK d   0      23.772  13.287  -9.517  0.00  0.00     0.139 C 
ATOM     52  O   UNK d   0      22.639  13.799  -9.684  0.00  0.00    -0.650 OA
BRANCH  51  53
ATOM     53  O   UNK d   0      24.669  13.350 -10.572  0.00  0.00    -0.776 OA
ATOM     54  H   UNK d   0      25.130  14.225 -10.752  0.00  0.00     0.167 HD
ENDBRANCH  51  53
ENDBRANCH  50  51
ENDBRANCH  49  50
ENDBRANCH  24  49
BRANCH  21  55
ATOM     55  C   UNK d   0      24.609  10.353  -5.667  0.00  0.00     0.151 C 
BRANCH  55  56
ATOM     56  C   UNK d   0      23.329   9.631  -5.588  0.00  0.00     0.143 C 
ATOM     57  O   UNK d   0      22.873   8.961  -6.535  0.00  0.00    -0.650 OA
BRANCH  56  58
ATOM     58  O   UNK d   0      22.611   9.713  -4.396  0.00  0.00    -0.776 OA
ATOM     59  H   UNK d   0      22.383   8.800  -3.962  0.00  0.00     0.167 HD
ENDBRANCH  56  58
ENDBRANCH  55  56
ENDBRANCH  21  55
BRANCH  18  60
ATOM     60  C   UNK d   0      25.530  10.218  -0.381  0.00  0.00     0.151 C 
BRANCH  60  61
ATOM     61  C   UNK d   0      24.120  10.168  -0.800  0.00  0.00     0.143 C 
ATOM     62  O   UNK d   0      23.645   9.512  -1.727  0.00  0.00    -0.650 OA
BRANCH  61  63
ATOM     63  O   UNK d   0      23.237  10.969  -0.037  0.00  0.00    -0.776 OA
ATOM     64  H   UNK d   0      23.316  11.970  -0.035  0.00  0.00     0.167 HD
ENDBRANCH  61  63
ENDBRANCH  60  61
ENDBRANCH  18  60
BRANCH  14  65
ATOM     65  C   UNK d   0      26.424  12.020   1.891  0.00  0.00     0.052 C 
BRANCH  65  66
ATOM     66  C   UNK d   0      25.107  11.970   2.582  0.00  0.00     0.115 C 
BRANCH  66  67
ATOM     67  C   UNK d   0      24.285  13.146   2.631  0.00  0.00     0.139 C 
ATOM     68  O   UNK d   0      23.331  13.264   1.777  0.00  0.00    -0.650 OA
BRANCH  67  69
ATOM     69  O   UNK d   0      24.384  14.220   3.515  0.00  0.00    -0.776 OA
ATOM     70  H   UNK d   0      24.599  13.977   4.493  0.00  0.00     0.167 HD
ENDBRANCH  67  69
ENDBRANCH  66  67
ENDBRANCH  65  66
ENDBRANCH  14  65
ENDBRANCH   6   7
ENDBRANCH   5   6
ENDBRANCH   2   5
TORSDOF 28
ENDMDL
MODEL 12
REMARK VINA RESULT:      -7.7     26.589     30.351
REMARK  28 active torsions:
REMARK  status: ('A' for Active; 'I' for Inactive)
REMARK    1  A    between atoms: C_2  and  O_3 
REMARK    2  A    between atoms: C_2  and  C_4 
REMARK    3  A    between atoms: C_4  and  C_5 
REMARK    4  A    between atoms: C_5  and  C_6 
REMARK    5  A    between atoms: C_7  and  C_8 
REMARK    6  A    between atoms: C_8  and  C_9 
REMARK    7  A    between atoms: C_9  and  O_11 
REMARK    8  A    between atoms: C_28  and  C_29 
REMARK    9  A    between atoms: C_29  and  C_30 
REMARK   10  A    between atoms: C_30  and  O_32 
REMARK   11  A    between atoms: C_33  and  C_34 
REMARK   12  A    between atoms: C_34  and  C_35 
REMARK   13  A    between atoms: C_35  and  C_36 
REMARK   14  A    between atoms: C_36  and  O_38 
REMARK   15  A    between atoms: C_39  and  C_40 
REMARK   16  A    between atoms: C_40  and  C_41 
REMARK   17  A    between atoms: C_41  and  C_42 
REMARK   18  A    between atoms: C_42  and  O_44 
REMARK   19  A    between atoms: C_45  and  C_46 
REMARK   20  A    between atoms: C_46  and  C_47 
REMARK   21  A    between atoms: C_47  and  O_49 
REMARK   22  A    between atoms: C_50  and  C_51 
REMARK   23  A    between atoms: C_51  and  C_52 
REMARK   24  A    between atoms: C_52  and  O_54 
REMARK   25  A    between atoms: C_55  and  C_56 
REMARK   26  A    between atoms: C_56  and  C_57 
REMARK   27  A    between atoms: C_57  and  C_58 
REMARK   28  A    between atoms: C_58  and  O_60 
ROOT
ATOM      1  O   UNK d   0      15.387  -7.767  10.098  0.00  0.00    -0.650 OA
ATOM      2  C   UNK d   0      16.173  -8.005   9.155  0.00  0.00     0.139 C 
ENDROOT
BRANCH   2   3
ATOM      3  O   UNK d   0      17.476  -8.340   9.432  0.00  0.00    -0.776 OA
ATOM      4  H   UNK d   0      18.252  -7.910   8.924  0.00  0.00     0.167 HD
ENDBRANCH   2   3
BRANCH   2   5
ATOM      5  C   UNK d   0      15.696  -7.925   7.745  0.00  0.00     0.115 C 
BRANCH   5   6
ATOM      6  C   UNK d   0      16.869  -7.877   6.804  0.00  0.00     0.052 C 
BRANCH   6   7
ATOM      7  C   UNK d   0      17.121  -6.492   6.259  0.00  0.00    -0.020 A 
ATOM      8  C   UNK d   0      16.810  -6.031   5.074  0.00  0.00    -0.011 A 
ATOM      9  C   UNK d   0      17.256  -4.650   5.003  0.00  0.00     0.067 A 
ATOM     10  C   UNK d   0      17.211  -3.619   4.052  0.00  0.00     0.062 C 
ATOM     11  N   UNK d   0      17.833  -4.353   6.187  0.00  0.00    -0.248 NA
ATOM     12  C   UNK d   0      17.449  -2.257   4.266  0.00  0.00     0.041 A 
ATOM     13  N   UNK d   0      18.394  -1.625   4.987  0.00  0.00    -0.355 N 
ATOM     14  C   UNK d   0      16.561  -1.316   3.713  0.00  0.00    -0.022 A 
ATOM     15  C   UNK d   0      18.126  -0.308   4.912  0.00  0.00     0.042 A 
ATOM     16  H   UNK d   0      19.246  -2.099   5.522  0.00  0.00     0.166 HD
ATOM     17  C   UNK d   0      18.796   0.795   5.477  0.00  0.00     0.062 C 
ATOM     18  C   UNK d   0      16.983  -0.075   4.121  0.00  0.00    -0.013 A 
ATOM     19  C   UNK d   0      19.282   0.949   6.751  0.00  0.00     0.067 A 
ATOM     20  N   UNK d   0      19.314  -0.142   7.521  0.00  0.00    -0.248 NA
ATOM     21  C   UNK d   0      19.792   2.052   7.548  0.00  0.00    -0.011 A 
ATOM     22  C   UNK d   0      19.807   0.168   8.765  0.00  0.00     0.066 A 
ATOM     23  C   UNK d   0      19.931  -0.885   9.659  0.00  0.00     0.062 C 
ATOM     24  C   UNK d   0      20.094   1.589   8.727  0.00  0.00    -0.020 A 
ATOM     25  C   UNK d   0      19.699  -2.248   9.419  0.00  0.00     0.041 A 
ATOM     26  N   UNK d   0      18.751  -2.877   8.715  0.00  0.00    -0.355 N 
ATOM     27  C   UNK d   0      20.593  -3.192   9.972  0.00  0.00    -0.022 A 
ATOM     28  C   UNK d   0      19.011  -4.192   8.796  0.00  0.00     0.042 A 
ATOM     29  H   UNK d   0      17.889  -2.400   8.187  0.00  0.00     0.166 HD
ATOM     30  C   UNK d   0      18.348  -5.300   8.247  0.00  0.00     0.062 C 
ATOM     31  C   UNK d   0      20.165  -4.424   9.582  0.00  0.00    -0.013 A 
ATOM     32  C   UNK d   0      17.783  -5.419   6.987  0.00  0.00     0.066 A 
BRANCH   8  33
ATOM     33  C   UNK d   0      16.134  -6.765   3.989  0.00  0.00     0.151 C 
BRANCH  33  34
ATOM     34  C   UNK d   0      17.077  -7.473   3.105  0.00  0.00     0.143 C 
ATOM     35  O   UNK d   0      16.896  -8.661   2.802  0.00  0.00    -0.650 OA
BRANCH  34  36
ATOM     36  O   UNK d   0      18.173  -6.803   2.612  0.00  0.00    -0.776 OA
ATOM     37  H   UNK d   0      18.531  -6.989   1.665  0.00  0.00     0.167 HD
ENDBRANCH  34  36
ENDBRANCH  33  34
ENDBRANCH   8  33
BRANCH  31  38
ATOM     38  C   UNK d   0      20.819  -5.743   9.922  0.00  0.00     0.151 C 
BRANCH  38  39
ATOM     39  C   UNK d   0      21.875  -6.101   8.999  0.00  0.00     0.143 C 
ATOM     40  O   UNK d   0      21.832  -5.806   7.792  0.00  0.00    -0.650 OA
BRANCH  39  41
ATOM     41  O   UNK d   0      22.987  -6.801   9.467  0.00  0.00    -0.776 OA
ATOM     42  H   UNK d   0      23.414  -7.473   8.822  0.00  0.00     0.167 HD
ENDBRANCH  39  41
ENDBRANCH  38  39
ENDBRANCH  31  38
BRANCH  27  43
ATOM     43  C   UNK d   0      21.807  -2.969  10.837  0.00  0.00     0.052 C 
BRANCH  43  44
ATOM     44  C   UNK d   0      22.861  -2.141  10.176  0.00  0.00     0.115 C 
BRANCH  44  45
ATOM     45  C   UNK d   0      23.668  -1.532  11.265  0.00  0.00     0.139 C 
ATOM     46  O   UNK d   0      23.596  -0.290  11.432  0.00  0.00    -0.650 OA
BRANCH  45  47
ATOM     47  O   UNK d   0      24.481  -2.273  12.095  0.00  0.00    -0.776 OA
ATOM     48  H   UNK d   0      25.383  -1.920  12.456  0.00  0.00     0.167 HD
ENDBRANCH  45  47
ENDBRANCH  44  45
ENDBRANCH  43  44
ENDBRANCH  27  43
BRANCH  24  49
ATOM     49  C   UNK d   0      20.680   2.358   9.838  0.00  0.00     0.052 C 
BRANCH  49  50
ATOM     50  C   UNK d   0      19.639   2.635  10.892  0.00  0.00     0.115 C 
BRANCH  50  51
ATOM     51  C   UNK d   0      19.762   1.916  12.153  0.00  0.00     0.139 C 
ATOM     52  O   UNK d   0      20.712   2.103  12.948  0.00  0.00    -0.650 OA
BRANCH  51  53
ATOM     53  O   UNK d   0      18.801   0.980  12.506  0.00  0.00    -0.776 OA
ATOM     54  H   UNK d   0      18.917   0.483  13.372  0.00  0.00     0.167 HD
ENDBRANCH  51  53
ENDBRANCH  50  51
ENDBRANCH  49  50
ENDBRANCH  24  49
BRANCH  21  55
ATOM     55  C   UNK d   0      19.929   3.451   7.047  0.00  0.00     0.151 C 
BRANCH  55  56
ATOM     56  C   UNK d   0      21.297   3.744   6.595  0.00  0.00     0.143 C 
ATOM     57  O   UNK d   0      21.998   4.642   7.101  0.00  0.00    -0.650 OA
BRANCH  56  58
ATOM     58  O   UNK d   0      21.815   2.973   5.555  0.00  0.00    -0.776 OA
ATOM     59  H   UNK d   0      22.804   3.172   5.315  0.00  0.00     0.167 HD
ENDBRANCH  56  58
ENDBRANCH  55  56
ENDBRANCH  21  55
BRANCH  18  60
ATOM     60  C   UNK d   0      16.312   1.228   3.763  0.00  0.00     0.151 C 
BRANCH  60  61
ATOM     61  C   UNK d   0      15.535   1.621   4.949  0.00  0.00     0.143 C 
ATOM     62  O   UNK d   0      15.707   2.617   5.652  0.00  0.00    -0.650 OA
BRANCH  61  63
ATOM     63  O   UNK d   0      14.481   0.742   5.296  0.00  0.00    -0.776 OA
ATOM     64  H   UNK d   0      14.549  -0.244   5.120  0.00  0.00     0.167 HD
ENDBRANCH  61  63
ENDBRANCH  60  61
ENDBRANCH  18  60
BRANCH  14  65
ATOM     65  C   UNK d   0      15.416  -1.491   2.757  0.00  0.00     0.052 C 
BRANCH  65  66
ATOM     66  C   UNK d   0      15.791  -1.218   1.343  0.00  0.00     0.115 C 
BRANCH  66  67
ATOM     67  C   UNK d   0      17.031  -1.722   0.826  0.00  0.00     0.139 C 
ATOM     68  O   UNK d   0      17.964  -0.884   0.542  0.00  0.00    -0.650 OA
BRANCH  67  69
ATOM     69  O   UNK d   0      17.375  -3.051   0.578  0.00  0.00    -0.776 OA
ATOM     70  H   UNK d   0      17.505  -3.643   1.411  0.00  0.00     0.167 HD
ENDBRANCH  67  69
ENDBRANCH  66  67
ENDBRANCH  65  66
ENDBRANCH  14  65
ENDBRANCH   6   7
ENDBRANCH   5   6
ENDBRANCH   2   5
TORSDOF 28
ENDMDL
MODEL 13
REMARK VINA RESULT:      -7.6     24.571     28.623
REMARK  28 active torsions:
REMARK  status: ('A' for Active; 'I' for Inactive)
REMARK    1  A    between atoms: C_2  and  O_3 
REMARK    2  A    between atoms: C_2  and  C_4 
REMARK    3  A    between atoms: C_4  and  C_5 
REMARK    4  A    between atoms: C_5  and  C_6 
REMARK    5  A    between atoms: C_7  and  C_8 
REMARK    6  A    between atoms: C_8  and  C_9 
REMARK    7  A    between atoms: C_9  and  O_11 
REMARK    8  A    between atoms: C_28  and  C_29 
REMARK    9  A    between atoms: C_29  and  C_30 
REMARK   10  A    between atoms: C_30  and  O_32 
REMARK   11  A    between atoms: C_33  and  C_34 
REMARK   12  A    between atoms: C_34  and  C_35 
REMARK   13  A    between atoms: C_35  and  C_36 
REMARK   14  A    between atoms: C_36  and  O_38 
REMARK   15  A    between atoms: C_39  and  C_40 
REMARK   16  A    between atoms: C_40  and  C_41 
REMARK   17  A    between atoms: C_41  and  C_42 
REMARK   18  A    between atoms: C_42  and  O_44 
REMARK   19  A    between atoms: C_45  and  C_46 
REMARK   20  A    between atoms: C_46  and  C_47 
REMARK   21  A    between atoms: C_47  and  O_49 
REMARK   22  A    between atoms: C_50  and  C_51 
REMARK   23  A    between atoms: C_51  and  C_52 
REMARK   24  A    between atoms: C_52  and  O_54 
REMARK   25  A    between atoms: C_55  and  C_56 
REMARK   26  A    between atoms: C_56  and  C_57 
REMARK   27  A    between atoms: C_57  and  C_58 
REMARK   28  A    between atoms: C_58  and  O_60 
ROOT
ATOM      1  O   UNK d   0      16.062  -8.245   8.339  0.00  0.00    -0.650 OA
ATOM      2  C   UNK d   0      17.256  -7.941   8.122  0.00  0.00     0.139 C 
ENDROOT
BRANCH   2   3
ATOM      3  O   UNK d   0      18.147  -7.923   9.168  0.00  0.00    -0.776 OA
ATOM      4  H   UNK d   0      18.984  -7.338   9.138  0.00  0.00     0.167 HD
ENDBRANCH   2   3
BRANCH   2   5
ATOM      5  C   UNK d   0      17.702  -7.600   6.742  0.00  0.00     0.115 C 
BRANCH   5   6
ATOM      6  C   UNK d   0      16.559  -7.014   5.958  0.00  0.00     0.052 C 
BRANCH   6   7
ATOM      7  C   UNK d   0      16.990  -5.876   5.065  0.00  0.00    -0.020 A 
ATOM      8  C   UNK d   0      17.239  -5.918   3.781  0.00  0.00    -0.011 A 
ATOM      9  C   UNK d   0      17.628  -4.583   3.358  0.00  0.00     0.067 A 
ATOM     10  C   UNK d   0      17.990  -3.969   2.149  0.00  0.00     0.062 C 
ATOM     11  N   UNK d   0      17.595  -3.792   4.451  0.00  0.00    -0.248 NA
ATOM     12  C   UNK d   0      18.064  -2.597   1.885  0.00  0.00     0.041 A 
ATOM     13  N   UNK d   0      18.560  -1.580   2.614  0.00  0.00    -0.355 N 
ATOM     14  C   UNK d   0      17.499  -2.102   0.696  0.00  0.00    -0.022 A 
ATOM     15  C   UNK d   0      18.317  -0.450   1.922  0.00  0.00     0.042 A 
ATOM     16  H   UNK d   0      19.089  -1.660   3.589  0.00  0.00     0.166 HD
ATOM     17  C   UNK d   0      18.624   0.891   2.225  0.00  0.00     0.062 C 
ATOM     18  C   UNK d   0      17.652  -0.738   0.714  0.00  0.00    -0.013 A 
ATOM     19  C   UNK d   0      18.474   1.563   3.411  0.00  0.00     0.067 A 
ATOM     20  N   UNK d   0      18.184   0.830   4.490  0.00  0.00    -0.248 NA
ATOM     21  C   UNK d   0      18.533   2.951   3.840  0.00  0.00    -0.011 A 
ATOM     22  C   UNK d   0      18.049   1.638   5.592  0.00  0.00     0.066 A 
ATOM     23  C   UNK d   0      17.784   0.999   6.795  0.00  0.00     0.062 C 
ATOM     24  C   UNK d   0      18.280   2.988   5.117  0.00  0.00    -0.020 A 
ATOM     25  C   UNK d   0      17.726  -0.381   7.042  0.00  0.00     0.041 A 
ATOM     26  N   UNK d   0      17.220  -1.391   6.324  0.00  0.00    -0.355 N 
ATOM     27  C   UNK d   0      18.298  -0.878   8.233  0.00  0.00    -0.022 A 
ATOM     28  C   UNK d   0      17.454  -2.517   7.016  0.00  0.00     0.042 A 
ATOM     29  H   UNK d   0      16.679  -1.307   5.349  0.00  0.00     0.166 HD
ATOM     30  C   UNK d   0      17.145  -3.856   6.730  0.00  0.00     0.062 C 
ATOM     31  C   UNK d   0      18.131  -2.229   8.224  0.00  0.00    -0.013 A 
ATOM     32  C   UNK d   0      17.218  -4.509   5.510  0.00  0.00     0.066 A 
BRANCH   8  33
ATOM     33  C   UNK d   0      17.152  -7.099   2.901  0.00  0.00     0.151 C 
BRANCH  33  34
ATOM     34  C   UNK d   0      18.459  -7.742   2.679  0.00  0.00     0.143 C 
ATOM     35  O   UNK d   0      18.556  -8.975   2.601  0.00  0.00    -0.650 OA
BRANCH  34  36
ATOM     36  O   UNK d   0      19.585  -6.961   2.558  0.00  0.00    -0.776 OA
ATOM     37  H   UNK d   0      20.438  -7.166   3.096  0.00  0.00     0.167 HD
ENDBRANCH  34  36
ENDBRANCH  33  34
ENDBRANCH   8  33
BRANCH  31  38
ATOM     38  C   UNK d   0      18.597  -3.192   9.292  0.00  0.00     0.151 C 
BRANCH  38  39
ATOM     39  C   UNK d   0      17.502  -3.783  10.031  0.00  0.00     0.143 C 
ATOM     40  O   UNK d   0      17.365  -5.013  10.147  0.00  0.00    -0.650 OA
BRANCH  39  41
ATOM     41  O   UNK d   0      16.559  -2.955  10.641  0.00  0.00    -0.776 OA
ATOM     42  H   UNK d   0      16.841  -1.985  10.815  0.00  0.00     0.167 HD
ENDBRANCH  39  41
ENDBRANCH  38  39
ENDBRANCH  31  38
BRANCH  27  43
ATOM     43  C   UNK d   0      18.980  -0.132   9.353  0.00  0.00     0.052 C 
BRANCH  43  44
ATOM     44  C   UNK d   0      18.028   0.393  10.378  0.00  0.00     0.115 C 
BRANCH  44  45
ATOM     45  C   UNK d   0      18.445  -0.188  11.681  0.00  0.00     0.139 C 
ATOM     46  O   UNK d   0      19.527   0.203  12.184  0.00  0.00    -0.650 OA
BRANCH  45  47
ATOM     47  O   UNK d   0      17.695  -1.127  12.356  0.00  0.00    -0.776 OA
ATOM     48  H   UNK d   0      17.306  -0.961  13.298  0.00  0.00     0.167 HD
ENDBRANCH  45  47
ENDBRANCH  44  45
ENDBRANCH  43  44
ENDBRANCH  27  43
BRANCH  24  49
ATOM     49  C   UNK d   0      18.274   4.191   5.966  0.00  0.00     0.052 C 
BRANCH  49  50
ATOM     50  C   UNK d   0      17.336   5.227   5.403  0.00  0.00     0.115 C 
BRANCH  50  51
ATOM     51  C   UNK d   0      15.914   5.050   5.667  0.00  0.00     0.139 C 
ATOM     52  O   UNK d   0      15.273   4.047   5.272  0.00  0.00    -0.650 OA
BRANCH  51  53
ATOM     53  O   UNK d   0      15.222   6.017   6.379  0.00  0.00    -0.776 OA
ATOM     54  H   UNK d   0      14.220   6.034   6.309  0.00  0.00     0.167 HD
ENDBRANCH  51  53
ENDBRANCH  50  51
ENDBRANCH  49  50
ENDBRANCH  24  49
BRANCH  21  55
ATOM     55  C   UNK d   0      18.841   4.094   2.931  0.00  0.00     0.151 C 
BRANCH  55  56
ATOM     56  C   UNK d   0      17.844   4.229   1.858  0.00  0.00     0.143 C 
ATOM     57  O   UNK d   0      16.645   4.488   2.081  0.00  0.00    -0.650 OA
BRANCH  56  58
ATOM     58  O   UNK d   0      18.277   4.059   0.544  0.00  0.00    -0.776 OA
ATOM     59  H   UNK d   0      19.283   4.250   0.388  0.00  0.00     0.167 HD
ENDBRANCH  56  58
ENDBRANCH  55  56
ENDBRANCH  21  55
BRANCH  18  60
ATOM     60  C   UNK d   0      17.179   0.200  -0.369  0.00  0.00     0.151 C 
BRANCH  60  61
ATOM     61  C   UNK d   0      15.786   0.533  -0.035  0.00  0.00     0.143 C 
ATOM     62  O   UNK d   0      15.390   1.191   0.928  0.00  0.00    -0.650 OA
BRANCH  61  63
ATOM     63  O   UNK d   0      14.814   0.030  -0.933  0.00  0.00    -0.776 OA
ATOM     64  H   UNK d   0      14.768  -0.949  -1.152  0.00  0.00     0.167 HD
ENDBRANCH  61  63
ENDBRANCH  60  61
ENDBRANCH  18  60
BRANCH  14  65
ATOM     65  C   UNK d   0      16.918  -2.821  -0.489  0.00  0.00     0.052 C 
BRANCH  65  66
ATOM     66  C   UNK d   0      17.949  -3.247  -1.473  0.00  0.00     0.115 C 
BRANCH  66  67
ATOM     67  C   UNK d   0      18.279  -2.388  -2.575  0.00  0.00     0.139 C 
ATOM     68  O   UNK d   0      17.413  -2.234  -3.513  0.00  0.00    -0.650 OA
BRANCH  67  69
ATOM     69  O   UNK d   0      19.458  -1.671  -2.775  0.00  0.00    -0.776 OA
ATOM     70  H   UNK d   0      19.947  -1.852  -3.664  0.00  0.00     0.167 HD
ENDBRANCH  67  69
ENDBRANCH  66  67
ENDBRANCH  65  66
ENDBRANCH  14  65
ENDBRANCH   6   7
ENDBRANCH   5   6
ENDBRANCH   2   5
TORSDOF 28
ENDMDL
MODEL 14
REMARK VINA RESULT:      -7.5     25.561     28.010
REMARK  28 active torsions:
REMARK  status: ('A' for Active; 'I' for Inactive)
REMARK    1  A    between atoms: C_2  and  O_3 
REMARK    2  A    between atoms: C_2  and  C_4 
REMARK    3  A    between atoms: C_4  and  C_5 
REMARK    4  A    between atoms: C_5  and  C_6 
REMARK    5  A    between atoms: C_7  and  C_8 
REMARK    6  A    between atoms: C_8  and  C_9 
REMARK    7  A    between atoms: C_9  and  O_11 
REMARK    8  A    between atoms: C_28  and  C_29 
REMARK    9  A    between atoms: C_29  and  C_30 
REMARK   10  A    between atoms: C_30  and  O_32 
REMARK   11  A    between atoms: C_33  and  C_34 
REMARK   12  A    between atoms: C_34  and  C_35 
REMARK   13  A    between atoms: C_35  and  C_36 
REMARK   14  A    between atoms: C_36  and  O_38 
REMARK   15  A    between atoms: C_39  and  C_40 
REMARK   16  A    between atoms: C_40  and  C_41 
REMARK   17  A    between atoms: C_41  and  C_42 
REMARK   18  A    between atoms: C_42  and  O_44 
REMARK   19  A    between atoms: C_45  and  C_46 
REMARK   20  A    between atoms: C_46  and  C_47 
REMARK   21  A    between atoms: C_47  and  O_49 
REMARK   22  A    between atoms: C_50  and  C_51 
REMARK   23  A    between atoms: C_51  and  C_52 
REMARK   24  A    between atoms: C_52  and  O_54 
REMARK   25  A    between atoms: C_55  and  C_56 
REMARK   26  A    between atoms: C_56  and  C_57 
REMARK   27  A    between atoms: C_57  and  C_58 
REMARK   28  A    between atoms: C_58  and  O_60 
ROOT
ATOM      1  O   UNK d   0       4.682  -5.917  -2.388  0.00  0.00    -0.650 OA
ATOM      2  C   UNK d   0       4.084  -5.170  -1.582  0.00  0.00     0.139 C 
ENDROOT
BRANCH   2   3
ATOM      3  O   UNK d   0       4.655  -4.903  -0.361  0.00  0.00    -0.776 OA
ATOM      4  H   UNK d   0       4.565  -5.559   0.418  0.00  0.00     0.167 HD
ENDBRANCH   2   3
BRANCH   2   5
ATOM      5  C   UNK d   0       2.766  -4.578  -1.947  0.00  0.00     0.115 C 
BRANCH   5   6
ATOM      6  C   UNK d   0       2.836  -3.076  -1.877  0.00  0.00     0.052 C 
BRANCH   6   7
ATOM      7  C   UNK d   0       2.531  -2.418  -3.201  0.00  0.00    -0.020 A 
ATOM      8  C   UNK d   0       3.364  -2.164  -4.178  0.00  0.00    -0.011 A 
ATOM      9  C   UNK d   0       2.617  -1.515  -5.242  0.00  0.00     0.067 A 
ATOM     10  C   UNK d   0       2.903  -1.023  -6.525  0.00  0.00     0.062 C 
ATOM     11  N   UNK d   0       1.338  -1.409  -4.827  0.00  0.00    -0.248 NA
ATOM     12  C   UNK d   0       1.987  -0.678  -7.524  0.00  0.00     0.041 A 
ATOM     13  N   UNK d   0       0.823  -0.003  -7.465  0.00  0.00    -0.355 N 
ATOM     14  C   UNK d   0       2.217  -1.119  -8.840  0.00  0.00    -0.022 A 
ATOM     15  C   UNK d   0       0.305  -0.011  -8.708  0.00  0.00     0.042 A 
ATOM     16  H   UNK d   0       0.386   0.486  -6.567  0.00  0.00     0.166 HD
ATOM     17  C   UNK d   0      -0.890   0.548  -9.203  0.00  0.00     0.062 C 
ATOM     18  C   UNK d   0       1.150  -0.702  -9.598  0.00  0.00    -0.013 A 
ATOM     19  C   UNK d   0      -2.148   0.515  -8.658  0.00  0.00     0.067 A 
ATOM     20  N   UNK d   0      -2.252   0.072  -7.402  0.00  0.00    -0.248 NA
ATOM     21  C   UNK d   0      -3.491   0.838  -9.110  0.00  0.00    -0.011 A 
ATOM     22  C   UNK d   0      -3.566   0.082  -7.001  0.00  0.00     0.066 A 
ATOM     23  C   UNK d   0      -3.815  -0.320  -5.697  0.00  0.00     0.062 C 
ATOM     24  C   UNK d   0      -4.316   0.579  -8.137  0.00  0.00    -0.020 A 
ATOM     25  C   UNK d   0      -2.879  -0.651  -4.705  0.00  0.00     0.041 A 
ATOM     26  N   UNK d   0      -1.729  -1.334  -4.761  0.00  0.00    -0.355 N 
ATOM     27  C   UNK d   0      -3.108  -0.204  -3.385  0.00  0.00    -0.022 A 
ATOM     28  C   UNK d   0      -1.215  -1.335  -3.521  0.00  0.00     0.042 A 
ATOM     29  H   UNK d   0      -1.297  -1.834  -5.662  0.00  0.00     0.166 HD
ATOM     30  C   UNK d   0      -0.032  -1.896  -3.013  0.00  0.00     0.062 C 
ATOM     31  C   UNK d   0      -2.060  -0.632  -2.630  0.00  0.00    -0.013 A 
ATOM     32  C   UNK d   0       1.219  -1.934  -3.607  0.00  0.00     0.066 A 
BRANCH   8  33
ATOM     33  C   UNK d   0       4.806  -2.468  -4.211  0.00  0.00     0.151 C 
BRANCH  33  34
ATOM     34  C   UNK d   0       5.147  -3.511  -5.196  0.00  0.00     0.143 C 
ATOM     35  O   UNK d   0       5.985  -3.299  -6.084  0.00  0.00    -0.650 OA
BRANCH  34  36
ATOM     36  O   UNK d   0       4.523  -4.735  -5.126  0.00  0.00    -0.776 OA
ATOM     37  H   UNK d   0       3.530  -4.815  -4.869  0.00  0.00     0.167 HD
ENDBRANCH  34  36
ENDBRANCH  33  34
ENDBRANCH   8  33
BRANCH  31  38
ATOM     38  C   UNK d   0      -1.863  -0.379  -1.153  0.00  0.00     0.151 C 
BRANCH  38  39
ATOM     39  C   UNK d   0      -2.471  -1.397  -0.323  0.00  0.00     0.143 C 
ATOM     40  O   UNK d   0      -2.979  -2.428  -0.799  0.00  0.00    -0.650 OA
BRANCH  39  41
ATOM     41  O   UNK d   0      -2.494  -1.229   1.061  0.00  0.00    -0.776 OA
ATOM     42  H   UNK d   0      -3.404  -1.023   1.486  0.00  0.00     0.167 HD
ENDBRANCH  39  41
ENDBRANCH  38  39
ENDBRANCH  31  38
BRANCH  27  43
ATOM     43  C   UNK d   0      -4.261   0.594  -2.830  0.00  0.00     0.052 C 
BRANCH  43  44
ATOM     44  C   UNK d   0      -4.005   2.066  -2.809  0.00  0.00     0.115 C 
BRANCH  44  45
ATOM     45  C   UNK d   0      -4.653   2.592  -1.579  0.00  0.00     0.139 C 
ATOM     46  O   UNK d   0      -5.853   2.287  -1.366  0.00  0.00    -0.650 OA
BRANCH  45  47
ATOM     47  O   UNK d   0      -3.993   3.389  -0.669  0.00  0.00    -0.776 OA
ATOM     48  H   UNK d   0      -3.029   3.197  -0.351  0.00  0.00     0.167 HD
ENDBRANCH  45  47
ENDBRANCH  44  45
ENDBRANCH  43  44
ENDBRANCH  27  43
BRANCH  24  49
ATOM     49  C   UNK d   0      -5.773   0.796  -8.153  0.00  0.00     0.052 C 
BRANCH  49  50
ATOM     50  C   UNK d   0      -6.170   1.765  -7.068  0.00  0.00     0.115 C 
BRANCH  50  51
ATOM     51  C   UNK d   0      -5.618   3.111  -7.145  0.00  0.00     0.139 C 
ATOM     52  O   UNK d   0      -5.878   3.896  -8.087  0.00  0.00    -0.650 OA
BRANCH  51  53
ATOM     53  O   UNK d   0      -4.768   3.562  -6.147  0.00  0.00    -0.776 OA
ATOM     54  H   UNK d   0      -5.109   3.577  -5.202  0.00  0.00     0.167 HD
ENDBRANCH  51  53
ENDBRANCH  50  51
ENDBRANCH  49  50
ENDBRANCH  24  49
BRANCH  21  55
ATOM     55  C   UNK d   0      -3.809   1.377 -10.466  0.00  0.00     0.151 C 
BRANCH  55  56
ATOM     56  C   UNK d   0      -3.896   0.312 -11.476  0.00  0.00     0.143 C 
ATOM     57  O   UNK d   0      -4.958  -0.288 -11.735  0.00  0.00    -0.650 OA
BRANCH  56  58
ATOM     58  O   UNK d   0      -2.732  -0.028 -12.163  0.00  0.00    -0.776 OA
ATOM     59  H   UNK d   0      -2.306   0.743 -12.707  0.00  0.00     0.167 HD
ENDBRANCH  56  58
ENDBRANCH  55  56
ENDBRANCH  21  55
BRANCH  18  60
ATOM     60  C   UNK d   0       0.981  -0.967 -11.073  0.00  0.00     0.151 C 
BRANCH  60  61
ATOM     61  C   UNK d   0       0.102  -2.142 -11.174  0.00  0.00     0.143 C 
ATOM     62  O   UNK d   0      -1.064  -2.232 -10.789  0.00  0.00    -0.650 OA
BRANCH  61  63
ATOM     63  O   UNK d   0       0.685  -3.279 -11.785  0.00  0.00    -0.776 OA
ATOM     64  H   UNK d   0       1.181  -3.963 -11.241  0.00  0.00     0.167 HD
ENDBRANCH  61  63
ENDBRANCH  60  61
ENDBRANCH  18  60
BRANCH  14  65
ATOM     65  C   UNK d   0       3.402  -1.812  -9.450  0.00  0.00     0.052 C 
BRANCH  65  66
ATOM     66  C   UNK d   0       3.214  -3.282  -9.580  0.00  0.00     0.115 C 
BRANCH  66  67
ATOM     67  C   UNK d   0       3.573  -4.144  -8.490  0.00  0.00     0.139 C 
ATOM     68  O   UNK d   0       2.707  -4.353  -7.562  0.00  0.00    -0.650 OA
BRANCH  67  69
ATOM     69  O   UNK d   0       4.780  -4.813  -8.293  0.00  0.00    -0.776 OA
ATOM     70  H   UNK d   0       4.887  -5.704  -8.798  0.00  0.00     0.167 HD
ENDBRANCH  67  69
ENDBRANCH  66  67
ENDBRANCH  65  66
ENDBRANCH  14  65
ENDBRANCH   6   7
ENDBRANCH   5   6
ENDBRANCH   2   5
TORSDOF 28
ENDMDL
MODEL 15
REMARK VINA RESULT:      -7.5     25.185     27.868
REMARK  28 active torsions:
REMARK  status: ('A' for Active; 'I' for Inactive)
REMARK    1  A    between atoms: C_2  and  O_3 
REMARK    2  A    between atoms: C_2  and  C_4 
REMARK    3  A    between atoms: C_4  and  C_5 
REMARK    4  A    between atoms: C_5  and  C_6 
REMARK    5  A    between atoms: C_7  and  C_8 
REMARK    6  A    between atoms: C_8  and  C_9 
REMARK    7  A    between atoms: C_9  and  O_11 
REMARK    8  A    between atoms: C_28  and  C_29 
REMARK    9  A    between atoms: C_29  and  C_30 
REMARK   10  A    between atoms: C_30  and  O_32 
REMARK   11  A    between atoms: C_33  and  C_34 
REMARK   12  A    between atoms: C_34  and  C_35 
REMARK   13  A    between atoms: C_35  and  C_36 
REMARK   14  A    between atoms: C_36  and  O_38 
REMARK   15  A    between atoms: C_39  and  C_40 
REMARK   16  A    between atoms: C_40  and  C_41 
REMARK   17  A    between atoms: C_41  and  C_42 
REMARK   18  A    between atoms: C_42  and  O_44 
REMARK   19  A    between atoms: C_45  and  C_46 
REMARK   20  A    between atoms: C_46  and  C_47 
REMARK   21  A    between atoms: C_47  and  O_49 
REMARK   22  A    between atoms: C_50  and  C_51 
REMARK   23  A    between atoms: C_51  and  C_52 
REMARK   24  A    between atoms: C_52  and  O_54 
REMARK   25  A    between atoms: C_55  and  C_56 
REMARK   26  A    between atoms: C_56  and  C_57 
REMARK   27  A    between atoms: C_57  and  C_58 
REMARK   28  A    between atoms: C_58  and  O_60 
ROOT
ATOM      1  O   UNK d   0      -7.533   3.268  -5.231  0.00  0.00    -0.650 OA
ATOM      2  C   UNK d   0      -6.646   3.695  -4.459  0.00  0.00     0.139 C 
ENDROOT
BRANCH   2   3
ATOM      3  O   UNK d   0      -6.868   4.853  -3.754  0.00  0.00    -0.776 OA
ATOM      4  H   UNK d   0      -6.604   5.763  -4.138  0.00  0.00     0.167 HD
ENDBRANCH   2   3
BRANCH   2   5
ATOM      5  C   UNK d   0      -5.363   2.951  -4.310  0.00  0.00     0.115 C 
BRANCH   5   6
ATOM      6  C   UNK d   0      -5.565   1.498  -4.646  0.00  0.00     0.052 C 
BRANCH   6   7
ATOM      7  C   UNK d   0      -4.486   0.956  -5.553  0.00  0.00    -0.020 A 
ATOM      8  C   UNK d   0      -4.461   0.972  -6.861  0.00  0.00    -0.011 A 
ATOM      9  C   UNK d   0      -3.229   0.330  -7.290  0.00  0.00     0.067 A 
ATOM     10  C   UNK d   0      -2.607   0.051  -8.517  0.00  0.00     0.062 C 
ATOM     11  N   UNK d   0      -2.568  -0.051  -6.177  0.00  0.00    -0.248 NA
ATOM     12  C   UNK d   0      -1.277  -0.332  -8.724  0.00  0.00     0.041 A 
ATOM     13  N   UNK d   0      -0.493  -1.205  -8.065  0.00  0.00    -0.355 N 
ATOM     14  C   UNK d   0      -0.540   0.295  -9.746  0.00  0.00    -0.022 A 
ATOM     15  C   UNK d   0       0.724  -1.144  -8.636  0.00  0.00     0.042 A 
ATOM     16  H   UNK d   0      -0.799  -1.867  -7.225  0.00  0.00     0.166 HD
ATOM     17  C   UNK d   0       1.910  -1.845  -8.339  0.00  0.00     0.062 C 
ATOM     18  C   UNK d   0       0.734  -0.214  -9.694  0.00  0.00    -0.013 A 
ATOM     19  C   UNK d   0       2.477  -2.101  -7.116  0.00  0.00     0.067 A 
ATOM     20  N   UNK d   0       1.735  -1.835  -6.038  0.00  0.00    -0.248 NA
ATOM     21  C   UNK d   0       3.756  -2.603  -6.642  0.00  0.00    -0.011 A 
ATOM     22  C   UNK d   0       2.436  -2.125  -4.894  0.00  0.00     0.066 A 
ATOM     23  C   UNK d   0       1.767  -1.931  -3.694  0.00  0.00     0.062 C 
ATOM     24  C   UNK d   0       3.727  -2.611  -5.341  0.00  0.00    -0.020 A 
ATOM     25  C   UNK d   0       0.427  -1.558  -3.508  0.00  0.00     0.041 A 
ATOM     26  N   UNK d   0      -0.348  -0.678  -4.154  0.00  0.00    -0.355 N 
ATOM     27  C   UNK d   0      -0.313  -2.190  -2.485  0.00  0.00    -0.022 A 
ATOM     28  C   UNK d   0      -1.560  -0.732  -3.580  0.00  0.00     0.042 A 
ATOM     29  H   UNK d   0      -0.036  -0.007  -4.991  0.00  0.00     0.166 HD
ATOM     30  C   UNK d   0      -2.745  -0.033  -3.859  0.00  0.00     0.062 C 
ATOM     31  C   UNK d   0      -1.572  -1.674  -2.524  0.00  0.00    -0.013 A 
ATOM     32  C   UNK d   0      -3.271   0.297  -5.099  0.00  0.00     0.066 A 
BRANCH   8  33
ATOM     33  C   UNK d   0      -5.489   1.530  -7.759  0.00  0.00     0.151 C 
BRANCH  33  34
ATOM     34  C   UNK d   0      -5.157   2.885  -8.234  0.00  0.00     0.143 C 
ATOM     35  O   UNK d   0      -5.877   3.853  -7.950  0.00  0.00    -0.650 OA
BRANCH  34  36
ATOM     36  O   UNK d   0      -4.032   3.075  -9.003  0.00  0.00    -0.776 OA
ATOM     37  H   UNK d   0      -3.126   2.669  -8.734  0.00  0.00     0.167 HD
ENDBRANCH  34  36
ENDBRANCH  33  34
ENDBRANCH   8  33
BRANCH  31  38
ATOM     38  C   UNK d   0      -2.722  -2.060  -1.623  0.00  0.00     0.151 C 
BRANCH  38  39
ATOM     39  C   UNK d   0      -2.882  -1.160  -0.501  0.00  0.00     0.143 C 
ATOM     40  O   UNK d   0      -2.058  -1.103   0.429  0.00  0.00    -0.650 OA
BRANCH  39  41
ATOM     41  O   UNK d   0      -3.995  -0.322  -0.447  0.00  0.00    -0.776 OA
ATOM     42  H   UNK d   0      -4.055   0.315   0.354  0.00  0.00     0.167 HD
ENDBRANCH  39  41
ENDBRANCH  38  39
ENDBRANCH  31  38
BRANCH  27  43
ATOM     43  C   UNK d   0       0.124  -3.241  -1.495  0.00  0.00     0.052 C 
BRANCH  43  44
ATOM     44  C   UNK d   0       0.056  -4.631  -2.040  0.00  0.00     0.115 C 
BRANCH  44  45
ATOM     45  C   UNK d   0       1.388  -5.245  -1.803  0.00  0.00     0.139 C 
ATOM     46  O   UNK d   0       1.556  -6.443  -2.142  0.00  0.00    -0.650 OA
BRANCH  45  47
ATOM     47  O   UNK d   0       2.438  -4.557  -1.236  0.00  0.00    -0.776 OA
ATOM     48  H   UNK d   0       2.799  -3.669  -1.621  0.00  0.00     0.167 HD
ENDBRANCH  45  47
ENDBRANCH  44  45
ENDBRANCH  43  44
ENDBRANCH  27  43
BRANCH  24  49
ATOM     49  C   UNK d   0       4.803  -3.082  -4.452  0.00  0.00     0.052 C 
BRANCH  49  50
ATOM     50  C   UNK d   0       5.432  -1.919  -3.729  0.00  0.00     0.115 C 
BRANCH  50  51
ATOM     51  C   UNK d   0       5.254  -1.858  -2.284  0.00  0.00     0.139 C 
ATOM     52  O   UNK d   0       4.618  -2.729  -1.644  0.00  0.00    -0.650 OA
BRANCH  51  53
ATOM     53  O   UNK d   0       5.800  -0.803  -1.569  0.00  0.00    -0.776 OA
ATOM     54  H   UNK d   0       5.208  -0.022  -1.349  0.00  0.00     0.167 HD
ENDBRANCH  51  53
ENDBRANCH  50  51
ENDBRANCH  49  50
ENDBRANCH  24  49
BRANCH  21  55
ATOM     55  C   UNK d   0       4.871  -3.027  -7.540  0.00  0.00     0.151 C 
BRANCH  55  56
ATOM     56  C   UNK d   0       5.756  -1.905  -7.887  0.00  0.00     0.143 C 
ATOM     57  O   UNK d   0       6.802  -1.650  -7.257  0.00  0.00    -0.650 OA
BRANCH  56  58
ATOM     58  O   UNK d   0       5.394  -1.103  -8.968  0.00  0.00    -0.776 OA
ATOM     59  H   UNK d   0       4.379  -0.916  -9.052  0.00  0.00     0.167 HD
ENDBRANCH  56  58
ENDBRANCH  55  56
ENDBRANCH  21  55
BRANCH  18  60
ATOM     60  C   UNK d   0       1.863   0.189 -10.610  0.00  0.00     0.151 C 
BRANCH  60  61
ATOM     61  C   UNK d   0       1.872  -0.800 -11.699  0.00  0.00     0.143 C 
ATOM     62  O   UNK d   0       0.949  -1.544 -12.033  0.00  0.00    -0.650 OA
BRANCH  61  63
ATOM     63  O   UNK d   0       3.084  -0.885 -12.425  0.00  0.00    -0.776 OA
ATOM     64  H   UNK d   0       3.936  -0.501 -12.058  0.00  0.00     0.167 HD
ENDBRANCH  61  63
ENDBRANCH  60  61
ENDBRANCH  18  60
BRANCH  14  65
ATOM     65  C   UNK d   0      -0.971   1.255 -10.819  0.00  0.00     0.052 C 
BRANCH  65  66
ATOM     66  C   UNK d   0      -1.955   0.665 -11.766  0.00  0.00     0.115 C 
BRANCH  66  67
ATOM     67  C   UNK d   0      -3.213   1.321 -11.984  0.00  0.00     0.139 C 
ATOM     68  O   UNK d   0      -3.293   2.200 -12.919  0.00  0.00    -0.650 OA
BRANCH  67  69
ATOM     69  O   UNK d   0      -4.408   1.127 -11.291  0.00  0.00    -0.776 OA
ATOM     70  H   UNK d   0      -4.631   0.151 -11.046  0.00  0.00     0.167 HD
ENDBRANCH  67  69
ENDBRANCH  66  67
ENDBRANCH  65  66
ENDBRANCH  14  65
ENDBRANCH   6   7
ENDBRANCH   5   6
ENDBRANCH   2   5
TORSDOF 28
ENDMDL
MODEL 16
REMARK VINA RESULT:      -7.5     11.705     16.879
REMARK  28 active torsions:
REMARK  status: ('A' for Active; 'I' for Inactive)
REMARK    1  A    between atoms: C_2  and  O_3 
REMARK    2  A    between atoms: C_2  and  C_4 
REMARK    3  A    between atoms: C_4  and  C_5 
REMARK    4  A    between atoms: C_5  and  C_6 
REMARK    5  A    between atoms: C_7  and  C_8 
REMARK    6  A    between atoms: C_8  and  C_9 
REMARK    7  A    between atoms: C_9  and  O_11 
REMARK    8  A    between atoms: C_28  and  C_29 
REMARK    9  A    between atoms: C_29  and  C_30 
REMARK   10  A    between atoms: C_30  and  O_32 
REMARK   11  A    between atoms: C_33  and  C_34 
REMARK   12  A    between atoms: C_34  and  C_35 
REMARK   13  A    between atoms: C_35  and  C_36 
REMARK   14  A    between atoms: C_36  and  O_38 
REMARK   15  A    between atoms: C_39  and  C_40 
REMARK   16  A    between atoms: C_40  and  C_41 
REMARK   17  A    between atoms: C_41  and  C_42 
REMARK   18  A    between atoms: C_42  and  O_44 
REMARK   19  A    between atoms: C_45  and  C_46 
REMARK   20  A    between atoms: C_46  and  C_47 
REMARK   21  A    between atoms: C_47  and  O_49 
REMARK   22  A    between atoms: C_50  and  C_51 
REMARK   23  A    between atoms: C_51  and  C_52 
REMARK   24  A    between atoms: C_52  and  O_54 
REMARK   25  A    between atoms: C_55  and  C_56 
REMARK   26  A    between atoms: C_56  and  C_57 
REMARK   27  A    between atoms: C_57  and  C_58 
REMARK   28  A    between atoms: C_58  and  O_60 
ROOT
ATOM      1  O   UNK d   0      14.078  10.292 -19.817  0.00  0.00    -0.650 OA
ATOM      2  C   UNK d   0      14.973   9.480 -19.493  0.00  0.00     0.139 C 
ENDROOT
BRANCH   2   3
ATOM      3  O   UNK d   0      16.106   9.942 -18.867  0.00  0.00    -0.776 OA
ATOM      4  H   UNK d   0      16.100  10.177 -17.872  0.00  0.00     0.167 HD
ENDBRANCH   2   3
BRANCH   2   5
ATOM      5  C   UNK d   0      14.809   8.028 -19.786  0.00  0.00     0.115 C 
BRANCH   5   6
ATOM      6  C   UNK d   0      14.912   7.229 -18.516  0.00  0.00     0.052 C 
BRANCH   6   7
ATOM      7  C   UNK d   0      13.773   7.503 -17.563  0.00  0.00    -0.020 A 
ATOM      8  C   UNK d   0      12.520   7.153 -17.695  0.00  0.00    -0.011 A 
ATOM      9  C   UNK d   0      11.796   7.643 -16.534  0.00  0.00     0.067 A 
ATOM     10  C   UNK d   0      10.473   7.589 -16.069  0.00  0.00     0.062 C 
ATOM     11  N   UNK d   0      12.686   8.286 -15.749  0.00  0.00    -0.248 NA
ATOM     12  C   UNK d   0      10.015   7.884 -14.780  0.00  0.00     0.041 A 
ATOM     13  N   UNK d   0      10.330   8.885 -13.935  0.00  0.00    -0.355 N 
ATOM     14  C   UNK d   0       9.107   7.005 -14.162  0.00  0.00    -0.022 A 
ATOM     15  C   UNK d   0       9.651   8.659 -12.795  0.00  0.00     0.042 A 
ATOM     16  H   UNK d   0      11.003   9.744 -14.148  0.00  0.00     0.166 HD
ATOM     17  C   UNK d   0       9.614   9.394 -11.593  0.00  0.00     0.062 C 
ATOM     18  C   UNK d   0       8.873   7.489 -12.899  0.00  0.00    -0.013 A 
ATOM     19  C   UNK d   0      10.652   9.945 -10.887  0.00  0.00     0.067 A 
ATOM     20  N   UNK d   0      11.844   9.976 -11.489  0.00  0.00    -0.248 NA
ATOM     21  C   UNK d   0      10.824  10.531  -9.568  0.00  0.00    -0.011 A 
ATOM     22  C   UNK d   0      12.783  10.538 -10.659  0.00  0.00     0.066 A 
ATOM     23  C   UNK d   0      14.064  10.667 -11.176  0.00  0.00     0.062 C 
ATOM     24  C   UNK d   0      12.074  10.872  -9.439  0.00  0.00    -0.020 A 
ATOM     25  C   UNK d   0      14.500  10.376 -12.478  0.00  0.00     0.041 A 
ATOM     26  N   UNK d   0      14.199   9.374 -13.311  0.00  0.00    -0.355 N 
ATOM     27  C   UNK d   0      15.408  11.262 -13.099  0.00  0.00    -0.022 A 
ATOM     28  C   UNK d   0      14.882   9.592 -14.446  0.00  0.00     0.042 A 
ATOM     29  H   UNK d   0      13.530   8.505 -13.092  0.00  0.00     0.166 HD
ATOM     30  C   UNK d   0      14.935   8.864 -15.646  0.00  0.00     0.062 C 
ATOM     31  C   UNK d   0      15.654  10.773 -14.345  0.00  0.00    -0.013 A 
ATOM     32  C   UNK d   0      13.894   8.237 -16.312  0.00  0.00     0.066 A 
BRANCH   8  33
ATOM     33  C   UNK d   0      11.925   6.400 -18.815  0.00  0.00     0.151 C 
BRANCH  33  34
ATOM     34  C   UNK d   0      10.954   7.198 -19.587  0.00  0.00     0.143 C 
ATOM     35  O   UNK d   0      11.310   8.215 -20.198  0.00  0.00    -0.650 OA
BRANCH  34  36
ATOM     36  O   UNK d   0       9.636   6.805 -19.625  0.00  0.00    -0.776 OA
ATOM     37  H   UNK d   0       9.327   5.928 -19.184  0.00  0.00     0.167 HD
ENDBRANCH  34  36
ENDBRANCH  33  34
ENDBRANCH   8  33
BRANCH  31  38
ATOM     38  C   UNK d   0      16.558  11.395 -15.384  0.00  0.00     0.151 C 
BRANCH  38  39
ATOM     39  C   UNK d   0      15.864  12.328 -16.246  0.00  0.00     0.143 C 
ATOM     40  O   UNK d   0      15.015  11.960 -17.077  0.00  0.00    -0.650 OA
BRANCH  39  41
ATOM     41  O   UNK d   0      16.146  13.690 -16.152  0.00  0.00    -0.776 OA
ATOM     42  H   UNK d   0      16.284  14.195 -17.033  0.00  0.00     0.167 HD
ENDBRANCH  39  41
ENDBRANCH  38  39
ENDBRANCH  31  38
BRANCH  27  43
ATOM     43  C   UNK d   0      16.036  12.523 -12.561  0.00  0.00     0.052 C 
BRANCH  43  44
ATOM     44  C   UNK d   0      17.286  12.275 -11.781  0.00  0.00     0.115 C 
BRANCH  44  45
ATOM     45  C   UNK d   0      17.589  13.535 -11.053  0.00  0.00     0.139 C 
ATOM     46  O   UNK d   0      18.461  13.501 -10.150  0.00  0.00    -0.650 OA
BRANCH  45  47
ATOM     47  O   UNK d   0      16.960  14.729 -11.332  0.00  0.00    -0.776 OA
ATOM     48  H   UNK d   0      16.020  14.964 -10.975  0.00  0.00     0.167 HD
ENDBRANCH  45  47
ENDBRANCH  44  45
ENDBRANCH  43  44
ENDBRANCH  27  43
BRANCH  24  49
ATOM     49  C   UNK d   0      12.677  11.537  -8.272  0.00  0.00     0.052 C 
BRANCH  49  50
ATOM     50  C   UNK d   0      13.704  10.640  -7.630  0.00  0.00     0.115 C 
BRANCH  50  51
ATOM     51  C   UNK d   0      13.305   9.269  -7.344  0.00  0.00     0.139 C 
ATOM     52  O   UNK d   0      13.778   8.285  -7.959  0.00  0.00    -0.650 OA
BRANCH  51  53
ATOM     53  O   UNK d   0      12.362   9.020  -6.358  0.00  0.00    -0.776 OA
ATOM     54  H   UNK d   0      12.334   8.103  -5.948  0.00  0.00     0.167 HD
ENDBRANCH  51  53
ENDBRANCH  50  51
ENDBRANCH  49  50
ENDBRANCH  24  49
BRANCH  21  55
ATOM     55  C   UNK d   0       9.721  10.693  -8.576  0.00  0.00     0.151 C 
BRANCH  55  56
ATOM     56  C   UNK d   0       9.188   9.397  -8.127  0.00  0.00     0.143 C 
ATOM     57  O   UNK d   0       9.799   8.654  -7.333  0.00  0.00    -0.650 OA
BRANCH  56  58
ATOM     58  O   UNK d   0       7.947   8.999  -8.621  0.00  0.00    -0.776 OA
ATOM     59  H   UNK d   0       7.185   9.690  -8.494  0.00  0.00     0.167 HD
ENDBRANCH  56  58
ENDBRANCH  55  56
ENDBRANCH  21  55
BRANCH  18  60
ATOM     60  C   UNK d   0       7.962   6.848 -11.882  0.00  0.00     0.151 C 
BRANCH  60  61
ATOM     61  C   UNK d   0       8.837   6.081 -10.982  0.00  0.00     0.143 C 
ATOM     62  O   UNK d   0       9.274   6.441  -9.888  0.00  0.00    -0.650 OA
BRANCH  61  63
ATOM     63  O   UNK d   0       9.201   4.795 -11.447  0.00  0.00    -0.776 OA
ATOM     64  H   UNK d   0       9.814   4.682 -12.234  0.00  0.00     0.167 HD
ENDBRANCH  61  63
ENDBRANCH  60  61
ENDBRANCH  18  60
BRANCH  14  65
ATOM     65  C   UNK d   0       8.376   5.810 -14.704  0.00  0.00     0.052 C 
BRANCH  65  66
ATOM     66  C   UNK d   0       7.440   6.152 -15.809  0.00  0.00     0.115 C 
BRANCH  66  67
ATOM     67  C   UNK d   0       6.033   6.254 -15.544  0.00  0.00     0.139 C 
ATOM     68  O   UNK d   0       5.639   6.284 -14.320  0.00  0.00    -0.650 OA
BRANCH  67  69
ATOM     69  O   UNK d   0       4.993   6.328 -16.470  0.00  0.00    -0.776 OA
ATOM     70  H   UNK d   0       4.561   7.256 -16.585  0.00  0.00     0.167 HD
ENDBRANCH  67  69
ENDBRANCH  66  67
ENDBRANCH  65  66
ENDBRANCH  14  65
ENDBRANCH   6   7
ENDBRANCH   5   6
ENDBRANCH   2   5
TORSDOF 28
ENDMDL
MODEL 17
REMARK VINA RESULT:      -7.5     12.446     15.072
REMARK  28 active torsions:
REMARK  status: ('A' for Active; 'I' for Inactive)
REMARK    1  A    between atoms: C_2  and  O_3 
REMARK    2  A    between atoms: C_2  and  C_4 
REMARK    3  A    between atoms: C_4  and  C_5 
REMARK    4  A    between atoms: C_5  and  C_6 
REMARK    5  A    between atoms: C_7  and  C_8 
REMARK    6  A    between atoms: C_8  and  C_9 
REMARK    7  A    between atoms: C_9  and  O_11 
REMARK    8  A    between atoms: C_28  and  C_29 
REMARK    9  A    between atoms: C_29  and  C_30 
REMARK   10  A    between atoms: C_30  and  O_32 
REMARK   11  A    between atoms: C_33  and  C_34 
REMARK   12  A    between atoms: C_34  and  C_35 
REMARK   13  A    between atoms: C_35  and  C_36 
REMARK   14  A    between atoms: C_36  and  O_38 
REMARK   15  A    between atoms: C_39  and  C_40 
REMARK   16  A    between atoms: C_40  and  C_41 
REMARK   17  A    between atoms: C_41  and  C_42 
REMARK   18  A    between atoms: C_42  and  O_44 
REMARK   19  A    between atoms: C_45  and  C_46 
REMARK   20  A    between atoms: C_46  and  C_47 
REMARK   21  A    between atoms: C_47  and  O_49 
REMARK   22  A    between atoms: C_50  and  C_51 
REMARK   23  A    between atoms: C_51  and  C_52 
REMARK   24  A    between atoms: C_52  and  O_54 
REMARK   25  A    between atoms: C_55  and  C_56 
REMARK   26  A    between atoms: C_56  and  C_57 
REMARK   27  A    between atoms: C_57  and  C_58 
REMARK   28  A    between atoms: C_58  and  O_60 
ROOT
ATOM      1  O   UNK d   0      22.651  17.009  -7.135  0.00  0.00    -0.650 OA
ATOM      2  C   UNK d   0      23.062  18.177  -7.321  0.00  0.00     0.139 C 
ENDROOT
BRANCH   2   3
ATOM      3  O   UNK d   0      22.957  18.737  -8.571  0.00  0.00    -0.776 OA
ATOM      4  H   UNK d   0      22.180  19.358  -8.808  0.00  0.00     0.167 HD
ENDBRANCH   2   3
BRANCH   2   5
ATOM      5  C   UNK d   0      23.659  18.948  -6.194  0.00  0.00     0.115 C 
BRANCH   5   6
ATOM      6  C   UNK d   0      24.933  18.292  -5.735  0.00  0.00     0.052 C 
BRANCH   6   7
ATOM      7  C   UNK d   0      24.979  18.095  -4.239  0.00  0.00    -0.020 A 
ATOM      8  C   UNK d   0      25.590  18.842  -3.354  0.00  0.00    -0.011 A 
ATOM      9  C   UNK d   0      25.362  18.256  -2.044  0.00  0.00     0.067 A 
ATOM     10  C   UNK d   0      25.711  18.568  -0.721  0.00  0.00     0.062 C 
ATOM     11  N   UNK d   0      24.608  17.151  -2.225  0.00  0.00    -0.248 NA
ATOM     12  C   UNK d   0      25.162  18.032   0.449  0.00  0.00     0.041 A 
ATOM     13  N   UNK d   0      24.833  16.767   0.775  0.00  0.00    -0.355 N 
ATOM     14  C   UNK d   0      24.813  18.902   1.498  0.00  0.00    -0.022 A 
ATOM     15  C   UNK d   0      24.277  16.814   2.001  0.00  0.00     0.042 A 
ATOM     16  H   UNK d   0      25.007  15.857   0.160  0.00  0.00     0.166 HD
ATOM     17  C   UNK d   0      23.761  15.782   2.810  0.00  0.00     0.062 C 
ATOM     18  C   UNK d   0      24.247  18.136   2.486  0.00  0.00    -0.013 A 
ATOM     19  C   UNK d   0      22.943  14.739   2.459  0.00  0.00     0.067 A 
ATOM     20  N   UNK d   0      22.751  14.533   1.153  0.00  0.00    -0.248 NA
ATOM     21  C   UNK d   0      22.164  13.737   3.168  0.00  0.00    -0.011 A 
ATOM     22  C   UNK d   0      21.903  13.471   0.957  0.00  0.00     0.066 A 
ATOM     23  C   UNK d   0      21.646  13.122  -0.360  0.00  0.00     0.062 C 
ATOM     24  C   UNK d   0      21.555  13.001   2.284  0.00  0.00    -0.020 A 
ATOM     25  C   UNK d   0      22.218  13.664  -1.521  0.00  0.00     0.041 A 
ATOM     26  N   UNK d   0      22.532  14.923  -1.852  0.00  0.00    -0.355 N 
ATOM     27  C   UNK d   0      22.572  12.790  -2.572  0.00  0.00    -0.022 A 
ATOM     28  C   UNK d   0      23.078  14.880  -3.077  0.00  0.00     0.042 A 
ATOM     29  H   UNK d   0      22.346  15.837  -1.236  0.00  0.00     0.166 HD
ATOM     30  C   UNK d   0      23.587  15.899  -3.897  0.00  0.00     0.062 C 
ATOM     31  C   UNK d   0      23.118  13.550  -3.560  0.00  0.00    -0.013 A 
ATOM     32  C   UNK d   0      24.343  16.999  -3.523  0.00  0.00     0.066 A 
BRANCH   8  33
ATOM     33  C   UNK d   0      26.377  20.060  -3.617  0.00  0.00     0.151 C 
BRANCH  33  34
ATOM     34  C   UNK d   0      25.639  21.297  -3.303  0.00  0.00     0.143 C 
ATOM     35  O   UNK d   0      24.400  21.324  -3.338  0.00  0.00    -0.650 OA
BRANCH  34  36
ATOM     36  O   UNK d   0      26.336  22.434  -2.969  0.00  0.00    -0.776 OA
ATOM     37  H   UNK d   0      26.399  22.755  -1.993  0.00  0.00     0.167 HD
ENDBRANCH  34  36
ENDBRANCH  33  34
ENDBRANCH   8  33
BRANCH  31  38
ATOM     38  C   UNK d   0      23.657  13.046  -4.878  0.00  0.00     0.151 C 
BRANCH  38  39
ATOM     39  C   UNK d   0      25.034  12.609  -4.791  0.00  0.00     0.143 C 
ATOM     40  O   UNK d   0      25.878  13.204  -4.099  0.00  0.00    -0.650 OA
BRANCH  39  41
ATOM     41  O   UNK d   0      25.442  11.482  -5.504  0.00  0.00    -0.776 OA
ATOM     42  H   UNK d   0      24.806  11.140  -6.231  0.00  0.00     0.167 HD
ENDBRANCH  39  41
ENDBRANCH  38  39
ENDBRANCH  31  38
BRANCH  27  43
ATOM     43  C   UNK d   0      22.411  11.293  -2.668  0.00  0.00     0.052 C 
BRANCH  43  44
ATOM     44  C   UNK d   0      20.997  10.863  -2.887  0.00  0.00     0.115 C 
BRANCH  44  45
ATOM     45  C   UNK d   0      20.796  10.801  -4.359  0.00  0.00     0.139 C 
ATOM     46  O   UNK d   0      19.818  11.417  -4.849  0.00  0.00    -0.650 OA
BRANCH  45  47
ATOM     47  O   UNK d   0      21.638  10.104  -5.199  0.00  0.00    -0.776 OA
ATOM     48  H   UNK d   0      21.990   9.158  -4.980  0.00  0.00     0.167 HD
ENDBRANCH  45  47
ENDBRANCH  44  45
ENDBRANCH  43  44
ENDBRANCH  27  43
BRANCH  24  49
ATOM     49  C   UNK d   0      20.690  11.843   2.566  0.00  0.00     0.052 C 
BRANCH  49  50
ATOM     50  C   UNK d   0      19.260  12.286   2.743  0.00  0.00     0.115 C 
BRANCH  50  51
ATOM     51  C   UNK d   0      18.438  12.376   1.544  0.00  0.00     0.139 C 
ATOM     52  O   UNK d   0      17.546  13.245   1.399  0.00  0.00    -0.650 OA
BRANCH  51  53
ATOM     53  O   UNK d   0      18.632  11.473   0.510  0.00  0.00    -0.776 OA
ATOM     54  H   UNK d   0      17.978  10.716   0.411  0.00  0.00     0.167 HD
ENDBRANCH  51  53
ENDBRANCH  50  51
ENDBRANCH  49  50
ENDBRANCH  24  49
BRANCH  21  55
ATOM     55  C   UNK d   0      22.114  13.617   4.655  0.00  0.00     0.151 C 
BRANCH  55  56
ATOM     56  C   UNK d   0      20.926  14.274   5.222  0.00  0.00     0.143 C 
ATOM     57  O   UNK d   0      20.358  13.867   6.254  0.00  0.00    -0.650 OA
BRANCH  56  58
ATOM     58  O   UNK d   0      20.429  15.398   4.563  0.00  0.00    -0.776 OA
ATOM     59  H   UNK d   0      20.167  15.242   3.573  0.00  0.00     0.167 HD
ENDBRANCH  56  58
ENDBRANCH  55  56
ENDBRANCH  21  55
BRANCH  18  60
ATOM     60  C   UNK d   0      23.719  18.667   3.796  0.00  0.00     0.151 C 
BRANCH  60  61
ATOM     61  C   UNK d   0      22.278  18.879   3.594  0.00  0.00     0.143 C 
ATOM     62  O   UNK d   0      21.392  18.024   3.613  0.00  0.00    -0.650 OA
BRANCH  61  63
ATOM     63  O   UNK d   0      21.894  20.221   3.355  0.00  0.00    -0.776 OA
ATOM     64  H   UNK d   0      21.079  20.438   2.810  0.00  0.00     0.167 HD
ENDBRANCH  61  63
ENDBRANCH  60  61
ENDBRANCH  18  60
BRANCH  14  65
ATOM     65  C   UNK d   0      25.062  20.373   1.676  0.00  0.00     0.052 C 
BRANCH  65  66
ATOM     66  C   UNK d   0      26.462  20.682   2.073  0.00  0.00     0.115 C 
BRANCH  66  67
ATOM     67  C   UNK d   0      27.310  21.416   1.176  0.00  0.00     0.139 C 
ATOM     68  O   UNK d   0      28.474  21.776   1.589  0.00  0.00    -0.650 OA
BRANCH  67  69
ATOM     69  O   UNK d   0      27.032  21.807  -0.133  0.00  0.00    -0.776 OA
ATOM     70  H   UNK d   0      27.852  21.980  -0.732  0.00  0.00     0.167 HD
ENDBRANCH  67  69
ENDBRANCH  66  67
ENDBRANCH  65  66
ENDBRANCH  14  65
ENDBRANCH   6   7
ENDBRANCH   5   6
ENDBRANCH   2   5
TORSDOF 28
ENDMDL
MODEL 18
REMARK VINA RESULT:      -7.5     25.134     27.881
REMARK  28 active torsions:
REMARK  status: ('A' for Active; 'I' for Inactive)
REMARK    1  A    between atoms: C_2  and  O_3 
REMARK    2  A    between atoms: C_2  and  C_4 
REMARK    3  A    between atoms: C_4  and  C_5 
REMARK    4  A    between atoms: C_5  and  C_6 
REMARK    5  A    between atoms: C_7  and  C_8 
REMARK    6  A    between atoms: C_8  and  C_9 
REMARK    7  A    between atoms: C_9  and  O_11 
REMARK    8  A    between atoms: C_28  and  C_29 
REMARK    9  A    between atoms: C_29  and  C_30 
REMARK   10  A    between atoms: C_30  and  O_32 
REMARK   11  A    between atoms: C_33  and  C_34 
REMARK   12  A    between atoms: C_34  and  C_35 
REMARK   13  A    between atoms: C_35  and  C_36 
REMARK   14  A    between atoms: C_36  and  O_38 
REMARK   15  A    between atoms: C_39  and  C_40 
REMARK   16  A    between atoms: C_40  and  C_41 
REMARK   17  A    between atoms: C_41  and  C_42 
REMARK   18  A    between atoms: C_42  and  O_44 
REMARK   19  A    between atoms: C_45  and  C_46 
REMARK   20  A    between atoms: C_46  and  C_47 
REMARK   21  A    between atoms: C_47  and  O_49 
REMARK   22  A    between atoms: C_50  and  C_51 
REMARK   23  A    between atoms: C_51  and  C_52 
REMARK   24  A    between atoms: C_52  and  O_54 
REMARK   25  A    between atoms: C_55  and  C_56 
REMARK   26  A    between atoms: C_56  and  C_57 
REMARK   27  A    between atoms: C_57  and  C_58 
REMARK   28  A    between atoms: C_58  and  O_60 
ROOT
ATOM      1  O   UNK d   0      15.518   6.931   3.570  0.00  0.00    -0.650 OA
ATOM      2  C   UNK d   0      15.112   6.577   4.699  0.00  0.00     0.139 C 
ENDROOT
BRANCH   2   3
ATOM      3  O   UNK d   0      14.638   7.526   5.573  0.00  0.00    -0.776 OA
ATOM      4  H   UNK d   0      13.676   7.493   5.917  0.00  0.00     0.167 HD
ENDBRANCH   2   3
BRANCH   2   5
ATOM      5  C   UNK d   0      15.143   5.138   5.088  0.00  0.00     0.115 C 
BRANCH   5   6
ATOM      6  C   UNK d   0      16.107   4.386   4.211  0.00  0.00     0.052 C 
BRANCH   6   7
ATOM      7  C   UNK d   0      17.137   3.618   5.005  0.00  0.00    -0.020 A 
ATOM      8  C   UNK d   0      18.208   4.089   5.590  0.00  0.00    -0.011 A 
ATOM      9  C   UNK d   0      18.895   2.976   6.223  0.00  0.00     0.067 A 
ATOM     10  C   UNK d   0      20.052   2.811   7.002  0.00  0.00     0.062 C 
ATOM     11  N   UNK d   0      18.175   1.864   5.969  0.00  0.00    -0.248 NA
ATOM     12  C   UNK d   0      20.408   1.692   7.762  0.00  0.00     0.041 A 
ATOM     13  N   UNK d   0      20.337   0.375   7.489  0.00  0.00    -0.355 N 
ATOM     14  C   UNK d   0      20.883   1.883   9.073  0.00  0.00    -0.022 A 
ATOM     15  C   UNK d   0      20.746  -0.274   8.596  0.00  0.00     0.042 A 
ATOM     16  H   UNK d   0      20.022  -0.085   6.527  0.00  0.00     0.166 HD
ATOM     17  C   UNK d   0      20.868  -1.654   8.852  0.00  0.00     0.062 C 
ATOM     18  C   UNK d   0      21.097   0.638   9.610  0.00  0.00    -0.013 A 
ATOM     19  C   UNK d   0      19.988  -2.666   8.562  0.00  0.00     0.067 A 
ATOM     20  N   UNK d   0      18.965  -2.366   7.759  0.00  0.00    -0.248 NA
ATOM     21  C   UNK d   0      19.850  -4.066   8.926  0.00  0.00    -0.011 A 
ATOM     22  C   UNK d   0      18.166  -3.467   7.572  0.00  0.00     0.066 A 
ATOM     23  C   UNK d   0      17.081  -3.305   6.724  0.00  0.00     0.062 C 
ATOM     24  C   UNK d   0      18.779  -4.528   8.347  0.00  0.00    -0.020 A 
ATOM     25  C   UNK d   0      16.748  -2.177   5.959  0.00  0.00     0.041 A 
ATOM     26  N   UNK d   0      16.805  -0.869   6.235  0.00  0.00    -0.355 N 
ATOM     27  C   UNK d   0      16.276  -2.370   4.642  0.00  0.00    -0.022 A 
ATOM     28  C   UNK d   0      16.388  -0.219   5.136  0.00  0.00     0.042 A 
ATOM     29  H   UNK d   0      17.111  -0.407   7.206  0.00  0.00     0.166 HD
ATOM     30  C   UNK d   0      16.254   1.152   4.871  0.00  0.00     0.062 C 
ATOM     31  C   UNK d   0      16.046  -1.136   4.114  0.00  0.00    -0.013 A 
ATOM     32  C   UNK d   0      17.104   2.182   5.241  0.00  0.00     0.066 A 
BRANCH   8  33
ATOM     33  C   UNK d   0      18.660   5.493   5.610  0.00  0.00     0.151 C 
BRANCH  33  34
ATOM     34  C   UNK d   0      19.225   5.929   4.320  0.00  0.00     0.143 C 
ATOM     35  O   UNK d   0      20.289   5.455   3.898  0.00  0.00    -0.650 OA
BRANCH  34  36
ATOM     36  O   UNK d   0      18.560   6.877   3.578  0.00  0.00    -0.776 OA
ATOM     37  H   UNK d   0      18.441   6.773   2.561  0.00  0.00     0.167 HD
ENDBRANCH  34  36
ENDBRANCH  33  34
ENDBRANCH   8  33
BRANCH  31  38
ATOM     38  C   UNK d   0      15.546  -0.842   2.719  0.00  0.00     0.151 C 
BRANCH  38  39
ATOM     39  C   UNK d   0      16.592  -0.908   1.722  0.00  0.00     0.143 C 
ATOM     40  O   UNK d   0      16.379  -1.291   0.558  0.00  0.00    -0.650 OA
BRANCH  39  41
ATOM     41  O   UNK d   0      17.890  -0.530   2.063  0.00  0.00    -0.776 OA
ATOM     42  H   UNK d   0      18.118  -0.511   3.062  0.00  0.00     0.167 HD
ENDBRANCH  39  41
ENDBRANCH  38  39
ENDBRANCH  31  38
BRANCH  27  43
ATOM     43  C   UNK d   0      16.038  -3.654   3.887  0.00  0.00     0.052 C 
BRANCH  43  44
ATOM     44  C   UNK d   0      17.269  -4.188   3.229  0.00  0.00     0.115 C 
BRANCH  44  45
ATOM     45  C   UNK d   0      17.518  -5.529   3.821  0.00  0.00     0.139 C 
ATOM     46  O   UNK d   0      16.710  -6.452   3.556  0.00  0.00    -0.650 OA
BRANCH  45  47
ATOM     47  O   UNK d   0      18.596  -5.796   4.637  0.00  0.00    -0.776 OA
ATOM     48  H   UNK d   0      19.574  -5.661   4.336  0.00  0.00     0.167 HD
ENDBRANCH  45  47
ENDBRANCH  44  45
ENDBRANCH  43  44
ENDBRANCH  27  43
BRANCH  24  49
ATOM     49  C   UNK d   0      18.285  -5.914   8.415  0.00  0.00     0.052 C 
BRANCH  49  50
ATOM     50  C   UNK d   0      16.996  -5.973   9.195  0.00  0.00     0.115 C 
BRANCH  50  51
ATOM     51  C   UNK d   0      17.087  -6.329  10.604  0.00  0.00     0.139 C 
ATOM     52  O   UNK d   0      17.474  -7.457  10.993  0.00  0.00    -0.650 OA
BRANCH  51  53
ATOM     53  O   UNK d   0      16.735  -5.401  11.572  0.00  0.00    -0.776 OA
ATOM     54  H   UNK d   0      16.148  -4.631  11.300  0.00  0.00     0.167 HD
ENDBRANCH  51  53
ENDBRANCH  50  51
ENDBRANCH  49  50
ENDBRANCH  24  49
BRANCH  21  55
ATOM     55  C   UNK d   0      20.804  -4.797   9.812  0.00  0.00     0.151 C 
BRANCH  55  56
ATOM     56  C   UNK d   0      21.794  -5.564   9.041  0.00  0.00     0.143 C 
ATOM     57  O   UNK d   0      21.931  -5.442   7.808  0.00  0.00    -0.650 OA
BRANCH  56  58
ATOM     58  O   UNK d   0      22.605  -6.460   9.735  0.00  0.00    -0.776 OA
ATOM     59  H   UNK d   0      22.305  -6.657  10.707  0.00  0.00     0.167 HD
ENDBRANCH  56  58
ENDBRANCH  55  56
ENDBRANCH  21  55
BRANCH  18  60
ATOM     60  C   UNK d   0      21.601   0.375  11.007  0.00  0.00     0.151 C 
BRANCH  60  61
ATOM     61  C   UNK d   0      20.413   0.048  11.810  0.00  0.00     0.143 C 
ATOM     62  O   UNK d   0      19.239   0.296  11.534  0.00  0.00    -0.650 OA
BRANCH  61  63
ATOM     63  O   UNK d   0      20.676  -0.624  13.028  0.00  0.00    -0.776 OA
ATOM     64  H   UNK d   0      19.979  -0.680  13.750  0.00  0.00     0.167 HD
ENDBRANCH  61  63
ENDBRANCH  60  61
ENDBRANCH  18  60
BRANCH  14  65
ATOM     65  C   UNK d   0      21.239   3.141   9.813  0.00  0.00     0.052 C 
BRANCH  65  66
ATOM     66  C   UNK d   0      20.222   3.526  10.829  0.00  0.00     0.115 C 
BRANCH  66  67
ATOM     67  C   UNK d   0      20.619   4.290  11.978  0.00  0.00     0.139 C 
ATOM     68  O   UNK d   0      20.324   3.839  13.146  0.00  0.00    -0.650 OA
BRANCH  67  69
ATOM     69  O   UNK d   0      21.306   5.503  12.001  0.00  0.00    -0.776 OA
ATOM     70  H   UNK d   0      21.669   5.795  12.920  0.00  0.00     0.167 HD
ENDBRANCH  67  69
ENDBRANCH  66  67
ENDBRANCH  65  66
ENDBRANCH  14  65
ENDBRANCH   6   7
ENDBRANCH   5   6
ENDBRANCH   2   5
TORSDOF 28
ENDMDL
MODEL 19
REMARK VINA RESULT:      -7.5     24.020     27.056
REMARK  28 active torsions:
REMARK  status: ('A' for Active; 'I' for Inactive)
REMARK    1  A    between atoms: C_2  and  O_3 
REMARK    2  A    between atoms: C_2  and  C_4 
REMARK    3  A    between atoms: C_4  and  C_5 
REMARK    4  A    between atoms: C_5  and  C_6 
REMARK    5  A    between atoms: C_7  and  C_8 
REMARK    6  A    between atoms: C_8  and  C_9 
REMARK    7  A    between atoms: C_9  and  O_11 
REMARK    8  A    between atoms: C_28  and  C_29 
REMARK    9  A    between atoms: C_29  and  C_30 
REMARK   10  A    between atoms: C_30  and  O_32 
REMARK   11  A    between atoms: C_33  and  C_34 
REMARK   12  A    between atoms: C_34  and  C_35 
REMARK   13  A    between atoms: C_35  and  C_36 
REMARK   14  A    between atoms: C_36  and  O_38 
REMARK   15  A    between atoms: C_39  and  C_40 
REMARK   16  A    between atoms: C_40  and  C_41 
REMARK   17  A    between atoms: C_41  and  C_42 
REMARK   18  A    between atoms: C_42  and  O_44 
REMARK   19  A    between atoms: C_45  and  C_46 
REMARK   20  A    between atoms: C_46  and  C_47 
REMARK   21  A    between atoms: C_47  and  O_49 
REMARK   22  A    between atoms: C_50  and  C_51 
REMARK   23  A    between atoms: C_51  and  C_52 
REMARK   24  A    between atoms: C_52  and  O_54 
REMARK   25  A    between atoms: C_55  and  C_56 
REMARK   26  A    between atoms: C_56  and  C_57 
REMARK   27  A    between atoms: C_57  and  C_58 
REMARK   28  A    between atoms: C_58  and  O_60 
ROOT
ATOM      1  O   UNK d   0      -2.795   0.964 -12.217  0.00  0.00    -0.650 OA
ATOM      2  C   UNK d   0      -3.023   2.074 -11.686  0.00  0.00     0.139 C 
ENDROOT
BRANCH   2   3
ATOM      3  O   UNK d   0      -2.455   3.205 -12.221  0.00  0.00    -0.776 OA
ATOM      4  H   UNK d   0      -3.035   3.967 -12.580  0.00  0.00     0.167 HD
ENDBRANCH   2   3
BRANCH   2   5
ATOM      5  C   UNK d   0      -3.901   2.163 -10.486  0.00  0.00     0.115 C 
BRANCH   5   6
ATOM      6  C   UNK d   0      -4.192   0.786  -9.954  0.00  0.00     0.052 C 
BRANCH   6   7
ATOM      7  C   UNK d   0      -3.559   0.538  -8.606  0.00  0.00    -0.020 A 
ATOM      8  C   UNK d   0      -4.074   0.775  -7.426  0.00  0.00    -0.011 A 
ATOM      9  C   UNK d   0      -3.094   0.384  -6.426  0.00  0.00     0.067 A 
ATOM     10  C   UNK d   0      -3.032   0.362  -5.024  0.00  0.00     0.062 C 
ATOM     11  N   UNK d   0      -2.010  -0.076  -7.086  0.00  0.00    -0.248 NA
ATOM     12  C   UNK d   0      -2.102  -0.315  -4.228  0.00  0.00     0.041 A 
ATOM     13  N   UNK d   0      -0.767  -0.450  -4.345  0.00  0.00    -0.355 N 
ATOM     14  C   UNK d   0      -2.562  -1.054  -3.123  0.00  0.00    -0.022 A 
ATOM     15  C   UNK d   0      -0.369  -1.262  -3.347  0.00  0.00     0.042 A 
ATOM     16  H   UNK d   0      -0.116   0.034  -5.106  0.00  0.00     0.166 HD
ATOM     17  C   UNK d   0       0.916  -1.729  -3.006  0.00  0.00     0.062 C 
ATOM     18  C   UNK d   0      -1.467  -1.662  -2.560  0.00  0.00    -0.013 A 
ATOM     19  C   UNK d   0       1.899  -2.223  -3.825  0.00  0.00     0.067 A 
ATOM     20  N   UNK d   0       1.722  -2.075  -5.140  0.00  0.00    -0.248 NA
ATOM     21  C   UNK d   0       3.159  -2.924  -3.639  0.00  0.00    -0.011 A 
ATOM     22  C   UNK d   0       2.773  -2.630  -5.828  0.00  0.00     0.066 A 
ATOM     23  C   UNK d   0       2.736  -2.513  -7.210  0.00  0.00     0.062 C 
ATOM     24  C   UNK d   0       3.663  -3.163  -4.815  0.00  0.00    -0.020 A 
ATOM     25  C   UNK d   0       1.799  -1.818  -7.989  0.00  0.00     0.041 A 
ATOM     26  N   UNK d   0       0.471  -1.696  -7.882  0.00  0.00    -0.355 N 
ATOM     27  C   UNK d   0       2.262  -1.073  -9.096  0.00  0.00    -0.022 A 
ATOM     28  C   UNK d   0       0.071  -0.894  -8.882  0.00  0.00     0.042 A 
ATOM     29  H   UNK d   0      -0.183  -2.192  -7.124  0.00  0.00     0.166 HD
ATOM     30  C   UNK d   0      -1.205  -0.429  -9.238  0.00  0.00     0.062 C 
ATOM     31  C   UNK d   0       1.175  -0.484  -9.666  0.00  0.00    -0.013 A 
ATOM     32  C   UNK d   0      -2.227  -0.010  -8.400  0.00  0.00     0.066 A 
BRANCH   8  33
ATOM     33  C   UNK d   0      -5.404   1.342  -7.139  0.00  0.00     0.151 C 
BRANCH  33  34
ATOM     34  C   UNK d   0      -5.384   2.811  -7.017  0.00  0.00     0.143 C 
ATOM     35  O   UNK d   0      -5.890   3.530  -7.890  0.00  0.00    -0.650 OA
BRANCH  34  36
ATOM     36  O   UNK d   0      -4.793   3.389  -5.917  0.00  0.00    -0.776 OA
ATOM     37  H   UNK d   0      -5.060   4.331  -5.600  0.00  0.00     0.167 HD
ENDBRANCH  34  36
ENDBRANCH  33  34
ENDBRANCH   8  33
BRANCH  31  38
ATOM     38  C   UNK d   0       1.184   0.423 -10.874  0.00  0.00     0.151 C 
BRANCH  38  39
ATOM     39  C   UNK d   0       0.764  -0.250 -12.084  0.00  0.00     0.143 C 
ATOM     40  O   UNK d   0       1.065  -1.431 -12.328  0.00  0.00    -0.650 OA
BRANCH  39  41
ATOM     41  O   UNK d   0      -0.008   0.439 -13.020  0.00  0.00    -0.776 OA
ATOM     42  H   UNK d   0      -1.008   0.217 -13.047  0.00  0.00     0.167 HD
ENDBRANCH  39  41
ENDBRANCH  38  39
ENDBRANCH  31  38
BRANCH  27  43
ATOM     43  C   UNK d   0       3.667  -0.906  -9.619  0.00  0.00     0.052 C 
BRANCH  43  44
ATOM     44  C   UNK d   0       4.382   0.267  -9.031  0.00  0.00     0.115 C 
BRANCH  44  45
ATOM     45  C   UNK d   0       5.835   0.010  -9.205  0.00  0.00     0.139 C 
ATOM     46  O   UNK d   0       6.337  -0.975  -8.608  0.00  0.00    -0.650 OA
BRANCH  45  47
ATOM     47  O   UNK d   0       6.645   0.799  -9.992  0.00  0.00    -0.776 OA
ATOM     48  H   UNK d   0       6.484   1.811 -10.123  0.00  0.00     0.167 HD
ENDBRANCH  45  47
ENDBRANCH  44  45
ENDBRANCH  43  44
ENDBRANCH  27  43
BRANCH  24  49
ATOM     49  C   UNK d   0       4.952  -3.820  -5.090  0.00  0.00     0.052 C 
BRANCH  49  50
ATOM     50  C   UNK d   0       5.911  -2.848  -5.728  0.00  0.00     0.115 C 
BRANCH  50  51
ATOM     51  C   UNK d   0       6.141  -1.588  -5.034  0.00  0.00     0.139 C 
ATOM     52  O   UNK d   0       6.679  -1.528  -3.903  0.00  0.00    -0.650 OA
BRANCH  51  53
ATOM     53  O   UNK d   0       5.755  -0.397  -5.628  0.00  0.00    -0.776 OA
ATOM     54  H   UNK d   0       6.263  -0.082  -6.437  0.00  0.00     0.167 HD
ENDBRANCH  51  53
ENDBRANCH  50  51
ENDBRANCH  49  50
ENDBRANCH  24  49
BRANCH  21  55
ATOM     55  C   UNK d   0       3.729  -3.278  -2.305  0.00  0.00     0.151 C 
BRANCH  55  56
ATOM     56  C   UNK d   0       3.312  -4.619  -1.866  0.00  0.00     0.143 C 
ATOM     57  O   UNK d   0       4.016  -5.633  -2.037  0.00  0.00    -0.650 OA
BRANCH  56  58
ATOM     58  O   UNK d   0       2.076  -4.740  -1.234  0.00  0.00    -0.776 OA
ATOM     59  H   UNK d   0       2.062  -4.442  -0.242  0.00  0.00     0.167 HD
ENDBRANCH  56  58
ENDBRANCH  55  56
ENDBRANCH  21  55
BRANCH  18  60
ATOM     60  C   UNK d   0      -1.504  -2.562  -1.350  0.00  0.00     0.151 C 
BRANCH  60  61
ATOM     61  C   UNK d   0      -1.770  -3.915  -1.861  0.00  0.00     0.143 C 
ATOM     62  O   UNK d   0      -2.867  -4.461  -1.980  0.00  0.00    -0.650 OA
BRANCH  61  63
ATOM     63  O   UNK d   0      -0.624  -4.647  -2.253  0.00  0.00    -0.776 OA
ATOM     64  H   UNK d   0      -0.045  -5.108  -1.573  0.00  0.00     0.167 HD
ENDBRANCH  61  63
ENDBRANCH  60  61
ENDBRANCH  18  60
BRANCH  14  65
ATOM     65  C   UNK d   0      -3.929  -1.150  -2.507  0.00  0.00     0.052 C 
BRANCH  65  66
ATOM     66  C   UNK d   0      -4.283   0.042  -1.691  0.00  0.00     0.115 C 
BRANCH  66  67
ATOM     67  C   UNK d   0      -3.242   0.836  -1.100  0.00  0.00     0.139 C 
ATOM     68  O   UNK d   0      -2.968   1.977  -1.625  0.00  0.00    -0.650 OA
BRANCH  67  69
ATOM     69  O   UNK d   0      -2.457   0.524   0.009  0.00  0.00    -0.776 OA
ATOM     70  H   UNK d   0      -1.439   0.520  -0.150  0.00  0.00     0.167 HD
ENDBRANCH  67  69
ENDBRANCH  66  67
ENDBRANCH  65  66
ENDBRANCH  14  65
ENDBRANCH   6   7
ENDBRANCH   5   6
ENDBRANCH   2   5
TORSDOF 28
ENDMDL
