MODEL 1
REMARK VINA RESULT:      -8.7      0.000      0.000
REMARK  28 active torsions:
REMARK  status: ('A' for Active; 'I' for Inactive)
REMARK    1  A    between atoms: C_2  and  O_3 
REMARK    2  A    between atoms: C_2  and  C_4 
REMARK    3  A    between atoms: C_4  and  C_5 
REMARK    4  A    between atoms: C_5  and  C_6 
REMARK    5  A    between atoms: C_7  and  C_8 
REMARK    6  A    between atoms: C_8  and  C_9 
REMARK    7  A    between atoms: C_9  and  O_11 
REMARK    8  A    between atoms: C_28  and  C_29 
REMARK    9  A    between atoms: C_29  and  C_30 
REMARK   10  A    between atoms: C_30  and  O_32 
REMARK   11  A    between atoms: C_33  and  C_34 
REMARK   12  A    between atoms: C_34  and  C_35 
REMARK   13  A    between atoms: C_35  and  C_36 
REMARK   14  A    between atoms: C_36  and  O_38 
REMARK   15  A    between atoms: C_39  and  C_40 
REMARK   16  A    between atoms: C_40  and  C_41 
REMARK   17  A    between atoms: C_41  and  C_42 
REMARK   18  A    between atoms: C_42  and  O_44 
REMARK   19  A    between atoms: C_45  and  C_46 
REMARK   20  A    between atoms: C_46  and  C_47 
REMARK   21  A    between atoms: C_47  and  O_49 
REMARK   22  A    between atoms: C_50  and  C_51 
REMARK   23  A    between atoms: C_51  and  C_52 
REMARK   24  A    between atoms: C_52  and  O_54 
REMARK   25  A    between atoms: C_55  and  C_56 
REMARK   26  A    between atoms: C_56  and  C_57 
REMARK   27  A    between atoms: C_57  and  C_58 
REMARK   28  A    between atoms: C_58  and  O_60 
ROOT
ATOM      1  O   UNK d   0     -20.129  26.475  22.781  0.00  0.00    -0.650 OA
ATOM      2  C   UNK d   0     -18.970  26.933  22.891  0.00  0.00     0.139 C 
ENDROOT
BRANCH   2   3
ATOM      3  O   UNK d   0     -18.611  27.589  24.044  0.00  0.00    -0.776 OA
ATOM      4  H   UNK d   0     -19.007  27.323  24.948  0.00  0.00     0.167 HD
ENDBRANCH   2   3
BRANCH   2   5
ATOM      5  C   UNK d   0     -17.991  26.766  21.780  0.00  0.00     0.115 C 
BRANCH   5   6
ATOM      6  C   UNK d   0     -17.816  28.067  21.045  0.00  0.00     0.052 C 
BRANCH   6   7
ATOM      7  C   UNK d   0     -19.121  28.620  20.524  0.00  0.00    -0.020 A 
ATOM      8  C   UNK d   0     -19.729  29.717  20.898  0.00  0.00    -0.011 A 
ATOM      9  C   UNK d   0     -20.955  29.831  20.125  0.00  0.00     0.067 A 
ATOM     10  C   UNK d   0     -22.009  30.753  20.029  0.00  0.00     0.062 C 
ATOM     11  N   UNK d   0     -21.015  28.758  19.308  0.00  0.00    -0.248 NA
ATOM     12  C   UNK d   0     -22.973  30.836  19.019  0.00  0.00     0.041 A 
ATOM     13  N   UNK d   0     -23.679  29.879  18.386  0.00  0.00    -0.355 N 
ATOM     14  C   UNK d   0     -23.281  32.095  18.474  0.00  0.00    -0.022 A 
ATOM     15  C   UNK d   0     -24.420  30.498  17.448  0.00  0.00     0.042 A 
ATOM     16  H   UNK d   0     -23.667  28.790  18.611  0.00  0.00     0.166 HD
ATOM     17  C   UNK d   0     -25.333  29.973  16.512  0.00  0.00     0.062 C 
ATOM     18  C   UNK d   0     -24.197  31.889  17.473  0.00  0.00    -0.013 A 
ATOM     19  C   UNK d   0     -25.205  28.870  15.708  0.00  0.00     0.067 A 
ATOM     20  N   UNK d   0     -24.179  28.054  15.960  0.00  0.00    -0.248 NA
ATOM     21  C   UNK d   0     -25.922  28.317  14.571  0.00  0.00    -0.011 A 
ATOM     22  C   UNK d   0     -24.171  27.008  15.070  0.00  0.00     0.066 A 
ATOM     23  C   UNK d   0     -23.174  26.059  15.241  0.00  0.00     0.062 C 
ATOM     24  C   UNK d   0     -25.310  27.230  14.200  0.00  0.00    -0.020 A 
ATOM     25  C   UNK d   0     -22.223  25.987  16.271  0.00  0.00     0.041 A 
ATOM     26  N   UNK d   0     -21.511  26.936  16.890  0.00  0.00    -0.355 N 
ATOM     27  C   UNK d   0     -21.918  24.723  16.821  0.00  0.00    -0.022 A 
ATOM     28  C   UNK d   0     -20.764  26.320  17.819  0.00  0.00     0.042 A 
ATOM     29  H   UNK d   0     -21.515  28.029  16.655  0.00  0.00     0.166 HD
ATOM     30  C   UNK d   0     -19.845  26.829  18.751  0.00  0.00     0.062 C 
ATOM     31  C   UNK d   0     -20.996  24.924  17.802  0.00  0.00    -0.013 A 
ATOM     32  C   UNK d   0     -19.941  27.991  19.499  0.00  0.00     0.066 A 
BRANCH   8  33
ATOM     33  C   UNK d   0     -19.275  30.675  21.922  0.00  0.00     0.151 C 
BRANCH  33  34
ATOM     34  C   UNK d   0     -20.164  30.720  23.097  0.00  0.00     0.143 C 
ATOM     35  O   UNK d   0     -20.335  31.773  23.726  0.00  0.00    -0.650 OA
BRANCH  34  36
ATOM     36  O   UNK d   0     -20.810  29.573  23.498  0.00  0.00    -0.776 OA
ATOM     37  H   UNK d   0     -20.303  28.811  23.968  0.00  0.00     0.167 HD
ENDBRANCH  34  36
ENDBRANCH  33  34
ENDBRANCH   8  33
BRANCH  31  38
ATOM     38  C   UNK d   0     -20.381  23.860  18.679  0.00  0.00     0.151 C 
BRANCH  38  39
ATOM     39  C   UNK d   0     -20.889  23.887  20.035  0.00  0.00     0.143 C 
ATOM     40  O   UNK d   0     -22.106  23.901  20.289  0.00  0.00    -0.650 OA
BRANCH  39  41
ATOM     41  O   UNK d   0     -19.992  23.898  21.103  0.00  0.00    -0.776 OA
ATOM     42  H   UNK d   0     -19.536  24.791  21.314  0.00  0.00     0.167 HD
ENDBRANCH  39  41
ENDBRANCH  38  39
ENDBRANCH  31  38
BRANCH  27  43
ATOM     43  C   UNK d   0     -22.457  23.363  16.454  0.00  0.00     0.052 C 
BRANCH  43  44
ATOM     44  C   UNK d   0     -21.626  22.653  15.435  0.00  0.00     0.115 C 
BRANCH  44  45
ATOM     45  C   UNK d   0     -22.508  22.405  14.265  0.00  0.00     0.139 C 
ATOM     46  O   UNK d   0     -23.305  21.436  14.319  0.00  0.00    -0.650 OA
BRANCH  45  47
ATOM     47  O   UNK d   0     -22.489  23.194  13.135  0.00  0.00    -0.776 OA
ATOM     48  H   UNK d   0     -22.608  22.812  12.183  0.00  0.00     0.167 HD
ENDBRANCH  45  47
ENDBRANCH  44  45
ENDBRANCH  43  44
ENDBRANCH  27  43
BRANCH  24  49
ATOM     49  C   UNK d   0     -25.721  26.330  13.108  0.00  0.00     0.052 C 
BRANCH  49  50
ATOM     50  C   UNK d   0     -26.537  25.186  13.651  0.00  0.00     0.115 C 
BRANCH  50  51
ATOM     51  C   UNK d   0     -25.949  23.855  13.576  0.00  0.00     0.139 C 
ATOM     52  O   UNK d   0     -25.487  23.379  12.512  0.00  0.00    -0.650 OA
BRANCH  51  53
ATOM     53  O   UNK d   0     -25.889  23.066  14.715  0.00  0.00    -0.776 OA
ATOM     54  H   UNK d   0     -25.291  22.258  14.702  0.00  0.00     0.167 HD
ENDBRANCH  51  53
ENDBRANCH  50  51
ENDBRANCH  49  50
ENDBRANCH  24  49
BRANCH  21  55
ATOM     55  C   UNK d   0     -27.147  28.930  13.978  0.00  0.00     0.151 C 
BRANCH  55  56
ATOM     56  C   UNK d   0     -28.377  28.424  14.606  0.00  0.00     0.143 C 
ATOM     57  O   UNK d   0     -29.085  27.539  14.086  0.00  0.00    -0.650 OA
BRANCH  56  58
ATOM     58  O   UNK d   0     -28.750  28.968  15.833  0.00  0.00    -0.776 OA
ATOM     59  H   UNK d   0     -29.019  29.968  15.804  0.00  0.00     0.167 HD
ENDBRANCH  56  58
ENDBRANCH  55  56
ENDBRANCH  21  55
BRANCH  18  60
ATOM     60  C   UNK d   0     -24.798  32.973  16.613  0.00  0.00     0.151 C 
BRANCH  60  61
ATOM     61  C   UNK d   0     -23.967  33.034  15.401  0.00  0.00     0.143 C 
ATOM     62  O   UNK d   0     -23.904  32.196  14.501  0.00  0.00    -0.650 OA
BRANCH  61  63
ATOM     63  O   UNK d   0     -23.161  34.192  15.280  0.00  0.00    -0.776 OA
ATOM     64  H   UNK d   0     -22.485  34.278  14.543  0.00  0.00     0.167 HD
ENDBRANCH  61  63
ENDBRANCH  60  61
ENDBRANCH  18  60
BRANCH  14  65
ATOM     65  C   UNK d   0     -22.854  33.475  18.888  0.00  0.00     0.052 C 
BRANCH  65  66
ATOM     66  C   UNK d   0     -21.390  33.581  19.134  0.00  0.00     0.115 C 
BRANCH  66  67
ATOM     67  C   UNK d   0     -20.497  33.802  18.032  0.00  0.00     0.139 C 
ATOM     68  O   UNK d   0     -20.996  34.143  16.897  0.00  0.00    -0.650 OA
BRANCH  67  69
ATOM     69  O   UNK d   0     -19.107  33.693  18.025  0.00  0.00    -0.776 OA
ATOM     70  H   UNK d   0     -18.716  32.915  18.576  0.00  0.00     0.167 HD
ENDBRANCH  67  69
ENDBRANCH  66  67
ENDBRANCH  65  66
ENDBRANCH  14  65
ENDBRANCH   6   7
ENDBRANCH   5   6
ENDBRANCH   2   5
TORSDOF 28
ENDMDL
MODEL 2
REMARK VINA RESULT:      -7.9     24.763     28.239
REMARK  28 active torsions:
REMARK  status: ('A' for Active; 'I' for Inactive)
REMARK    1  A    between atoms: C_2  and  O_3 
REMARK    2  A    between atoms: C_2  and  C_4 
REMARK    3  A    between atoms: C_4  and  C_5 
REMARK    4  A    between atoms: C_5  and  C_6 
REMARK    5  A    between atoms: C_7  and  C_8 
REMARK    6  A    between atoms: C_8  and  C_9 
REMARK    7  A    between atoms: C_9  and  O_11 
REMARK    8  A    between atoms: C_28  and  C_29 
REMARK    9  A    between atoms: C_29  and  C_30 
REMARK   10  A    between atoms: C_30  and  O_32 
REMARK   11  A    between atoms: C_33  and  C_34 
REMARK   12  A    between atoms: C_34  and  C_35 
REMARK   13  A    between atoms: C_35  and  C_36 
REMARK   14  A    between atoms: C_36  and  O_38 
REMARK   15  A    between atoms: C_39  and  C_40 
REMARK   16  A    between atoms: C_40  and  C_41 
REMARK   17  A    between atoms: C_41  and  C_42 
REMARK   18  A    between atoms: C_42  and  O_44 
REMARK   19  A    between atoms: C_45  and  C_46 
REMARK   20  A    between atoms: C_46  and  C_47 
REMARK   21  A    between atoms: C_47  and  O_49 
REMARK   22  A    between atoms: C_50  and  C_51 
REMARK   23  A    between atoms: C_51  and  C_52 
REMARK   24  A    between atoms: C_52  and  O_54 
REMARK   25  A    between atoms: C_55  and  C_56 
REMARK   26  A    between atoms: C_56  and  C_57 
REMARK   27  A    between atoms: C_57  and  C_58 
REMARK   28  A    between atoms: C_58  and  O_60 
ROOT
ATOM      1  O   UNK d   0     -34.400   7.412  -1.126  0.00  0.00    -0.650 OA
ATOM      2  C   UNK d   0     -34.506   8.320  -0.272  0.00  0.00     0.139 C 
ENDROOT
BRANCH   2   3
ATOM      3  O   UNK d   0     -35.655   8.410   0.475  0.00  0.00    -0.776 OA
ATOM      4  H   UNK d   0     -36.206   7.579   0.700  0.00  0.00     0.167 HD
ENDBRANCH   2   3
BRANCH   2   5
ATOM      5  C   UNK d   0     -33.394   9.292  -0.070  0.00  0.00     0.115 C 
BRANCH   5   6
ATOM      6  C   UNK d   0     -33.587  10.039   1.221  0.00  0.00     0.052 C 
BRANCH   6   7
ATOM      7  C   UNK d   0     -33.200   9.220   2.430  0.00  0.00    -0.020 A 
ATOM      8  C   UNK d   0     -33.862   9.089   3.550  0.00  0.00    -0.011 A 
ATOM      9  C   UNK d   0     -33.096   8.212   4.420  0.00  0.00     0.067 A 
ATOM     10  C   UNK d   0     -33.253   7.670   5.705  0.00  0.00     0.062 C 
ATOM     11  N   UNK d   0     -31.978   7.861   3.750  0.00  0.00    -0.248 NA
ATOM     12  C   UNK d   0     -32.534   6.613   6.273  0.00  0.00     0.041 A 
ATOM     13  N   UNK d   0     -31.219   6.323   6.252  0.00  0.00    -0.355 N 
ATOM     14  C   UNK d   0     -33.235   5.604   6.958  0.00  0.00    -0.022 A 
ATOM     15  C   UNK d   0     -31.069   5.152   6.899  0.00  0.00     0.042 A 
ATOM     16  H   UNK d   0     -30.411   6.944   5.806  0.00  0.00     0.166 HD
ATOM     17  C   UNK d   0     -29.908   4.398   7.166  0.00  0.00     0.062 C 
ATOM     18  C   UNK d   0     -32.311   4.670   7.355  0.00  0.00    -0.013 A 
ATOM     19  C   UNK d   0     -28.869   4.089   6.326  0.00  0.00     0.067 A 
ATOM     20  N   UNK d   0     -28.824   4.732   5.157  0.00  0.00    -0.248 NA
ATOM     21  C   UNK d   0     -27.734   3.181   6.359  0.00  0.00    -0.011 A 
ATOM     22  C   UNK d   0     -27.744   4.310   4.421  0.00  0.00     0.066 A 
ATOM     23  C   UNK d   0     -27.554   4.926   3.194  0.00  0.00     0.062 C 
ATOM     24  C   UNK d   0     -27.082   3.312   5.239  0.00  0.00    -0.020 A 
ATOM     25  C   UNK d   0     -28.281   5.996   2.647  0.00  0.00     0.041 A 
ATOM     26  N   UNK d   0     -29.589   6.276   2.655  0.00  0.00    -0.355 N 
ATOM     27  C   UNK d   0     -27.576   7.011   1.964  0.00  0.00    -0.022 A 
ATOM     28  C   UNK d   0     -29.743   7.440   2.003  0.00  0.00     0.042 A 
ATOM     29  H   UNK d   0     -30.401   5.646   3.094  0.00  0.00     0.166 HD
ATOM     30  C   UNK d   0     -30.892   8.195   1.722  0.00  0.00     0.062 C 
ATOM     31  C   UNK d   0     -28.493   7.929   1.553  0.00  0.00    -0.013 A 
ATOM     32  C   UNK d   0     -31.980   8.434   2.546  0.00  0.00     0.066 A 
BRANCH   8  33
ATOM     33  C   UNK d   0     -35.153   9.713   3.894  0.00  0.00     0.151 C 
BRANCH  33  34
ATOM     34  C   UNK d   0     -35.000  10.923   4.721  0.00  0.00     0.143 C 
ATOM     35  O   UNK d   0     -34.995  12.050   4.206  0.00  0.00    -0.650 OA
BRANCH  34  36
ATOM     36  O   UNK d   0     -34.859  10.796   6.084  0.00  0.00    -0.776 OA
ATOM     37  H   UNK d   0     -33.929  10.782   6.526  0.00  0.00     0.167 HD
ENDBRANCH  34  36
ENDBRANCH  33  34
ENDBRANCH   8  33
BRANCH  31  38
ATOM     38  C   UNK d   0     -28.203   9.201   0.792  0.00  0.00     0.151 C 
BRANCH  38  39
ATOM     39  C   UNK d   0     -28.100  10.360   1.653  0.00  0.00     0.143 C 
ATOM     40  O   UNK d   0     -27.005  10.810   2.035  0.00  0.00    -0.650 OA
BRANCH  39  41
ATOM     41  O   UNK d   0     -29.261  11.005   2.077  0.00  0.00    -0.776 OA
ATOM     42  H   UNK d   0     -29.160  11.971   2.402  0.00  0.00     0.167 HD
ENDBRANCH  39  41
ENDBRANCH  38  39
ENDBRANCH  31  38
BRANCH  27  43
ATOM     43  C   UNK d   0     -26.098   7.135   1.692  0.00  0.00     0.052 C 
BRANCH  43  44
ATOM     44  C   UNK d   0     -25.415   8.125   2.578  0.00  0.00     0.115 C 
BRANCH  44  45
ATOM     45  C   UNK d   0     -25.590   7.640   3.971  0.00  0.00     0.139 C 
ATOM     46  O   UNK d   0     -24.939   6.628   4.331  0.00  0.00    -0.650 OA
BRANCH  45  47
ATOM     47  O   UNK d   0     -26.426   8.254   4.877  0.00  0.00    -0.776 OA
ATOM     48  H   UNK d   0     -26.968   7.731   5.584  0.00  0.00     0.167 HD
ENDBRANCH  45  47
ENDBRANCH  44  45
ENDBRANCH  43  44
ENDBRANCH  27  43
BRANCH  24  49
ATOM     49  C   UNK d   0     -25.843   2.607   4.869  0.00  0.00     0.052 C 
BRANCH  49  50
ATOM     50  C   UNK d   0     -26.111   1.134   4.691  0.00  0.00     0.115 C 
BRANCH  50  51
ATOM     51  C   UNK d   0     -25.170   0.209   5.307  0.00  0.00     0.139 C 
ATOM     52  O   UNK d   0     -25.480  -0.530   6.271  0.00  0.00    -0.650 OA
BRANCH  51  53
ATOM     53  O   UNK d   0     -23.872   0.127   4.824  0.00  0.00    -0.776 OA
ATOM     54  H   UNK d   0     -23.635   0.660   4.006  0.00  0.00     0.167 HD
ENDBRANCH  51  53
ENDBRANCH  50  51
ENDBRANCH  49  50
ENDBRANCH  24  49
BRANCH  21  55
ATOM     55  C   UNK d   0     -27.418   2.281   7.507  0.00  0.00     0.151 C 
BRANCH  55  56
ATOM     56  C   UNK d   0     -28.427   1.224   7.673  0.00  0.00     0.143 C 
ATOM     57  O   UNK d   0     -29.371   1.312   8.483  0.00  0.00    -0.650 OA
BRANCH  56  58
ATOM     58  O   UNK d   0     -28.307   0.082   6.882  0.00  0.00    -0.776 OA
ATOM     59  H   UNK d   0     -27.819  -0.712   7.334  0.00  0.00     0.167 HD
ENDBRANCH  56  58
ENDBRANCH  55  56
ENDBRANCH  21  55
BRANCH  18  60
ATOM     60  C   UNK d   0     -32.630   3.408   8.118  0.00  0.00     0.151 C 
BRANCH  60  61
ATOM     61  C   UNK d   0     -32.312   3.695   9.525  0.00  0.00     0.143 C 
ATOM     62  O   UNK d   0     -31.293   3.372  10.137  0.00  0.00    -0.650 OA
BRANCH  61  63
ATOM     63  O   UNK d   0     -33.299   4.425  10.230  0.00  0.00    -0.776 OA
ATOM     64  H   UNK d   0     -33.123   4.778  11.154  0.00  0.00     0.167 HD
ENDBRANCH  61  63
ENDBRANCH  60  61
ENDBRANCH  18  60
BRANCH  14  65
ATOM     65  C   UNK d   0     -34.683   5.505   7.346  0.00  0.00     0.052 C 
BRANCH  65  66
ATOM     66  C   UNK d   0     -35.588   5.337   6.178  0.00  0.00     0.115 C 
BRANCH  66  67
ATOM     67  C   UNK d   0     -35.334   4.294   5.225  0.00  0.00     0.139 C 
ATOM     68  O   UNK d   0     -35.566   4.528   3.982  0.00  0.00    -0.650 OA
BRANCH  67  69
ATOM     69  O   UNK d   0     -34.852   3.009   5.474  0.00  0.00    -0.776 OA
ATOM     70  H   UNK d   0     -35.201   2.559   6.332  0.00  0.00     0.167 HD
ENDBRANCH  67  69
ENDBRANCH  66  67
ENDBRANCH  65  66
ENDBRANCH  14  65
ENDBRANCH   6   7
ENDBRANCH   5   6
ENDBRANCH   2   5
TORSDOF 28
ENDMDL
MODEL 3
REMARK VINA RESULT:      -7.7      1.062      7.096
REMARK  28 active torsions:
REMARK  status: ('A' for Active; 'I' for Inactive)
REMARK    1  A    between atoms: C_2  and  O_3 
REMARK    2  A    between atoms: C_2  and  C_4 
REMARK    3  A    between atoms: C_4  and  C_5 
REMARK    4  A    between atoms: C_5  and  C_6 
REMARK    5  A    between atoms: C_7  and  C_8 
REMARK    6  A    between atoms: C_8  and  C_9 
REMARK    7  A    between atoms: C_9  and  O_11 
REMARK    8  A    between atoms: C_28  and  C_29 
REMARK    9  A    between atoms: C_29  and  C_30 
REMARK   10  A    between atoms: C_30  and  O_32 
REMARK   11  A    between atoms: C_33  and  C_34 
REMARK   12  A    between atoms: C_34  and  C_35 
REMARK   13  A    between atoms: C_35  and  C_36 
REMARK   14  A    between atoms: C_36  and  O_38 
REMARK   15  A    between atoms: C_39  and  C_40 
REMARK   16  A    between atoms: C_40  and  C_41 
REMARK   17  A    between atoms: C_41  and  C_42 
REMARK   18  A    between atoms: C_42  and  O_44 
REMARK   19  A    between atoms: C_45  and  C_46 
REMARK   20  A    between atoms: C_46  and  C_47 
REMARK   21  A    between atoms: C_47  and  O_49 
REMARK   22  A    between atoms: C_50  and  C_51 
REMARK   23  A    between atoms: C_51  and  C_52 
REMARK   24  A    between atoms: C_52  and  O_54 
REMARK   25  A    between atoms: C_55  and  C_56 
REMARK   26  A    between atoms: C_56  and  C_57 
REMARK   27  A    between atoms: C_57  and  C_58 
REMARK   28  A    between atoms: C_58  and  O_60 
ROOT
ATOM      1  O   UNK d   0     -20.908  31.295  25.661  0.00  0.00    -0.650 OA
ATOM      2  C   UNK d   0     -20.492  31.299  24.482  0.00  0.00     0.139 C 
ENDROOT
BRANCH   2   3
ATOM      3  O   UNK d   0     -20.232  32.498  23.863  0.00  0.00    -0.776 OA
ATOM      4  H   UNK d   0     -19.441  32.602  23.224  0.00  0.00     0.167 HD
ENDBRANCH   2   3
BRANCH   2   5
ATOM      5  C   UNK d   0     -20.282  30.013  23.758  0.00  0.00     0.115 C 
BRANCH   5   6
ATOM      6  C   UNK d   0     -19.317  30.210  22.621  0.00  0.00     0.052 C 
BRANCH   6   7
ATOM      7  C   UNK d   0     -19.670  29.382  21.408  0.00  0.00    -0.020 A 
ATOM      8  C   UNK d   0     -19.089  28.285  20.994  0.00  0.00    -0.011 A 
ATOM      9  C   UNK d   0     -19.767  27.853  19.784  0.00  0.00     0.067 A 
ATOM     10  C   UNK d   0     -19.654  26.777  18.889  0.00  0.00     0.062 C 
ATOM     11  N   UNK d   0     -20.745  28.748  19.530  0.00  0.00    -0.248 NA
ATOM     12  C   UNK d   0     -20.585  26.376  17.925  0.00  0.00     0.041 A 
ATOM     13  N   UNK d   0     -21.328  27.090  17.059  0.00  0.00    -0.355 N 
ATOM     14  C   UNK d   0     -20.899  25.009  17.810  0.00  0.00    -0.022 A 
ATOM     15  C   UNK d   0     -22.111  26.213  16.402  0.00  0.00     0.042 A 
ATOM     16  H   UNK d   0     -21.287  28.190  16.900  0.00  0.00     0.166 HD
ATOM     17  C   UNK d   0     -23.072  26.423  15.393  0.00  0.00     0.062 C 
ATOM     18  C   UNK d   0     -21.870  24.898  16.846  0.00  0.00    -0.013 A 
ATOM     19  C   UNK d   0     -24.052  27.379  15.321  0.00  0.00     0.067 A 
ATOM     20  N   UNK d   0     -23.992  28.375  16.209  0.00  0.00    -0.248 NA
ATOM     21  C   UNK d   0     -25.225  27.613  14.495  0.00  0.00    -0.011 A 
ATOM     22  C   UNK d   0     -25.041  29.242  16.025  0.00  0.00     0.066 A 
ATOM     23  C   UNK d   0     -25.081  30.348  16.861  0.00  0.00     0.062 C 
ATOM     24  C   UNK d   0     -25.802  28.702  14.915  0.00  0.00    -0.020 A 
ATOM     25  C   UNK d   0     -24.129  30.741  17.814  0.00  0.00     0.041 A 
ATOM     26  N   UNK d   0     -23.401  30.032  18.686  0.00  0.00    -0.355 N 
ATOM     27  C   UNK d   0     -23.811  32.112  17.926  0.00  0.00    -0.022 A 
ATOM     28  C   UNK d   0     -22.625  30.906  19.348  0.00  0.00     0.042 A 
ATOM     29  H   UNK d   0     -23.452  28.928  18.851  0.00  0.00     0.166 HD
ATOM     30  C   UNK d   0     -21.673  30.711  20.360  0.00  0.00     0.062 C 
ATOM     31  C   UNK d   0     -22.860  32.225  18.893  0.00  0.00    -0.013 A 
ATOM     32  C   UNK d   0     -20.739  29.693  20.471  0.00  0.00     0.066 A 
BRANCH   8  33
ATOM     33  C   UNK d   0     -17.947  27.597  21.623  0.00  0.00     0.151 C 
BRANCH  33  34
ATOM     34  C   UNK d   0     -18.362  26.624  22.650  0.00  0.00     0.143 C 
ATOM     35  O   UNK d   0     -18.297  26.903  23.855  0.00  0.00    -0.650 OA
BRANCH  34  36
ATOM     36  O   UNK d   0     -18.826  25.389  22.261  0.00  0.00    -0.776 OA
ATOM     37  H   UNK d   0     -18.304  24.809  21.589  0.00  0.00     0.167 HD
ENDBRANCH  34  36
ENDBRANCH  33  34
ENDBRANCH   8  33
BRANCH  31  38
ATOM     38  C   UNK d   0     -22.203  33.506  19.352  0.00  0.00     0.151 C 
BRANCH  38  39
ATOM     39  C   UNK d   0     -20.954  33.771  18.671  0.00  0.00     0.143 C 
ATOM     40  O   UNK d   0     -20.863  34.595  17.744  0.00  0.00    -0.650 OA
BRANCH  39  41
ATOM     41  O   UNK d   0     -19.802  33.086  19.059  0.00  0.00    -0.776 OA
ATOM     42  H   UNK d   0     -19.020  33.655  19.399  0.00  0.00     0.167 HD
ENDBRANCH  39  41
ENDBRANCH  38  39
ENDBRANCH  31  38
BRANCH  27  43
ATOM     43  C   UNK d   0     -24.368  33.290  17.166  0.00  0.00     0.052 C 
BRANCH  43  44
ATOM     44  C   UNK d   0     -23.501  33.722  16.028  0.00  0.00     0.115 C 
BRANCH  44  45
ATOM     45  C   UNK d   0     -24.306  33.550  14.791  0.00  0.00     0.139 C 
ATOM     46  O   UNK d   0     -24.524  32.382  14.385  0.00  0.00    -0.650 OA
BRANCH  45  47
ATOM     47  O   UNK d   0     -24.822  34.612  14.082  0.00  0.00    -0.776 OA
ATOM     48  H   UNK d   0     -24.230  35.276  13.556  0.00  0.00     0.167 HD
ENDBRANCH  45  47
ENDBRANCH  44  45
ENDBRANCH  43  44
ENDBRANCH  27  43
BRANCH  24  49
ATOM     49  C   UNK d   0     -27.003  29.327  14.336  0.00  0.00     0.052 C 
BRANCH  49  50
ATOM     50  C   UNK d   0     -28.240  28.575  14.756  0.00  0.00     0.115 C 
BRANCH  50  51
ATOM     51  C   UNK d   0     -28.598  28.621  16.168  0.00  0.00     0.139 C 
ATOM     52  O   UNK d   0     -28.879  27.593  16.828  0.00  0.00    -0.650 OA
BRANCH  51  53
ATOM     53  O   UNK d   0     -28.639  29.840  16.826  0.00  0.00    -0.776 OA
ATOM     54  H   UNK d   0     -29.519  30.323  16.878  0.00  0.00     0.167 HD
ENDBRANCH  51  53
ENDBRANCH  50  51
ENDBRANCH  49  50
ENDBRANCH  24  49
BRANCH  21  55
ATOM     55  C   UNK d   0     -25.644  26.726  13.370  0.00  0.00     0.151 C 
BRANCH  55  56
ATOM     56  C   UNK d   0     -25.581  25.303  13.736  0.00  0.00     0.143 C 
ATOM     57  O   UNK d   0     -26.227  24.821  14.687  0.00  0.00    -0.650 OA
BRANCH  56  58
ATOM     58  O   UNK d   0     -24.757  24.473  12.977  0.00  0.00    -0.776 OA
ATOM     59  H   UNK d   0     -25.125  23.517  12.822  0.00  0.00     0.167 HD
ENDBRANCH  56  58
ENDBRANCH  55  56
ENDBRANCH  21  55
BRANCH  18  60
ATOM     60  C   UNK d   0     -22.507  23.603  16.406  0.00  0.00     0.151 C 
BRANCH  60  61
ATOM     61  C   UNK d   0     -21.942  23.306  15.081  0.00  0.00     0.143 C 
ATOM     62  O   UNK d   0     -22.564  23.105  14.037  0.00  0.00    -0.650 OA
BRANCH  61  63
ATOM     63  O   UNK d   0     -20.529  23.250  15.028  0.00  0.00    -0.776 OA
ATOM     64  H   UNK d   0     -20.046  23.179  14.150  0.00  0.00     0.167 HD
ENDBRANCH  61  63
ENDBRANCH  60  61
ENDBRANCH  18  60
BRANCH  14  65
ATOM     65  C   UNK d   0     -20.286  23.803  18.464  0.00  0.00     0.052 C 
BRANCH  65  66
ATOM     66  C   UNK d   0     -21.004  23.383  19.697  0.00  0.00     0.115 C 
BRANCH  66  67
ATOM     67  C   UNK d   0     -20.416  22.399  20.562  0.00  0.00     0.139 C 
ATOM     68  O   UNK d   0     -19.433  22.750  21.313  0.00  0.00    -0.650 OA
BRANCH  67  69
ATOM     69  O   UNK d   0     -20.781  21.061  20.704  0.00  0.00    -0.776 OA
ATOM     70  H   UNK d   0     -21.793  20.867  20.674  0.00  0.00     0.167 HD
ENDBRANCH  67  69
ENDBRANCH  66  67
ENDBRANCH  65  66
ENDBRANCH  14  65
ENDBRANCH   6   7
ENDBRANCH   5   6
ENDBRANCH   2   5
TORSDOF 28
ENDMDL
MODEL 4
REMARK VINA RESULT:      -7.7      2.406      8.068
REMARK  28 active torsions:
REMARK  status: ('A' for Active; 'I' for Inactive)
REMARK    1  A    between atoms: C_2  and  O_3 
REMARK    2  A    between atoms: C_2  and  C_4 
REMARK    3  A    between atoms: C_4  and  C_5 
REMARK    4  A    between atoms: C_5  and  C_6 
REMARK    5  A    between atoms: C_7  and  C_8 
REMARK    6  A    between atoms: C_8  and  C_9 
REMARK    7  A    between atoms: C_9  and  O_11 
REMARK    8  A    between atoms: C_28  and  C_29 
REMARK    9  A    between atoms: C_29  and  C_30 
REMARK   10  A    between atoms: C_30  and  O_32 
REMARK   11  A    between atoms: C_33  and  C_34 
REMARK   12  A    between atoms: C_34  and  C_35 
REMARK   13  A    between atoms: C_35  and  C_36 
REMARK   14  A    between atoms: C_36  and  O_38 
REMARK   15  A    between atoms: C_39  and  C_40 
REMARK   16  A    between atoms: C_40  and  C_41 
REMARK   17  A    between atoms: C_41  and  C_42 
REMARK   18  A    between atoms: C_42  and  O_44 
REMARK   19  A    between atoms: C_45  and  C_46 
REMARK   20  A    between atoms: C_46  and  C_47 
REMARK   21  A    between atoms: C_47  and  O_49 
REMARK   22  A    between atoms: C_50  and  C_51 
REMARK   23  A    between atoms: C_51  and  C_52 
REMARK   24  A    between atoms: C_52  and  O_54 
REMARK   25  A    between atoms: C_55  and  C_56 
REMARK   26  A    between atoms: C_56  and  C_57 
REMARK   27  A    between atoms: C_57  and  C_58 
REMARK   28  A    between atoms: C_58  and  O_60 
ROOT
ATOM      1  O   UNK d   0     -18.541  21.052  24.542  0.00  0.00    -0.650 OA
ATOM      2  C   UNK d   0     -18.253  21.097  23.325  0.00  0.00     0.139 C 
ENDROOT
BRANCH   2   3
ATOM      3  O   UNK d   0     -17.550  20.060  22.761  0.00  0.00    -0.776 OA
ATOM      4  H   UNK d   0     -17.116  20.156  21.840  0.00  0.00     0.167 HD
ENDBRANCH   2   3
BRANCH   2   5
ATOM      5  C   UNK d   0     -18.671  22.266  22.501  0.00  0.00     0.115 C 
BRANCH   5   6
ATOM      6  C   UNK d   0     -20.136  22.173  22.174  0.00  0.00     0.052 C 
BRANCH   6   7
ATOM      7  C   UNK d   0     -20.466  22.736  20.813  0.00  0.00    -0.020 A 
ATOM      8  C   UNK d   0     -20.345  22.143  19.653  0.00  0.00    -0.011 A 
ATOM      9  C   UNK d   0     -20.775  23.079  18.628  0.00  0.00     0.067 A 
ATOM     10  C   UNK d   0     -20.907  23.060  17.230  0.00  0.00     0.062 C 
ATOM     11  N   UNK d   0     -21.135  24.220  19.252  0.00  0.00    -0.248 NA
ATOM     12  C   UNK d   0     -21.607  23.973  16.433  0.00  0.00     0.041 A 
ATOM     13  N   UNK d   0     -21.677  25.317  16.477  0.00  0.00    -0.355 N 
ATOM     14  C   UNK d   0     -22.451  23.483  15.419  0.00  0.00    -0.022 A 
ATOM     15  C   UNK d   0     -22.549  25.692  15.522  0.00  0.00     0.042 A 
ATOM     16  H   UNK d   0     -21.106  25.988  17.156  0.00  0.00     0.166 HD
ATOM     17  C   UNK d   0     -22.988  26.975  15.140  0.00  0.00     0.062 C 
ATOM     18  C   UNK d   0     -23.056  24.570  14.838  0.00  0.00    -0.013 A 
ATOM     19  C   UNK d   0     -23.374  28.026  15.931  0.00  0.00     0.067 A 
ATOM     20  N   UNK d   0     -23.129  27.920  17.240  0.00  0.00    -0.248 NA
ATOM     21  C   UNK d   0     -24.035  29.304  15.723  0.00  0.00    -0.011 A 
ATOM     22  C   UNK d   0     -23.582  29.035  17.902  0.00  0.00     0.066 A 
ATOM     23  C   UNK d   0     -23.356  29.073  19.270  0.00  0.00     0.062 C 
ATOM     24  C   UNK d   0     -24.158  29.887  16.880  0.00  0.00    -0.020 A 
ATOM     25  C   UNK d   0     -22.640  28.153  20.050  0.00  0.00     0.041 A 
ATOM     26  N   UNK d   0     -22.582  26.816  20.017  0.00  0.00    -0.355 N 
ATOM     27  C   UNK d   0     -21.790  28.645  21.064  0.00  0.00    -0.022 A 
ATOM     28  C   UNK d   0     -21.719  26.439  20.973  0.00  0.00     0.042 A 
ATOM     29  H   UNK d   0     -23.164  26.142  19.341  0.00  0.00     0.166 HD
ATOM     30  C   UNK d   0     -21.281  25.166  21.371  0.00  0.00     0.062 C 
ATOM     31  C   UNK d   0     -21.203  27.567  21.653  0.00  0.00    -0.013 A 
ATOM     32  C   UNK d   0     -20.973  24.079  20.568  0.00  0.00     0.066 A 
BRANCH   8  33
ATOM     33  C   UNK d   0     -19.858  20.773  19.406  0.00  0.00     0.151 C 
BRANCH  33  34
ATOM     34  C   UNK d   0     -18.416  20.726  19.106  0.00  0.00     0.143 C 
ATOM     35  O   UNK d   0     -17.960  21.263  18.086  0.00  0.00    -0.650 OA
BRANCH  34  36
ATOM     36  O   UNK d   0     -17.567  20.076  19.971  0.00  0.00    -0.776 OA
ATOM     37  H   UNK d   0     -17.164  20.557  20.787  0.00  0.00     0.167 HD
ENDBRANCH  34  36
ENDBRANCH  33  34
ENDBRANCH   8  33
BRANCH  31  38
ATOM     38  C   UNK d   0     -20.202  27.604  22.784  0.00  0.00     0.151 C 
BRANCH  38  39
ATOM     39  C   UNK d   0     -18.830  27.578  22.321  0.00  0.00     0.143 C 
ATOM     40  O   UNK d   0     -18.334  28.503  21.655  0.00  0.00    -0.650 OA
BRANCH  39  41
ATOM     41  O   UNK d   0     -18.025  26.481  22.626  0.00  0.00    -0.776 OA
ATOM     42  H   UNK d   0     -18.327  25.889  23.406  0.00  0.00     0.167 HD
ENDBRANCH  39  41
ENDBRANCH  38  39
ENDBRANCH  31  38
BRANCH  27  43
ATOM     43  C   UNK d   0     -21.524  30.069  21.485  0.00  0.00     0.052 C 
BRANCH  43  44
ATOM     44  C   UNK d   0     -20.646  30.812  20.531  0.00  0.00     0.115 C 
BRANCH  44  45
ATOM     45  C   UNK d   0     -21.316  32.111  20.261  0.00  0.00     0.139 C 
ATOM     46  O   UNK d   0     -22.467  32.291  20.730  0.00  0.00    -0.650 OA
BRANCH  45  47
ATOM     47  O   UNK d   0     -20.727  33.118  19.528  0.00  0.00    -0.776 OA
ATOM     48  H   UNK d   0     -20.695  33.114  18.495  0.00  0.00     0.167 HD
ENDBRANCH  45  47
ENDBRANCH  44  45
ENDBRANCH  43  44
ENDBRANCH  27  43
BRANCH  24  49
ATOM     49  C   UNK d   0     -24.737  31.219  17.125  0.00  0.00     0.052 C 
BRANCH  49  50
ATOM     50  C   UNK d   0     -23.644  32.238  17.324  0.00  0.00     0.115 C 
BRANCH  50  51
ATOM     51  C   UNK d   0     -23.680  33.425  16.480  0.00  0.00     0.139 C 
ATOM     52  O   UNK d   0     -24.751  33.983  16.144  0.00  0.00    -0.650 OA
BRANCH  51  53
ATOM     53  O   UNK d   0     -22.494  33.974  16.017  0.00  0.00    -0.776 OA
ATOM     54  H   UNK d   0     -21.902  34.449  16.675  0.00  0.00     0.167 HD
ENDBRANCH  51  53
ENDBRANCH  50  51
ENDBRANCH  49  50
ENDBRANCH  24  49
BRANCH  21  55
ATOM     55  C   UNK d   0     -24.471  29.810  14.388  0.00  0.00     0.151 C 
BRANCH  55  56
ATOM     56  C   UNK d   0     -25.659  29.100  13.890  0.00  0.00     0.143 C 
ATOM     57  O   UNK d   0     -25.595  28.191  13.040  0.00  0.00    -0.650 OA
BRANCH  56  58
ATOM     58  O   UNK d   0     -26.901  29.474  14.403  0.00  0.00    -0.776 OA
ATOM     59  H   UNK d   0     -27.112  29.105  15.347  0.00  0.00     0.167 HD
ENDBRANCH  56  58
ENDBRANCH  55  56
ENDBRANCH  21  55
BRANCH  18  60
ATOM     60  C   UNK d   0     -24.051  24.503  13.707  0.00  0.00     0.151 C 
BRANCH  60  61
ATOM     61  C   UNK d   0     -25.380  24.517  14.336  0.00  0.00     0.143 C 
ATOM     62  O   UNK d   0     -25.859  23.658  15.077  0.00  0.00    -0.650 OA
BRANCH  61  63
ATOM     63  O   UNK d   0     -26.174  25.651  14.043  0.00  0.00    -0.776 OA
ATOM     64  H   UNK d   0     -27.085  25.766  14.451  0.00  0.00     0.167 HD
ENDBRANCH  61  63
ENDBRANCH  60  61
ENDBRANCH  18  60
BRANCH  14  65
ATOM     65  C   UNK d   0     -22.652  22.088  14.899  0.00  0.00     0.052 C 
BRANCH  65  66
ATOM     66  C   UNK d   0     -23.533  21.264  15.769  0.00  0.00     0.115 C 
BRANCH  66  67
ATOM     67  C   UNK d   0     -23.974  19.974  15.318  0.00  0.00     0.139 C 
ATOM     68  O   UNK d   0     -25.207  19.830  14.984  0.00  0.00    -0.650 OA
BRANCH  67  69
ATOM     69  O   UNK d   0     -23.216  18.811  15.187  0.00  0.00    -0.776 OA
ATOM     70  H   UNK d   0     -22.799  18.448  16.056  0.00  0.00     0.167 HD
ENDBRANCH  67  69
ENDBRANCH  66  67
ENDBRANCH  65  66
ENDBRANCH  14  65
ENDBRANCH   6   7
ENDBRANCH   5   6
ENDBRANCH   2   5
TORSDOF 28
ENDMDL
MODEL 5
REMARK VINA RESULT:      -7.5     21.054     25.573
REMARK  28 active torsions:
REMARK  status: ('A' for Active; 'I' for Inactive)
REMARK    1  A    between atoms: C_2  and  O_3 
REMARK    2  A    between atoms: C_2  and  C_4 
REMARK    3  A    between atoms: C_4  and  C_5 
REMARK    4  A    between atoms: C_5  and  C_6 
REMARK    5  A    between atoms: C_7  and  C_8 
REMARK    6  A    between atoms: C_8  and  C_9 
REMARK    7  A    between atoms: C_9  and  O_11 
REMARK    8  A    between atoms: C_28  and  C_29 
REMARK    9  A    between atoms: C_29  and  C_30 
REMARK   10  A    between atoms: C_30  and  O_32 
REMARK   11  A    between atoms: C_33  and  C_34 
REMARK   12  A    between atoms: C_34  and  C_35 
REMARK   13  A    between atoms: C_35  and  C_36 
REMARK   14  A    between atoms: C_36  and  O_38 
REMARK   15  A    between atoms: C_39  and  C_40 
REMARK   16  A    between atoms: C_40  and  C_41 
REMARK   17  A    between atoms: C_41  and  C_42 
REMARK   18  A    between atoms: C_42  and  O_44 
REMARK   19  A    between atoms: C_45  and  C_46 
REMARK   20  A    between atoms: C_46  and  C_47 
REMARK   21  A    between atoms: C_47  and  O_49 
REMARK   22  A    between atoms: C_50  and  C_51 
REMARK   23  A    between atoms: C_51  and  C_52 
REMARK   24  A    between atoms: C_52  and  O_54 
REMARK   25  A    between atoms: C_55  and  C_56 
REMARK   26  A    between atoms: C_56  and  C_57 
REMARK   27  A    between atoms: C_57  and  C_58 
REMARK   28  A    between atoms: C_58  and  O_60 
ROOT
ATOM      1  O   UNK d   0     -32.987   3.667   8.189  0.00  0.00    -0.650 OA
ATOM      2  C   UNK d   0     -33.333   4.765   7.699  0.00  0.00     0.139 C 
ENDROOT
BRANCH   2   3
ATOM      3  O   UNK d   0     -33.069   5.924   8.389  0.00  0.00    -0.776 OA
ATOM      4  H   UNK d   0     -33.606   6.176   9.221  0.00  0.00     0.167 HD
ENDBRANCH   2   3
BRANCH   2   5
ATOM      5  C   UNK d   0     -34.026   4.811   6.380  0.00  0.00     0.115 C 
BRANCH   5   6
ATOM      6  C   UNK d   0     -33.027   4.661   5.265  0.00  0.00     0.052 C 
BRANCH   6   7
ATOM      7  C   UNK d   0     -32.192   5.902   5.061  0.00  0.00    -0.020 A 
ATOM      8  C   UNK d   0     -30.900   6.031   5.223  0.00  0.00    -0.011 A 
ATOM      9  C   UNK d   0     -30.549   7.409   4.919  0.00  0.00     0.067 A 
ATOM     10  C   UNK d   0     -29.369   8.167   4.879  0.00  0.00     0.062 C 
ATOM     11  N   UNK d   0     -31.690   8.049   4.587  0.00  0.00    -0.248 NA
ATOM     12  C   UNK d   0     -29.189   9.423   4.289  0.00  0.00     0.041 A 
ATOM     13  N   UNK d   0     -29.963  10.525   4.297  0.00  0.00    -0.355 N 
ATOM     14  C   UNK d   0     -28.054   9.642   3.487  0.00  0.00    -0.022 A 
ATOM     15  C   UNK d   0     -29.352  11.435   3.514  0.00  0.00     0.042 A 
ATOM     16  H   UNK d   0     -30.911  10.664   4.861  0.00  0.00     0.166 HD
ATOM     17  C   UNK d   0     -29.728  12.751   3.180  0.00  0.00     0.062 C 
ATOM     18  C   UNK d   0     -28.153  10.917   2.988  0.00  0.00    -0.013 A 
ATOM     19  C   UNK d   0     -30.959  13.228   2.805  0.00  0.00     0.067 A 
ATOM     20  N   UNK d   0     -31.998  12.403   2.957  0.00  0.00    -0.248 NA
ATOM     21  C   UNK d   0     -31.472  14.463   2.238  0.00  0.00    -0.011 A 
ATOM     22  C   UNK d   0     -33.154  13.010   2.528  0.00  0.00     0.066 A 
ATOM     23  C   UNK d   0     -34.322  12.275   2.665  0.00  0.00     0.062 C 
ATOM     24  C   UNK d   0     -32.756  14.328   2.074  0.00  0.00    -0.020 A 
ATOM     25  C   UNK d   0     -34.484  11.020   3.271  0.00  0.00     0.041 A 
ATOM     26  N   UNK d   0     -33.722   9.919   3.251  0.00  0.00    -0.355 N 
ATOM     27  C   UNK d   0     -35.620  10.802   4.080  0.00  0.00    -0.022 A 
ATOM     28  C   UNK d   0     -34.333   9.008   4.024  0.00  0.00     0.042 A 
ATOM     29  H   UNK d   0     -32.775   9.778   2.676  0.00  0.00     0.166 HD
ATOM     30  C   UNK d   0     -33.975   7.692   4.358  0.00  0.00     0.062 C 
ATOM     31  C   UNK d   0     -35.533   9.532   4.561  0.00  0.00    -0.013 A 
ATOM     32  C   UNK d   0     -32.714   7.198   4.653  0.00  0.00     0.066 A 
BRANCH   8  33
ATOM     33  C   UNK d   0     -29.952   4.983   5.642  0.00  0.00     0.151 C 
BRANCH  33  34
ATOM     34  C   UNK d   0     -29.438   5.191   7.008  0.00  0.00     0.143 C 
ATOM     35  O   UNK d   0     -30.101   5.815   7.849  0.00  0.00    -0.650 OA
BRANCH  34  36
ATOM     36  O   UNK d   0     -28.205   4.686   7.350  0.00  0.00    -0.776 OA
ATOM     37  H   UNK d   0     -28.114   3.901   8.009  0.00  0.00     0.167 HD
ENDBRANCH  34  36
ENDBRANCH  33  34
ENDBRANCH   8  33
BRANCH  31  38
ATOM     38  C   UNK d   0     -36.520   8.859   5.486  0.00  0.00     0.151 C 
BRANCH  38  39
ATOM     39  C   UNK d   0     -37.167   9.787   6.388  0.00  0.00     0.143 C 
ATOM     40  O   UNK d   0     -38.378  10.060   6.307  0.00  0.00    -0.650 OA
BRANCH  39  41
ATOM     41  O   UNK d   0     -36.419  10.404   7.390  0.00  0.00    -0.776 OA
ATOM     42  H   UNK d   0     -36.601  10.105   8.353  0.00  0.00     0.167 HD
ENDBRANCH  39  41
ENDBRANCH  38  39
ENDBRANCH  31  38
BRANCH  27  43
ATOM     43  C   UNK d   0     -36.760  11.736   4.402  0.00  0.00     0.052 C 
BRANCH  43  44
ATOM     44  C   UNK d   0     -37.437  12.283   3.188  0.00  0.00     0.115 C 
BRANCH  44  45
ATOM     45  C   UNK d   0     -38.770  12.771   3.628  0.00  0.00     0.139 C 
ATOM     46  O   UNK d   0     -39.101  13.944   3.324  0.00  0.00    -0.650 OA
BRANCH  45  47
ATOM     47  O   UNK d   0     -39.651  11.992   4.347  0.00  0.00    -0.776 OA
ATOM     48  H   UNK d   0     -40.357  12.390   4.986  0.00  0.00     0.167 HD
ENDBRANCH  45  47
ENDBRANCH  44  45
ENDBRANCH  43  44
ENDBRANCH  27  43
BRANCH  24  49
ATOM     49  C   UNK d   0     -33.680  15.354   1.560  0.00  0.00     0.052 C 
BRANCH  49  50
ATOM     50  C   UNK d   0     -34.494  14.803   0.418  0.00  0.00     0.115 C 
BRANCH  50  51
ATOM     51  C   UNK d   0     -35.943  14.898   0.528  0.00  0.00     0.139 C 
ATOM     52  O   UNK d   0     -36.519  15.272   1.577  0.00  0.00    -0.650 OA
BRANCH  51  53
ATOM     53  O   UNK d   0     -36.737  14.566  -0.559  0.00  0.00    -0.776 OA
ATOM     54  H   UNK d   0     -36.286  14.380  -1.438  0.00  0.00     0.167 HD
ENDBRANCH  51  53
ENDBRANCH  50  51
ENDBRANCH  49  50
ENDBRANCH  24  49
BRANCH  21  55
ATOM     55  C   UNK d   0     -30.626  15.652   1.922  0.00  0.00     0.151 C 
BRANCH  55  56
ATOM     56  C   UNK d   0     -30.851  16.756   2.869  0.00  0.00     0.143 C 
ATOM     57  O   UNK d   0     -31.201  17.896   2.505  0.00  0.00    -0.650 OA
BRANCH  56  58
ATOM     58  O   UNK d   0     -30.658  16.497   4.225  0.00  0.00    -0.776 OA
ATOM     59  H   UNK d   0     -31.446  16.776   4.838  0.00  0.00     0.167 HD
ENDBRANCH  56  58
ENDBRANCH  55  56
ENDBRANCH  21  55
BRANCH  18  60
ATOM     60  C   UNK d   0     -27.149  11.566   2.068  0.00  0.00     0.151 C 
BRANCH  60  61
ATOM     61  C   UNK d   0     -26.462  12.586   2.874  0.00  0.00     0.143 C 
ATOM     62  O   UNK d   0     -25.932  12.430   3.975  0.00  0.00    -0.650 OA
BRANCH  61  63
ATOM     63  O   UNK d   0     -26.419  13.880   2.300  0.00  0.00    -0.776 OA
ATOM     64  H   UNK d   0     -26.022  14.030   1.390  0.00  0.00     0.167 HD
ENDBRANCH  61  63
ENDBRANCH  60  61
ENDBRANCH  18  60
BRANCH  14  65
ATOM     65  C   UNK d   0     -26.848   8.782   3.238  0.00  0.00     0.052 C 
BRANCH  65  66
ATOM     66  C   UNK d   0     -26.841   8.168   1.882  0.00  0.00     0.115 C 
BRANCH  66  67
ATOM     67  C   UNK d   0     -26.973   6.745   1.745  0.00  0.00     0.139 C 
ATOM     68  O   UNK d   0     -26.192   6.133   0.927  0.00  0.00    -0.650 OA
BRANCH  67  69
ATOM     69  O   UNK d   0     -27.867   5.903   2.404  0.00  0.00    -0.776 OA
ATOM     70  H   UNK d   0     -28.438   6.344   3.140  0.00  0.00     0.167 HD
ENDBRANCH  67  69
ENDBRANCH  66  67
ENDBRANCH  65  66
ENDBRANCH  14  65
ENDBRANCH   6   7
ENDBRANCH   5   6
ENDBRANCH   2   5
TORSDOF 28
ENDMDL
MODEL 6
REMARK VINA RESULT:      -7.3      1.993      7.780
REMARK  28 active torsions:
REMARK  status: ('A' for Active; 'I' for Inactive)
REMARK    1  A    between atoms: C_2  and  O_3 
REMARK    2  A    between atoms: C_2  and  C_4 
REMARK    3  A    between atoms: C_4  and  C_5 
REMARK    4  A    between atoms: C_5  and  C_6 
REMARK    5  A    between atoms: C_7  and  C_8 
REMARK    6  A    between atoms: C_8  and  C_9 
REMARK    7  A    between atoms: C_9  and  O_11 
REMARK    8  A    between atoms: C_28  and  C_29 
REMARK    9  A    between atoms: C_29  and  C_30 
REMARK   10  A    between atoms: C_30  and  O_32 
REMARK   11  A    between atoms: C_33  and  C_34 
REMARK   12  A    between atoms: C_34  and  C_35 
REMARK   13  A    between atoms: C_35  and  C_36 
REMARK   14  A    between atoms: C_36  and  O_38 
REMARK   15  A    between atoms: C_39  and  C_40 
REMARK   16  A    between atoms: C_40  and  C_41 
REMARK   17  A    between atoms: C_41  and  C_42 
REMARK   18  A    between atoms: C_42  and  O_44 
REMARK   19  A    between atoms: C_45  and  C_46 
REMARK   20  A    between atoms: C_46  and  C_47 
REMARK   21  A    between atoms: C_47  and  O_49 
REMARK   22  A    between atoms: C_50  and  C_51 
REMARK   23  A    between atoms: C_51  and  C_52 
REMARK   24  A    between atoms: C_52  and  O_54 
REMARK   25  A    between atoms: C_55  and  C_56 
REMARK   26  A    between atoms: C_56  and  C_57 
REMARK   27  A    between atoms: C_57  and  C_58 
REMARK   28  A    between atoms: C_58  and  O_60 
ROOT
ATOM      1  O   UNK d   0     -18.187  22.349  23.768  0.00  0.00    -0.650 OA
ATOM      2  C   UNK d   0     -17.873  23.554  23.891  0.00  0.00     0.139 C 
ENDROOT
BRANCH   2   3
ATOM      3  O   UNK d   0     -16.700  23.883  24.526  0.00  0.00    -0.776 OA
ATOM      4  H   UNK d   0     -16.256  24.791  24.377  0.00  0.00     0.167 HD
ENDBRANCH   2   3
BRANCH   2   5
ATOM      5  C   UNK d   0     -18.767  24.618  23.354  0.00  0.00     0.115 C 
BRANCH   5   6
ATOM      6  C   UNK d   0     -20.163  24.083  23.179  0.00  0.00     0.052 C 
BRANCH   6   7
ATOM      7  C   UNK d   0     -20.696  24.296  21.783  0.00  0.00    -0.020 A 
ATOM      8  C   UNK d   0     -20.804  23.411  20.825  0.00  0.00    -0.011 A 
ATOM      9  C   UNK d   0     -21.362  24.079  19.662  0.00  0.00     0.067 A 
ATOM     10  C   UNK d   0     -21.733  23.705  18.361  0.00  0.00     0.062 C 
ATOM     11  N   UNK d   0     -21.557  25.372  19.997  0.00  0.00    -0.248 NA
ATOM     12  C   UNK d   0     -22.519  24.435  17.461  0.00  0.00     0.041 A 
ATOM     13  N   UNK d   0     -22.520  25.744  17.145  0.00  0.00    -0.355 N 
ATOM     14  C   UNK d   0     -23.545  23.774  16.763  0.00  0.00    -0.022 A 
ATOM     15  C   UNK d   0     -23.526  25.932  16.270  0.00  0.00     0.042 A 
ATOM     16  H   UNK d   0     -21.811  26.516  17.518  0.00  0.00     0.166 HD
ATOM     17  C   UNK d   0     -23.966  27.103  15.623  0.00  0.00     0.062 C 
ATOM     18  C   UNK d   0     -24.192  24.720  16.007  0.00  0.00    -0.013 A 
ATOM     19  C   UNK d   0     -24.163  28.356  16.146  0.00  0.00     0.067 A 
ATOM     20  N   UNK d   0     -23.701  28.576  17.379  0.00  0.00    -0.248 NA
ATOM     21  C   UNK d   0     -24.792  29.588  15.699  0.00  0.00    -0.011 A 
ATOM     22  C   UNK d   0     -23.983  29.861  17.772  0.00  0.00     0.066 A 
ATOM     23  C   UNK d   0     -23.524  30.237  19.026  0.00  0.00     0.062 C 
ATOM     24  C   UNK d   0     -24.687  30.463  16.657  0.00  0.00    -0.020 A 
ATOM     25  C   UNK d   0     -22.725  29.494  19.908  0.00  0.00     0.041 A 
ATOM     26  N   UNK d   0     -22.734  28.196  20.234  0.00  0.00    -0.355 N 
ATOM     27  C   UNK d   0     -21.692  30.157  20.606  0.00  0.00    -0.022 A 
ATOM     28  C   UNK d   0     -21.737  28.007  21.113  0.00  0.00     0.042 A 
ATOM     29  H   UNK d   0     -23.453  27.423  19.867  0.00  0.00     0.166 HD
ATOM     30  C   UNK d   0     -21.294  26.850  21.772  0.00  0.00     0.062 C 
ATOM     31  C   UNK d   0     -21.061  29.224  21.370  0.00  0.00    -0.013 A 
ATOM     32  C   UNK d   0     -21.177  25.567  21.261  0.00  0.00     0.066 A 
BRANCH   8  33
ATOM     33  C   UNK d   0     -20.428  21.986  20.891  0.00  0.00     0.151 C 
BRANCH  33  34
ATOM     34  C   UNK d   0     -19.109  21.716  20.292  0.00  0.00     0.143 C 
ATOM     35  O   UNK d   0     -18.922  21.855  19.075  0.00  0.00    -0.650 OA
BRANCH  34  36
ATOM     36  O   UNK d   0     -18.074  21.301  21.097  0.00  0.00    -0.776 OA
ATOM     37  H   UNK d   0     -17.315  21.943  21.365  0.00  0.00     0.167 HD
ENDBRANCH  34  36
ENDBRANCH  33  34
ENDBRANCH   8  33
BRANCH  31  38
ATOM     38  C   UNK d   0     -19.879  29.467  22.279  0.00  0.00     0.151 C 
BRANCH  38  39
ATOM     39  C   UNK d   0     -18.650  28.900  21.766  0.00  0.00     0.143 C 
ATOM     40  O   UNK d   0     -18.136  27.877  22.251  0.00  0.00    -0.650 OA
BRANCH  39  41
ATOM     41  O   UNK d   0     -18.008  29.514  20.691  0.00  0.00    -0.776 OA
ATOM     42  H   UNK d   0     -18.393  29.331  19.759  0.00  0.00     0.167 HD
ENDBRANCH  39  41
ENDBRANCH  38  39
ENDBRANCH  31  38
BRANCH  27  43
ATOM     43  C   UNK d   0     -21.294  31.612  20.574  0.00  0.00     0.052 C 
BRANCH  43  44
ATOM     44  C   UNK d   0     -20.324  31.935  19.484  0.00  0.00     0.115 C 
BRANCH  44  45
ATOM     45  C   UNK d   0     -20.712  33.268  18.953  0.00  0.00     0.139 C 
ATOM     46  O   UNK d   0     -21.691  33.853  19.479  0.00  0.00    -0.650 OA
BRANCH  45  47
ATOM     47  O   UNK d   0     -20.042  33.884  17.918  0.00  0.00    -0.776 OA
ATOM     48  H   UNK d   0     -19.568  34.796  18.021  0.00  0.00     0.167 HD
ENDBRANCH  45  47
ENDBRANCH  44  45
ENDBRANCH  43  44
ENDBRANCH  27  43
BRANCH  24  49
ATOM     49  C   UNK d   0     -25.156  31.859  16.613  0.00  0.00     0.052 C 
BRANCH  49  50
ATOM     50  C   UNK d   0     -24.241  32.693  15.754  0.00  0.00     0.115 C 
BRANCH  50  51
ATOM     51  C   UNK d   0     -23.450  33.717  16.424  0.00  0.00     0.139 C 
ATOM     52  O   UNK d   0     -22.320  34.073  16.016  0.00  0.00    -0.650 OA
BRANCH  51  53
ATOM     53  O   UNK d   0     -23.948  34.333  17.561  0.00  0.00    -0.776 OA
ATOM     54  H   UNK d   0     -23.510  34.131  18.442  0.00  0.00     0.167 HD
ENDBRANCH  51  53
ENDBRANCH  50  51
ENDBRANCH  49  50
ENDBRANCH  24  49
BRANCH  21  55
ATOM     55  C   UNK d   0     -25.429  29.762  14.360  0.00  0.00     0.151 C 
BRANCH  55  56
ATOM     56  C   UNK d   0     -26.640  28.941  14.214  0.00  0.00     0.143 C 
ATOM     57  O   UNK d   0     -27.679  29.147  14.873  0.00  0.00    -0.650 OA
BRANCH  56  58
ATOM     58  O   UNK d   0     -26.607  27.893  13.296  0.00  0.00    -0.776 OA
ATOM     59  H   UNK d   0     -25.663  27.650  12.945  0.00  0.00     0.167 HD
ENDBRANCH  56  58
ENDBRANCH  55  56
ENDBRANCH  21  55
BRANCH  18  60
ATOM     60  C   UNK d   0     -25.370  24.447  15.104  0.00  0.00     0.151 C 
BRANCH  60  61
ATOM     61  C   UNK d   0     -24.839  24.465  13.732  0.00  0.00     0.143 C 
ATOM     62  O   UNK d   0     -23.795  23.948  13.333  0.00  0.00    -0.650 OA
BRANCH  61  63
ATOM     63  O   UNK d   0     -25.635  25.157  12.787  0.00  0.00    -0.776 OA
ATOM     64  H   UNK d   0     -26.622  24.984  12.715  0.00  0.00     0.167 HD
ENDBRANCH  61  63
ENDBRANCH  60  61
ENDBRANCH  18  60
BRANCH  14  65
ATOM     65  C   UNK d   0     -23.895  22.315  16.682  0.00  0.00     0.052 C 
BRANCH  65  66
ATOM     66  C   UNK d   0     -23.057  21.570  15.705  0.00  0.00     0.115 C 
BRANCH  66  67
ATOM     67  C   UNK d   0     -23.679  20.678  14.768  0.00  0.00     0.139 C 
ATOM     68  O   UNK d   0     -23.317  19.444  14.760  0.00  0.00    -0.650 OA
BRANCH  67  69
ATOM     69  O   UNK d   0     -24.663  20.980  13.826  0.00  0.00    -0.776 OA
ATOM     70  H   UNK d   0     -24.718  20.345  13.016  0.00  0.00     0.167 HD
ENDBRANCH  67  69
ENDBRANCH  66  67
ENDBRANCH  65  66
ENDBRANCH  14  65
ENDBRANCH   6   7
ENDBRANCH   5   6
ENDBRANCH   2   5
TORSDOF 28
ENDMDL
MODEL 7
REMARK VINA RESULT:      -7.2      2.102      7.749
REMARK  28 active torsions:
REMARK  status: ('A' for Active; 'I' for Inactive)
REMARK    1  A    between atoms: C_2  and  O_3 
REMARK    2  A    between atoms: C_2  and  C_4 
REMARK    3  A    between atoms: C_4  and  C_5 
REMARK    4  A    between atoms: C_5  and  C_6 
REMARK    5  A    between atoms: C_7  and  C_8 
REMARK    6  A    between atoms: C_8  and  C_9 
REMARK    7  A    between atoms: C_9  and  O_11 
REMARK    8  A    between atoms: C_28  and  C_29 
REMARK    9  A    between atoms: C_29  and  C_30 
REMARK   10  A    between atoms: C_30  and  O_32 
REMARK   11  A    between atoms: C_33  and  C_34 
REMARK   12  A    between atoms: C_34  and  C_35 
REMARK   13  A    between atoms: C_35  and  C_36 
REMARK   14  A    between atoms: C_36  and  O_38 
REMARK   15  A    between atoms: C_39  and  C_40 
REMARK   16  A    between atoms: C_40  and  C_41 
REMARK   17  A    between atoms: C_41  and  C_42 
REMARK   18  A    between atoms: C_42  and  O_44 
REMARK   19  A    between atoms: C_45  and  C_46 
REMARK   20  A    between atoms: C_46  and  C_47 
REMARK   21  A    between atoms: C_47  and  O_49 
REMARK   22  A    between atoms: C_50  and  C_51 
REMARK   23  A    between atoms: C_51  and  C_52 
REMARK   24  A    between atoms: C_52  and  O_54 
REMARK   25  A    between atoms: C_55  and  C_56 
REMARK   26  A    between atoms: C_56  and  C_57 
REMARK   27  A    between atoms: C_57  and  C_58 
REMARK   28  A    between atoms: C_58  and  O_60 
ROOT
ATOM      1  O   UNK d   0     -17.234  22.936  24.559  0.00  0.00    -0.650 OA
ATOM      2  C   UNK d   0     -17.617  24.107  24.781  0.00  0.00     0.139 C 
ENDROOT
BRANCH   2   3
ATOM      3  O   UNK d   0     -17.457  24.640  26.037  0.00  0.00    -0.776 OA
ATOM      4  H   UNK d   0     -16.526  24.796  26.430  0.00  0.00     0.167 HD
ENDBRANCH   2   3
BRANCH   2   5
ATOM      5  C   UNK d   0     -18.240  24.910  23.691  0.00  0.00     0.115 C 
BRANCH   5   6
ATOM      6  C   UNK d   0     -19.643  24.431  23.433  0.00  0.00     0.052 C 
BRANCH   6   7
ATOM      7  C   UNK d   0     -20.041  24.555  21.981  0.00  0.00    -0.020 A 
ATOM      8  C   UNK d   0     -19.876  23.672  21.030  0.00  0.00    -0.011 A 
ATOM      9  C   UNK d   0     -20.407  24.237  19.801  0.00  0.00     0.067 A 
ATOM     10  C   UNK d   0     -20.552  23.812  18.471  0.00  0.00     0.062 C 
ATOM     11  N   UNK d   0     -20.870  25.470  20.094  0.00  0.00    -0.248 NA
ATOM     12  C   UNK d   0     -21.347  24.395  17.478  0.00  0.00     0.041 A 
ATOM     13  N   UNK d   0     -21.548  25.684  17.146  0.00  0.00    -0.355 N 
ATOM     14  C   UNK d   0     -22.149  23.564  16.674  0.00  0.00    -0.022 A 
ATOM     15  C   UNK d   0     -22.463  25.694  16.158  0.00  0.00     0.042 A 
ATOM     16  H   UNK d   0     -21.038  26.569  17.587  0.00  0.00     0.166 HD
ATOM     17  C   UNK d   0     -23.030  26.771  15.449  0.00  0.00     0.062 C 
ATOM     18  C   UNK d   0     -22.864  24.383  15.836  0.00  0.00    -0.013 A 
ATOM     19  C   UNK d   0     -23.509  27.963  15.929  0.00  0.00     0.067 A 
ATOM     20  N   UNK d   0     -23.240  28.253  17.205  0.00  0.00    -0.248 NA
ATOM     21  C   UNK d   0     -24.295  29.064  15.397  0.00  0.00    -0.011 A 
ATOM     22  C   UNK d   0     -23.793  29.463  17.545  0.00  0.00     0.066 A 
ATOM     23  C   UNK d   0     -23.557  29.907  18.838  0.00  0.00     0.062 C 
ATOM     24  C   UNK d   0     -24.461  29.937  16.348  0.00  0.00    -0.020 A 
ATOM     25  C   UNK d   0     -22.745  29.313  19.817  0.00  0.00     0.041 A 
ATOM     26  N   UNK d   0     -22.557  28.033  20.156  0.00  0.00    -0.355 N 
ATOM     27  C   UNK d   0     -21.937  30.147  20.619  0.00  0.00    -0.022 A 
ATOM     28  C   UNK d   0     -21.651  28.021  21.147  0.00  0.00     0.042 A 
ATOM     29  H   UNK d   0     -23.077  27.146  19.719  0.00  0.00     0.166 HD
ATOM     30  C   UNK d   0     -21.085  26.958  21.868  0.00  0.00     0.062 C 
ATOM     31  C   UNK d   0     -21.240  29.338  21.463  0.00  0.00    -0.013 A 
ATOM     32  C   UNK d   0     -20.680  25.721  21.391  0.00  0.00     0.066 A 
BRANCH   8  33
ATOM     33  C   UNK d   0     -19.259  22.338  21.158  0.00  0.00     0.151 C 
BRANCH  33  34
ATOM     34  C   UNK d   0     -20.026  21.437  22.036  0.00  0.00     0.143 C 
ATOM     35  O   UNK d   0     -19.468  20.807  22.946  0.00  0.00    -0.650 OA
BRANCH  34  36
ATOM     36  O   UNK d   0     -21.380  21.293  21.840  0.00  0.00    -0.776 OA
ATOM     37  H   UNK d   0     -21.778  21.219  20.894  0.00  0.00     0.167 HD
ENDBRANCH  34  36
ENDBRANCH  33  34
ENDBRANCH   8  33
BRANCH  31  38
ATOM     38  C   UNK d   0     -20.235  29.784  22.499  0.00  0.00     0.151 C 
BRANCH  38  39
ATOM     39  C   UNK d   0     -18.929  30.051  21.936  0.00  0.00     0.143 C 
ATOM     40  O   UNK d   0     -18.308  29.207  21.265  0.00  0.00    -0.650 OA
BRANCH  39  41
ATOM     41  O   UNK d   0     -18.332  31.294  22.145  0.00  0.00    -0.776 OA
ATOM     42  H   UNK d   0     -17.315  31.303  22.268  0.00  0.00     0.167 HD
ENDBRANCH  39  41
ENDBRANCH  38  39
ENDBRANCH  31  38
BRANCH  27  43
ATOM     43  C   UNK d   0     -21.807  31.650  20.614  0.00  0.00     0.052 C 
BRANCH  43  44
ATOM     44  C   UNK d   0     -20.896  32.161  19.545  0.00  0.00     0.115 C 
BRANCH  44  45
ATOM     45  C   UNK d   0     -21.460  33.458  19.091  0.00  0.00     0.139 C 
ATOM     46  O   UNK d   0     -22.622  33.760  19.460  0.00  0.00    -0.650 OA
BRANCH  45  47
ATOM     47  O   UNK d   0     -20.763  34.338  18.291  0.00  0.00    -0.776 OA
ATOM     48  H   UNK d   0     -20.532  35.300  18.586  0.00  0.00     0.167 HD
ENDBRANCH  45  47
ENDBRANCH  44  45
ENDBRANCH  43  44
ENDBRANCH  27  43
BRANCH  24  49
ATOM     49  C   UNK d   0     -25.166  31.225  16.232  0.00  0.00     0.052 C 
BRANCH  49  50
ATOM     50  C   UNK d   0     -24.315  32.223  15.490  0.00  0.00     0.115 C 
BRANCH  50  51
ATOM     51  C   UNK d   0     -23.881  33.404  16.226  0.00  0.00     0.139 C 
ATOM     52  O   UNK d   0     -22.809  34.002  15.973  0.00  0.00    -0.650 OA
BRANCH  51  53
ATOM     53  O   UNK d   0     -24.670  33.901  17.252  0.00  0.00    -0.776 OA
ATOM     54  H   UNK d   0     -24.367  33.754  18.198  0.00  0.00     0.167 HD
ENDBRANCH  51  53
ENDBRANCH  50  51
ENDBRANCH  49  50
ENDBRANCH  24  49
BRANCH  21  55
ATOM     55  C   UNK d   0     -24.793  29.131  13.991  0.00  0.00     0.151 C 
BRANCH  55  56
ATOM     56  C   UNK d   0     -26.032  28.359  13.808  0.00  0.00     0.143 C 
ATOM     57  O   UNK d   0     -26.039  27.184  13.393  0.00  0.00    -0.650 OA
BRANCH  56  58
ATOM     58  O   UNK d   0     -27.238  28.985  14.117  0.00  0.00    -0.776 OA
ATOM     59  H   UNK d   0     -27.735  28.593  14.937  0.00  0.00     0.167 HD
ENDBRANCH  56  58
ENDBRANCH  55  56
ENDBRANCH  21  55
BRANCH  18  60
ATOM     60  C   UNK d   0     -23.861  23.908  14.807  0.00  0.00     0.151 C 
BRANCH  60  61
ATOM     61  C   UNK d   0     -23.071  23.531  13.625  0.00  0.00     0.143 C 
ATOM     62  O   UNK d   0     -22.049  24.078  13.209  0.00  0.00    -0.650 OA
BRANCH  61  63
ATOM     63  O   UNK d   0     -23.561  22.415  12.905  0.00  0.00    -0.776 OA
ATOM     64  H   UNK d   0     -22.945  21.679  12.607  0.00  0.00     0.167 HD
ENDBRANCH  61  63
ENDBRANCH  60  61
ENDBRANCH  18  60
BRANCH  14  65
ATOM     65  C   UNK d   0     -22.218  22.067  16.573  0.00  0.00     0.052 C 
BRANCH  65  66
ATOM     66  C   UNK d   0     -23.265  21.472  17.446  0.00  0.00     0.115 C 
BRANCH  66  67
ATOM     67  C   UNK d   0     -23.006  21.291  18.847  0.00  0.00     0.139 C 
ATOM     68  O   UNK d   0     -22.339  20.257  19.218  0.00  0.00    -0.650 OA
BRANCH  67  69
ATOM     69  O   UNK d   0     -23.396  22.117  19.900  0.00  0.00    -0.776 OA
ATOM     70  H   UNK d   0     -24.340  22.522  19.826  0.00  0.00     0.167 HD
ENDBRANCH  67  69
ENDBRANCH  66  67
ENDBRANCH  65  66
ENDBRANCH  14  65
ENDBRANCH   6   7
ENDBRANCH   5   6
ENDBRANCH   2   5
TORSDOF 28
ENDMDL
MODEL 8
REMARK VINA RESULT:      -7.0      1.688      4.345
REMARK  28 active torsions:
REMARK  status: ('A' for Active; 'I' for Inactive)
REMARK    1  A    between atoms: C_2  and  O_3 
REMARK    2  A    between atoms: C_2  and  C_4 
REMARK    3  A    between atoms: C_4  and  C_5 
REMARK    4  A    between atoms: C_5  and  C_6 
REMARK    5  A    between atoms: C_7  and  C_8 
REMARK    6  A    between atoms: C_8  and  C_9 
REMARK    7  A    between atoms: C_9  and  O_11 
REMARK    8  A    between atoms: C_28  and  C_29 
REMARK    9  A    between atoms: C_29  and  C_30 
REMARK   10  A    between atoms: C_30  and  O_32 
REMARK   11  A    between atoms: C_33  and  C_34 
REMARK   12  A    between atoms: C_34  and  C_35 
REMARK   13  A    between atoms: C_35  and  C_36 
REMARK   14  A    between atoms: C_36  and  O_38 
REMARK   15  A    between atoms: C_39  and  C_40 
REMARK   16  A    between atoms: C_40  and  C_41 
REMARK   17  A    between atoms: C_41  and  C_42 
REMARK   18  A    between atoms: C_42  and  O_44 
REMARK   19  A    between atoms: C_45  and  C_46 
REMARK   20  A    between atoms: C_46  and  C_47 
REMARK   21  A    between atoms: C_47  and  O_49 
REMARK   22  A    between atoms: C_50  and  C_51 
REMARK   23  A    between atoms: C_51  and  C_52 
REMARK   24  A    between atoms: C_52  and  O_54 
REMARK   25  A    between atoms: C_55  and  C_56 
REMARK   26  A    between atoms: C_56  and  C_57 
REMARK   27  A    between atoms: C_57  and  C_58 
REMARK   28  A    between atoms: C_58  and  O_60 
ROOT
ATOM      1  O   UNK d   0     -21.158  30.267  24.012  0.00  0.00    -0.650 OA
ATOM      2  C   UNK d   0     -20.257  30.924  23.444  0.00  0.00     0.139 C 
ENDROOT
BRANCH   2   3
ATOM      3  O   UNK d   0     -20.182  32.281  23.650  0.00  0.00    -0.776 OA
ATOM      4  H   UNK d   0     -20.242  32.676  24.591  0.00  0.00     0.167 HD
ENDBRANCH   2   3
BRANCH   2   5
ATOM      5  C   UNK d   0     -19.279  30.239  22.554  0.00  0.00     0.115 C 
BRANCH   5   6
ATOM      6  C   UNK d   0     -19.364  30.801  21.161  0.00  0.00     0.052 C 
BRANCH   6   7
ATOM      7  C   UNK d   0     -20.619  30.374  20.438  0.00  0.00    -0.020 A 
ATOM      8  C   UNK d   0     -21.642  31.119  20.106  0.00  0.00    -0.011 A 
ATOM      9  C   UNK d   0     -22.612  30.270  19.435  0.00  0.00     0.067 A 
ATOM     10  C   UNK d   0     -23.869  30.447  18.835  0.00  0.00     0.062 C 
ATOM     11  N   UNK d   0     -22.100  29.021  19.407  0.00  0.00    -0.248 NA
ATOM     12  C   UNK d   0     -24.535  29.556  17.986  0.00  0.00     0.041 A 
ATOM     13  N   UNK d   0     -24.691  28.220  18.049  0.00  0.00    -0.355 N 
ATOM     14  C   UNK d   0     -25.127  30.051  16.810  0.00  0.00    -0.022 A 
ATOM     15  C   UNK d   0     -25.361  27.854  16.940  0.00  0.00     0.042 A 
ATOM     16  H   UNK d   0     -24.353  27.552  18.871  0.00  0.00     0.166 HD
ATOM     17  C   UNK d   0     -25.785  26.582  16.507  0.00  0.00     0.062 C 
ATOM     18  C   UNK d   0     -25.651  28.975  16.138  0.00  0.00    -0.013 A 
ATOM     19  C   UNK d   0     -25.094  25.397  16.503  0.00  0.00     0.067 A 
ATOM     20  N   UNK d   0     -23.936  25.370  17.168  0.00  0.00    -0.248 NA
ATOM     21  C   UNK d   0     -25.284  24.079  15.921  0.00  0.00    -0.011 A 
ATOM     22  C   UNK d   0     -23.355  24.131  17.063  0.00  0.00     0.066 A 
ATOM     23  C   UNK d   0     -22.159  23.951  17.742  0.00  0.00     0.062 C 
ATOM     24  C   UNK d   0     -24.261  23.344  16.249  0.00  0.00    -0.020 A 
ATOM     25  C   UNK d   0     -21.513  24.854  18.600  0.00  0.00     0.041 A 
ATOM     26  N   UNK d   0     -21.344  26.180  18.530  0.00  0.00    -0.355 N 
ATOM     27  C   UNK d   0     -20.922  24.357  19.782  0.00  0.00    -0.022 A 
ATOM     28  C   UNK d   0     -20.669  26.546  19.631  0.00  0.00     0.042 A 
ATOM     29  H   UNK d   0     -21.676  26.849  17.698  0.00  0.00     0.166 HD
ATOM     30  C   UNK d   0     -20.232  27.806  20.069  0.00  0.00     0.062 C 
ATOM     31  C   UNK d   0     -20.387  25.421  20.441  0.00  0.00    -0.013 A 
ATOM     32  C   UNK d   0     -20.902  29.017  19.993  0.00  0.00     0.066 A 
BRANCH   8  33
ATOM     33  C   UNK d   0     -21.806  32.562  20.363  0.00  0.00     0.151 C 
BRANCH  33  34
ATOM     34  C   UNK d   0     -21.272  33.399  19.274  0.00  0.00     0.143 C 
ATOM     35  O   UNK d   0     -22.000  34.203  18.674  0.00  0.00    -0.650 OA
BRANCH  34  36
ATOM     36  O   UNK d   0     -19.948  33.283  18.919  0.00  0.00    -0.776 OA
ATOM     37  H   UNK d   0     -19.212  33.175  19.631  0.00  0.00     0.167 HD
ENDBRANCH  34  36
ENDBRANCH  33  34
ENDBRANCH   8  33
BRANCH  31  38
ATOM     38  C   UNK d   0     -19.662  25.376  21.766  0.00  0.00     0.151 C 
BRANCH  38  39
ATOM     39  C   UNK d   0     -20.554  25.505  22.898  0.00  0.00     0.143 C 
ATOM     40  O   UNK d   0     -20.817  26.604  23.417  0.00  0.00    -0.650 OA
BRANCH  39  41
ATOM     41  O   UNK d   0     -21.149  24.364  23.437  0.00  0.00    -0.776 OA
ATOM     42  H   UNK d   0     -20.765  24.018  24.322  0.00  0.00     0.167 HD
ENDBRANCH  39  41
ENDBRANCH  38  39
ENDBRANCH  31  38
BRANCH  27  43
ATOM     43  C   UNK d   0     -20.849  22.940  20.294  0.00  0.00     0.052 C 
BRANCH  43  44
ATOM     44  C   UNK d   0     -19.580  22.243  19.925  0.00  0.00     0.115 C 
BRANCH  44  45
ATOM     45  C   UNK d   0     -19.045  21.644  21.175  0.00  0.00     0.139 C 
ATOM     46  O   UNK d   0     -19.514  22.042  22.270  0.00  0.00    -0.650 OA
BRANCH  45  47
ATOM     47  O   UNK d   0     -18.066  20.674  21.180  0.00  0.00    -0.776 OA
ATOM     48  H   UNK d   0     -18.271  19.671  21.038  0.00  0.00     0.167 HD
ENDBRANCH  45  47
ENDBRANCH  44  45
ENDBRANCH  43  44
ENDBRANCH  27  43
BRANCH  24  49
ATOM     49  C   UNK d   0     -24.063  21.926  15.902  0.00  0.00     0.052 C 
BRANCH  49  50
ATOM     50  C   UNK d   0     -22.768  21.745  15.152  0.00  0.00     0.115 C 
BRANCH  50  51
ATOM     51  C   UNK d   0     -22.551  22.591  13.986  0.00  0.00     0.139 C 
ATOM     52  O   UNK d   0     -23.156  22.417  12.902  0.00  0.00    -0.650 OA
BRANCH  51  53
ATOM     53  O   UNK d   0     -21.641  23.634  14.055  0.00  0.00    -0.776 OA
ATOM     54  H   UNK d   0     -21.962  24.561  13.835  0.00  0.00     0.167 HD
ENDBRANCH  51  53
ENDBRANCH  50  51
ENDBRANCH  49  50
ENDBRANCH  24  49
BRANCH  21  55
ATOM     55  C   UNK d   0     -26.470  23.691  15.102  0.00  0.00     0.151 C 
BRANCH  55  56
ATOM     56  C   UNK d   0     -26.137  23.560  13.676  0.00  0.00     0.143 C 
ATOM     57  O   UNK d   0     -26.485  22.580  12.988  0.00  0.00    -0.650 OA
BRANCH  56  58
ATOM     58  O   UNK d   0     -25.400  24.585  13.085  0.00  0.00    -0.776 OA
ATOM     59  H   UNK d   0     -24.376  24.530  13.236  0.00  0.00     0.167 HD
ENDBRANCH  56  58
ENDBRANCH  55  56
ENDBRANCH  21  55
BRANCH  18  60
ATOM     60  C   UNK d   0     -26.374  29.050  14.816  0.00  0.00     0.151 C 
BRANCH  60  61
ATOM     61  C   UNK d   0     -25.481  28.419  13.832  0.00  0.00     0.143 C 
ATOM     62  O   UNK d   0     -25.751  27.486  13.075  0.00  0.00    -0.650 OA
BRANCH  61  63
ATOM     63  O   UNK d   0     -24.175  28.963  13.767  0.00  0.00    -0.776 OA
ATOM     64  H   UNK d   0     -23.967  29.860  14.170  0.00  0.00     0.167 HD
ENDBRANCH  61  63
ENDBRANCH  60  61
ENDBRANCH  18  60
BRANCH  14  65
ATOM     65  C   UNK d   0     -25.320  31.461  16.327  0.00  0.00     0.052 C 
BRANCH  65  66
ATOM     66  C   UNK d   0     -24.259  31.902  15.382  0.00  0.00     0.115 C 
BRANCH  66  67
ATOM     67  C   UNK d   0     -23.878  33.285  15.335  0.00  0.00     0.139 C 
ATOM     68  O   UNK d   0     -24.633  34.109  14.699  0.00  0.00    -0.650 OA
BRANCH  67  69
ATOM     69  O   UNK d   0     -22.754  33.880  15.909  0.00  0.00    -0.776 OA
ATOM     70  H   UNK d   0     -21.844  33.554  15.554  0.00  0.00     0.167 HD
ENDBRANCH  67  69
ENDBRANCH  66  67
ENDBRANCH  65  66
ENDBRANCH  14  65
ENDBRANCH   6   7
ENDBRANCH   5   6
ENDBRANCH   2   5
TORSDOF 28
ENDMDL
MODEL 9
REMARK VINA RESULT:      -7.0      1.413      8.254
REMARK  28 active torsions:
REMARK  status: ('A' for Active; 'I' for Inactive)
REMARK    1  A    between atoms: C_2  and  O_3 
REMARK    2  A    between atoms: C_2  and  C_4 
REMARK    3  A    between atoms: C_4  and  C_5 
REMARK    4  A    between atoms: C_5  and  C_6 
REMARK    5  A    between atoms: C_7  and  C_8 
REMARK    6  A    between atoms: C_8  and  C_9 
REMARK    7  A    between atoms: C_9  and  O_11 
REMARK    8  A    between atoms: C_28  and  C_29 
REMARK    9  A    between atoms: C_29  and  C_30 
REMARK   10  A    between atoms: C_30  and  O_32 
REMARK   11  A    between atoms: C_33  and  C_34 
REMARK   12  A    between atoms: C_34  and  C_35 
REMARK   13  A    between atoms: C_35  and  C_36 
REMARK   14  A    between atoms: C_36  and  O_38 
REMARK   15  A    between atoms: C_39  and  C_40 
REMARK   16  A    between atoms: C_40  and  C_41 
REMARK   17  A    between atoms: C_41  and  C_42 
REMARK   18  A    between atoms: C_42  and  O_44 
REMARK   19  A    between atoms: C_45  and  C_46 
REMARK   20  A    between atoms: C_46  and  C_47 
REMARK   21  A    between atoms: C_47  and  O_49 
REMARK   22  A    between atoms: C_50  and  C_51 
REMARK   23  A    between atoms: C_51  and  C_52 
REMARK   24  A    between atoms: C_52  and  O_54 
REMARK   25  A    between atoms: C_55  and  C_56 
REMARK   26  A    between atoms: C_56  and  C_57 
REMARK   27  A    between atoms: C_57  and  C_58 
REMARK   28  A    between atoms: C_58  and  O_60 
ROOT
ATOM      1  O   UNK d   0     -23.714  21.139  18.627  0.00  0.00    -0.650 OA
ATOM      2  C   UNK d   0     -22.515  20.845  18.830  0.00  0.00     0.139 C 
ENDROOT
BRANCH   2   3
ATOM      3  O   UNK d   0     -22.083  19.565  18.579  0.00  0.00    -0.776 OA
ATOM      4  H   UNK d   0     -21.177  19.391  18.140  0.00  0.00     0.167 HD
ENDBRANCH   2   3
BRANCH   2   5
ATOM      5  C   UNK d   0     -21.568  21.878  19.339  0.00  0.00     0.115 C 
BRANCH   5   6
ATOM      6  C   UNK d   0     -20.679  22.359  18.225  0.00  0.00     0.052 C 
BRANCH   6   7
ATOM      7  C   UNK d   0     -21.284  23.508  17.454  0.00  0.00    -0.020 A 
ATOM      8  C   UNK d   0     -21.809  23.477  16.256  0.00  0.00    -0.011 A 
ATOM      9  C   UNK d   0     -22.251  24.822  15.929  0.00  0.00     0.067 A 
ATOM     10  C   UNK d   0     -22.893  25.441  14.845  0.00  0.00     0.062 C 
ATOM     11  N   UNK d   0     -21.950  25.610  16.983  0.00  0.00    -0.248 NA
ATOM     12  C   UNK d   0     -23.492  26.705  14.825  0.00  0.00     0.041 A 
ATOM     13  N   UNK d   0     -23.088  27.886  15.332  0.00  0.00    -0.355 N 
ATOM     14  C   UNK d   0     -24.763  26.847  14.240  0.00  0.00    -0.022 A 
ATOM     15  C   UNK d   0     -24.074  28.770  15.090  0.00  0.00     0.042 A 
ATOM     16  H   UNK d   0     -22.117  28.094  15.833  0.00  0.00     0.166 HD
ATOM     17  C   UNK d   0     -24.170  30.141  15.405  0.00  0.00     0.062 C 
ATOM     18  C   UNK d   0     -25.142  28.155  14.408  0.00  0.00    -0.013 A 
ATOM     19  C   UNK d   0     -23.859  30.779  16.579  0.00  0.00     0.067 A 
ATOM     20  N   UNK d   0     -23.195  30.071  17.495  0.00  0.00    -0.248 NA
ATOM     21  C   UNK d   0     -24.084  32.101  17.140  0.00  0.00    -0.011 A 
ATOM     22  C   UNK d   0     -22.969  30.834  18.615  0.00  0.00     0.066 A 
ATOM     23  C   UNK d   0     -22.252  30.230  19.638  0.00  0.00     0.062 C 
ATOM     24  C   UNK d   0     -23.564  32.125  18.333  0.00  0.00    -0.020 A 
ATOM     25  C   UNK d   0     -21.647  28.964  19.633  0.00  0.00     0.041 A 
ATOM     26  N   UNK d   0     -22.054  27.787  19.142  0.00  0.00    -0.355 N 
ATOM     27  C   UNK d   0     -20.369  28.824  20.217  0.00  0.00    -0.022 A 
ATOM     28  C   UNK d   0     -21.077  26.901  19.390  0.00  0.00     0.042 A 
ATOM     29  H   UNK d   0     -23.035  27.577  18.648  0.00  0.00     0.166 HD
ATOM     30  C   UNK d   0     -20.973  25.534  19.090  0.00  0.00     0.062 C 
ATOM     31  C   UNK d   0     -20.000  27.522  20.066  0.00  0.00    -0.013 A 
ATOM     32  C   UNK d   0     -21.367  24.880  17.934  0.00  0.00     0.066 A 
BRANCH   8  33
ATOM     33  C   UNK d   0     -21.935  22.300  15.376  0.00  0.00     0.151 C 
BRANCH  33  34
ATOM     34  C   UNK d   0     -23.334  22.001  15.021  0.00  0.00     0.143 C 
ATOM     35  O   UNK d   0     -23.643  21.676  13.866  0.00  0.00    -0.650 OA
BRANCH  34  36
ATOM     36  O   UNK d   0     -24.309  22.086  15.988  0.00  0.00    -0.776 OA
ATOM     37  H   UNK d   0     -24.342  21.421  16.774  0.00  0.00     0.167 HD
ENDBRANCH  34  36
ENDBRANCH  33  34
ENDBRANCH   8  33
BRANCH  31  38
ATOM     38  C   UNK d   0     -18.699  26.906  20.525  0.00  0.00     0.151 C 
BRANCH  38  39
ATOM     39  C   UNK d   0     -18.753  26.434  21.892  0.00  0.00     0.143 C 
ATOM     40  O   UNK d   0     -17.968  26.839  22.767  0.00  0.00    -0.650 OA
BRANCH  39  41
ATOM     41  O   UNK d   0     -19.715  25.491  22.256  0.00  0.00    -0.776 OA
ATOM     42  H   UNK d   0     -20.482  25.821  22.850  0.00  0.00     0.167 HD
ENDBRANCH  39  41
ENDBRANCH  38  39
ENDBRANCH  31  38
BRANCH  27  43
ATOM     43  C   UNK d   0     -19.508  29.858  20.897  0.00  0.00     0.052 C 
BRANCH  43  44
ATOM     44  C   UNK d   0     -19.620  29.833  22.387  0.00  0.00     0.115 C 
BRANCH  44  45
ATOM     45  C   UNK d   0     -19.699  31.249  22.831  0.00  0.00     0.139 C 
ATOM     46  O   UNK d   0     -18.752  31.708  23.516  0.00  0.00    -0.650 OA
BRANCH  45  47
ATOM     47  O   UNK d   0     -20.759  32.072  22.518  0.00  0.00    -0.776 OA
ATOM     48  H   UNK d   0     -20.638  33.060  22.240  0.00  0.00     0.167 HD
ENDBRANCH  45  47
ENDBRANCH  44  45
ENDBRANCH  43  44
ENDBRANCH  27  43
BRANCH  24  49
ATOM     49  C   UNK d   0     -23.532  33.283  19.243  0.00  0.00     0.052 C 
BRANCH  49  50
ATOM     50  C   UNK d   0     -22.143  33.477  19.796  0.00  0.00     0.115 C 
BRANCH  50  51
ATOM     51  C   UNK d   0     -21.091  33.814  18.846  0.00  0.00     0.139 C 
ATOM     52  O   UNK d   0     -21.241  34.677  17.949  0.00  0.00    -0.650 OA
BRANCH  51  53
ATOM     53  O   UNK d   0     -19.867  33.166  18.919  0.00  0.00    -0.776 OA
ATOM     54  H   UNK d   0     -19.393  33.143  19.804  0.00  0.00     0.167 HD
ENDBRANCH  51  53
ENDBRANCH  50  51
ENDBRANCH  49  50
ENDBRANCH  24  49
BRANCH  21  55
ATOM     55  C   UNK d   0     -24.790  33.204  16.423  0.00  0.00     0.151 C 
BRANCH  55  56
ATOM     56  C   UNK d   0     -23.980  33.755  15.325  0.00  0.00     0.143 C 
ATOM     57  O   UNK d   0     -22.764  34.001  15.442  0.00  0.00    -0.650 OA
BRANCH  56  58
ATOM     58  O   UNK d   0     -24.618  34.007  14.111  0.00  0.00    -0.776 OA
ATOM     59  H   UNK d   0     -25.456  34.613  14.176  0.00  0.00     0.167 HD
ENDBRANCH  56  58
ENDBRANCH  55  56
ENDBRANCH  21  55
BRANCH  18  60
ATOM     60  C   UNK d   0     -26.448  28.745  13.936  0.00  0.00     0.151 C 
BRANCH  60  61
ATOM     61  C   UNK d   0     -27.352  28.703  15.095  0.00  0.00     0.143 C 
ATOM     62  O   UNK d   0     -27.895  27.708  15.577  0.00  0.00    -0.650 OA
BRANCH  61  63
ATOM     63  O   UNK d   0     -27.609  29.954  15.704  0.00  0.00    -0.776 OA
ATOM     64  H   UNK d   0     -28.133  30.666  15.226  0.00  0.00     0.167 HD
ENDBRANCH  61  63
ENDBRANCH  60  61
ENDBRANCH  18  60
BRANCH  14  65
ATOM     65  C   UNK d   0     -25.596  25.872  13.456  0.00  0.00     0.052 C 
BRANCH  65  66
ATOM     66  C   UNK d   0     -26.308  24.891  14.317  0.00  0.00     0.115 C 
BRANCH  66  67
ATOM     67  C   UNK d   0     -26.622  23.588  13.801  0.00  0.00     0.139 C 
ATOM     68  O   UNK d   0     -26.881  22.644  14.635  0.00  0.00    -0.650 OA
BRANCH  67  69
ATOM     69  O   UNK d   0     -26.688  23.192  12.466  0.00  0.00    -0.776 OA
ATOM     70  H   UNK d   0     -25.794  22.912  12.037  0.00  0.00     0.167 HD
ENDBRANCH  67  69
ENDBRANCH  66  67
ENDBRANCH  65  66
ENDBRANCH  14  65
ENDBRANCH   6   7
ENDBRANCH   5   6
ENDBRANCH   2   5
TORSDOF 28
ENDMDL
MODEL 10
REMARK VINA RESULT:      -7.0      6.479     10.718
REMARK  28 active torsions:
REMARK  status: ('A' for Active; 'I' for Inactive)
REMARK    1  A    between atoms: C_2  and  O_3 
REMARK    2  A    between atoms: C_2  and  C_4 
REMARK    3  A    between atoms: C_4  and  C_5 
REMARK    4  A    between atoms: C_5  and  C_6 
REMARK    5  A    between atoms: C_7  and  C_8 
REMARK    6  A    between atoms: C_8  and  C_9 
REMARK    7  A    between atoms: C_9  and  O_11 
REMARK    8  A    between atoms: C_28  and  C_29 
REMARK    9  A    between atoms: C_29  and  C_30 
REMARK   10  A    between atoms: C_30  and  O_32 
REMARK   11  A    between atoms: C_33  and  C_34 
REMARK   12  A    between atoms: C_34  and  C_35 
REMARK   13  A    between atoms: C_35  and  C_36 
REMARK   14  A    between atoms: C_36  and  O_38 
REMARK   15  A    between atoms: C_39  and  C_40 
REMARK   16  A    between atoms: C_40  and  C_41 
REMARK   17  A    between atoms: C_41  and  C_42 
REMARK   18  A    between atoms: C_42  and  O_44 
REMARK   19  A    between atoms: C_45  and  C_46 
REMARK   20  A    between atoms: C_46  and  C_47 
REMARK   21  A    between atoms: C_47  and  O_49 
REMARK   22  A    between atoms: C_50  and  C_51 
REMARK   23  A    between atoms: C_51  and  C_52 
REMARK   24  A    between atoms: C_52  and  O_54 
REMARK   25  A    between atoms: C_55  and  C_56 
REMARK   26  A    between atoms: C_56  and  C_57 
REMARK   27  A    between atoms: C_57  and  C_58 
REMARK   28  A    between atoms: C_58  and  O_60 
ROOT
ATOM      1  O   UNK d   0     -25.829  14.225  21.582  0.00  0.00    -0.650 OA
ATOM      2  C   UNK d   0     -24.809  13.571  21.268  0.00  0.00     0.139 C 
ENDROOT
BRANCH   2   3
ATOM      3  O   UNK d   0     -24.842  12.765  20.156  0.00  0.00    -0.776 OA
ATOM      4  H   UNK d   0     -24.598  13.129  19.233  0.00  0.00     0.167 HD
ENDBRANCH   2   3
BRANCH   2   5
ATOM      5  C   UNK d   0     -23.573  13.670  22.096  0.00  0.00     0.115 C 
BRANCH   5   6
ATOM      6  C   UNK d   0     -22.412  14.100  21.242  0.00  0.00     0.052 C 
BRANCH   6   7
ATOM      7  C   UNK d   0     -22.427  15.581  20.944  0.00  0.00    -0.020 A 
ATOM      8  C   UNK d   0     -21.999  16.553  21.707  0.00  0.00    -0.011 A 
ATOM      9  C   UNK d   0     -22.228  17.804  21.004  0.00  0.00     0.067 A 
ATOM     10  C   UNK d   0     -21.985  19.165  21.252  0.00  0.00     0.062 C 
ATOM     11  N   UNK d   0     -22.804  17.500  19.822  0.00  0.00    -0.248 NA
ATOM     12  C   UNK d   0     -22.024  20.214  20.328  0.00  0.00     0.041 A 
ATOM     13  N   UNK d   0     -22.894  20.493  19.339  0.00  0.00    -0.355 N 
ATOM     14  C   UNK d   0     -20.981  21.159  20.328  0.00  0.00    -0.022 A 
ATOM     15  C   UNK d   0     -22.426  21.586  18.706  0.00  0.00     0.042 A 
ATOM     16  H   UNK d   0     -23.830  19.940  19.105  0.00  0.00     0.166 HD
ATOM     17  C   UNK d   0     -22.946  22.297  17.606  0.00  0.00     0.062 C 
ATOM     18  C   UNK d   0     -21.228  22.032  19.297  0.00  0.00    -0.013 A 
ATOM     19  C   UNK d   0     -23.458  21.812  16.430  0.00  0.00     0.067 A 
ATOM     20  N   UNK d   0     -23.689  20.498  16.366  0.00  0.00    -0.248 NA
ATOM     21  C   UNK d   0     -23.830  22.374  15.142  0.00  0.00    -0.011 A 
ATOM     22  C   UNK d   0     -24.183  20.160  15.131  0.00  0.00     0.066 A 
ATOM     23  C   UNK d   0     -24.504  18.825  14.939  0.00  0.00     0.062 C 
ATOM     24  C   UNK d   0     -24.250  21.402  14.385  0.00  0.00    -0.020 A 
ATOM     25  C   UNK d   0     -24.471  17.788  15.885  0.00  0.00     0.041 A 
ATOM     26  N   UNK d   0     -23.598  17.502  16.858  0.00  0.00    -0.355 N 
ATOM     27  C   UNK d   0     -25.520  16.843  15.887  0.00  0.00    -0.022 A 
ATOM     28  C   UNK d   0     -24.058  16.408  17.486  0.00  0.00     0.042 A 
ATOM     29  H   UNK d   0     -22.652  18.052  17.085  0.00  0.00     0.166 HD
ATOM     30  C   UNK d   0     -23.546  15.685  18.574  0.00  0.00     0.062 C 
ATOM     31  C   UNK d   0     -25.267  15.966  16.897  0.00  0.00    -0.013 A 
ATOM     32  C   UNK d   0     -22.951  16.178  19.725  0.00  0.00     0.066 A 
BRANCH   8  33
ATOM     33  C   UNK d   0     -21.394  16.427  23.046  0.00  0.00     0.151 C 
BRANCH  33  34
ATOM     34  C   UNK d   0     -19.972  16.811  23.069  0.00  0.00     0.143 C 
ATOM     35  O   UNK d   0     -19.213  16.498  22.140  0.00  0.00    -0.650 OA
BRANCH  34  36
ATOM     36  O   UNK d   0     -19.482  17.525  24.137  0.00  0.00    -0.776 OA
ATOM     37  H   UNK d   0     -19.986  17.559  25.034  0.00  0.00     0.167 HD
ENDBRANCH  34  36
ENDBRANCH  33  34
ENDBRANCH   8  33
BRANCH  31  38
ATOM     38  C   UNK d   0     -26.126  14.788  17.291  0.00  0.00     0.151 C 
BRANCH  38  39
ATOM     39  C   UNK d   0     -27.012  15.084  18.398  0.00  0.00     0.143 C 
ATOM     40  O   UNK d   0     -27.324  16.247  18.707  0.00  0.00    -0.650 OA
BRANCH  39  41
ATOM     41  O   UNK d   0     -27.542  14.037  19.151  0.00  0.00    -0.776 OA
ATOM     42  H   UNK d   0     -27.324  13.086  18.837  0.00  0.00     0.167 HD
ENDBRANCH  39  41
ENDBRANCH  38  39
ENDBRANCH  31  38
BRANCH  27  43
ATOM     43  C   UNK d   0     -26.724  16.745  14.984  0.00  0.00     0.052 C 
BRANCH  43  44
ATOM     44  C   UNK d   0     -27.918  17.471  15.511  0.00  0.00     0.115 C 
BRANCH  44  45
ATOM     45  C   UNK d   0     -28.348  18.412  14.444  0.00  0.00     0.139 C 
ATOM     46  O   UNK d   0     -28.921  19.475  14.789  0.00  0.00    -0.650 OA
BRANCH  45  47
ATOM     47  O   UNK d   0     -28.137  18.169  13.104  0.00  0.00    -0.776 OA
ATOM     48  H   UNK d   0     -28.347  18.864  12.369  0.00  0.00     0.167 HD
ENDBRANCH  45  47
ENDBRANCH  44  45
ENDBRANCH  43  44
ENDBRANCH  27  43
BRANCH  24  49
ATOM     49  C   UNK d   0     -24.761  21.531  13.010  0.00  0.00     0.052 C 
BRANCH  49  50
ATOM     50  C   UNK d   0     -26.228  21.188  12.961  0.00  0.00     0.115 C 
BRANCH  50  51
ATOM     51  C   UNK d   0     -27.168  22.238  13.332  0.00  0.00     0.139 C 
ATOM     52  O   UNK d   0     -27.502  23.155  12.545  0.00  0.00    -0.650 OA
BRANCH  51  53
ATOM     53  O   UNK d   0     -27.726  22.243  14.601  0.00  0.00    -0.776 OA
ATOM     54  H   UNK d   0     -27.904  23.130  15.038  0.00  0.00     0.167 HD
ENDBRANCH  51  53
ENDBRANCH  50  51
ENDBRANCH  49  50
ENDBRANCH  24  49
BRANCH  21  55
ATOM     55  C   UNK d   0     -23.732  23.825  14.804  0.00  0.00     0.151 C 
BRANCH  55  56
ATOM     56  C   UNK d   0     -22.407  24.178  14.271  0.00  0.00     0.143 C 
ATOM     57  O   UNK d   0     -21.606  24.912  14.884  0.00  0.00    -0.650 OA
BRANCH  56  58
ATOM     58  O   UNK d   0     -22.050  23.662  13.027  0.00  0.00    -0.776 OA
ATOM     59  H   UNK d   0     -22.341  24.237  12.216  0.00  0.00     0.167 HD
ENDBRANCH  56  58
ENDBRANCH  55  56
ENDBRANCH  21  55
BRANCH  18  60
ATOM     60  C   UNK d   0     -20.352  23.203  18.928  0.00  0.00     0.151 C 
BRANCH  60  61
ATOM     61  C   UNK d   0     -19.533  22.753  17.792  0.00  0.00     0.143 C 
ATOM     62  O   UNK d   0     -18.720  21.828  17.784  0.00  0.00    -0.650 OA
BRANCH  61  63
ATOM     63  O   UNK d   0     -19.719  23.478  16.591  0.00  0.00    -0.776 OA
ATOM     64  H   UNK d   0     -19.221  23.231  15.754  0.00  0.00     0.167 HD
ENDBRANCH  61  63
ENDBRANCH  60  61
ENDBRANCH  18  60
BRANCH  14  65
ATOM     65  C   UNK d   0     -19.834  21.355  21.278  0.00  0.00     0.052 C 
BRANCH  65  66
ATOM     66  C   UNK d   0     -18.769  20.328  21.124  0.00  0.00     0.115 C 
BRANCH  66  67
ATOM     67  C   UNK d   0     -18.110  19.806  22.288  0.00  0.00     0.139 C 
ATOM     68  O   UNK d   0     -18.370  20.336  23.430  0.00  0.00    -0.650 OA
BRANCH  67  69
ATOM     69  O   UNK d   0     -17.189  18.760  22.350  0.00  0.00    -0.776 OA
ATOM     70  H   UNK d   0     -17.579  17.813  22.238  0.00  0.00     0.167 HD
ENDBRANCH  67  69
ENDBRANCH  66  67
ENDBRANCH  65  66
ENDBRANCH  14  65
ENDBRANCH   6   7
ENDBRANCH   5   6
ENDBRANCH   2   5
TORSDOF 28
ENDMDL
MODEL 11
REMARK VINA RESULT:      -6.8      6.216     11.427
REMARK  28 active torsions:
REMARK  status: ('A' for Active; 'I' for Inactive)
REMARK    1  A    between atoms: C_2  and  O_3 
REMARK    2  A    between atoms: C_2  and  C_4 
REMARK    3  A    between atoms: C_4  and  C_5 
REMARK    4  A    between atoms: C_5  and  C_6 
REMARK    5  A    between atoms: C_7  and  C_8 
REMARK    6  A    between atoms: C_8  and  C_9 
REMARK    7  A    between atoms: C_9  and  O_11 
REMARK    8  A    between atoms: C_28  and  C_29 
REMARK    9  A    between atoms: C_29  and  C_30 
REMARK   10  A    between atoms: C_30  and  O_32 
REMARK   11  A    between atoms: C_33  and  C_34 
REMARK   12  A    between atoms: C_34  and  C_35 
REMARK   13  A    between atoms: C_35  and  C_36 
REMARK   14  A    between atoms: C_36  and  O_38 
REMARK   15  A    between atoms: C_39  and  C_40 
REMARK   16  A    between atoms: C_40  and  C_41 
REMARK   17  A    between atoms: C_41  and  C_42 
REMARK   18  A    between atoms: C_42  and  O_44 
REMARK   19  A    between atoms: C_45  and  C_46 
REMARK   20  A    between atoms: C_46  and  C_47 
REMARK   21  A    between atoms: C_47  and  O_49 
REMARK   22  A    between atoms: C_50  and  C_51 
REMARK   23  A    between atoms: C_51  and  C_52 
REMARK   24  A    between atoms: C_52  and  O_54 
REMARK   25  A    between atoms: C_55  and  C_56 
REMARK   26  A    between atoms: C_56  and  C_57 
REMARK   27  A    between atoms: C_57  and  C_58 
REMARK   28  A    between atoms: C_58  and  O_60 
ROOT
ATOM      1  O   UNK d   0     -18.663  18.382  24.438  0.00  0.00    -0.650 OA
ATOM      2  C   UNK d   0     -18.307  17.978  23.309  0.00  0.00     0.139 C 
ENDROOT
BRANCH   2   3
ATOM      3  O   UNK d   0     -17.193  18.525  22.719  0.00  0.00    -0.776 OA
ATOM      4  H   UNK d   0     -17.089  18.542  21.702  0.00  0.00     0.167 HD
ENDBRANCH   2   3
BRANCH   2   5
ATOM      5  C   UNK d   0     -19.087  16.916  22.613  0.00  0.00     0.115 C 
BRANCH   5   6
ATOM      6  C   UNK d   0     -20.560  17.129  22.830  0.00  0.00     0.052 C 
BRANCH   6   7
ATOM      7  C   UNK d   0     -21.347  17.104  21.542  0.00  0.00    -0.020 A 
ATOM      8  C   UNK d   0     -21.891  16.066  20.959  0.00  0.00    -0.011 A 
ATOM      9  C   UNK d   0     -22.536  16.528  19.740  0.00  0.00     0.067 A 
ATOM     10  C   UNK d   0     -23.288  15.944  18.709  0.00  0.00     0.062 C 
ATOM     11  N   UNK d   0     -22.329  17.859  19.657  0.00  0.00    -0.248 NA
ATOM     12  C   UNK d   0     -24.068  16.602  17.752  0.00  0.00     0.041 A 
ATOM     13  N   UNK d   0     -23.832  17.711  17.027  0.00  0.00    -0.355 N 
ATOM     14  C   UNK d   0     -25.361  16.118  17.478  0.00  0.00    -0.022 A 
ATOM     15  C   UNK d   0     -24.943  17.948  16.305  0.00  0.00     0.042 A 
ATOM     16  H   UNK d   0     -22.890  18.304  17.010  0.00  0.00     0.166 HD
ATOM     17  C   UNK d   0     -25.233  18.975  15.384  0.00  0.00     0.062 C 
ATOM     18  C   UNK d   0     -25.924  16.971  16.562  0.00  0.00    -0.013 A 
ATOM     19  C   UNK d   0     -24.992  20.321  15.488  0.00  0.00     0.067 A 
ATOM     20  N   UNK d   0     -24.207  20.718  16.493  0.00  0.00    -0.248 NA
ATOM     21  C   UNK d   0     -25.396  21.514  14.763  0.00  0.00    -0.011 A 
ATOM     22  C   UNK d   0     -24.070  22.085  16.479  0.00  0.00     0.066 A 
ATOM     23  C   UNK d   0     -23.246  22.632  17.452  0.00  0.00     0.062 C 
ATOM     24  C   UNK d   0     -24.856  22.543  15.351  0.00  0.00    -0.020 A 
ATOM     25  C   UNK d   0     -22.461  21.952  18.396  0.00  0.00     0.041 A 
ATOM     26  N   UNK d   0     -22.702  20.858  19.128  0.00  0.00    -0.355 N 
ATOM     27  C   UNK d   0     -21.162  22.435  18.667  0.00  0.00    -0.022 A 
ATOM     28  C   UNK d   0     -21.597  20.625  19.855  0.00  0.00     0.042 A 
ATOM     29  H   UNK d   0     -23.652  20.270  19.152  0.00  0.00     0.166 HD
ATOM     30  C   UNK d   0     -21.300  19.613  20.782  0.00  0.00     0.062 C 
ATOM     31  C   UNK d   0     -20.609  21.601  19.589  0.00  0.00    -0.013 A 
ATOM     32  C   UNK d   0     -21.621  18.267  20.711  0.00  0.00     0.066 A 
BRANCH   8  33
ATOM     33  C   UNK d   0     -21.864  14.670  21.432  0.00  0.00     0.151 C 
BRANCH  33  34
ATOM     34  C   UNK d   0     -23.177  14.205  21.914  0.00  0.00     0.143 C 
ATOM     35  O   UNK d   0     -23.598  14.535  23.031  0.00  0.00    -0.650 OA
BRANCH  34  36
ATOM     36  O   UNK d   0     -23.942  13.392  21.110  0.00  0.00    -0.776 OA
ATOM     37  H   UNK d   0     -23.741  13.291  20.105  0.00  0.00     0.167 HD
ENDBRANCH  34  36
ENDBRANCH  33  34
ENDBRANCH   8  33
BRANCH  31  38
ATOM     38  C   UNK d   0     -19.220  21.714  20.173  0.00  0.00     0.151 C 
BRANCH  38  39
ATOM     39  C   UNK d   0     -18.245  20.914  19.463  0.00  0.00     0.143 C 
ATOM     40  O   UNK d   0     -17.919  21.152  18.286  0.00  0.00    -0.650 OA
BRANCH  39  41
ATOM     41  O   UNK d   0     -17.640  19.836  20.108  0.00  0.00    -0.776 OA
ATOM     42  H   UNK d   0     -18.265  19.154  20.550  0.00  0.00     0.167 HD
ENDBRANCH  39  41
ENDBRANCH  38  39
ENDBRANCH  31  38
BRANCH  27  43
ATOM     43  C   UNK d   0     -20.447  23.635  18.096  0.00  0.00     0.052 C 
BRANCH  43  44
ATOM     44  C   UNK d   0     -20.731  24.900  18.838  0.00  0.00     0.115 C 
BRANCH  44  45
ATOM     45  C   UNK d   0     -20.600  26.007  17.855  0.00  0.00     0.139 C 
ATOM     46  O   UNK d   0     -20.149  27.107  18.259  0.00  0.00    -0.650 OA
BRANCH  45  47
ATOM     47  O   UNK d   0     -20.947  25.873  16.528  0.00  0.00    -0.776 OA
ATOM     48  H   UNK d   0     -21.926  25.876  16.201  0.00  0.00     0.167 HD
ENDBRANCH  45  47
ENDBRANCH  44  45
ENDBRANCH  43  44
ENDBRANCH  27  43
BRANCH  24  49
ATOM     49  C   UNK d   0     -24.973  23.947  14.922  0.00  0.00     0.052 C 
BRANCH  49  50
ATOM     50  C   UNK d   0     -24.128  24.194  13.698  0.00  0.00     0.115 C 
BRANCH  50  51
ATOM     51  C   UNK d   0     -22.744  23.742  13.744  0.00  0.00     0.139 C 
ATOM     52  O   UNK d   0     -21.869  24.311  14.438  0.00  0.00    -0.650 OA
BRANCH  51  53
ATOM     53  O   UNK d   0     -22.357  22.642  12.994  0.00  0.00    -0.776 OA
ATOM     54  H   UNK d   0     -21.949  21.859  13.475  0.00  0.00     0.167 HD
ENDBRANCH  51  53
ENDBRANCH  50  51
ENDBRANCH  49  50
ENDBRANCH  24  49
BRANCH  21  55
ATOM     55  C   UNK d   0     -26.275  21.500  13.557  0.00  0.00     0.151 C 
BRANCH  55  56
ATOM     56  C   UNK d   0     -27.687  21.286  13.906  0.00  0.00     0.143 C 
ATOM     57  O   UNK d   0     -28.415  22.191  14.361  0.00  0.00    -0.650 OA
BRANCH  56  58
ATOM     58  O   UNK d   0     -28.217  20.011  13.714  0.00  0.00    -0.776 OA
ATOM     59  H   UNK d   0     -27.860  19.512  12.879  0.00  0.00     0.167 HD
ENDBRANCH  56  58
ENDBRANCH  55  56
ENDBRANCH  21  55
BRANCH  18  60
ATOM     60  C   UNK d   0     -27.314  16.832  15.992  0.00  0.00     0.151 C 
BRANCH  60  61
ATOM     61  C   UNK d   0     -27.137  16.438  14.586  0.00  0.00     0.143 C 
ATOM     62  O   UNK d   0     -26.306  15.649  14.136  0.00  0.00    -0.650 OA
BRANCH  61  63
ATOM     63  O   UNK d   0     -28.032  17.045  13.673  0.00  0.00    -0.776 OA
ATOM     64  H   UNK d   0     -28.488  17.913  13.894  0.00  0.00     0.167 HD
ENDBRANCH  61  63
ENDBRANCH  60  61
ENDBRANCH  18  60
BRANCH  14  65
ATOM     65  C   UNK d   0     -26.059  14.870  17.938  0.00  0.00     0.052 C 
BRANCH  65  66
ATOM     66  C   UNK d   0     -26.835  15.066  19.191  0.00  0.00     0.115 C 
BRANCH  66  67
ATOM     67  C   UNK d   0     -28.178  14.565  19.282  0.00  0.00     0.139 C 
ATOM     68  O   UNK d   0     -28.979  14.775  18.299  0.00  0.00    -0.650 OA
BRANCH  67  69
ATOM     69  O   UNK d   0     -28.754  13.853  20.334  0.00  0.00    -0.776 OA
ATOM     70  H   UNK d   0     -28.143  13.166  20.798  0.00  0.00     0.167 HD
ENDBRANCH  67  69
ENDBRANCH  66  67
ENDBRANCH  65  66
ENDBRANCH  14  65
ENDBRANCH   6   7
ENDBRANCH   5   6
ENDBRANCH   2   5
TORSDOF 28
ENDMDL
MODEL 12
REMARK VINA RESULT:      -6.8      5.104     11.433
REMARK  28 active torsions:
REMARK  status: ('A' for Active; 'I' for Inactive)
REMARK    1  A    between atoms: C_2  and  O_3 
REMARK    2  A    between atoms: C_2  and  C_4 
REMARK    3  A    between atoms: C_4  and  C_5 
REMARK    4  A    between atoms: C_5  and  C_6 
REMARK    5  A    between atoms: C_7  and  C_8 
REMARK    6  A    between atoms: C_8  and  C_9 
REMARK    7  A    between atoms: C_9  and  O_11 
REMARK    8  A    between atoms: C_28  and  C_29 
REMARK    9  A    between atoms: C_29  and  C_30 
REMARK   10  A    between atoms: C_30  and  O_32 
REMARK   11  A    between atoms: C_33  and  C_34 
REMARK   12  A    between atoms: C_34  and  C_35 
REMARK   13  A    between atoms: C_35  and  C_36 
REMARK   14  A    between atoms: C_36  and  O_38 
REMARK   15  A    between atoms: C_39  and  C_40 
REMARK   16  A    between atoms: C_40  and  C_41 
REMARK   17  A    between atoms: C_41  and  C_42 
REMARK   18  A    between atoms: C_42  and  O_44 
REMARK   19  A    between atoms: C_45  and  C_46 
REMARK   20  A    between atoms: C_46  and  C_47 
REMARK   21  A    between atoms: C_47  and  O_49 
REMARK   22  A    between atoms: C_50  and  C_51 
REMARK   23  A    between atoms: C_51  and  C_52 
REMARK   24  A    between atoms: C_52  and  O_54 
REMARK   25  A    between atoms: C_55  and  C_56 
REMARK   26  A    between atoms: C_56  and  C_57 
REMARK   27  A    between atoms: C_57  and  C_58 
REMARK   28  A    between atoms: C_58  and  O_60 
ROOT
ATOM      1  O   UNK d   0     -28.056  16.103  15.235  0.00  0.00    -0.650 OA
ATOM      2  C   UNK d   0     -26.838  15.826  15.159  0.00  0.00     0.139 C 
ENDROOT
BRANCH   2   3
ATOM      3  O   UNK d   0     -26.171  16.042  13.977  0.00  0.00    -0.776 OA
ATOM      4  H   UNK d   0     -25.561  15.326  13.577  0.00  0.00     0.167 HD
ENDBRANCH   2   3
BRANCH   2   5
ATOM      5  C   UNK d   0     -26.123  15.266  16.340  0.00  0.00     0.115 C 
BRANCH   5   6
ATOM      6  C   UNK d   0     -24.636  15.305  16.112  0.00  0.00     0.052 C 
BRANCH   6   7
ATOM      7  C   UNK d   0     -23.941  16.323  16.983  0.00  0.00    -0.020 A 
ATOM      8  C   UNK d   0     -23.256  16.104  18.076  0.00  0.00    -0.011 A 
ATOM      9  C   UNK d   0     -22.783  17.386  18.570  0.00  0.00     0.067 A 
ATOM     10  C   UNK d   0     -22.005  17.831  19.650  0.00  0.00     0.062 C 
ATOM     11  N   UNK d   0     -23.231  18.333  17.719  0.00  0.00    -0.248 NA
ATOM     12  C   UNK d   0     -21.418  19.091  19.809  0.00  0.00     0.041 A 
ATOM     13  N   UNK d   0     -21.895  20.327  19.573  0.00  0.00    -0.355 N 
ATOM     14  C   UNK d   0     -20.079  19.169  20.235  0.00  0.00    -0.022 A 
ATOM     15  C   UNK d   0     -20.892  21.188  19.831  0.00  0.00     0.042 A 
ATOM     16  H   UNK d   0     -22.927  20.588  19.249  0.00  0.00     0.166 HD
ATOM     17  C   UNK d   0     -20.851  22.594  19.748  0.00  0.00     0.062 C 
ATOM     18  C   UNK d   0     -19.737  20.498  20.248  0.00  0.00    -0.013 A 
ATOM     19  C   UNK d   0     -21.323  23.414  18.756  0.00  0.00     0.067 A 
ATOM     20  N   UNK d   0     -22.102  22.853  17.827  0.00  0.00    -0.248 NA
ATOM     21  C   UNK d   0     -21.187  24.818  18.408  0.00  0.00    -0.011 A 
ATOM     22  C   UNK d   0     -22.483  23.788  16.896  0.00  0.00     0.066 A 
ATOM     23  C   UNK d   0     -23.330  23.346  15.890  0.00  0.00     0.062 C 
ATOM     24  C   UNK d   0     -21.865  25.030  17.317  0.00  0.00    -0.020 A 
ATOM     25  C   UNK d   0     -23.919  22.079  15.755  0.00  0.00     0.041 A 
ATOM     26  N   UNK d   0     -23.439  20.850  15.976  0.00  0.00    -0.355 N 
ATOM     27  C   UNK d   0     -25.263  22.002  15.332  0.00  0.00    -0.022 A 
ATOM     28  C   UNK d   0     -24.435  19.989  15.711  0.00  0.00     0.042 A 
ATOM     29  H   UNK d   0     -22.399  20.588  16.290  0.00  0.00     0.166 HD
ATOM     30  C   UNK d   0     -24.487  18.588  15.779  0.00  0.00     0.062 C 
ATOM     31  C   UNK d   0     -25.598  20.683  15.302  0.00  0.00    -0.013 A 
ATOM     32  C   UNK d   0     -23.934  17.758  16.742  0.00  0.00     0.066 A 
BRANCH   8  33
ATOM     33  C   UNK d   0     -23.002  14.799  18.714  0.00  0.00     0.151 C 
BRANCH  33  34
ATOM     34  C   UNK d   0     -24.130  14.341  19.546  0.00  0.00     0.143 C 
ATOM     35  O   UNK d   0     -24.746  15.133  20.274  0.00  0.00    -0.650 OA
BRANCH  34  36
ATOM     36  O   UNK d   0     -24.499  13.017  19.513  0.00  0.00    -0.776 OA
ATOM     37  H   UNK d   0     -23.956  12.298  20.010  0.00  0.00     0.167 HD
ENDBRANCH  34  36
ENDBRANCH  33  34
ENDBRANCH   8  33
BRANCH  31  38
ATOM     38  C   UNK d   0     -26.945  20.114  14.921  0.00  0.00     0.151 C 
BRANCH  38  39
ATOM     39  C   UNK d   0     -26.987  19.638  13.554  0.00  0.00     0.143 C 
ATOM     40  O   UNK d   0     -26.482  20.273  12.612  0.00  0.00    -0.650 OA
BRANCH  39  41
ATOM     41  O   UNK d   0     -27.613  18.425  13.270  0.00  0.00    -0.776 OA
ATOM     42  H   UNK d   0     -27.885  18.263  12.295  0.00  0.00     0.167 HD
ENDBRANCH  39  41
ENDBRANCH  38  39
ENDBRANCH  31  38
BRANCH  27  43
ATOM     43  C   UNK d   0     -26.217  23.111  14.962  0.00  0.00     0.052 C 
BRANCH  43  44
ATOM     44  C   UNK d   0     -26.189  23.454  13.508  0.00  0.00     0.115 C 
BRANCH  44  45
ATOM     45  C   UNK d   0     -25.615  24.821  13.405  0.00  0.00     0.139 C 
ATOM     46  O   UNK d   0     -24.372  24.933  13.271  0.00  0.00    -0.650 OA
BRANCH  45  47
ATOM     47  O   UNK d   0     -26.389  25.960  13.446  0.00  0.00    -0.776 OA
ATOM     48  H   UNK d   0     -27.177  26.126  12.799  0.00  0.00     0.167 HD
ENDBRANCH  45  47
ENDBRANCH  44  45
ENDBRANCH  43  44
ENDBRANCH  27  43
BRANCH  24  49
ATOM     49  C   UNK d   0     -22.030  26.325  16.634  0.00  0.00     0.052 C 
BRANCH  49  50
ATOM     50  C   UNK d   0     -23.341  26.959  17.022  0.00  0.00     0.115 C 
BRANCH  50  51
ATOM     51  C   UNK d   0     -24.305  27.200  15.957  0.00  0.00     0.139 C 
ATOM     52  O   UNK d   0     -25.544  27.144  16.139  0.00  0.00    -0.650 OA
BRANCH  51  53
ATOM     53  O   UNK d   0     -23.855  27.503  14.681  0.00  0.00    -0.776 OA
ATOM     54  H   UNK d   0     -23.631  28.460  14.470  0.00  0.00     0.167 HD
ENDBRANCH  51  53
ENDBRANCH  50  51
ENDBRANCH  49  50
ENDBRANCH  24  49
BRANCH  21  55
ATOM     55  C   UNK d   0     -20.398  25.803  19.205  0.00  0.00     0.151 C 
BRANCH  55  56
ATOM     56  C   UNK d   0     -21.120  26.244  20.408  0.00  0.00     0.143 C 
ATOM     57  O   UNK d   0     -22.130  26.973  20.361  0.00  0.00    -0.650 OA
BRANCH  56  58
ATOM     58  O   UNK d   0     -20.639  25.818  21.646  0.00  0.00    -0.776 OA
ATOM     59  H   UNK d   0     -20.422  26.578  22.315  0.00  0.00     0.167 HD
ENDBRANCH  56  58
ENDBRANCH  55  56
ENDBRANCH  21  55
BRANCH  18  60
ATOM     60  C   UNK d   0     -18.383  21.039  20.637  0.00  0.00     0.151 C 
BRANCH  60  61
ATOM     61  C   UNK d   0     -18.477  21.372  22.066  0.00  0.00     0.143 C 
ATOM     62  O   UNK d   0     -19.496  21.649  22.698  0.00  0.00    -0.650 OA
BRANCH  61  63
ATOM     63  O   UNK d   0     -17.247  21.366  22.768  0.00  0.00    -0.776 OA
ATOM     64  H   UNK d   0     -16.879  22.207  23.175  0.00  0.00     0.167 HD
ENDBRANCH  61  63
ENDBRANCH  60  61
ENDBRANCH  18  60
BRANCH  14  65
ATOM     65  C   UNK d   0     -19.140  18.101  20.720  0.00  0.00     0.052 C 
BRANCH  65  66
ATOM     66  C   UNK d   0     -19.375  17.720  22.139  0.00  0.00     0.115 C 
BRANCH  66  67
ATOM     67  C   UNK d   0     -18.437  18.122  23.149  0.00  0.00     0.139 C 
ATOM     68  O   UNK d   0     -18.858  18.268  24.355  0.00  0.00    -0.650 OA
BRANCH  67  69
ATOM     69  O   UNK d   0     -17.077  18.386  22.993  0.00  0.00    -0.776 OA
ATOM     70  H   UNK d   0     -16.772  19.335  23.253  0.00  0.00     0.167 HD
ENDBRANCH  67  69
ENDBRANCH  66  67
ENDBRANCH  65  66
ENDBRANCH  14  65
ENDBRANCH   6   7
ENDBRANCH   5   6
ENDBRANCH   2   5
TORSDOF 28
ENDMDL
MODEL 13
REMARK VINA RESULT:      -6.8      1.884      7.396
REMARK  28 active torsions:
REMARK  status: ('A' for Active; 'I' for Inactive)
REMARK    1  A    between atoms: C_2  and  O_3 
REMARK    2  A    between atoms: C_2  and  C_4 
REMARK    3  A    between atoms: C_4  and  C_5 
REMARK    4  A    between atoms: C_5  and  C_6 
REMARK    5  A    between atoms: C_7  and  C_8 
REMARK    6  A    between atoms: C_8  and  C_9 
REMARK    7  A    between atoms: C_9  and  O_11 
REMARK    8  A    between atoms: C_28  and  C_29 
REMARK    9  A    between atoms: C_29  and  C_30 
REMARK   10  A    between atoms: C_30  and  O_32 
REMARK   11  A    between atoms: C_33  and  C_34 
REMARK   12  A    between atoms: C_34  and  C_35 
REMARK   13  A    between atoms: C_35  and  C_36 
REMARK   14  A    between atoms: C_36  and  O_38 
REMARK   15  A    between atoms: C_39  and  C_40 
REMARK   16  A    between atoms: C_40  and  C_41 
REMARK   17  A    between atoms: C_41  and  C_42 
REMARK   18  A    between atoms: C_42  and  O_44 
REMARK   19  A    between atoms: C_45  and  C_46 
REMARK   20  A    between atoms: C_46  and  C_47 
REMARK   21  A    between atoms: C_47  and  O_49 
REMARK   22  A    between atoms: C_50  and  C_51 
REMARK   23  A    between atoms: C_51  and  C_52 
REMARK   24  A    between atoms: C_52  and  O_54 
REMARK   25  A    between atoms: C_55  and  C_56 
REMARK   26  A    between atoms: C_56  and  C_57 
REMARK   27  A    between atoms: C_57  and  C_58 
REMARK   28  A    between atoms: C_58  and  O_60 
ROOT
ATOM      1  O   UNK d   0     -24.674  31.691  14.857  0.00  0.00    -0.650 OA
ATOM      2  C   UNK d   0     -24.340  32.845  15.207  0.00  0.00     0.139 C 
ENDROOT
BRANCH   2   3
ATOM      3  O   UNK d   0     -24.432  33.876  14.303  0.00  0.00    -0.776 OA
ATOM      4  H   UNK d   0     -23.795  33.937  13.506  0.00  0.00     0.167 HD
ENDBRANCH   2   3
BRANCH   2   5
ATOM      5  C   UNK d   0     -23.847  33.094  16.591  0.00  0.00     0.115 C 
BRANCH   5   6
ATOM      6  C   UNK d   0     -24.575  32.210  17.567  0.00  0.00     0.052 C 
BRANCH   6   7
ATOM      7  C   UNK d   0     -23.666  31.203  18.229  0.00  0.00    -0.020 A 
ATOM      8  C   UNK d   0     -22.802  31.417  19.189  0.00  0.00    -0.011 A 
ATOM      9  C   UNK d   0     -22.154  30.153  19.494  0.00  0.00     0.067 A 
ATOM     10  C   UNK d   0     -21.182  29.707  20.403  0.00  0.00     0.062 C 
ATOM     11  N   UNK d   0     -22.679  29.224  18.668  0.00  0.00    -0.248 NA
ATOM     12  C   UNK d   0     -20.881  28.382  20.740  0.00  0.00     0.041 A 
ATOM     13  N   UNK d   0     -20.752  27.281  19.976  0.00  0.00    -0.355 N 
ATOM     14  C   UNK d   0     -20.724  28.044  22.096  0.00  0.00    -0.022 A 
ATOM     15  C   UNK d   0     -20.524  26.251  20.813  0.00  0.00     0.042 A 
ATOM     16  H   UNK d   0     -20.800  27.236  18.865  0.00  0.00     0.166 HD
ATOM     17  C   UNK d   0     -20.314  24.884  20.543  0.00  0.00     0.062 C 
ATOM     18  C   UNK d   0     -20.500  26.691  22.151  0.00  0.00    -0.013 A 
ATOM     19  C   UNK d   0     -20.997  24.060  19.686  0.00  0.00     0.067 A 
ATOM     20  N   UNK d   0     -21.849  24.641  18.838  0.00  0.00    -0.248 NA
ATOM     21  C   UNK d   0     -21.062  22.628  19.442  0.00  0.00    -0.011 A 
ATOM     22  C   UNK d   0     -22.467  23.694  18.058  0.00  0.00     0.066 A 
ATOM     23  C   UNK d   0     -23.354  24.166  17.102  0.00  0.00     0.062 C 
ATOM     24  C   UNK d   0     -21.926  22.421  18.491  0.00  0.00    -0.020 A 
ATOM     25  C   UNK d   0     -23.632  25.501  16.771  0.00  0.00     0.041 A 
ATOM     26  N   UNK d   0     -23.776  26.593  17.531  0.00  0.00    -0.355 N 
ATOM     27  C   UNK d   0     -23.786  25.841  15.409  0.00  0.00    -0.022 A 
ATOM     28  C   UNK d   0     -24.012  27.620  16.699  0.00  0.00     0.042 A 
ATOM     29  H   UNK d   0     -23.737  26.635  18.648  0.00  0.00     0.166 HD
ATOM     30  C   UNK d   0     -24.231  28.983  16.954  0.00  0.00     0.062 C 
ATOM     31  C   UNK d   0     -24.025  27.179  15.354  0.00  0.00    -0.013 A 
ATOM     32  C   UNK d   0     -23.596  29.792  17.883  0.00  0.00     0.066 A 
BRANCH   8  33
ATOM     33  C   UNK d   0     -22.517  32.703  19.852  0.00  0.00     0.151 C 
BRANCH  33  34
ATOM     34  C   UNK d   0     -21.336  33.384  19.293  0.00  0.00     0.143 C 
ATOM     35  O   UNK d   0     -21.459  34.378  18.564  0.00  0.00    -0.650 OA
BRANCH  34  36
ATOM     36  O   UNK d   0     -20.079  32.905  19.586  0.00  0.00    -0.776 OA
ATOM     37  H   UNK d   0     -19.237  33.332  19.177  0.00  0.00     0.167 HD
ENDBRANCH  34  36
ENDBRANCH  33  34
ENDBRANCH   8  33
BRANCH  31  38
ATOM     38  C   UNK d   0     -24.241  27.996  14.102  0.00  0.00     0.151 C 
BRANCH  38  39
ATOM     39  C   UNK d   0     -25.638  28.105  13.736  0.00  0.00     0.143 C 
ATOM     40  O   UNK d   0     -26.184  27.309  12.951  0.00  0.00    -0.650 OA
BRANCH  39  41
ATOM     41  O   UNK d   0     -26.410  29.132  14.275  0.00  0.00    -0.776 OA
ATOM     42  H   UNK d   0     -27.197  28.855  14.871  0.00  0.00     0.167 HD
ENDBRANCH  39  41
ENDBRANCH  38  39
ENDBRANCH  31  38
BRANCH  27  43
ATOM     43  C   UNK d   0     -23.716  24.959  14.187  0.00  0.00     0.052 C 
BRANCH  43  44
ATOM     44  C   UNK d   0     -24.710  23.843  14.207  0.00  0.00     0.115 C 
BRANCH  44  45
ATOM     45  C   UNK d   0     -24.087  22.707  13.478  0.00  0.00     0.139 C 
ATOM     46  O   UNK d   0     -24.792  21.693  13.250  0.00  0.00    -0.650 OA
BRANCH  45  47
ATOM     47  O   UNK d   0     -22.780  22.725  13.043  0.00  0.00    -0.776 OA
ATOM     48  H   UNK d   0     -22.006  22.297  13.576  0.00  0.00     0.167 HD
ENDBRANCH  45  47
ENDBRANCH  44  45
ENDBRANCH  43  44
ENDBRANCH  27  43
BRANCH  24  49
ATOM     49  C   UNK d   0     -22.274  21.116  17.903  0.00  0.00     0.052 C 
BRANCH  49  50
ATOM     50  C   UNK d   0     -23.763  20.894  17.961  0.00  0.00     0.115 C 
BRANCH  50  51
ATOM     51  C   UNK d   0     -24.454  20.688  16.695  0.00  0.00     0.139 C 
ATOM     52  O   UNK d   0     -25.619  21.101  16.486  0.00  0.00    -0.650 OA
BRANCH  51  53
ATOM     53  O   UNK d   0     -23.818  20.008  15.669  0.00  0.00    -0.776 OA
ATOM     54  H   UNK d   0     -24.025  19.033  15.544  0.00  0.00     0.167 HD
ENDBRANCH  51  53
ENDBRANCH  50  51
ENDBRANCH  49  50
ENDBRANCH  24  49
BRANCH  21  55
ATOM     55  C   UNK d   0     -20.249  21.618  20.182  0.00  0.00     0.151 C 
BRANCH  55  56
ATOM     56  C   UNK d   0     -18.943  21.388  19.546  0.00  0.00     0.143 C 
ATOM     57  O   UNK d   0     -18.711  21.677  18.356  0.00  0.00    -0.650 OA
BRANCH  56  58
ATOM     58  O   UNK d   0     -17.933  20.823  20.323  0.00  0.00    -0.776 OA
ATOM     59  H   UNK d   0     -17.120  21.441  20.499  0.00  0.00     0.167 HD
ENDBRANCH  56  58
ENDBRANCH  55  56
ENDBRANCH  21  55
BRANCH  18  60
ATOM     60  C   UNK d   0     -20.284  25.901  23.418  0.00  0.00     0.151 C 
BRANCH  60  61
ATOM     61  C   UNK d   0     -18.863  25.521  23.420  0.00  0.00     0.143 C 
ATOM     62  O   UNK d   0     -18.395  24.399  23.618  0.00  0.00    -0.650 OA
BRANCH  61  63
ATOM     63  O   UNK d   0     -17.957  26.578  23.163  0.00  0.00    -0.776 OA
ATOM     64  H   UNK d   0     -17.002  26.392  22.913  0.00  0.00     0.167 HD
ENDBRANCH  61  63
ENDBRANCH  60  61
ENDBRANCH  18  60
BRANCH  14  65
ATOM     65  C   UNK d   0     -20.672  28.909  23.323  0.00  0.00     0.052 C 
BRANCH  65  66
ATOM     66  C   UNK d   0     -19.429  29.722  23.410  0.00  0.00     0.115 C 
BRANCH  66  67
ATOM     67  C   UNK d   0     -19.474  31.125  23.109  0.00  0.00     0.139 C 
ATOM     68  O   UNK d   0     -20.249  31.878  23.806  0.00  0.00    -0.650 OA
BRANCH  67  69
ATOM     69  O   UNK d   0     -18.763  31.809  22.123  0.00  0.00    -0.776 OA
ATOM     70  H   UNK d   0     -19.312  32.117  21.307  0.00  0.00     0.167 HD
ENDBRANCH  67  69
ENDBRANCH  66  67
ENDBRANCH  65  66
ENDBRANCH  14  65
ENDBRANCH   6   7
ENDBRANCH   5   6
ENDBRANCH   2   5
TORSDOF 28
ENDMDL
MODEL 14
REMARK VINA RESULT:      -6.8      1.759      7.124
REMARK  28 active torsions:
REMARK  status: ('A' for Active; 'I' for Inactive)
REMARK    1  A    between atoms: C_2  and  O_3 
REMARK    2  A    between atoms: C_2  and  C_4 
REMARK    3  A    between atoms: C_4  and  C_5 
REMARK    4  A    between atoms: C_5  and  C_6 
REMARK    5  A    between atoms: C_7  and  C_8 
REMARK    6  A    between atoms: C_8  and  C_9 
REMARK    7  A    between atoms: C_9  and  O_11 
REMARK    8  A    between atoms: C_28  and  C_29 
REMARK    9  A    between atoms: C_29  and  C_30 
REMARK   10  A    between atoms: C_30  and  O_32 
REMARK   11  A    between atoms: C_33  and  C_34 
REMARK   12  A    between atoms: C_34  and  C_35 
REMARK   13  A    between atoms: C_35  and  C_36 
REMARK   14  A    between atoms: C_36  and  O_38 
REMARK   15  A    between atoms: C_39  and  C_40 
REMARK   16  A    between atoms: C_40  and  C_41 
REMARK   17  A    between atoms: C_41  and  C_42 
REMARK   18  A    between atoms: C_42  and  O_44 
REMARK   19  A    between atoms: C_45  and  C_46 
REMARK   20  A    between atoms: C_46  and  C_47 
REMARK   21  A    between atoms: C_47  and  O_49 
REMARK   22  A    between atoms: C_50  and  C_51 
REMARK   23  A    between atoms: C_51  and  C_52 
REMARK   24  A    between atoms: C_52  and  O_54 
REMARK   25  A    between atoms: C_55  and  C_56 
REMARK   26  A    between atoms: C_56  and  C_57 
REMARK   27  A    between atoms: C_57  and  C_58 
REMARK   28  A    between atoms: C_58  and  O_60 
ROOT
ATOM      1  O   UNK d   0     -23.982  33.573  17.952  0.00  0.00    -0.650 OA
ATOM      2  C   UNK d   0     -22.951  34.203  18.274  0.00  0.00     0.139 C 
ENDROOT
BRANCH   2   3
ATOM      3  O   UNK d   0     -22.805  35.509  17.871  0.00  0.00    -0.776 OA
ATOM      4  H   UNK d   0     -22.605  36.250  18.545  0.00  0.00     0.167 HD
ENDBRANCH   2   3
BRANCH   2   5
ATOM      5  C   UNK d   0     -21.892  33.540  19.087  0.00  0.00     0.115 C 
BRANCH   5   6
ATOM      6  C   UNK d   0     -22.514  32.566  20.051  0.00  0.00     0.052 C 
BRANCH   6   7
ATOM      7  C   UNK d   0     -22.071  31.143  19.804  0.00  0.00    -0.020 A 
ATOM      8  C   UNK d   0     -20.960  30.574  20.195  0.00  0.00    -0.011 A 
ATOM      9  C   UNK d   0     -20.971  29.201  19.717  0.00  0.00     0.067 A 
ATOM     10  C   UNK d   0     -20.119  28.090  19.810  0.00  0.00     0.062 C 
ATOM     11  N   UNK d   0     -22.125  29.022  19.040  0.00  0.00    -0.248 NA
ATOM     12  C   UNK d   0     -20.430  26.757  19.517  0.00  0.00     0.041 A 
ATOM     13  N   UNK d   0     -21.122  26.211  18.500  0.00  0.00    -0.355 N 
ATOM     14  C   UNK d   0     -20.034  25.752  20.419  0.00  0.00    -0.022 A 
ATOM     15  C   UNK d   0     -21.183  24.887  18.736  0.00  0.00     0.042 A 
ATOM     16  H   UNK d   0     -21.543  26.748  17.621  0.00  0.00     0.166 HD
ATOM     17  C   UNK d   0     -21.784  23.853  17.992  0.00  0.00     0.062 C 
ATOM     18  C   UNK d   0     -20.512  24.562  19.931  0.00  0.00    -0.013 A 
ATOM     19  C   UNK d   0     -23.022  23.822  17.402  0.00  0.00     0.067 A 
ATOM     20  N   UNK d   0     -23.690  24.976  17.339  0.00  0.00    -0.248 NA
ATOM     21  C   UNK d   0     -23.867  22.805  16.799  0.00  0.00    -0.011 A 
ATOM     22  C   UNK d   0     -24.911  24.788  16.739  0.00  0.00     0.066 A 
ATOM     23  C   UNK d   0     -25.698  25.918  16.574  0.00  0.00     0.062 C 
ATOM     24  C   UNK d   0     -24.973  23.376  16.417  0.00  0.00    -0.020 A 
ATOM     25  C   UNK d   0     -25.362  27.250  16.863  0.00  0.00     0.041 A 
ATOM     26  N   UNK d   0     -24.687  27.794  17.882  0.00  0.00    -0.355 N 
ATOM     27  C   UNK d   0     -25.756  28.257  15.955  0.00  0.00    -0.022 A 
ATOM     28  C   UNK d   0     -24.633  29.116  17.653  0.00  0.00     0.042 A 
ATOM     29  H   UNK d   0     -24.274  27.254  18.769  0.00  0.00     0.166 HD
ATOM     30  C   UNK d   0     -24.046  30.157  18.389  0.00  0.00     0.062 C 
ATOM     31  C   UNK d   0     -25.298  29.441  16.447  0.00  0.00    -0.013 A 
ATOM     32  C   UNK d   0     -22.831  30.153  19.056  0.00  0.00     0.066 A 
BRANCH   8  33
ATOM     33  C   UNK d   0     -19.875  31.195  20.977  0.00  0.00     0.151 C 
BRANCH  33  34
ATOM     34  C   UNK d   0     -20.065  31.053  22.431  0.00  0.00     0.143 C 
ATOM     35  O   UNK d   0     -19.755  30.004  23.015  0.00  0.00    -0.650 OA
BRANCH  34  36
ATOM     36  O   UNK d   0     -20.596  32.100  23.148  0.00  0.00    -0.776 OA
ATOM     37  H   UNK d   0     -20.420  32.200  24.157  0.00  0.00     0.167 HD
ENDBRANCH  34  36
ENDBRANCH  33  34
ENDBRANCH   8  33
BRANCH  31  38
ATOM     38  C   UNK d   0     -25.469  30.798  15.806  0.00  0.00     0.151 C 
BRANCH  38  39
ATOM     39  C   UNK d   0     -24.275  31.251  15.124  0.00  0.00     0.143 C 
ATOM     40  O   UNK d   0     -23.546  30.480  14.476  0.00  0.00    -0.650 OA
BRANCH  39  41
ATOM     41  O   UNK d   0     -23.918  32.598  15.187  0.00  0.00    -0.776 OA
ATOM     42  H   UNK d   0     -24.588  33.271  14.802  0.00  0.00     0.167 HD
ENDBRANCH  39  41
ENDBRANCH  38  39
ENDBRANCH  31  38
BRANCH  27  43
ATOM     43  C   UNK d   0     -26.535  28.137  14.669  0.00  0.00     0.052 C 
BRANCH  43  44
ATOM     44  C   UNK d   0     -25.673  27.874  13.478  0.00  0.00     0.115 C 
BRANCH  44  45
ATOM     45  C   UNK d   0     -26.501  27.100  12.517  0.00  0.00     0.139 C 
ATOM     46  O   UNK d   0     -26.130  25.937  12.219  0.00  0.00    -0.650 OA
BRANCH  45  47
ATOM     47  O   UNK d   0     -27.652  27.601  11.949  0.00  0.00    -0.776 OA
ATOM     48  H   UNK d   0     -28.091  27.186  11.112  0.00  0.00     0.167 HD
ENDBRANCH  45  47
ENDBRANCH  44  45
ENDBRANCH  43  44
ENDBRANCH  27  43
BRANCH  24  49
ATOM     49  C   UNK d   0     -26.094  22.719  15.722  0.00  0.00     0.052 C 
BRANCH  49  50
ATOM     50  C   UNK d   0     -26.112  23.114  14.268  0.00  0.00     0.115 C 
BRANCH  50  51
ATOM     51  C   UNK d   0     -25.655  22.122  13.304  0.00  0.00     0.139 C 
ATOM     52  O   UNK d   0     -26.229  21.019  13.144  0.00  0.00    -0.650 OA
BRANCH  51  53
ATOM     53  O   UNK d   0     -24.540  22.387  12.523  0.00  0.00    -0.776 OA
ATOM     54  H   UNK d   0     -23.992  23.201  12.738  0.00  0.00     0.167 HD
ENDBRANCH  51  53
ENDBRANCH  50  51
ENDBRANCH  49  50
ENDBRANCH  24  49
BRANCH  21  55
ATOM     55  C   UNK d   0     -23.479  21.370  16.663  0.00  0.00     0.151 C 
BRANCH  55  56
ATOM     56  C   UNK d   0     -22.951  21.065  15.324  0.00  0.00     0.143 C 
ATOM     57  O   UNK d   0     -22.374  21.914  14.617  0.00  0.00    -0.650 OA
BRANCH  56  58
ATOM     58  O   UNK d   0     -23.113  19.767  14.843  0.00  0.00    -0.776 OA
ATOM     59  H   UNK d   0     -24.069  19.539  14.515  0.00  0.00     0.167 HD
ENDBRANCH  56  58
ENDBRANCH  55  56
ENDBRANCH  21  55
BRANCH  18  60
ATOM     60  C   UNK d   0     -20.323  23.219  20.592  0.00  0.00     0.151 C 
BRANCH  60  61
ATOM     61  C   UNK d   0     -21.613  22.893  21.220  0.00  0.00     0.143 C 
ATOM     62  O   UNK d   0     -22.207  23.547  22.077  0.00  0.00    -0.650 OA
BRANCH  61  63
ATOM     63  O   UNK d   0     -22.215  21.693  20.772  0.00  0.00    -0.776 OA
ATOM     64  H   UNK d   0     -22.737  21.109  21.401  0.00  0.00     0.167 HD
ENDBRANCH  61  63
ENDBRANCH  60  61
ENDBRANCH  18  60
BRANCH  14  65
ATOM     65  C   UNK d   0     -19.164  25.819  21.642  0.00  0.00     0.052 C 
BRANCH  65  66
ATOM     66  C   UNK d   0     -19.933  26.067  22.891  0.00  0.00     0.115 C 
BRANCH  66  67
ATOM     67  C   UNK d   0     -19.239  26.430  24.094  0.00  0.00     0.139 C 
ATOM     68  O   UNK d   0     -19.056  25.528  24.992  0.00  0.00    -0.650 OA
BRANCH  67  69
ATOM     69  O   UNK d   0     -18.717  27.677  24.434  0.00  0.00    -0.776 OA
ATOM     70  H   UNK d   0     -18.293  27.745  25.371  0.00  0.00     0.167 HD
ENDBRANCH  67  69
ENDBRANCH  66  67
ENDBRANCH  65  66
ENDBRANCH  14  65
ENDBRANCH   6   7
ENDBRANCH   5   6
ENDBRANCH   2   5
TORSDOF 28
ENDMDL
MODEL 15
REMARK VINA RESULT:      -6.8      2.103      8.022
REMARK  28 active torsions:
REMARK  status: ('A' for Active; 'I' for Inactive)
REMARK    1  A    between atoms: C_2  and  O_3 
REMARK    2  A    between atoms: C_2  and  C_4 
REMARK    3  A    between atoms: C_4  and  C_5 
REMARK    4  A    between atoms: C_5  and  C_6 
REMARK    5  A    between atoms: C_7  and  C_8 
REMARK    6  A    between atoms: C_8  and  C_9 
REMARK    7  A    between atoms: C_9  and  O_11 
REMARK    8  A    between atoms: C_28  and  C_29 
REMARK    9  A    between atoms: C_29  and  C_30 
REMARK   10  A    between atoms: C_30  and  O_32 
REMARK   11  A    between atoms: C_33  and  C_34 
REMARK   12  A    between atoms: C_34  and  C_35 
REMARK   13  A    between atoms: C_35  and  C_36 
REMARK   14  A    between atoms: C_36  and  O_38 
REMARK   15  A    between atoms: C_39  and  C_40 
REMARK   16  A    between atoms: C_40  and  C_41 
REMARK   17  A    between atoms: C_41  and  C_42 
REMARK   18  A    between atoms: C_42  and  O_44 
REMARK   19  A    between atoms: C_45  and  C_46 
REMARK   20  A    between atoms: C_46  and  C_47 
REMARK   21  A    between atoms: C_47  and  O_49 
REMARK   22  A    between atoms: C_50  and  C_51 
REMARK   23  A    between atoms: C_51  and  C_52 
REMARK   24  A    between atoms: C_52  and  O_54 
REMARK   25  A    between atoms: C_55  and  C_56 
REMARK   26  A    between atoms: C_56  and  C_57 
REMARK   27  A    between atoms: C_57  and  C_58 
REMARK   28  A    between atoms: C_58  and  O_60 
ROOT
ATOM      1  O   UNK d   0     -22.428  35.132  17.624  0.00  0.00    -0.650 OA
ATOM      2  C   UNK d   0     -21.325  34.600  17.882  0.00  0.00     0.139 C 
ENDROOT
BRANCH   2   3
ATOM      3  O   UNK d   0     -20.173  35.164  17.389  0.00  0.00    -0.776 OA
ATOM      4  H   UNK d   0     -19.514  34.617  16.832  0.00  0.00     0.167 HD
ENDBRANCH   2   3
BRANCH   2   5
ATOM      5  C   UNK d   0     -21.267  33.365  18.715  0.00  0.00     0.115 C 
BRANCH   5   6
ATOM      6  C   UNK d   0     -22.643  33.005  19.203  0.00  0.00     0.052 C 
BRANCH   6   7
ATOM      7  C   UNK d   0     -23.086  31.638  18.737  0.00  0.00    -0.020 A 
ATOM      8  C   UNK d   0     -23.989  31.356  17.834  0.00  0.00    -0.011 A 
ATOM      9  C   UNK d   0     -24.079  29.909  17.730  0.00  0.00     0.067 A 
ATOM     10  C   UNK d   0     -24.812  28.993  16.961  0.00  0.00     0.062 C 
ATOM     11  N   UNK d   0     -23.199  29.389  18.612  0.00  0.00    -0.248 NA
ATOM     12  C   UNK d   0     -24.560  27.625  16.804  0.00  0.00     0.041 A 
ATOM     13  N   UNK d   0     -24.212  26.680  17.698  0.00  0.00    -0.355 N 
ATOM     14  C   UNK d   0     -24.605  27.068  15.514  0.00  0.00    -0.022 A 
ATOM     15  C   UNK d   0     -24.027  25.540  17.007  0.00  0.00     0.042 A 
ATOM     16  H   UNK d   0     -24.117  26.812  18.799  0.00  0.00     0.166 HD
ATOM     17  C   UNK d   0     -23.657  24.254  17.448  0.00  0.00     0.062 C 
ATOM     18  C   UNK d   0     -24.264  25.744  15.634  0.00  0.00    -0.013 A 
ATOM     19  C   UNK d   0     -22.675  23.896  18.336  0.00  0.00     0.067 A 
ATOM     20  N   UNK d   0     -22.108  24.879  19.039  0.00  0.00    -0.248 NA
ATOM     21  C   UNK d   0     -22.030  22.657  18.737  0.00  0.00    -0.011 A 
ATOM     22  C   UNK d   0     -21.138  24.373  19.870  0.00  0.00     0.066 A 
ATOM     23  C   UNK d   0     -20.491  25.286  20.690  0.00  0.00     0.062 C 
ATOM     24  C   UNK d   0     -21.129  22.943  19.632  0.00  0.00    -0.020 A 
ATOM     25  C   UNK d   0     -20.768  26.654  20.841  0.00  0.00     0.041 A 
ATOM     26  N   UNK d   0     -21.100  27.596  19.951  0.00  0.00    -0.355 N 
ATOM     27  C   UNK d   0     -20.727  27.211  22.138  0.00  0.00    -0.022 A 
ATOM     28  C   UNK d   0     -21.276  28.736  20.637  0.00  0.00     0.042 A 
ATOM     29  H   UNK d   0     -21.184  27.465  18.844  0.00  0.00     0.166 HD
ATOM     30  C   UNK d   0     -21.634  30.025  20.210  0.00  0.00     0.062 C 
ATOM     31  C   UNK d   0     -21.048  28.528  22.018  0.00  0.00    -0.013 A 
ATOM     32  C   UNK d   0     -22.569  30.377  19.249  0.00  0.00     0.066 A 
BRANCH   8  33
ATOM     33  C   UNK d   0     -24.788  32.317  17.052  0.00  0.00     0.151 C 
BRANCH  33  34
ATOM     34  C   UNK d   0     -24.299  32.476  15.670  0.00  0.00     0.143 C 
ATOM     35  O   UNK d   0     -24.685  31.719  14.768  0.00  0.00    -0.650 OA
BRANCH  34  36
ATOM     36  O   UNK d   0     -23.402  33.478  15.382  0.00  0.00    -0.776 OA
ATOM     37  H   UNK d   0     -22.873  33.484  14.499  0.00  0.00     0.167 HD
ENDBRANCH  34  36
ENDBRANCH  33  34
ENDBRANCH   8  33
BRANCH  31  38
ATOM     38  C   UNK d   0     -21.146  29.528  23.146  0.00  0.00     0.151 C 
BRANCH  38  39
ATOM     39  C   UNK d   0     -19.871  30.128  23.477  0.00  0.00     0.143 C 
ATOM     40  O   UNK d   0     -19.057  30.483  22.606  0.00  0.00    -0.650 OA
BRANCH  39  41
ATOM     41  O   UNK d   0     -19.530  30.322  24.815  0.00  0.00    -0.776 OA
ATOM     42  H   UNK d   0     -20.300  30.329  25.491  0.00  0.00     0.167 HD
ENDBRANCH  39  41
ENDBRANCH  38  39
ENDBRANCH  31  38
BRANCH  27  43
ATOM     43  C   UNK d   0     -20.399  26.552  23.454  0.00  0.00     0.052 C 
BRANCH  43  44
ATOM     44  C   UNK d   0     -18.941  26.577  23.781  0.00  0.00     0.115 C 
BRANCH  44  45
ATOM     45  C   UNK d   0     -18.574  25.196  24.191  0.00  0.00     0.139 C 
ATOM     46  O   UNK d   0     -17.923  25.048  25.254  0.00  0.00    -0.650 OA
BRANCH  45  47
ATOM     47  O   UNK d   0     -18.923  24.082  23.458  0.00  0.00    -0.776 OA
ATOM     48  H   UNK d   0     -19.275  23.214  23.893  0.00  0.00     0.167 HD
ENDBRANCH  45  47
ENDBRANCH  44  45
ENDBRANCH  43  44
ENDBRANCH  27  43
BRANCH  24  49
ATOM     49  C   UNK d   0     -20.267  21.979  20.336  0.00  0.00     0.052 C 
BRANCH  49  50
ATOM     50  C   UNK d   0     -19.256  21.389  19.387  0.00  0.00     0.115 C 
BRANCH  50  51
ATOM     51  C   UNK d   0     -19.046  19.949  19.450  0.00  0.00     0.139 C 
ATOM     52  O   UNK d   0     -17.921  19.438  19.663  0.00  0.00    -0.650 OA
BRANCH  51  53
ATOM     53  O   UNK d   0     -20.119  19.090  19.268  0.00  0.00    -0.776 OA
ATOM     54  H   UNK d   0     -20.861  19.381  18.656  0.00  0.00     0.167 HD
ENDBRANCH  51  53
ENDBRANCH  50  51
ENDBRANCH  49  50
ENDBRANCH  24  49
BRANCH  21  55
ATOM     55  C   UNK d   0     -22.385  21.315  18.187  0.00  0.00     0.151 C 
BRANCH  55  56
ATOM     56  C   UNK d   0     -23.367  20.615  19.031  0.00  0.00     0.143 C 
ATOM     57  O   UNK d   0     -24.561  20.965  19.108  0.00  0.00    -0.650 OA
BRANCH  56  58
ATOM     58  O   UNK d   0     -22.925  19.517  19.767  0.00  0.00    -0.776 OA
ATOM     59  H   UNK d   0     -22.354  18.837  19.234  0.00  0.00     0.167 HD
ENDBRANCH  56  58
ENDBRANCH  55  56
ENDBRANCH  21  55
BRANCH  18  60
ATOM     60  C   UNK d   0     -24.177  24.766  14.488  0.00  0.00     0.151 C 
BRANCH  60  61
ATOM     61  C   UNK d   0     -22.744  24.608  14.199  0.00  0.00     0.143 C 
ATOM     62  O   UNK d   0     -21.810  25.218  14.722  0.00  0.00    -0.650 OA
BRANCH  61  63
ATOM     63  O   UNK d   0     -22.431  23.644  13.211  0.00  0.00    -0.776 OA
ATOM     64  H   UNK d   0     -23.030  22.855  13.048  0.00  0.00     0.167 HD
ENDBRANCH  61  63
ENDBRANCH  60  61
ENDBRANCH  18  60
BRANCH  14  65
ATOM     65  C   UNK d   0     -25.037  27.662  14.203  0.00  0.00     0.052 C 
BRANCH  65  66
ATOM     66  C   UNK d   0     -26.487  27.473  13.929  0.00  0.00     0.115 C 
BRANCH  66  67
ATOM     67  C   UNK d   0     -27.381  28.593  14.021  0.00  0.00     0.139 C 
ATOM     68  O   UNK d   0     -28.221  28.788  13.068  0.00  0.00    -0.650 OA
BRANCH  67  69
ATOM     69  O   UNK d   0     -27.464  29.536  15.045  0.00  0.00    -0.776 OA
ATOM     70  H   UNK d   0     -26.566  29.902  15.392  0.00  0.00     0.167 HD
ENDBRANCH  67  69
ENDBRANCH  66  67
ENDBRANCH  65  66
ENDBRANCH  14  65
ENDBRANCH   6   7
ENDBRANCH   5   6
ENDBRANCH   2   5
TORSDOF 28
ENDMDL
MODEL 16
REMARK VINA RESULT:      -6.8      3.537      9.765
REMARK  28 active torsions:
REMARK  status: ('A' for Active; 'I' for Inactive)
REMARK    1  A    between atoms: C_2  and  O_3 
REMARK    2  A    between atoms: C_2  and  C_4 
REMARK    3  A    between atoms: C_4  and  C_5 
REMARK    4  A    between atoms: C_5  and  C_6 
REMARK    5  A    between atoms: C_7  and  C_8 
REMARK    6  A    between atoms: C_8  and  C_9 
REMARK    7  A    between atoms: C_9  and  O_11 
REMARK    8  A    between atoms: C_28  and  C_29 
REMARK    9  A    between atoms: C_29  and  C_30 
REMARK   10  A    between atoms: C_30  and  O_32 
REMARK   11  A    between atoms: C_33  and  C_34 
REMARK   12  A    between atoms: C_34  and  C_35 
REMARK   13  A    between atoms: C_35  and  C_36 
REMARK   14  A    between atoms: C_36  and  O_38 
REMARK   15  A    between atoms: C_39  and  C_40 
REMARK   16  A    between atoms: C_40  and  C_41 
REMARK   17  A    between atoms: C_41  and  C_42 
REMARK   18  A    between atoms: C_42  and  O_44 
REMARK   19  A    between atoms: C_45  and  C_46 
REMARK   20  A    between atoms: C_46  and  C_47 
REMARK   21  A    between atoms: C_47  and  O_49 
REMARK   22  A    between atoms: C_50  and  C_51 
REMARK   23  A    between atoms: C_51  and  C_52 
REMARK   24  A    between atoms: C_52  and  O_54 
REMARK   25  A    between atoms: C_55  and  C_56 
REMARK   26  A    between atoms: C_56  and  C_57 
REMARK   27  A    between atoms: C_57  and  C_58 
REMARK   28  A    between atoms: C_58  and  O_60 
ROOT
ATOM      1  O   UNK d   0     -23.948  15.198  17.955  0.00  0.00    -0.650 OA
ATOM      2  C   UNK d   0     -23.638  16.308  17.469  0.00  0.00     0.139 C 
ENDROOT
BRANCH   2   3
ATOM      3  O   UNK d   0     -23.912  16.566  16.148  0.00  0.00    -0.776 OA
ATOM      4  H   UNK d   0     -24.764  16.214  15.707  0.00  0.00     0.167 HD
ENDBRANCH   2   3
BRANCH   2   5
ATOM      5  C   UNK d   0     -22.976  17.338  18.320  0.00  0.00     0.115 C 
BRANCH   5   6
ATOM      6  C   UNK d   0     -23.974  18.385  18.735  0.00  0.00     0.052 C 
BRANCH   6   7
ATOM      7  C   UNK d   0     -23.547  19.781  18.346  0.00  0.00    -0.020 A 
ATOM      8  C   UNK d   0     -23.877  20.445  17.268  0.00  0.00    -0.011 A 
ATOM      9  C   UNK d   0     -23.220  21.741  17.326  0.00  0.00     0.067 A 
ATOM     10  C   UNK d   0     -23.177  22.891  16.523  0.00  0.00     0.062 C 
ATOM     11  N   UNK d   0     -22.506  21.777  18.471  0.00  0.00    -0.248 NA
ATOM     12  C   UNK d   0     -22.705  24.158  16.882  0.00  0.00     0.041 A 
ATOM     13  N   UNK d   0     -21.612  24.533  17.574  0.00  0.00    -0.355 N 
ATOM     14  C   UNK d   0     -23.471  25.290  16.548  0.00  0.00    -0.022 A 
ATOM     15  C   UNK d   0     -21.670  25.873  17.694  0.00  0.00     0.042 A 
ATOM     16  H   UNK d   0     -20.807  23.866  17.953  0.00  0.00     0.166 HD
ATOM     17  C   UNK d   0     -20.784  26.772  18.321  0.00  0.00     0.062 C 
ATOM     18  C   UNK d   0     -22.821  26.383  17.064  0.00  0.00    -0.013 A 
ATOM     19  C   UNK d   0     -20.176  26.670  19.546  0.00  0.00     0.067 A 
ATOM     20  N   UNK d   0     -20.256  25.489  20.165  0.00  0.00    -0.248 NA
ATOM     21  C   UNK d   0     -19.429  27.561  20.419  0.00  0.00    -0.011 A 
ATOM     22  C   UNK d   0     -19.617  25.543  21.379  0.00  0.00     0.066 A 
ATOM     23  C   UNK d   0     -19.592  24.368  22.115  0.00  0.00     0.062 C 
ATOM     24  C   UNK d   0     -19.109  26.896  21.492  0.00  0.00    -0.020 A 
ATOM     25  C   UNK d   0     -20.061  23.102  21.731  0.00  0.00     0.041 A 
ATOM     26  N   UNK d   0     -21.154  22.728  21.056  0.00  0.00    -0.355 N 
ATOM     27  C   UNK d   0     -19.289  21.967  22.063  0.00  0.00    -0.022 A 
ATOM     28  C   UNK d   0     -21.104  21.391  20.942  0.00  0.00     0.042 A 
ATOM     29  H   UNK d   0     -21.968  23.398  20.685  0.00  0.00     0.166 HD
ATOM     30  C   UNK d   0     -21.982  20.483  20.329  0.00  0.00     0.062 C 
ATOM     31  C   UNK d   0     -19.941  20.880  21.567  0.00  0.00    -0.013 A 
ATOM     32  C   UNK d   0     -22.661  20.628  19.130  0.00  0.00     0.066 A 
BRANCH   8  33
ATOM     33  C   UNK d   0     -24.751  19.981  16.175  0.00  0.00     0.151 C 
BRANCH  33  34
ATOM     34  C   UNK d   0     -24.050  19.892  14.882  0.00  0.00     0.143 C 
ATOM     35  O   UNK d   0     -24.404  20.584  13.917  0.00  0.00    -0.650 OA
BRANCH  34  36
ATOM     36  O   UNK d   0     -22.988  19.028  14.748  0.00  0.00    -0.776 OA
ATOM     37  H   UNK d   0     -22.310  19.130  13.981  0.00  0.00     0.167 HD
ENDBRANCH  34  36
ENDBRANCH  33  34
ENDBRANCH   8  33
BRANCH  31  38
ATOM     38  C   UNK d   0     -19.484  19.444  21.667  0.00  0.00     0.151 C 
BRANCH  38  39
ATOM     39  C   UNK d   0     -18.551  19.077  20.623  0.00  0.00     0.143 C 
ATOM     40  O   UNK d   0     -18.698  19.438  19.443  0.00  0.00    -0.650 OA
BRANCH  39  41
ATOM     41  O   UNK d   0     -17.442  18.292  20.939  0.00  0.00    -0.776 OA
ATOM     42  H   UNK d   0     -16.781  18.101  20.180  0.00  0.00     0.167 HD
ENDBRANCH  39  41
ENDBRANCH  38  39
ENDBRANCH  31  38
BRANCH  27  43
ATOM     43  C   UNK d   0     -17.986  21.881  22.818  0.00  0.00     0.052 C 
BRANCH  43  44
ATOM     44  C   UNK d   0     -18.166  21.616  24.278  0.00  0.00     0.115 C 
BRANCH  44  45
ATOM     45  C   UNK d   0     -17.983  22.917  24.971  0.00  0.00     0.139 C 
ATOM     46  O   UNK d   0     -16.871  23.492  24.868  0.00  0.00    -0.650 OA
BRANCH  45  47
ATOM     47  O   UNK d   0     -18.979  23.516  25.712  0.00  0.00    -0.776 OA
ATOM     48  H   UNK d   0     -19.886  23.059  25.904  0.00  0.00     0.167 HD
ENDBRANCH  45  47
ENDBRANCH  44  45
ENDBRANCH  43  44
ENDBRANCH  27  43
BRANCH  24  49
ATOM     49  C   UNK d   0     -18.315  27.405  22.624  0.00  0.00     0.052 C 
BRANCH  49  50
ATOM     50  C   UNK d   0     -19.212  27.726  23.792  0.00  0.00     0.115 C 
BRANCH  50  51
ATOM     51  C   UNK d   0     -19.311  26.727  24.848  0.00  0.00     0.139 C 
ATOM     52  O   UNK d   0     -20.397  26.194  25.174  0.00  0.00    -0.650 OA
BRANCH  51  53
ATOM     53  O   UNK d   0     -18.171  26.339  25.534  0.00  0.00    -0.776 OA
ATOM     54  H   UNK d   0     -17.324  26.202  25.010  0.00  0.00     0.167 HD
ENDBRANCH  51  53
ENDBRANCH  50  51
ENDBRANCH  49  50
ENDBRANCH  24  49
BRANCH  21  55
ATOM     55  C   UNK d   0     -19.109  28.981  20.088  0.00  0.00     0.151 C 
BRANCH  55  56
ATOM     56  C   UNK d   0     -20.105  29.913  20.640  0.00  0.00     0.143 C 
ATOM     57  O   UNK d   0     -21.331  29.696  20.593  0.00  0.00    -0.650 OA
BRANCH  56  58
ATOM     58  O   UNK d   0     -19.637  31.082  21.237  0.00  0.00    -0.776 OA
ATOM     59  H   UNK d   0     -18.768  30.973  21.790  0.00  0.00     0.167 HD
ENDBRANCH  56  58
ENDBRANCH  55  56
ENDBRANCH  21  55
BRANCH  18  60
ATOM     60  C   UNK d   0     -23.300  27.809  16.945  0.00  0.00     0.151 C 
BRANCH  60  61
ATOM     61  C   UNK d   0     -24.071  28.079  18.168  0.00  0.00     0.143 C 
ATOM     62  O   UNK d   0     -24.264  27.308  19.109  0.00  0.00    -0.650 OA
BRANCH  61  63
ATOM     63  O   UNK d   0     -24.642  29.372  18.248  0.00  0.00    -0.776 OA
ATOM     64  H   UNK d   0     -24.915  29.764  19.131  0.00  0.00     0.167 HD
ENDBRANCH  61  63
ENDBRANCH  60  61
ENDBRANCH  18  60
BRANCH  14  65
ATOM     65  C   UNK d   0     -24.705  25.424  15.702  0.00  0.00     0.052 C 
BRANCH  65  66
ATOM     66  C   UNK d   0     -24.407  25.526  14.248  0.00  0.00     0.115 C 
BRANCH  66  67
ATOM     67  C   UNK d   0     -24.704  24.420  13.382  0.00  0.00     0.139 C 
ATOM     68  O   UNK d   0     -25.871  24.357  12.846  0.00  0.00    -0.650 OA
BRANCH  67  69
ATOM     69  O   UNK d   0     -23.865  23.363  13.029  0.00  0.00    -0.776 OA
ATOM     70  H   UNK d   0     -22.995  23.625  12.542  0.00  0.00     0.167 HD
ENDBRANCH  67  69
ENDBRANCH  66  67
ENDBRANCH  65  66
ENDBRANCH  14  65
ENDBRANCH   6   7
ENDBRANCH   5   6
ENDBRANCH   2   5
TORSDOF 28
ENDMDL
MODEL 17
REMARK VINA RESULT:      -6.7      5.961     11.356
REMARK  28 active torsions:
REMARK  status: ('A' for Active; 'I' for Inactive)
REMARK    1  A    between atoms: C_2  and  O_3 
REMARK    2  A    between atoms: C_2  and  C_4 
REMARK    3  A    between atoms: C_4  and  C_5 
REMARK    4  A    between atoms: C_5  and  C_6 
REMARK    5  A    between atoms: C_7  and  C_8 
REMARK    6  A    between atoms: C_8  and  C_9 
REMARK    7  A    between atoms: C_9  and  O_11 
REMARK    8  A    between atoms: C_28  and  C_29 
REMARK    9  A    between atoms: C_29  and  C_30 
REMARK   10  A    between atoms: C_30  and  O_32 
REMARK   11  A    between atoms: C_33  and  C_34 
REMARK   12  A    between atoms: C_34  and  C_35 
REMARK   13  A    between atoms: C_35  and  C_36 
REMARK   14  A    between atoms: C_36  and  O_38 
REMARK   15  A    between atoms: C_39  and  C_40 
REMARK   16  A    between atoms: C_40  and  C_41 
REMARK   17  A    between atoms: C_41  and  C_42 
REMARK   18  A    between atoms: C_42  and  O_44 
REMARK   19  A    between atoms: C_45  and  C_46 
REMARK   20  A    between atoms: C_46  and  C_47 
REMARK   21  A    between atoms: C_47  and  O_49 
REMARK   22  A    between atoms: C_50  and  C_51 
REMARK   23  A    between atoms: C_51  and  C_52 
REMARK   24  A    between atoms: C_52  and  O_54 
REMARK   25  A    between atoms: C_55  and  C_56 
REMARK   26  A    between atoms: C_56  and  C_57 
REMARK   27  A    between atoms: C_57  and  C_58 
REMARK   28  A    between atoms: C_58  and  O_60 
ROOT
ATOM      1  O   UNK d   0     -27.233  14.193  17.457  0.00  0.00    -0.650 OA
ATOM      2  C   UNK d   0     -27.278  14.411  18.688  0.00  0.00     0.139 C 
ENDROOT
BRANCH   2   3
ATOM      3  O   UNK d   0     -28.254  15.236  19.191  0.00  0.00    -0.776 OA
ATOM      4  H   UNK d   0     -29.218  15.177  18.858  0.00  0.00     0.167 HD
ENDBRANCH   2   3
BRANCH   2   5
ATOM      5  C   UNK d   0     -26.279  13.779  19.597  0.00  0.00     0.115 C 
BRANCH   5   6
ATOM      6  C   UNK d   0     -24.888  13.990  19.064  0.00  0.00     0.052 C 
BRANCH   6   7
ATOM      7  C   UNK d   0     -24.382  15.394  19.299  0.00  0.00    -0.020 A 
ATOM      8  C   UNK d   0     -23.880  15.887  20.402  0.00  0.00    -0.011 A 
ATOM      9  C   UNK d   0     -23.542  17.278  20.154  0.00  0.00     0.067 A 
ATOM     10  C   UNK d   0     -22.968  18.328  20.889  0.00  0.00     0.062 C 
ATOM     11  N   UNK d   0     -23.878  17.550  18.875  0.00  0.00    -0.248 NA
ATOM     12  C   UNK d   0     -22.461  19.533  20.390  0.00  0.00     0.041 A 
ATOM     13  N   UNK d   0     -22.938  20.375  19.454  0.00  0.00    -0.355 N 
ATOM     14  C   UNK d   0     -21.215  19.991  20.855  0.00  0.00    -0.022 A 
ATOM     15  C   UNK d   0     -22.023  21.352  19.308  0.00  0.00     0.042 A 
ATOM     16  H   UNK d   0     -23.911  20.292  18.922  0.00  0.00     0.166 HD
ATOM     17  C   UNK d   0     -22.020  22.482  18.465  0.00  0.00     0.062 C 
ATOM     18  C   UNK d   0     -20.928  21.145  20.169  0.00  0.00    -0.013 A 
ATOM     19  C   UNK d   0     -22.352  22.568  17.137  0.00  0.00     0.067 A 
ATOM     20  N   UNK d   0     -22.946  21.504  16.592  0.00  0.00    -0.248 NA
ATOM     21  C   UNK d   0     -22.211  23.564  16.088  0.00  0.00    -0.011 A 
ATOM     22  C   UNK d   0     -23.203  21.731  15.262  0.00  0.00     0.066 A 
ATOM     23  C   UNK d   0     -23.855  20.716  14.578  0.00  0.00     0.062 C 
ATOM     24  C   UNK d   0     -22.707  23.066  14.992  0.00  0.00    -0.020 A 
ATOM     25  C   UNK d   0     -24.367  19.518  15.100  0.00  0.00     0.041 A 
ATOM     26  N   UNK d   0     -23.887  18.673  16.019  0.00  0.00    -0.355 N 
ATOM     27  C   UNK d   0     -25.620  19.061  14.636  0.00  0.00    -0.022 A 
ATOM     28  C   UNK d   0     -24.793  17.693  16.161  0.00  0.00     0.042 A 
ATOM     29  H   UNK d   0     -22.904  18.752  16.546  0.00  0.00     0.166 HD
ATOM     30  C   UNK d   0     -24.805  16.559  16.988  0.00  0.00     0.062 C 
ATOM     31  C   UNK d   0     -25.898  17.907  15.303  0.00  0.00    -0.013 A 
ATOM     32  C   UNK d   0     -24.388  16.457  18.306  0.00  0.00     0.066 A 
BRANCH   8  33
ATOM     33  C   UNK d   0     -23.687  15.178  21.681  0.00  0.00     0.151 C 
BRANCH  33  34
ATOM     34  C   UNK d   0     -22.313  14.673  21.852  0.00  0.00     0.143 C 
ATOM     35  O   UNK d   0     -22.037  13.488  21.619  0.00  0.00    -0.650 OA
BRANCH  34  36
ATOM     36  O   UNK d   0     -21.326  15.532  22.278  0.00  0.00    -0.776 OA
ATOM     37  H   UNK d   0     -21.201  15.748  23.276  0.00  0.00     0.167 HD
ENDBRANCH  34  36
ENDBRANCH  33  34
ENDBRANCH   8  33
BRANCH  31  38
ATOM     38  C   UNK d   0     -27.142  17.064  15.146  0.00  0.00     0.151 C 
BRANCH  38  39
ATOM     39  C   UNK d   0     -28.198  17.448  16.059  0.00  0.00     0.143 C 
ATOM     40  O   UNK d   0     -28.009  17.571  17.282  0.00  0.00    -0.650 OA
BRANCH  39  41
ATOM     41  O   UNK d   0     -29.479  17.691  15.562  0.00  0.00    -0.776 OA
ATOM     42  H   UNK d   0     -30.198  17.948  16.246  0.00  0.00     0.167 HD
ENDBRANCH  39  41
ENDBRANCH  38  39
ENDBRANCH  31  38
BRANCH  27  43
ATOM     43  C   UNK d   0     -26.540  19.667  13.605  0.00  0.00     0.052 C 
BRANCH  43  44
ATOM     44  C   UNK d   0     -27.721  20.360  14.202  0.00  0.00     0.115 C 
BRANCH  44  45
ATOM     45  C   UNK d   0     -27.492  21.818  14.026  0.00  0.00     0.139 C 
ATOM     46  O   UNK d   0     -26.837  22.424  14.909  0.00  0.00    -0.650 OA
BRANCH  45  47
ATOM     47  O   UNK d   0     -27.960  22.522  12.938  0.00  0.00    -0.776 OA
ATOM     48  H   UNK d   0     -28.853  23.042  12.950  0.00  0.00     0.167 HD
ENDBRANCH  45  47
ENDBRANCH  44  45
ENDBRANCH  43  44
ENDBRANCH  27  43
BRANCH  24  49
ATOM     49  C   UNK d   0     -22.805  23.753  13.693  0.00  0.00     0.052 C 
BRANCH  49  50
ATOM     50  C   UNK d   0     -23.951  24.732  13.701  0.00  0.00     0.115 C 
BRANCH  50  51
ATOM     51  C   UNK d   0     -25.134  24.377  12.928  0.00  0.00     0.139 C 
ATOM     52  O   UNK d   0     -26.158  25.099  12.889  0.00  0.00    -0.650 OA
BRANCH  51  53
ATOM     53  O   UNK d   0     -25.150  23.196  12.201  0.00  0.00    -0.776 OA
ATOM     54  H   UNK d   0     -24.514  22.465  12.468  0.00  0.00     0.167 HD
ENDBRANCH  51  53
ENDBRANCH  50  51
ENDBRANCH  49  50
ENDBRANCH  24  49
BRANCH  21  55
ATOM     55  C   UNK d   0     -21.600  24.911  16.291  0.00  0.00     0.151 C 
BRANCH  55  56
ATOM     56  C   UNK d   0     -20.169  24.823  16.618  0.00  0.00     0.143 C 
ATOM     57  O   UNK d   0     -19.630  25.533  17.490  0.00  0.00    -0.650 OA
BRANCH  56  58
ATOM     58  O   UNK d   0     -19.397  23.902  15.911  0.00  0.00    -0.776 OA
ATOM     59  H   UNK d   0     -19.792  22.945  15.866  0.00  0.00     0.167 HD
ENDBRANCH  56  58
ENDBRANCH  55  56
ENDBRANCH  21  55
BRANCH  18  60
ATOM     60  C   UNK d   0     -19.678  21.969  20.349  0.00  0.00     0.151 C 
BRANCH  60  61
ATOM     61  C   UNK d   0     -18.739  21.510  19.313  0.00  0.00     0.143 C 
ATOM     62  O   UNK d   0     -18.807  21.726  18.102  0.00  0.00    -0.650 OA
BRANCH  61  63
ATOM     63  O   UNK d   0     -17.650  20.740  19.785  0.00  0.00    -0.776 OA
ATOM     64  H   UNK d   0     -16.707  21.080  19.720  0.00  0.00     0.167 HD
ENDBRANCH  61  63
ENDBRANCH  60  61
ENDBRANCH  18  60
BRANCH  14  65
ATOM     65  C   UNK d   0     -20.331  19.480  21.957  0.00  0.00     0.052 C 
BRANCH  65  66
ATOM     66  C   UNK d   0     -19.390  18.421  21.503  0.00  0.00     0.115 C 
BRANCH  66  67
ATOM     67  C   UNK d   0     -18.403  17.909  22.412  0.00  0.00     0.139 C 
ATOM     68  O   UNK d   0     -18.685  16.857  23.095  0.00  0.00    -0.650 OA
BRANCH  67  69
ATOM     69  O   UNK d   0     -17.130  18.418  22.665  0.00  0.00    -0.776 OA
ATOM     70  H   UNK d   0     -16.986  18.821  23.602  0.00  0.00     0.167 HD
ENDBRANCH  67  69
ENDBRANCH  66  67
ENDBRANCH  65  66
ENDBRANCH  14  65
ENDBRANCH   6   7
ENDBRANCH   5   6
ENDBRANCH   2   5
TORSDOF 28
ENDMDL
MODEL 18
REMARK VINA RESULT:      -6.6      1.929      7.799
REMARK  28 active torsions:
REMARK  status: ('A' for Active; 'I' for Inactive)
REMARK    1  A    between atoms: C_2  and  O_3 
REMARK    2  A    between atoms: C_2  and  C_4 
REMARK    3  A    between atoms: C_4  and  C_5 
REMARK    4  A    between atoms: C_5  and  C_6 
REMARK    5  A    between atoms: C_7  and  C_8 
REMARK    6  A    between atoms: C_8  and  C_9 
REMARK    7  A    between atoms: C_9  and  O_11 
REMARK    8  A    between atoms: C_28  and  C_29 
REMARK    9  A    between atoms: C_29  and  C_30 
REMARK   10  A    between atoms: C_30  and  O_32 
REMARK   11  A    between atoms: C_33  and  C_34 
REMARK   12  A    between atoms: C_34  and  C_35 
REMARK   13  A    between atoms: C_35  and  C_36 
REMARK   14  A    between atoms: C_36  and  O_38 
REMARK   15  A    between atoms: C_39  and  C_40 
REMARK   16  A    between atoms: C_40  and  C_41 
REMARK   17  A    between atoms: C_41  and  C_42 
REMARK   18  A    between atoms: C_42  and  O_44 
REMARK   19  A    between atoms: C_45  and  C_46 
REMARK   20  A    between atoms: C_46  and  C_47 
REMARK   21  A    between atoms: C_47  and  O_49 
REMARK   22  A    between atoms: C_50  and  C_51 
REMARK   23  A    between atoms: C_51  and  C_52 
REMARK   24  A    between atoms: C_52  and  O_54 
REMARK   25  A    between atoms: C_55  and  C_56 
REMARK   26  A    between atoms: C_56  and  C_57 
REMARK   27  A    between atoms: C_57  and  C_58 
REMARK   28  A    between atoms: C_58  and  O_60 
ROOT
ATOM      1  O   UNK d   0     -19.018  22.264  24.633  0.00  0.00    -0.650 OA
ATOM      2  C   UNK d   0     -19.570  23.100  23.884  0.00  0.00     0.139 C 
ENDROOT
BRANCH   2   3
ATOM      3  O   UNK d   0     -19.467  24.439  24.176  0.00  0.00    -0.776 OA
ATOM      4  H   UNK d   0     -18.807  25.039  23.676  0.00  0.00     0.167 HD
ENDBRANCH   2   3
BRANCH   2   5
ATOM      5  C   UNK d   0     -20.333  22.644  22.687  0.00  0.00     0.115 C 
BRANCH   5   6
ATOM      6  C   UNK d   0     -19.480  22.765  21.453  0.00  0.00     0.052 C 
BRANCH   6   7
ATOM      7  C   UNK d   0     -20.263  23.230  20.249  0.00  0.00    -0.020 A 
ATOM      8  C   UNK d   0     -20.667  22.512  19.233  0.00  0.00    -0.011 A 
ATOM      9  C   UNK d   0     -21.374  23.392  18.318  0.00  0.00     0.067 A 
ATOM     10  C   UNK d   0     -22.046  23.251  17.094  0.00  0.00     0.062 C 
ATOM     11  N   UNK d   0     -21.348  24.630  18.853  0.00  0.00    -0.248 NA
ATOM     12  C   UNK d   0     -22.913  24.171  16.493  0.00  0.00     0.041 A 
ATOM     13  N   UNK d   0     -22.831  25.508  16.357  0.00  0.00    -0.355 N 
ATOM     14  C   UNK d   0     -24.130  23.710  15.959  0.00  0.00    -0.022 A 
ATOM     15  C   UNK d   0     -23.969  25.908  15.758  0.00  0.00     0.042 A 
ATOM     16  H   UNK d   0     -21.978  26.154  16.661  0.00  0.00     0.166 HD
ATOM     17  C   UNK d   0     -24.398  27.197  15.382  0.00  0.00     0.062 C 
ATOM     18  C   UNK d   0     -24.808  24.809  15.493  0.00  0.00    -0.013 A 
ATOM     19  C   UNK d   0     -24.340  28.368  16.094  0.00  0.00     0.067 A 
ATOM     20  N   UNK d   0     -23.610  28.359  17.212  0.00  0.00    -0.248 NA
ATOM     21  C   UNK d   0     -24.904  29.700  15.961  0.00  0.00    -0.011 A 
ATOM     22  C   UNK d   0     -23.658  29.589  17.821  0.00  0.00     0.066 A 
ATOM     23  C   UNK d   0     -22.909  29.733  18.980  0.00  0.00     0.062 C 
ATOM     24  C   UNK d   0     -24.505  30.409  16.977  0.00  0.00    -0.020 A 
ATOM     25  C   UNK d   0     -22.035  28.801  19.561  0.00  0.00     0.041 A 
ATOM     26  N   UNK d   0     -22.123  27.474  19.709  0.00  0.00    -0.355 N 
ATOM     27  C   UNK d   0     -20.811  29.264  20.092  0.00  0.00    -0.022 A 
ATOM     28  C   UNK d   0     -20.993  27.073  20.314  0.00  0.00     0.042 A 
ATOM     29  H   UNK d   0     -22.985  26.828  19.412  0.00  0.00     0.166 HD
ATOM     30  C   UNK d   0     -20.557  25.796  20.702  0.00  0.00     0.062 C 
ATOM     31  C   UNK d   0     -20.146  28.177  20.570  0.00  0.00    -0.013 A 
ATOM     32  C   UNK d   0     -20.695  24.600  20.016  0.00  0.00     0.066 A 
BRANCH   8  33
ATOM     33  C   UNK d   0     -20.449  21.067  19.028  0.00  0.00     0.151 C 
BRANCH  33  34
ATOM     34  C   UNK d   0     -21.604  20.252  19.445  0.00  0.00     0.143 C 
ATOM     35  O   UNK d   0     -21.727  19.875  20.619  0.00  0.00    -0.650 OA
BRANCH  34  36
ATOM     36  O   UNK d   0     -22.556  19.904  18.515  0.00  0.00    -0.776 OA
ATOM     37  H   UNK d   0     -23.280  19.204  18.727  0.00  0.00     0.167 HD
ENDBRANCH  34  36
ENDBRANCH  33  34
ENDBRANCH   8  33
BRANCH  31  38
ATOM     38  C   UNK d   0     -18.782  28.181  21.220  0.00  0.00     0.151 C 
BRANCH  38  39
ATOM     39  C   UNK d   0     -18.797  27.639  22.562  0.00  0.00     0.143 C 
ATOM     40  O   UNK d   0     -19.566  28.063  23.442  0.00  0.00    -0.650 OA
BRANCH  39  41
ATOM     41  O   UNK d   0     -17.924  26.604  22.893  0.00  0.00    -0.776 OA
ATOM     42  H   UNK d   0     -17.058  26.537  22.348  0.00  0.00     0.167 HD
ENDBRANCH  39  41
ENDBRANCH  38  39
ENDBRANCH  31  38
BRANCH  27  43
ATOM     43  C   UNK d   0     -20.267  30.669  20.162  0.00  0.00     0.052 C 
BRANCH  43  44
ATOM     44  C   UNK d   0     -20.915  31.501  21.221  0.00  0.00     0.115 C 
BRANCH  44  45
ATOM     45  C   UNK d   0     -20.175  31.235  22.482  0.00  0.00     0.139 C 
ATOM     46  O   UNK d   0     -18.942  31.475  22.507  0.00  0.00    -0.650 OA
BRANCH  45  47
ATOM     47  O   UNK d   0     -20.784  30.744  23.616  0.00  0.00    -0.776 OA
ATOM     48  H   UNK d   0     -21.237  29.816  23.652  0.00  0.00     0.167 HD
ENDBRANCH  45  47
ENDBRANCH  44  45
ENDBRANCH  43  44
ENDBRANCH  27  43
BRANCH  24  49
ATOM     49  C   UNK d   0     -24.811  31.829  17.220  0.00  0.00     0.052 C 
BRANCH  49  50
ATOM     50  C   UNK d   0     -23.885  32.710  16.420  0.00  0.00     0.115 C 
BRANCH  50  51
ATOM     51  C   UNK d   0     -22.846  33.420  17.153  0.00  0.00     0.139 C 
ATOM     52  O   UNK d   0     -21.930  34.058  16.582  0.00  0.00    -0.650 OA
BRANCH  51  53
ATOM     53  O   UNK d   0     -22.850  33.402  18.540  0.00  0.00    -0.776 OA
ATOM     54  H   UNK d   0     -23.011  34.267  19.026  0.00  0.00     0.167 HD
ENDBRANCH  51  53
ENDBRANCH  50  51
ENDBRANCH  49  50
ENDBRANCH  24  49
BRANCH  21  55
ATOM     55  C   UNK d   0     -25.780  30.127  14.830  0.00  0.00     0.151 C 
BRANCH  55  56
ATOM     56  C   UNK d   0     -27.139  29.576  14.946  0.00  0.00     0.143 C 
ATOM     57  O   UNK d   0     -27.623  28.792  14.106  0.00  0.00    -0.650 OA
BRANCH  56  58
ATOM     58  O   UNK d   0     -27.902  29.957  16.049  0.00  0.00    -0.776 OA
ATOM     59  H   UNK d   0     -27.371  30.424  16.806  0.00  0.00     0.167 HD
ENDBRANCH  56  58
ENDBRANCH  55  56
ENDBRANCH  21  55
BRANCH  18  60
ATOM     60  C   UNK d   0     -26.170  24.774  14.845  0.00  0.00     0.151 C 
BRANCH  60  61
ATOM     61  C   UNK d   0     -25.961  25.175  13.445  0.00  0.00     0.143 C 
ATOM     62  O   UNK d   0     -26.724  25.838  12.741  0.00  0.00    -0.650 OA
BRANCH  61  63
ATOM     63  O   UNK d   0     -24.744  24.738  12.869  0.00  0.00    -0.776 OA
ATOM     64  H   UNK d   0     -24.724  23.971  12.220  0.00  0.00     0.167 HD
ENDBRANCH  61  63
ENDBRANCH  60  61
ENDBRANCH  18  60
BRANCH  14  65
ATOM     65  C   UNK d   0     -24.652  22.314  15.768  0.00  0.00     0.052 C 
BRANCH  65  66
ATOM     66  C   UNK d   0     -23.880  21.537  14.761  0.00  0.00     0.115 C 
BRANCH  66  67
ATOM     67  C   UNK d   0     -23.696  22.070  13.440  0.00  0.00     0.139 C 
ATOM     68  O   UNK d   0     -24.660  21.966  12.596  0.00  0.00    -0.650 OA
BRANCH  67  69
ATOM     69  O   UNK d   0     -22.568  22.710  12.928  0.00  0.00    -0.776 OA
ATOM     70  H   UNK d   0     -22.399  22.582  11.920  0.00  0.00     0.167 HD
ENDBRANCH  67  69
ENDBRANCH  66  67
ENDBRANCH  65  66
ENDBRANCH  14  65
ENDBRANCH   6   7
ENDBRANCH   5   6
ENDBRANCH   2   5
TORSDOF 28
ENDMDL
MODEL 19
REMARK VINA RESULT:      -6.6      5.698     11.466
REMARK  28 active torsions:
REMARK  status: ('A' for Active; 'I' for Inactive)
REMARK    1  A    between atoms: C_2  and  O_3 
REMARK    2  A    between atoms: C_2  and  C_4 
REMARK    3  A    between atoms: C_4  and  C_5 
REMARK    4  A    between atoms: C_5  and  C_6 
REMARK    5  A    between atoms: C_7  and  C_8 
REMARK    6  A    between atoms: C_8  and  C_9 
REMARK    7  A    between atoms: C_9  and  O_11 
REMARK    8  A    between atoms: C_28  and  C_29 
REMARK    9  A    between atoms: C_29  and  C_30 
REMARK   10  A    between atoms: C_30  and  O_32 
REMARK   11  A    between atoms: C_33  and  C_34 
REMARK   12  A    between atoms: C_34  and  C_35 
REMARK   13  A    between atoms: C_35  and  C_36 
REMARK   14  A    between atoms: C_36  and  O_38 
REMARK   15  A    between atoms: C_39  and  C_40 
REMARK   16  A    between atoms: C_40  and  C_41 
REMARK   17  A    between atoms: C_41  and  C_42 
REMARK   18  A    between atoms: C_42  and  O_44 
REMARK   19  A    between atoms: C_45  and  C_46 
REMARK   20  A    between atoms: C_46  and  C_47 
REMARK   21  A    between atoms: C_47  and  O_49 
REMARK   22  A    between atoms: C_50  and  C_51 
REMARK   23  A    between atoms: C_51  and  C_52 
REMARK   24  A    between atoms: C_52  and  O_54 
REMARK   25  A    between atoms: C_55  and  C_56 
REMARK   26  A    between atoms: C_56  and  C_57 
REMARK   27  A    between atoms: C_57  and  C_58 
REMARK   28  A    between atoms: C_58  and  O_60 
ROOT
ATOM      1  O   UNK d   0     -26.642  13.449  18.852  0.00  0.00    -0.650 OA
ATOM      2  C   UNK d   0     -26.896  14.402  18.082  0.00  0.00     0.139 C 
ENDROOT
BRANCH   2   3
ATOM      3  O   UNK d   0     -27.928  15.256  18.386  0.00  0.00    -0.776 OA
ATOM      4  H   UNK d   0     -28.140  15.505  19.354  0.00  0.00     0.167 HD
ENDBRANCH   2   3
BRANCH   2   5
ATOM      5  C   UNK d   0     -26.085  14.604  16.848  0.00  0.00     0.115 C 
BRANCH   5   6
ATOM      6  C   UNK d   0     -24.631  14.339  17.135  0.00  0.00     0.052 C 
BRANCH   6   7
ATOM      7  C   UNK d   0     -23.927  15.540  17.721  0.00  0.00    -0.020 A 
ATOM      8  C   UNK d   0     -23.273  15.608  18.852  0.00  0.00    -0.011 A 
ATOM      9  C   UNK d   0     -22.776  16.966  18.998  0.00  0.00     0.067 A 
ATOM     10  C   UNK d   0     -22.010  17.669  19.940  0.00  0.00     0.062 C 
ATOM     11  N   UNK d   0     -23.179  17.659  17.911  0.00  0.00    -0.248 NA
ATOM     12  C   UNK d   0     -21.392  18.913  19.773  0.00  0.00     0.041 A 
ATOM     13  N   UNK d   0     -21.830  20.050  19.200  0.00  0.00    -0.355 N 
ATOM     14  C   UNK d   0     -20.061  19.075  20.200  0.00  0.00    -0.022 A 
ATOM     15  C   UNK d   0     -20.809  20.927  19.246  0.00  0.00     0.042 A 
ATOM     16  H   UNK d   0     -22.846  20.235  18.789  0.00  0.00     0.166 HD
ATOM     17  C   UNK d   0     -20.727  22.258  18.791  0.00  0.00     0.062 C 
ATOM     18  C   UNK d   0     -19.683  20.351  19.866  0.00  0.00    -0.013 A 
ATOM     19  C   UNK d   0     -21.155  22.791  17.601  0.00  0.00     0.067 A 
ATOM     20  N   UNK d   0     -21.928  22.016  16.835  0.00  0.00    -0.248 NA
ATOM     21  C   UNK d   0     -20.973  24.047  16.894  0.00  0.00    -0.011 A 
ATOM     22  C   UNK d   0     -22.263  22.675  15.677  0.00  0.00     0.066 A 
ATOM     23  C   UNK d   0     -23.099  21.996  14.803  0.00  0.00     0.062 C 
ATOM     24  C   UNK d   0     -21.620  23.971  15.767  0.00  0.00    -0.020 A 
ATOM     25  C   UNK d   0     -23.719  20.752  14.996  0.00  0.00     0.041 A 
ATOM     26  N   UNK d   0     -23.279  19.617  15.552  0.00  0.00    -0.355 N 
ATOM     27  C   UNK d   0     -25.056  20.592  14.570  0.00  0.00    -0.022 A 
ATOM     28  C   UNK d   0     -24.292  18.738  15.499  0.00  0.00     0.042 A 
ATOM     29  H   UNK d   0     -22.254  19.429  15.955  0.00  0.00     0.166 HD
ATOM     30  C   UNK d   0     -24.384  17.409  15.939  0.00  0.00     0.062 C 
ATOM     31  C   UNK d   0     -25.427  19.321  14.885  0.00  0.00    -0.013 A 
ATOM     32  C   UNK d   0     -23.876  16.857  17.104  0.00  0.00     0.066 A 
BRANCH   8  33
ATOM     33  C   UNK d   0     -23.069  14.518  19.824  0.00  0.00     0.151 C 
BRANCH  33  34
ATOM     34  C   UNK d   0     -24.200  14.367  20.758  0.00  0.00     0.143 C 
ATOM     35  O   UNK d   0     -24.734  15.358  21.276  0.00  0.00    -0.650 OA
BRANCH  34  36
ATOM     36  O   UNK d   0     -24.665  13.107  21.057  0.00  0.00    -0.776 OA
ATOM     37  H   UNK d   0     -25.403  12.963  21.760  0.00  0.00     0.167 HD
ENDBRANCH  34  36
ENDBRANCH  33  34
ENDBRANCH   8  33
BRANCH  31  38
ATOM     38  C   UNK d   0     -26.780  18.698  14.633  0.00  0.00     0.151 C 
BRANCH  38  39
ATOM     39  C   UNK d   0     -27.651  18.761  15.787  0.00  0.00     0.143 C 
ATOM     40  O   UNK d   0     -28.204  19.815  16.147  0.00  0.00    -0.650 OA
BRANCH  39  41
ATOM     41  O   UNK d   0     -27.889  17.605  16.530  0.00  0.00    -0.776 OA
ATOM     42  H   UNK d   0     -28.802  17.156  16.406  0.00  0.00     0.167 HD
ENDBRANCH  39  41
ENDBRANCH  38  39
ENDBRANCH  31  38
BRANCH  27  43
ATOM     43  C   UNK d   0     -25.971  21.580  13.889  0.00  0.00     0.052 C 
BRANCH  43  44
ATOM     44  C   UNK d   0     -26.606  22.546  14.836  0.00  0.00     0.115 C 
BRANCH  44  45
ATOM     45  C   UNK d   0     -27.795  23.102  14.139  0.00  0.00     0.139 C 
ATOM     46  O   UNK d   0     -28.859  22.436  14.162  0.00  0.00    -0.650 OA
BRANCH  45  47
ATOM     47  O   UNK d   0     -27.777  24.313  13.481  0.00  0.00    -0.776 OA
ATOM     48  H   UNK d   0     -28.610  24.919  13.400  0.00  0.00     0.167 HD
ENDBRANCH  45  47
ENDBRANCH  44  45
ENDBRANCH  43  44
ENDBRANCH  27  43
BRANCH  24  49
ATOM     49  C   UNK d   0     -21.735  25.038  14.757  0.00  0.00     0.052 C 
BRANCH  49  50
ATOM     50  C   UNK d   0     -23.120  25.631  14.776  0.00  0.00     0.115 C 
BRANCH  50  51
ATOM     51  C   UNK d   0     -23.223  27.075  14.940  0.00  0.00     0.139 C 
ATOM     52  O   UNK d   0     -24.320  27.681  14.922  0.00  0.00    -0.650 OA
BRANCH  51  53
ATOM     53  O   UNK d   0     -22.074  27.828  15.122  0.00  0.00    -0.776 OA
ATOM     54  H   UNK d   0     -21.227  27.350  15.375  0.00  0.00     0.167 HD
ENDBRANCH  51  53
ENDBRANCH  50  51
ENDBRANCH  49  50
ENDBRANCH  24  49
BRANCH  21  55
ATOM     55  C   UNK d   0     -20.174  25.193  17.419  0.00  0.00     0.151 C 
BRANCH  55  56
ATOM     56  C   UNK d   0     -21.029  26.242  17.997  0.00  0.00     0.143 C 
ATOM     57  O   UNK d   0     -22.015  25.989  18.717  0.00  0.00    -0.650 OA
BRANCH  56  58
ATOM     58  O   UNK d   0     -20.708  27.569  17.716  0.00  0.00    -0.776 OA
ATOM     59  H   UNK d   0     -20.000  27.989  18.345  0.00  0.00     0.167 HD
ENDBRANCH  56  58
ENDBRANCH  55  56
ENDBRANCH  21  55
BRANCH  18  60
ATOM     60  C   UNK d   0     -18.324  20.948  20.134  0.00  0.00     0.151 C 
BRANCH  60  61
ATOM     61  C   UNK d   0     -18.400  21.538  21.479  0.00  0.00     0.143 C 
ATOM     62  O   UNK d   0     -17.870  21.114  22.506  0.00  0.00    -0.650 OA
BRANCH  61  63
ATOM     63  O   UNK d   0     -19.171  22.722  21.575  0.00  0.00    -0.776 OA
ATOM     64  H   UNK d   0     -19.394  23.124  22.468  0.00  0.00     0.167 HD
ENDBRANCH  61  63
ENDBRANCH  60  61
ENDBRANCH  18  60
BRANCH  14  65
ATOM     65  C   UNK d   0     -19.163  18.158  20.980  0.00  0.00     0.052 C 
BRANCH  65  66
ATOM     66  C   UNK d   0     -19.534  18.064  22.418  0.00  0.00     0.115 C 
BRANCH  66  67
ATOM     67  C   UNK d   0     -18.510  18.113  23.422  0.00  0.00     0.139 C 
ATOM     68  O   UNK d   0     -18.847  17.941  24.651  0.00  0.00    -0.650 OA
BRANCH  67  69
ATOM     69  O   UNK d   0     -17.145  18.332  23.239  0.00  0.00    -0.776 OA
ATOM     70  H   UNK d   0     -16.690  18.938  23.937  0.00  0.00     0.167 HD
ENDBRANCH  67  69
ENDBRANCH  66  67
ENDBRANCH  65  66
ENDBRANCH  14  65
ENDBRANCH   6   7
ENDBRANCH   5   6
ENDBRANCH   2   5
TORSDOF 28
ENDMDL
MODEL 20
REMARK VINA RESULT:      -6.5      5.625     11.211
REMARK  28 active torsions:
REMARK  status: ('A' for Active; 'I' for Inactive)
REMARK    1  A    between atoms: C_2  and  O_3 
REMARK    2  A    between atoms: C_2  and  C_4 
REMARK    3  A    between atoms: C_4  and  C_5 
REMARK    4  A    between atoms: C_5  and  C_6 
REMARK    5  A    between atoms: C_7  and  C_8 
REMARK    6  A    between atoms: C_8  and  C_9 
REMARK    7  A    between atoms: C_9  and  O_11 
REMARK    8  A    between atoms: C_28  and  C_29 
REMARK    9  A    between atoms: C_29  and  C_30 
REMARK   10  A    between atoms: C_30  and  O_32 
REMARK   11  A    between atoms: C_33  and  C_34 
REMARK   12  A    between atoms: C_34  and  C_35 
REMARK   13  A    between atoms: C_35  and  C_36 
REMARK   14  A    between atoms: C_36  and  O_38 
REMARK   15  A    between atoms: C_39  and  C_40 
REMARK   16  A    between atoms: C_40  and  C_41 
REMARK   17  A    between atoms: C_41  and  C_42 
REMARK   18  A    between atoms: C_42  and  O_44 
REMARK   19  A    between atoms: C_45  and  C_46 
REMARK   20  A    between atoms: C_46  and  C_47 
REMARK   21  A    between atoms: C_47  and  O_49 
REMARK   22  A    between atoms: C_50  and  C_51 
REMARK   23  A    between atoms: C_51  and  C_52 
REMARK   24  A    between atoms: C_52  and  O_54 
REMARK   25  A    between atoms: C_55  and  C_56 
REMARK   26  A    between atoms: C_56  and  C_57 
REMARK   27  A    between atoms: C_57  and  C_58 
REMARK   28  A    between atoms: C_58  and  O_60 
ROOT
ATOM      1  O   UNK d   0     -21.994  15.207  21.971  0.00  0.00    -0.650 OA
ATOM      2  C   UNK d   0     -22.410  14.142  21.463  0.00  0.00     0.139 C 
ENDROOT
BRANCH   2   3
ATOM      3  O   UNK d   0     -22.521  13.020  22.249  0.00  0.00    -0.776 OA
ATOM      4  H   UNK d   0     -23.240  12.951  22.972  0.00  0.00     0.167 HD
ENDBRANCH   2   3
BRANCH   2   5
ATOM      5  C   UNK d   0     -22.777  14.094  20.020  0.00  0.00     0.115 C 
BRANCH   5   6
ATOM      6  C   UNK d   0     -24.098  14.780  19.799  0.00  0.00     0.052 C 
BRANCH   6   7
ATOM      7  C   UNK d   0     -24.033  15.835  18.721  0.00  0.00    -0.020 A 
ATOM      8  C   UNK d   0     -24.621  15.821  17.553  0.00  0.00    -0.011 A 
ATOM      9  C   UNK d   0     -24.259  17.044  16.857  0.00  0.00     0.067 A 
ATOM     10  C   UNK d   0     -24.560  17.631  15.618  0.00  0.00     0.062 C 
ATOM     11  N   UNK d   0     -23.442  17.743  17.673  0.00  0.00    -0.248 NA
ATOM     12  C   UNK d   0     -24.336  18.957  15.232  0.00  0.00     0.041 A 
ATOM     13  N   UNK d   0     -23.278  19.769  15.422  0.00  0.00    -0.355 N 
ATOM     14  C   UNK d   0     -25.362  19.657  14.572  0.00  0.00    -0.022 A 
ATOM     15  C   UNK d   0     -23.610  20.968  14.907  0.00  0.00     0.042 A 
ATOM     16  H   UNK d   0     -22.309  19.494  15.893  0.00  0.00     0.166 HD
ATOM     17  C   UNK d   0     -22.875  22.168  14.838  0.00  0.00     0.062 C 
ATOM     18  C   UNK d   0     -24.910  20.936  14.366  0.00  0.00    -0.013 A 
ATOM     19  C   UNK d   0     -22.121  22.774  15.811  0.00  0.00     0.067 A 
ATOM     20  N   UNK d   0     -21.871  22.063  16.913  0.00  0.00    -0.248 NA
ATOM     21  C   UNK d   0     -21.489  24.071  15.986  0.00  0.00    -0.011 A 
ATOM     22  C   UNK d   0     -21.123  22.802  17.797  0.00  0.00     0.066 A 
ATOM     23  C   UNK d   0     -20.757  22.168  18.975  0.00  0.00     0.062 C 
ATOM     24  C   UNK d   0     -20.910  24.082  17.152  0.00  0.00    -0.020 A 
ATOM     25  C   UNK d   0     -20.982  20.831  19.338  0.00  0.00     0.041 A 
ATOM     26  N   UNK d   0     -22.038  20.028  19.163  0.00  0.00    -0.355 N 
ATOM     27  C   UNK d   0     -19.949  20.128  19.996  0.00  0.00    -0.022 A 
ATOM     28  C   UNK d   0     -21.713  18.835  19.683  0.00  0.00     0.042 A 
ATOM     29  H   UNK d   0     -23.016  20.309  18.699  0.00  0.00     0.166 HD
ATOM     30  C   UNK d   0     -22.438  17.636  19.767  0.00  0.00     0.062 C 
ATOM     31  C   UNK d   0     -20.403  18.864  20.218  0.00  0.00    -0.013 A 
ATOM     32  C   UNK d   0     -23.267  17.070  18.811  0.00  0.00     0.066 A 
BRANCH   8  33
ATOM     33  C   UNK d   0     -25.494  14.761  17.015  0.00  0.00     0.151 C 
BRANCH  33  34
ATOM     34  C   UNK d   0     -26.923  15.007  17.285  0.00  0.00     0.143 C 
ATOM     35  O   UNK d   0     -27.393  14.849  18.420  0.00  0.00    -0.650 OA
BRANCH  34  36
ATOM     36  O   UNK d   0     -27.743  15.418  16.259  0.00  0.00    -0.776 OA
ATOM     37  H   UNK d   0     -27.468  15.298  15.275  0.00  0.00     0.167 HD
ENDBRANCH  34  36
ENDBRANCH  33  34
ENDBRANCH   8  33
BRANCH  31  38
ATOM     38  C   UNK d   0     -19.637  17.745  20.884  0.00  0.00     0.151 C 
BRANCH  38  39
ATOM     39  C   UNK d   0     -19.814  17.721  22.321  0.00  0.00     0.143 C 
ATOM     40  O   UNK d   0     -18.925  17.325  23.094  0.00  0.00    -0.650 OA
BRANCH  39  41
ATOM     41  O   UNK d   0     -21.019  18.157  22.871  0.00  0.00    -0.776 OA
ATOM     42  H   UNK d   0     -21.769  18.390  22.213  0.00  0.00     0.167 HD
ENDBRANCH  39  41
ENDBRANCH  38  39
ENDBRANCH  31  38
BRANCH  27  43
ATOM     43  C   UNK d   0     -18.580  20.604  20.414  0.00  0.00     0.052 C 
BRANCH  43  44
ATOM     44  C   UNK d   0     -18.615  21.596  21.531  0.00  0.00     0.115 C 
BRANCH  44  45
ATOM     45  C   UNK d   0     -18.553  20.815  22.794  0.00  0.00     0.139 C 
ATOM     46  O   UNK d   0     -19.518  20.902  23.592  0.00  0.00    -0.650 OA
BRANCH  45  47
ATOM     47  O   UNK d   0     -17.489  20.001  23.118  0.00  0.00    -0.776 OA
ATOM     48  H   UNK d   0     -16.685  20.326  23.679  0.00  0.00     0.167 HD
ENDBRANCH  45  47
ENDBRANCH  44  45
ENDBRANCH  43  44
ENDBRANCH  27  43
BRANCH  24  49
ATOM     49  C   UNK d   0     -20.120  25.189  17.718  0.00  0.00     0.052 C 
BRANCH  49  50
ATOM     50  C   UNK d   0     -20.756  25.690  18.989  0.00  0.00     0.115 C 
BRANCH  50  51
ATOM     51  C   UNK d   0     -21.703  26.790  18.870  0.00  0.00     0.139 C 
ATOM     52  O   UNK d   0     -21.359  27.992  18.958  0.00  0.00    -0.650 OA
BRANCH  51  53
ATOM     53  O   UNK d   0     -23.046  26.519  18.652  0.00  0.00    -0.776 OA
ATOM     54  H   UNK d   0     -23.346  26.332  17.712  0.00  0.00     0.167 HD
ENDBRANCH  51  53
ENDBRANCH  50  51
ENDBRANCH  49  50
ENDBRANCH  24  49
BRANCH  21  55
ATOM     55  C   UNK d   0     -21.526  25.162  14.967  0.00  0.00     0.151 C 
BRANCH  55  56
ATOM     56  C   UNK d   0     -22.778  25.932  15.029  0.00  0.00     0.143 C 
ATOM     57  O   UNK d   0     -22.919  26.933  15.758  0.00  0.00    -0.650 OA
BRANCH  56  58
ATOM     58  O   UNK d   0     -23.840  25.509  14.232  0.00  0.00    -0.776 OA
ATOM     59  H   UNK d   0     -24.774  25.836  14.539  0.00  0.00     0.167 HD
ENDBRANCH  56  58
ENDBRANCH  55  56
ENDBRANCH  21  55
BRANCH  18  60
ATOM     60  C   UNK d   0     -25.697  22.034  13.693  0.00  0.00     0.151 C 
BRANCH  60  61
ATOM     61  C   UNK d   0     -26.198  22.893  14.777  0.00  0.00     0.143 C 
ATOM     62  O   UNK d   0     -26.498  22.548  15.920  0.00  0.00    -0.650 OA
BRANCH  61  63
ATOM     63  O   UNK d   0     -26.342  24.261  14.443  0.00  0.00    -0.776 OA
ATOM     64  H   UNK d   0     -25.539  24.839  14.268  0.00  0.00     0.167 HD
ENDBRANCH  61  63
ENDBRANCH  60  61
ENDBRANCH  18  60
BRANCH  14  65
ATOM     65  C   UNK d   0     -26.686  19.186  14.041  0.00  0.00     0.052 C 
BRANCH  65  66
ATOM     66  C   UNK d   0     -27.826  19.528  14.933  0.00  0.00     0.115 C 
BRANCH  66  67
ATOM     67  C   UNK d   0     -28.210  18.621  15.977  0.00  0.00     0.139 C 
ATOM     68  O   UNK d   0     -29.265  17.904  15.811  0.00  0.00    -0.650 OA
BRANCH  67  69
ATOM     69  O   UNK d   0     -27.568  18.402  17.196  0.00  0.00    -0.776 OA
ATOM     70  H   UNK d   0     -26.888  19.123  17.480  0.00  0.00     0.167 HD
ENDBRANCH  67  69
ENDBRANCH  66  67
ENDBRANCH  65  66
ENDBRANCH  14  65
ENDBRANCH   6   7
ENDBRANCH   5   6
ENDBRANCH   2   5
TORSDOF 28
ENDMDL
