MODEL 1
REMARK VINA RESULT:     -10.2      0.000      0.000
REMARK  28 active torsions:
REMARK  status: ('A' for Active; 'I' for Inactive)
REMARK    1  A    between atoms: C_2  and  O_3 
REMARK    2  A    between atoms: C_2  and  C_4 
REMARK    3  A    between atoms: C_4  and  C_5 
REMARK    4  A    between atoms: C_5  and  C_6 
REMARK    5  A    between atoms: C_7  and  C_8 
REMARK    6  A    between atoms: C_8  and  C_9 
REMARK    7  A    between atoms: C_9  and  O_11 
REMARK    8  A    between atoms: C_28  and  C_29 
REMARK    9  A    between atoms: C_29  and  C_30 
REMARK   10  A    between atoms: C_30  and  O_32 
REMARK   11  A    between atoms: C_33  and  C_34 
REMARK   12  A    between atoms: C_34  and  C_35 
REMARK   13  A    between atoms: C_35  and  C_36 
REMARK   14  A    between atoms: C_36  and  O_38 
REMARK   15  A    between atoms: C_39  and  C_40 
REMARK   16  A    between atoms: C_40  and  C_41 
REMARK   17  A    between atoms: C_41  and  C_42 
REMARK   18  A    between atoms: C_42  and  O_44 
REMARK   19  A    between atoms: C_45  and  C_46 
REMARK   20  A    between atoms: C_46  and  C_47 
REMARK   21  A    between atoms: C_47  and  O_49 
REMARK   22  A    between atoms: C_50  and  C_51 
REMARK   23  A    between atoms: C_51  and  C_52 
REMARK   24  A    between atoms: C_52  and  O_54 
REMARK   25  A    between atoms: C_55  and  C_56 
REMARK   26  A    between atoms: C_56  and  C_57 
REMARK   27  A    between atoms: C_57  and  C_58 
REMARK   28  A    between atoms: C_58  and  O_60 
ROOT
ATOM      1  O   UNK d   0       1.040  10.012  26.757  0.00  0.00    -0.650 OA
ATOM      2  C   UNK d   0       0.087   9.263  26.449  0.00  0.00     0.139 C 
ENDROOT
BRANCH   2   3
ATOM      3  O   UNK d   0      -1.184   9.781  26.388  0.00  0.00    -0.776 OA
ATOM      4  H   UNK d   0      -1.453  10.435  25.651  0.00  0.00     0.167 HD
ENDBRANCH   2   3
BRANCH   2   5
ATOM      5  C   UNK d   0       0.332   7.823  26.152  0.00  0.00     0.115 C 
BRANCH   5   6
ATOM      6  C   UNK d   0      -0.137   7.494  24.761  0.00  0.00     0.052 C 
BRANCH   6   7
ATOM      7  C   UNK d   0       0.802   8.005  23.694  0.00  0.00    -0.020 A 
ATOM      8  C   UNK d   0       0.570   8.936  22.806  0.00  0.00    -0.011 A 
ATOM      9  C   UNK d   0       1.763   9.079  21.988  0.00  0.00     0.067 A 
ATOM     10  C   UNK d   0       2.164   9.888  20.914  0.00  0.00     0.062 C 
ATOM     11  N   UNK d   0       2.671   8.190  22.445  0.00  0.00    -0.248 NA
ATOM     12  C   UNK d   0       3.465  10.074  20.432  0.00  0.00     0.041 A 
ATOM     13  N   UNK d   0       4.463   9.196  20.215  0.00  0.00    -0.355 N 
ATOM     14  C   UNK d   0       3.906  11.379  20.150  0.00  0.00    -0.022 A 
ATOM     15  C   UNK d   0       5.529   9.912  19.810  0.00  0.00     0.042 A 
ATOM     16  H   UNK d   0       4.409   8.091  20.327  0.00  0.00     0.166 HD
ATOM     17  C   UNK d   0       6.826   9.495  19.451  0.00  0.00     0.062 C 
ATOM     18  C   UNK d   0       5.218  11.285  19.757  0.00  0.00    -0.013 A 
ATOM     19  C   UNK d   0       7.647   8.594  20.079  0.00  0.00     0.067 A 
ATOM     20  N   UNK d   0       7.103   7.852  21.047  0.00  0.00    -0.248 NA
ATOM     21  C   UNK d   0       9.045   8.210  19.981  0.00  0.00    -0.011 A 
ATOM     22  C   UNK d   0       8.044   7.012  21.590  0.00  0.00     0.066 A 
ATOM     23  C   UNK d   0       7.602   6.155  22.587  0.00  0.00     0.062 C 
ATOM     24  C   UNK d   0       9.272   7.287  20.871  0.00  0.00    -0.020 A 
ATOM     25  C   UNK d   0       6.289   5.975  23.048  0.00  0.00     0.041 A 
ATOM     26  N   UNK d   0       5.302   6.849  23.278  0.00  0.00    -0.355 N 
ATOM     27  C   UNK d   0       5.845   4.664  23.326  0.00  0.00    -0.022 A 
ATOM     28  C   UNK d   0       4.240   6.138  23.690  0.00  0.00     0.042 A 
ATOM     29  H   UNK d   0       5.360   7.960  23.175  0.00  0.00     0.166 HD
ATOM     30  C   UNK d   0       2.947   6.540  24.060  0.00  0.00     0.062 C 
ATOM     31  C   UNK d   0       4.550   4.758  23.733  0.00  0.00    -0.013 A 
ATOM     32  C   UNK d   0       2.154   7.513  23.472  0.00  0.00     0.066 A 
BRANCH   8  33
ATOM     33  C   UNK d   0      -0.673   9.712  22.641  0.00  0.00     0.151 C 
BRANCH  33  34
ATOM     34  C   UNK d   0      -1.652   9.041  21.767  0.00  0.00     0.143 C 
ATOM     35  O   UNK d   0      -2.313   8.076  22.175  0.00  0.00    -0.650 OA
BRANCH  34  36
ATOM     36  O   UNK d   0      -1.831   9.495  20.480  0.00  0.00    -0.776 OA
ATOM     37  H   UNK d   0      -1.076   9.435  19.783  0.00  0.00     0.167 HD
ENDBRANCH  34  36
ENDBRANCH  33  34
ENDBRANCH   8  33
BRANCH  31  38
ATOM     38  C   UNK d   0       3.653   3.607  24.125  0.00  0.00     0.151 C 
BRANCH  38  39
ATOM     39  C   UNK d   0       2.912   3.065  23.006  0.00  0.00     0.143 C 
ATOM     40  O   UNK d   0       1.783   3.481  22.692  0.00  0.00    -0.650 OA
BRANCH  39  41
ATOM     41  O   UNK d   0       3.472   2.040  22.245  0.00  0.00    -0.776 OA
ATOM     42  H   UNK d   0       3.280   2.055  21.238  0.00  0.00     0.167 HD
ENDBRANCH  39  41
ENDBRANCH  38  39
ENDBRANCH  31  38
BRANCH  27  43
ATOM     43  C   UNK d   0       6.592   3.357  23.225  0.00  0.00     0.052 C 
BRANCH  43  44
ATOM     44  C   UNK d   0       6.589   2.575  24.498  0.00  0.00     0.115 C 
BRANCH  44  45
ATOM     45  C   UNK d   0       6.406   1.149  24.119  0.00  0.00     0.139 C 
ATOM     46  O   UNK d   0       6.183   0.881  22.912  0.00  0.00    -0.650 OA
BRANCH  45  47
ATOM     47  O   UNK d   0       6.476   0.119  25.031  0.00  0.00    -0.776 OA
ATOM     48  H   UNK d   0       6.244  -0.859  24.791  0.00  0.00     0.167 HD
ENDBRANCH  45  47
ENDBRANCH  44  45
ENDBRANCH  43  44
ENDBRANCH  27  43
BRANCH  24  49
ATOM     49  C   UNK d   0      10.550   6.587  21.090  0.00  0.00     0.052 C 
BRANCH  49  50
ATOM     50  C   UNK d   0      10.930   6.636  22.548  0.00  0.00     0.115 C 
BRANCH  50  51
ATOM     51  C   UNK d   0      11.551   7.862  23.032  0.00  0.00     0.139 C 
ATOM     52  O   UNK d   0      11.004   8.985  22.925  0.00  0.00    -0.650 OA
BRANCH  51  53
ATOM     53  O   UNK d   0      12.797   7.807  23.638  0.00  0.00    -0.776 OA
ATOM     54  H   UNK d   0      13.141   8.635  24.093  0.00  0.00     0.167 HD
ENDBRANCH  51  53
ENDBRANCH  50  51
ENDBRANCH  49  50
ENDBRANCH  24  49
BRANCH  21  55
ATOM     55  C   UNK d   0      10.008   8.802  19.005  0.00  0.00     0.151 C 
BRANCH  55  56
ATOM     56  C   UNK d   0      10.259  10.226  19.273  0.00  0.00     0.143 C 
ATOM     57  O   UNK d   0      10.447  11.061  18.367  0.00  0.00    -0.650 OA
BRANCH  56  58
ATOM     58  O   UNK d   0      10.285  10.641  20.604  0.00  0.00    -0.776 OA
ATOM     59  H   UNK d   0      10.494  11.646  20.743  0.00  0.00     0.167 HD
ENDBRANCH  56  58
ENDBRANCH  55  56
ENDBRANCH  21  55
BRANCH  18  60
ATOM     60  C   UNK d   0       6.090  12.453  19.367  0.00  0.00     0.151 C 
BRANCH  60  61
ATOM     61  C   UNK d   0       6.866  12.796  20.568  0.00  0.00     0.143 C 
ATOM     62  O   UNK d   0       7.682  12.084  21.154  0.00  0.00    -0.650 OA
BRANCH  61  63
ATOM     63  O   UNK d   0       6.632  14.093  21.087  0.00  0.00    -0.776 OA
ATOM     64  H   UNK d   0       6.303  14.836  20.496  0.00  0.00     0.167 HD
ENDBRANCH  61  63
ENDBRANCH  60  61
ENDBRANCH  18  60
BRANCH  14  65
ATOM     65  C   UNK d   0       3.162  12.684  20.129  0.00  0.00     0.052 C 
BRANCH  65  66
ATOM     66  C   UNK d   0       3.310  13.459  21.389  0.00  0.00     0.115 C 
BRANCH  66  67
ATOM     67  C   UNK d   0       2.183  13.620  22.263  0.00  0.00     0.139 C 
ATOM     68  O   UNK d   0       2.213  14.563  23.136  0.00  0.00    -0.650 OA
BRANCH  67  69
ATOM     69  O   UNK d   0       1.013  12.862  22.295  0.00  0.00    -0.776 OA
ATOM     70  H   UNK d   0       0.844  12.263  21.474  0.00  0.00     0.167 HD
ENDBRANCH  67  69
ENDBRANCH  66  67
ENDBRANCH  65  66
ENDBRANCH  14  65
ENDBRANCH   6   7
ENDBRANCH   5   6
ENDBRANCH   2   5
TORSDOF 28
ENDMDL
MODEL 2
REMARK VINA RESULT:     -10.2      1.806      4.937
REMARK  28 active torsions:
REMARK  status: ('A' for Active; 'I' for Inactive)
REMARK    1  A    between atoms: C_2  and  O_3 
REMARK    2  A    between atoms: C_2  and  C_4 
REMARK    3  A    between atoms: C_4  and  C_5 
REMARK    4  A    between atoms: C_5  and  C_6 
REMARK    5  A    between atoms: C_7  and  C_8 
REMARK    6  A    between atoms: C_8  and  C_9 
REMARK    7  A    between atoms: C_9  and  O_11 
REMARK    8  A    between atoms: C_28  and  C_29 
REMARK    9  A    between atoms: C_29  and  C_30 
REMARK   10  A    between atoms: C_30  and  O_32 
REMARK   11  A    between atoms: C_33  and  C_34 
REMARK   12  A    between atoms: C_34  and  C_35 
REMARK   13  A    between atoms: C_35  and  C_36 
REMARK   14  A    between atoms: C_36  and  O_38 
REMARK   15  A    between atoms: C_39  and  C_40 
REMARK   16  A    between atoms: C_40  and  C_41 
REMARK   17  A    between atoms: C_41  and  C_42 
REMARK   18  A    between atoms: C_42  and  O_44 
REMARK   19  A    between atoms: C_45  and  C_46 
REMARK   20  A    between atoms: C_46  and  C_47 
REMARK   21  A    between atoms: C_47  and  O_49 
REMARK   22  A    between atoms: C_50  and  C_51 
REMARK   23  A    between atoms: C_51  and  C_52 
REMARK   24  A    between atoms: C_52  and  O_54 
REMARK   25  A    between atoms: C_55  and  C_56 
REMARK   26  A    between atoms: C_56  and  C_57 
REMARK   27  A    between atoms: C_57  and  C_58 
REMARK   28  A    between atoms: C_58  and  O_60 
ROOT
ATOM      1  O   UNK d   0       4.116   0.885  23.546  0.00  0.00    -0.650 OA
ATOM      2  C   UNK d   0       3.419   1.594  24.305  0.00  0.00     0.139 C 
ENDROOT
BRANCH   2   3
ATOM      3  O   UNK d   0       3.897   1.918  25.552  0.00  0.00    -0.776 OA
ATOM      4  H   UNK d   0       3.963   2.892  25.855  0.00  0.00     0.167 HD
ENDBRANCH   2   3
BRANCH   2   5
ATOM      5  C   UNK d   0       2.082   2.078  23.858  0.00  0.00     0.115 C 
BRANCH   5   6
ATOM      6  C   UNK d   0       1.685   3.300  24.642  0.00  0.00     0.052 C 
BRANCH   6   7
ATOM      7  C   UNK d   0       1.735   4.562  23.815  0.00  0.00    -0.020 A 
ATOM      8  C   UNK d   0       0.731   5.194  23.261  0.00  0.00    -0.011 A 
ATOM      9  C   UNK d   0       1.265   6.349  22.560  0.00  0.00     0.067 A 
ATOM     10  C   UNK d   0       0.737   7.410  21.807  0.00  0.00     0.062 C 
ATOM     11  N   UNK d   0       2.604   6.341  22.734  0.00  0.00    -0.248 NA
ATOM     12  C   UNK d   0       1.386   8.594  21.439  0.00  0.00     0.041 A 
ATOM     13  N   UNK d   0       2.633   8.815  20.980  0.00  0.00    -0.355 N 
ATOM     14  C   UNK d   0       0.710   9.817  21.596  0.00  0.00    -0.022 A 
ATOM     15  C   UNK d   0       2.768  10.148  20.848  0.00  0.00     0.042 A 
ATOM     16  H   UNK d   0       3.395   8.043  20.735  0.00  0.00     0.166 HD
ATOM     17  C   UNK d   0       3.863  10.917  20.407  0.00  0.00     0.062 C 
ATOM     18  C   UNK d   0       1.583  10.810  21.225  0.00  0.00    -0.013 A 
ATOM     19  C   UNK d   0       5.189  10.797  20.737  0.00  0.00     0.067 A 
ATOM     20  N   UNK d   0       5.549   9.699  21.408  0.00  0.00    -0.248 NA
ATOM     21  C   UNK d   0       6.387  11.599  20.556  0.00  0.00    -0.011 A 
ATOM     22  C   UNK d   0       6.895   9.727  21.680  0.00  0.00     0.066 A 
ATOM     23  C   UNK d   0       7.412   8.624  22.342  0.00  0.00     0.062 C 
ATOM     24  C   UNK d   0       7.381  10.970  21.114  0.00  0.00    -0.020 A 
ATOM     25  C   UNK d   0       6.746   7.439  22.691  0.00  0.00     0.041 A 
ATOM     26  N   UNK d   0       5.512   7.220  23.162  0.00  0.00    -0.355 N 
ATOM     27  C   UNK d   0       7.423   6.211  22.530  0.00  0.00    -0.022 A 
ATOM     28  C   UNK d   0       5.378   5.891  23.303  0.00  0.00     0.042 A 
ATOM     29  H   UNK d   0       4.751   7.997  23.418  0.00  0.00     0.166 HD
ATOM     30  C   UNK d   0       4.298   5.115  23.749  0.00  0.00     0.062 C 
ATOM     31  C   UNK d   0       6.565   5.226  22.914  0.00  0.00    -0.013 A 
ATOM     32  C   UNK d   0       2.949   5.291  23.481  0.00  0.00     0.066 A 
BRANCH   8  33
ATOM     33  C   UNK d   0      -0.693   4.816  23.320  0.00  0.00     0.151 C 
BRANCH  33  34
ATOM     34  C   UNK d   0      -1.436   5.552  24.359  0.00  0.00     0.143 C 
ATOM     35  O   UNK d   0      -0.920   5.793  25.460  0.00  0.00    -0.650 OA
BRANCH  34  36
ATOM     36  O   UNK d   0      -2.719   5.974  24.100  0.00  0.00    -0.776 OA
ATOM     37  H   UNK d   0      -3.480   5.301  23.937  0.00  0.00     0.167 HD
ENDBRANCH  34  36
ENDBRANCH  33  34
ENDBRANCH   8  33
BRANCH  31  38
ATOM     38  C   UNK d   0       6.848   3.742  22.900  0.00  0.00     0.151 C 
BRANCH  38  39
ATOM     39  C   UNK d   0       7.111   3.209  24.220  0.00  0.00     0.143 C 
ATOM     40  O   UNK d   0       7.740   3.847  25.082  0.00  0.00    -0.650 OA
BRANCH  39  41
ATOM     41  O   UNK d   0       6.649   1.935  24.550  0.00  0.00    -0.776 OA
ATOM     42  H   UNK d   0       6.384   1.324  23.771  0.00  0.00     0.167 HD
ENDBRANCH  39  41
ENDBRANCH  38  39
ENDBRANCH  31  38
BRANCH  27  43
ATOM     43  C   UNK d   0       8.824   5.947  22.038  0.00  0.00     0.052 C 
BRANCH  43  44
ATOM     44  C   UNK d   0       9.840   5.915  23.134  0.00  0.00     0.115 C 
BRANCH  44  45
ATOM     45  C   UNK d   0      10.904   6.879  22.754  0.00  0.00     0.139 C 
ATOM     46  O   UNK d   0      11.294   7.702  23.620  0.00  0.00    -0.650 OA
BRANCH  45  47
ATOM     47  O   UNK d   0      11.480   6.902  21.503  0.00  0.00    -0.776 OA
ATOM     48  H   UNK d   0      11.433   7.724  20.879  0.00  0.00     0.167 HD
ENDBRANCH  45  47
ENDBRANCH  44  45
ENDBRANCH  43  44
ENDBRANCH  27  43
BRANCH  24  49
ATOM     49  C   UNK d   0       8.787  11.408  21.131  0.00  0.00     0.052 C 
BRANCH  49  50
ATOM     50  C   UNK d   0       9.539  10.806  19.972  0.00  0.00     0.115 C 
BRANCH  50  51
ATOM     51  C   UNK d   0      10.614   9.876  20.289  0.00  0.00     0.139 C 
ATOM     52  O   UNK d   0      11.045   9.034  19.465  0.00  0.00    -0.650 OA
BRANCH  51  53
ATOM     53  O   UNK d   0      11.197   9.903  21.546  0.00  0.00    -0.776 OA
ATOM     54  H   UNK d   0      10.610  10.096  22.339  0.00  0.00     0.167 HD
ENDBRANCH  51  53
ENDBRANCH  50  51
ENDBRANCH  49  50
ENDBRANCH  24  49
BRANCH  21  55
ATOM     55  C   UNK d   0       6.415  12.910  19.841  0.00  0.00     0.151 C 
BRANCH  55  56
ATOM     56  C   UNK d   0       5.958  14.015  20.698  0.00  0.00     0.143 C 
ATOM     57  O   UNK d   0       4.760  14.345  20.792  0.00  0.00    -0.650 OA
BRANCH  56  58
ATOM     58  O   UNK d   0       6.921  14.710  21.428  0.00  0.00    -0.776 OA
ATOM     59  H   UNK d   0       7.736  14.145  21.724  0.00  0.00     0.167 HD
ENDBRANCH  56  58
ENDBRANCH  55  56
ENDBRANCH  21  55
BRANCH  18  60
ATOM     60  C   UNK d   0       1.272  12.286  21.246  0.00  0.00     0.151 C 
BRANCH  60  61
ATOM     61  C   UNK d   0       2.039  12.845  22.370  0.00  0.00     0.143 C 
ATOM     62  O   UNK d   0       2.432  12.246  23.371  0.00  0.00    -0.650 OA
BRANCH  61  63
ATOM     63  O   UNK d   0       2.345  14.223  22.264  0.00  0.00    -0.776 OA
ATOM     64  H   UNK d   0       2.796  14.713  23.016  0.00  0.00     0.167 HD
ENDBRANCH  61  63
ENDBRANCH  60  61
ENDBRANCH  18  60
BRANCH  14  65
ATOM     65  C   UNK d   0      -0.715  10.110  21.971  0.00  0.00     0.052 C 
BRANCH  65  66
ATOM     66  C   UNK d   0      -0.890  10.386  23.422  0.00  0.00     0.115 C 
BRANCH  66  67
ATOM     67  C   UNK d   0      -1.072   9.294  24.337  0.00  0.00     0.139 C 
ATOM     68  O   UNK d   0      -2.256   8.819  24.497  0.00  0.00    -0.650 OA
BRANCH  67  69
ATOM     69  O   UNK d   0      -0.101   8.654  25.106  0.00  0.00    -0.776 OA
ATOM     70  H   UNK d   0      -0.449   7.940  25.763  0.00  0.00     0.167 HD
ENDBRANCH  67  69
ENDBRANCH  66  67
ENDBRANCH  65  66
ENDBRANCH  14  65
ENDBRANCH   6   7
ENDBRANCH   5   6
ENDBRANCH   2   5
TORSDOF 28
ENDMDL
MODEL 3
REMARK VINA RESULT:     -10.2      1.697      2.228
REMARK  28 active torsions:
REMARK  status: ('A' for Active; 'I' for Inactive)
REMARK    1  A    between atoms: C_2  and  O_3 
REMARK    2  A    between atoms: C_2  and  C_4 
REMARK    3  A    between atoms: C_4  and  C_5 
REMARK    4  A    between atoms: C_5  and  C_6 
REMARK    5  A    between atoms: C_7  and  C_8 
REMARK    6  A    between atoms: C_8  and  C_9 
REMARK    7  A    between atoms: C_9  and  O_11 
REMARK    8  A    between atoms: C_28  and  C_29 
REMARK    9  A    between atoms: C_29  and  C_30 
REMARK   10  A    between atoms: C_30  and  O_32 
REMARK   11  A    between atoms: C_33  and  C_34 
REMARK   12  A    between atoms: C_34  and  C_35 
REMARK   13  A    between atoms: C_35  and  C_36 
REMARK   14  A    between atoms: C_36  and  O_38 
REMARK   15  A    between atoms: C_39  and  C_40 
REMARK   16  A    between atoms: C_40  and  C_41 
REMARK   17  A    between atoms: C_41  and  C_42 
REMARK   18  A    between atoms: C_42  and  O_44 
REMARK   19  A    between atoms: C_45  and  C_46 
REMARK   20  A    between atoms: C_46  and  C_47 
REMARK   21  A    between atoms: C_47  and  O_49 
REMARK   22  A    between atoms: C_50  and  C_51 
REMARK   23  A    between atoms: C_51  and  C_52 
REMARK   24  A    between atoms: C_52  and  O_54 
REMARK   25  A    between atoms: C_55  and  C_56 
REMARK   26  A    between atoms: C_56  and  C_57 
REMARK   27  A    between atoms: C_57  and  C_58 
REMARK   28  A    between atoms: C_58  and  O_60 
ROOT
ATOM      1  O   UNK d   0      -1.529   4.869  25.348  0.00  0.00    -0.650 OA
ATOM      2  C   UNK d   0      -1.070   4.593  24.217  0.00  0.00     0.139 C 
ENDROOT
BRANCH   2   3
ATOM      3  O   UNK d   0      -0.471   3.373  24.013  0.00  0.00    -0.776 OA
ATOM      4  H   UNK d   0      -0.901   2.511  24.354  0.00  0.00     0.167 HD
ENDBRANCH   2   3
BRANCH   2   5
ATOM      5  C   UNK d   0      -1.173   5.581  23.106  0.00  0.00     0.115 C 
BRANCH   5   6
ATOM      6  C   UNK d   0      -0.757   6.945  23.586  0.00  0.00     0.052 C 
BRANCH   6   7
ATOM      7  C   UNK d   0       0.423   7.495  22.821  0.00  0.00    -0.020 A 
ATOM      8  C   UNK d   0       0.420   8.452  21.929  0.00  0.00    -0.011 A 
ATOM      9  C   UNK d   0       1.785   8.629  21.461  0.00  0.00     0.067 A 
ATOM     10  C   UNK d   0       2.443   9.475  20.554  0.00  0.00     0.062 C 
ATOM     11  N   UNK d   0       2.552   7.734  22.117  0.00  0.00    -0.248 NA
ATOM     12  C   UNK d   0       3.821   9.684  20.438  0.00  0.00     0.041 A 
ATOM     13  N   UNK d   0       4.855   8.822  20.469  0.00  0.00    -0.355 N 
ATOM     14  C   UNK d   0       4.301  11.001  20.320  0.00  0.00    -0.022 A 
ATOM     15  C   UNK d   0       5.979   9.558  20.381  0.00  0.00     0.042 A 
ATOM     16  H   UNK d   0       4.790   7.713  20.532  0.00  0.00     0.166 HD
ATOM     17  C   UNK d   0       7.331   9.162  20.366  0.00  0.00     0.062 C 
ATOM     18  C   UNK d   0       5.672  10.929  20.286  0.00  0.00    -0.013 A 
ATOM     19  C   UNK d   0       7.970   8.248  21.164  0.00  0.00     0.067 A 
ATOM     20  N   UNK d   0       7.201   7.473  21.932  0.00  0.00    -0.248 NA
ATOM     21  C   UNK d   0       9.351   7.877  21.429  0.00  0.00    -0.011 A 
ATOM     22  C   UNK d   0       7.978   6.623  22.682  0.00  0.00     0.066 A 
ATOM     23  C   UNK d   0       7.302   5.732  23.502  0.00  0.00     0.062 C 
ATOM     24  C   UNK d   0       9.348   6.929  22.321  0.00  0.00    -0.020 A 
ATOM     25  C   UNK d   0       5.916   5.528  23.594  0.00  0.00     0.041 A 
ATOM     26  N   UNK d   0       4.890   6.387  23.578  0.00  0.00    -0.355 N 
ATOM     27  C   UNK d   0       5.435   4.206  23.708  0.00  0.00    -0.022 A 
ATOM     28  C   UNK d   0       3.768   5.656  23.675  0.00  0.00     0.042 A 
ATOM     29  H   UNK d   0       4.957   7.501  23.526  0.00  0.00     0.166 HD
ATOM     30  C   UNK d   0       2.417   6.037  23.700  0.00  0.00     0.062 C 
ATOM     31  C   UNK d   0       4.077   4.277  23.759  0.00  0.00    -0.013 A 
ATOM     32  C   UNK d   0       1.793   7.021  22.951  0.00  0.00     0.066 A 
BRANCH   8  33
ATOM     33  C   UNK d   0      -0.747   9.224  21.462  0.00  0.00     0.151 C 
BRANCH  33  34
ATOM     34  C   UNK d   0      -0.910  10.502  22.179  0.00  0.00     0.143 C 
ATOM     35  O   UNK d   0      -1.275  10.526  23.363  0.00  0.00    -0.650 OA
BRANCH  34  36
ATOM     36  O   UNK d   0      -0.655  11.682  21.520  0.00  0.00    -0.776 OA
ATOM     37  H   UNK d   0      -0.209  11.691  20.592  0.00  0.00     0.167 HD
ENDBRANCH  34  36
ENDBRANCH  33  34
ENDBRANCH   8  33
BRANCH  31  38
ATOM     38  C   UNK d   0       3.126   3.108  23.869  0.00  0.00     0.151 C 
BRANCH  38  39
ATOM     39  C   UNK d   0       2.823   2.757  25.240  0.00  0.00     0.143 C 
ATOM     40  O   UNK d   0       1.860   3.248  25.855  0.00  0.00    -0.650 OA
BRANCH  39  41
ATOM     41  O   UNK d   0       3.630   1.836  25.907  0.00  0.00    -0.776 OA
ATOM     42  H   UNK d   0       3.852   2.041  26.886  0.00  0.00     0.167 HD
ENDBRANCH  39  41
ENDBRANCH  38  39
ENDBRANCH  31  38
BRANCH  27  43
ATOM     43  C   UNK d   0       6.202   2.908  23.771  0.00  0.00     0.052 C 
BRANCH  43  44
ATOM     44  C   UNK d   0       5.800   1.933  22.713  0.00  0.00     0.115 C 
BRANCH  44  45
ATOM     45  C   UNK d   0       5.843   0.586  23.340  0.00  0.00     0.139 C 
ATOM     46  O   UNK d   0       6.004   0.516  24.583  0.00  0.00    -0.650 OA
BRANCH  45  47
ATOM     47  O   UNK d   0       5.708  -0.580  22.616  0.00  0.00    -0.776 OA
ATOM     48  H   UNK d   0       6.443  -1.304  22.580  0.00  0.00     0.167 HD
ENDBRANCH  45  47
ENDBRANCH  44  45
ENDBRANCH  43  44
ENDBRANCH  27  43
BRANCH  24  49
ATOM     49  C   UNK d   0      10.533   6.233  22.851  0.00  0.00     0.052 C 
BRANCH  49  50
ATOM     50  C   UNK d   0      10.724   6.559  24.310  0.00  0.00     0.115 C 
BRANCH  50  51
ATOM     51  C   UNK d   0      11.724   7.566  24.641  0.00  0.00     0.139 C 
ATOM     52  O   UNK d   0      11.880   8.611  23.966  0.00  0.00    -0.650 OA
BRANCH  51  53
ATOM     53  O   UNK d   0      12.547   7.379  25.741  0.00  0.00    -0.776 OA
ATOM     54  H   UNK d   0      13.389   6.844  25.619  0.00  0.00     0.167 HD
ENDBRANCH  51  53
ENDBRANCH  50  51
ENDBRANCH  49  50
ENDBRANCH  24  49
BRANCH  21  55
ATOM     55  C   UNK d   0      10.527   8.506  20.759  0.00  0.00     0.151 C 
BRANCH  55  56
ATOM     56  C   UNK d   0      10.466   8.373  19.296  0.00  0.00     0.143 C 
ATOM     57  O   UNK d   0      10.277   9.344  18.537  0.00  0.00    -0.650 OA
BRANCH  56  58
ATOM     58  O   UNK d   0      10.628   7.099  18.753  0.00  0.00    -0.776 OA
ATOM     59  H   UNK d   0      10.024   6.893  17.936  0.00  0.00     0.167 HD
ENDBRANCH  56  58
ENDBRANCH  55  56
ENDBRANCH  21  55
BRANCH  18  60
ATOM     60  C   UNK d   0       6.597  12.115  20.173  0.00  0.00     0.151 C 
BRANCH  60  61
ATOM     61  C   UNK d   0       7.530  11.797  19.081  0.00  0.00     0.143 C 
ATOM     62  O   UNK d   0       7.250  11.607  17.897  0.00  0.00    -0.650 OA
BRANCH  61  63
ATOM     63  O   UNK d   0       8.891  11.705  19.459  0.00  0.00    -0.776 OA
ATOM     64  H   UNK d   0       9.393  12.511  19.788  0.00  0.00     0.167 HD
ENDBRANCH  61  63
ENDBRANCH  60  61
ENDBRANCH  18  60
BRANCH  14  65
ATOM     65  C   UNK d   0       3.569  12.300  20.139  0.00  0.00     0.052 C 
BRANCH  65  66
ATOM     66  C   UNK d   0       2.889  12.762  21.378  0.00  0.00     0.115 C 
BRANCH  66  67
ATOM     67  C   UNK d   0       2.568  14.153  21.538  0.00  0.00     0.139 C 
ATOM     68  O   UNK d   0       2.274  14.584  22.713  0.00  0.00    -0.650 OA
BRANCH  67  69
ATOM     69  O   UNK d   0       2.528  15.138  20.551  0.00  0.00    -0.776 OA
ATOM     70  H   UNK d   0       2.361  16.098  20.884  0.00  0.00     0.167 HD
ENDBRANCH  67  69
ENDBRANCH  66  67
ENDBRANCH  65  66
ENDBRANCH  14  65
ENDBRANCH   6   7
ENDBRANCH   5   6
ENDBRANCH   2   5
TORSDOF 28
ENDMDL
MODEL 4
REMARK VINA RESULT:     -10.1      1.813      5.178
REMARK  28 active torsions:
REMARK  status: ('A' for Active; 'I' for Inactive)
REMARK    1  A    between atoms: C_2  and  O_3 
REMARK    2  A    between atoms: C_2  and  C_4 
REMARK    3  A    between atoms: C_4  and  C_5 
REMARK    4  A    between atoms: C_5  and  C_6 
REMARK    5  A    between atoms: C_7  and  C_8 
REMARK    6  A    between atoms: C_8  and  C_9 
REMARK    7  A    between atoms: C_9  and  O_11 
REMARK    8  A    between atoms: C_28  and  C_29 
REMARK    9  A    between atoms: C_29  and  C_30 
REMARK   10  A    between atoms: C_30  and  O_32 
REMARK   11  A    between atoms: C_33  and  C_34 
REMARK   12  A    between atoms: C_34  and  C_35 
REMARK   13  A    between atoms: C_35  and  C_36 
REMARK   14  A    between atoms: C_36  and  O_38 
REMARK   15  A    between atoms: C_39  and  C_40 
REMARK   16  A    between atoms: C_40  and  C_41 
REMARK   17  A    between atoms: C_41  and  C_42 
REMARK   18  A    between atoms: C_42  and  O_44 
REMARK   19  A    between atoms: C_45  and  C_46 
REMARK   20  A    between atoms: C_46  and  C_47 
REMARK   21  A    between atoms: C_47  and  O_49 
REMARK   22  A    between atoms: C_50  and  C_51 
REMARK   23  A    between atoms: C_51  and  C_52 
REMARK   24  A    between atoms: C_52  and  O_54 
REMARK   25  A    between atoms: C_55  and  C_56 
REMARK   26  A    between atoms: C_56  and  C_57 
REMARK   27  A    between atoms: C_57  and  C_58 
REMARK   28  A    between atoms: C_58  and  O_60 
ROOT
ATOM      1  O   UNK d   0       3.754   0.463  23.841  0.00  0.00    -0.650 OA
ATOM      2  C   UNK d   0       3.332   1.455  24.475  0.00  0.00     0.139 C 
ENDROOT
BRANCH   2   3
ATOM      3  O   UNK d   0       4.018   1.886  25.585  0.00  0.00    -0.776 OA
ATOM      4  H   UNK d   0       3.830   2.801  25.999  0.00  0.00     0.167 HD
ENDBRANCH   2   3
BRANCH   2   5
ATOM      5  C   UNK d   0       2.096   2.159  24.029  0.00  0.00     0.115 C 
BRANCH   5   6
ATOM      6  C   UNK d   0       1.879   3.397  24.855  0.00  0.00     0.052 C 
BRANCH   6   7
ATOM      7  C   UNK d   0       1.895   4.659  24.026  0.00  0.00    -0.020 A 
ATOM      8  C   UNK d   0       0.868   5.302  23.532  0.00  0.00    -0.011 A 
ATOM      9  C   UNK d   0       1.374   6.451  22.800  0.00  0.00     0.067 A 
ATOM     10  C   UNK d   0       0.815   7.518  22.079  0.00  0.00     0.062 C 
ATOM     11  N   UNK d   0       2.720   6.428  22.897  0.00  0.00    -0.248 NA
ATOM     12  C   UNK d   0       1.456   8.694  21.674  0.00  0.00     0.041 A 
ATOM     13  N   UNK d   0       2.676   8.902  21.143  0.00  0.00    -0.355 N 
ATOM     14  C   UNK d   0       0.804   9.926  21.868  0.00  0.00    -0.022 A 
ATOM     15  C   UNK d   0       2.818  10.233  21.003  0.00  0.00     0.042 A 
ATOM     16  H   UNK d   0       3.414   8.121  20.855  0.00  0.00     0.166 HD
ATOM     17  C   UNK d   0       3.895  10.989  20.498  0.00  0.00     0.062 C 
ATOM     18  C   UNK d   0       1.665  10.909  21.448  0.00  0.00    -0.013 A 
ATOM     19  C   UNK d   0       5.236  10.854  20.751  0.00  0.00     0.067 A 
ATOM     20  N   UNK d   0       5.622   9.752  21.400  0.00  0.00    -0.248 NA
ATOM     21  C   UNK d   0       6.431  11.643  20.501  0.00  0.00    -0.011 A 
ATOM     22  C   UNK d   0       6.981   9.764  21.594  0.00  0.00     0.066 A 
ATOM     23  C   UNK d   0       7.523   8.655  22.226  0.00  0.00     0.062 C 
ATOM     24  C   UNK d   0       7.448  11.001  21.000  0.00  0.00    -0.020 A 
ATOM     25  C   UNK d   0       6.865   7.478  22.614  0.00  0.00     0.041 A 
ATOM     26  N   UNK d   0       5.658   7.273  23.155  0.00  0.00    -0.355 N 
ATOM     27  C   UNK d   0       7.518   6.242  22.414  0.00  0.00    -0.022 A 
ATOM     28  C   UNK d   0       5.517   5.946  23.304  0.00  0.00     0.042 A 
ATOM     29  H   UNK d   0       4.922   8.059  23.454  0.00  0.00     0.166 HD
ATOM     30  C   UNK d   0       4.455   5.182  23.812  0.00  0.00     0.062 C 
ATOM     31  C   UNK d   0       6.672   5.267  22.847  0.00  0.00    -0.013 A 
ATOM     32  C   UNK d   0       3.096   5.374  23.622  0.00  0.00     0.066 A 
BRANCH   8  33
ATOM     33  C   UNK d   0      -0.555   4.941  23.673  0.00  0.00     0.151 C 
BRANCH  33  34
ATOM     34  C   UNK d   0      -1.162   5.483  24.902  0.00  0.00     0.143 C 
ATOM     35  O   UNK d   0      -1.883   4.777  25.621  0.00  0.00    -0.650 OA
BRANCH  34  36
ATOM     36  O   UNK d   0      -0.923   6.792  25.252  0.00  0.00    -0.776 OA
ATOM     37  H   UNK d   0      -0.457   7.032  26.138  0.00  0.00     0.167 HD
ENDBRANCH  34  36
ENDBRANCH  33  34
ENDBRANCH   8  33
BRANCH  31  38
ATOM     38  C   UNK d   0       6.936   3.780  22.818  0.00  0.00     0.151 C 
BRANCH  38  39
ATOM     39  C   UNK d   0       7.125   3.217  24.138  0.00  0.00     0.143 C 
ATOM     40  O   UNK d   0       6.670   2.106  24.459  0.00  0.00    -0.650 OA
BRANCH  39  41
ATOM     41  O   UNK d   0       7.842   3.936  25.094  0.00  0.00    -0.776 OA
ATOM     42  H   UNK d   0       7.864   4.955  24.985  0.00  0.00     0.167 HD
ENDBRANCH  39  41
ENDBRANCH  38  39
ENDBRANCH  31  38
BRANCH  27  43
ATOM     43  C   UNK d   0       8.885   5.962  21.842  0.00  0.00     0.052 C 
BRANCH  43  44
ATOM     44  C   UNK d   0       9.986   6.119  22.839  0.00  0.00     0.115 C 
BRANCH  44  45
ATOM     45  C   UNK d   0      11.022   6.970  22.197  0.00  0.00     0.139 C 
ATOM     46  O   UNK d   0      11.904   7.483  22.929  0.00  0.00    -0.650 OA
BRANCH  45  47
ATOM     47  O   UNK d   0      11.056   7.210  20.840  0.00  0.00    -0.776 OA
ATOM     48  H   UNK d   0      11.827   7.720  20.381  0.00  0.00     0.167 HD
ENDBRANCH  45  47
ENDBRANCH  44  45
ENDBRANCH  43  44
ENDBRANCH  27  43
BRANCH  24  49
ATOM     49  C   UNK d   0       8.858  11.424  20.936  0.00  0.00     0.052 C 
BRANCH  49  50
ATOM     50  C   UNK d   0       9.676  10.408  20.182  0.00  0.00     0.115 C 
BRANCH  50  51
ATOM     51  C   UNK d   0       9.301  10.146  18.799  0.00  0.00     0.139 C 
ATOM     52  O   UNK d   0       9.467  10.985  17.883  0.00  0.00    -0.650 OA
BRANCH  51  53
ATOM     53  O   UNK d   0       8.735   8.926  18.461  0.00  0.00    -0.776 OA
ATOM     54  H   UNK d   0       8.141   8.886  17.651  0.00  0.00     0.167 HD
ENDBRANCH  51  53
ENDBRANCH  50  51
ENDBRANCH  49  50
ENDBRANCH  24  49
BRANCH  21  55
ATOM     55  C   UNK d   0       6.432  12.953  19.785  0.00  0.00     0.151 C 
BRANCH  55  56
ATOM     56  C   UNK d   0       5.976  14.053  20.648  0.00  0.00     0.143 C 
ATOM     57  O   UNK d   0       4.781  14.398  20.727  0.00  0.00    -0.650 OA
BRANCH  56  58
ATOM     58  O   UNK d   0       6.935  14.727  21.403  0.00  0.00    -0.776 OA
ATOM     59  H   UNK d   0       6.803  14.668  22.429  0.00  0.00     0.167 HD
ENDBRANCH  56  58
ENDBRANCH  55  56
ENDBRANCH  21  55
BRANCH  18  60
ATOM     60  C   UNK d   0       1.372  12.388  21.485  0.00  0.00     0.151 C 
BRANCH  60  61
ATOM     61  C   UNK d   0       2.164  12.928  22.602  0.00  0.00     0.143 C 
ATOM     62  O   UNK d   0       2.547  12.320  23.601  0.00  0.00    -0.650 OA
BRANCH  61  63
ATOM     63  O   UNK d   0       2.509  14.296  22.489  0.00  0.00    -0.776 OA
ATOM     64  H   UNK d   0       1.837  14.977  22.181  0.00  0.00     0.167 HD
ENDBRANCH  61  63
ENDBRANCH  60  61
ENDBRANCH  18  60
BRANCH  14  65
ATOM     65  C   UNK d   0      -0.594  10.235  22.325  0.00  0.00     0.052 C 
BRANCH  65  66
ATOM     66  C   UNK d   0      -1.636   9.572  21.496  0.00  0.00     0.115 C 
BRANCH  66  67
ATOM     67  C   UNK d   0      -2.621   8.738  22.125  0.00  0.00     0.139 C 
ATOM     68  O   UNK d   0      -2.465   8.431  23.364  0.00  0.00    -0.650 OA
BRANCH  67  69
ATOM     69  O   UNK d   0      -3.769   8.193  21.551  0.00  0.00    -0.776 OA
ATOM     70  H   UNK d   0      -3.755   8.094  20.526  0.00  0.00     0.167 HD
ENDBRANCH  67  69
ENDBRANCH  66  67
ENDBRANCH  65  66
ENDBRANCH  14  65
ENDBRANCH   6   7
ENDBRANCH   5   6
ENDBRANCH   2   5
TORSDOF 28
ENDMDL
MODEL 5
REMARK VINA RESULT:     -10.1      1.835      7.227
REMARK  28 active torsions:
REMARK  status: ('A' for Active; 'I' for Inactive)
REMARK    1  A    between atoms: C_2  and  O_3 
REMARK    2  A    between atoms: C_2  and  C_4 
REMARK    3  A    between atoms: C_4  and  C_5 
REMARK    4  A    between atoms: C_5  and  C_6 
REMARK    5  A    between atoms: C_7  and  C_8 
REMARK    6  A    between atoms: C_8  and  C_9 
REMARK    7  A    between atoms: C_9  and  O_11 
REMARK    8  A    between atoms: C_28  and  C_29 
REMARK    9  A    between atoms: C_29  and  C_30 
REMARK   10  A    between atoms: C_30  and  O_32 
REMARK   11  A    between atoms: C_33  and  C_34 
REMARK   12  A    between atoms: C_34  and  C_35 
REMARK   13  A    between atoms: C_35  and  C_36 
REMARK   14  A    between atoms: C_36  and  O_38 
REMARK   15  A    between atoms: C_39  and  C_40 
REMARK   16  A    between atoms: C_40  and  C_41 
REMARK   17  A    between atoms: C_41  and  C_42 
REMARK   18  A    between atoms: C_42  and  O_44 
REMARK   19  A    between atoms: C_45  and  C_46 
REMARK   20  A    between atoms: C_46  and  C_47 
REMARK   21  A    between atoms: C_47  and  O_49 
REMARK   22  A    between atoms: C_50  and  C_51 
REMARK   23  A    between atoms: C_51  and  C_52 
REMARK   24  A    between atoms: C_52  and  O_54 
REMARK   25  A    between atoms: C_55  and  C_56 
REMARK   26  A    between atoms: C_56  and  C_57 
REMARK   27  A    between atoms: C_57  and  C_58 
REMARK   28  A    between atoms: C_58  and  O_60 
ROOT
ATOM      1  O   UNK d   0      -0.996  10.176  23.726  0.00  0.00    -0.650 OA
ATOM      2  C   UNK d   0      -1.277  10.258  22.510  0.00  0.00     0.139 C 
ENDROOT
BRANCH   2   3
ATOM      3  O   UNK d   0      -0.829  11.336  21.786  0.00  0.00    -0.776 OA
ATOM      4  H   UNK d   0       0.014  11.273  21.212  0.00  0.00     0.167 HD
ENDBRANCH   2   3
BRANCH   2   5
ATOM      5  C   UNK d   0      -2.091   9.194  21.857  0.00  0.00     0.115 C 
BRANCH   5   6
ATOM      6  C   UNK d   0      -1.227   8.368  20.943  0.00  0.00     0.052 C 
BRANCH   6   7
ATOM      7  C   UNK d   0      -0.039   7.766  21.654  0.00  0.00    -0.020 A 
ATOM      8  C   UNK d   0      -0.038   6.776  22.510  0.00  0.00    -0.011 A 
ATOM      9  C   UNK d   0       1.334   6.555  22.933  0.00  0.00     0.067 A 
ATOM     10  C   UNK d   0       1.999   5.663  23.790  0.00  0.00     0.062 C 
ATOM     11  N   UNK d   0       2.103   7.459  22.289  0.00  0.00    -0.248 NA
ATOM     12  C   UNK d   0       3.375   5.422  23.859  0.00  0.00     0.041 A 
ATOM     13  N   UNK d   0       4.425   6.264  23.831  0.00  0.00    -0.355 N 
ATOM     14  C   UNK d   0       3.830   4.092  23.916  0.00  0.00    -0.022 A 
ATOM     15  C   UNK d   0       5.535   5.502  23.861  0.00  0.00     0.042 A 
ATOM     16  H   UNK d   0       4.383   7.375  23.811  0.00  0.00     0.166 HD
ATOM     17  C   UNK d   0       6.896   5.870  23.852  0.00  0.00     0.062 C 
ATOM     18  C   UNK d   0       5.203   4.135  23.914  0.00  0.00    -0.013 A 
ATOM     19  C   UNK d   0       7.533   6.800  23.071  0.00  0.00     0.067 A 
ATOM     20  N   UNK d   0       6.759   7.619  22.353  0.00  0.00    -0.248 NA
ATOM     21  C   UNK d   0       8.913   7.152  22.782  0.00  0.00    -0.011 A 
ATOM     22  C   UNK d   0       7.534   8.479  21.614  0.00  0.00     0.066 A 
ATOM     23  C   UNK d   0       6.855   9.414  20.847  0.00  0.00     0.062 C 
ATOM     24  C   UNK d   0       8.906   8.133  21.925  0.00  0.00    -0.020 A 
ATOM     25  C   UNK d   0       5.472   9.649  20.801  0.00  0.00     0.041 A 
ATOM     26  N   UNK d   0       4.428   8.811  20.814  0.00  0.00    -0.355 N 
ATOM     27  C   UNK d   0       5.016  10.984  20.749  0.00  0.00    -0.022 A 
ATOM     28  C   UNK d   0       3.320   9.568  20.775  0.00  0.00     0.042 A 
ATOM     29  H   UNK d   0       4.473   7.695  20.824  0.00  0.00     0.166 HD
ATOM     30  C   UNK d   0       1.961   9.216  20.774  0.00  0.00     0.062 C 
ATOM     31  C   UNK d   0       3.655  10.942  20.733  0.00  0.00    -0.013 A 
ATOM     32  C   UNK d   0       1.337   8.217  21.504  0.00  0.00     0.066 A 
BRANCH   8  33
ATOM     33  C   UNK d   0      -1.209   6.012  22.981  0.00  0.00     0.151 C 
BRANCH  33  34
ATOM     34  C   UNK d   0      -1.471   6.199  24.419  0.00  0.00     0.143 C 
ATOM     35  O   UNK d   0      -1.758   5.236  25.144  0.00  0.00    -0.650 OA
BRANCH  34  36
ATOM     36  O   UNK d   0      -1.399   7.462  24.960  0.00  0.00    -0.776 OA
ATOM     37  H   UNK d   0      -0.772   7.669  25.749  0.00  0.00     0.167 HD
ENDBRANCH  34  36
ENDBRANCH  33  34
ENDBRANCH   8  33
BRANCH  31  38
ATOM     38  C   UNK d   0       2.727  12.134  20.693  0.00  0.00     0.151 C 
BRANCH  38  39
ATOM     39  C   UNK d   0       2.449  12.673  22.007  0.00  0.00     0.143 C 
ATOM     40  O   UNK d   0       1.934  11.992  22.911  0.00  0.00    -0.650 OA
BRANCH  39  41
ATOM     41  O   UNK d   0       2.765  14.003  22.284  0.00  0.00    -0.776 OA
ATOM     42  H   UNK d   0       3.658  14.176  22.755  0.00  0.00     0.167 HD
ENDBRANCH  39  41
ENDBRANCH  38  39
ENDBRANCH  31  38
BRANCH  27  43
ATOM     43  C   UNK d   0       5.808  12.267  20.712  0.00  0.00     0.052 C 
BRANCH  43  44
ATOM     44  C   UNK d   0       6.200  12.680  19.330  0.00  0.00     0.115 C 
BRANCH  44  45
ATOM     45  C   UNK d   0       7.551  12.112  19.084  0.00  0.00     0.139 C 
ATOM     46  O   UNK d   0       8.421  12.246  19.980  0.00  0.00    -0.650 OA
BRANCH  45  47
ATOM     47  O   UNK d   0       7.881  11.444  17.925  0.00  0.00    -0.776 OA
ATOM     48  H   UNK d   0       8.856  11.223  17.664  0.00  0.00     0.167 HD
ENDBRANCH  45  47
ENDBRANCH  44  45
ENDBRANCH  43  44
ENDBRANCH  27  43
BRANCH  24  49
ATOM     49  C   UNK d   0      10.091   8.824  21.388  0.00  0.00     0.052 C 
BRANCH  49  50
ATOM     50  C   UNK d   0      10.454   8.267  20.035  0.00  0.00     0.115 C 
BRANCH  50  51
ATOM     51  C   UNK d   0      10.107   9.071  18.871  0.00  0.00     0.139 C 
ATOM     52  O   UNK d   0      10.698  10.139  18.586  0.00  0.00    -0.650 OA
BRANCH  51  53
ATOM     53  O   UNK d   0       9.084   8.656  18.032  0.00  0.00    -0.776 OA
ATOM     54  H   UNK d   0       9.206   8.772  17.041  0.00  0.00     0.167 HD
ENDBRANCH  51  53
ENDBRANCH  50  51
ENDBRANCH  49  50
ENDBRANCH  24  49
BRANCH  21  55
ATOM     55  C   UNK d   0      10.094   6.475  23.395  0.00  0.00     0.151 C 
BRANCH  55  56
ATOM     56  C   UNK d   0      10.328   6.919  24.777  0.00  0.00     0.143 C 
ATOM     57  O   UNK d   0      10.985   7.942  25.055  0.00  0.00    -0.650 OA
BRANCH  56  58
ATOM     58  O   UNK d   0       9.785   6.152  25.806  0.00  0.00    -0.776 OA
ATOM     59  H   UNK d   0       8.840   5.773  25.616  0.00  0.00     0.167 HD
ENDBRANCH  56  58
ENDBRANCH  55  56
ENDBRANCH  21  55
BRANCH  18  60
ATOM     60  C   UNK d   0       6.105   2.927  23.958  0.00  0.00     0.151 C 
BRANCH  60  61
ATOM     61  C   UNK d   0       6.280   2.503  22.560  0.00  0.00     0.143 C 
ATOM     62  O   UNK d   0       5.814   1.495  22.027  0.00  0.00    -0.650 OA
BRANCH  61  63
ATOM     63  O   UNK d   0       7.072   3.364  21.763  0.00  0.00    -0.776 OA
ATOM     64  H   UNK d   0       6.725   3.732  20.895  0.00  0.00     0.167 HD
ENDBRANCH  61  63
ENDBRANCH  60  61
ENDBRANCH  18  60
BRANCH  14  65
ATOM     65  C   UNK d   0       3.075   2.802  24.070  0.00  0.00     0.052 C 
BRANCH  65  66
ATOM     66  C   UNK d   0       2.842   2.431  25.491  0.00  0.00     0.115 C 
BRANCH  66  67
ATOM     67  C   UNK d   0       1.617   2.813  26.135  0.00  0.00     0.139 C 
ATOM     68  O   UNK d   0       1.601   2.906  27.417  0.00  0.00    -0.650 OA
BRANCH  67  69
ATOM     69  O   UNK d   0       0.393   3.107  25.534  0.00  0.00    -0.776 OA
ATOM     70  H   UNK d   0      -0.338   3.471  26.162  0.00  0.00     0.167 HD
ENDBRANCH  67  69
ENDBRANCH  66  67
ENDBRANCH  65  66
ENDBRANCH  14  65
ENDBRANCH   6   7
ENDBRANCH   5   6
ENDBRANCH   2   5
TORSDOF 28
ENDMDL
MODEL 6
REMARK VINA RESULT:     -10.0      1.881      2.277
REMARK  28 active torsions:
REMARK  status: ('A' for Active; 'I' for Inactive)
REMARK    1  A    between atoms: C_2  and  O_3 
REMARK    2  A    between atoms: C_2  and  C_4 
REMARK    3  A    between atoms: C_4  and  C_5 
REMARK    4  A    between atoms: C_5  and  C_6 
REMARK    5  A    between atoms: C_7  and  C_8 
REMARK    6  A    between atoms: C_8  and  C_9 
REMARK    7  A    between atoms: C_9  and  O_11 
REMARK    8  A    between atoms: C_28  and  C_29 
REMARK    9  A    between atoms: C_29  and  C_30 
REMARK   10  A    between atoms: C_30  and  O_32 
REMARK   11  A    between atoms: C_33  and  C_34 
REMARK   12  A    between atoms: C_34  and  C_35 
REMARK   13  A    between atoms: C_35  and  C_36 
REMARK   14  A    between atoms: C_36  and  O_38 
REMARK   15  A    between atoms: C_39  and  C_40 
REMARK   16  A    between atoms: C_40  and  C_41 
REMARK   17  A    between atoms: C_41  and  C_42 
REMARK   18  A    between atoms: C_42  and  O_44 
REMARK   19  A    between atoms: C_45  and  C_46 
REMARK   20  A    between atoms: C_46  and  C_47 
REMARK   21  A    between atoms: C_47  and  O_49 
REMARK   22  A    between atoms: C_50  and  C_51 
REMARK   23  A    between atoms: C_51  and  C_52 
REMARK   24  A    between atoms: C_52  and  O_54 
REMARK   25  A    between atoms: C_55  and  C_56 
REMARK   26  A    between atoms: C_56  and  C_57 
REMARK   27  A    between atoms: C_57  and  C_58 
REMARK   28  A    between atoms: C_58  and  O_60 
ROOT
ATOM      1  O   UNK d   0      -0.021   5.494  26.274  0.00  0.00    -0.650 OA
ATOM      2  C   UNK d   0      -0.578   6.375  25.580  0.00  0.00     0.139 C 
ENDROOT
BRANCH   2   3
ATOM      3  O   UNK d   0      -0.217   7.690  25.746  0.00  0.00    -0.776 OA
ATOM      4  H   UNK d   0       0.056   8.051  26.662  0.00  0.00     0.167 HD
ENDBRANCH   2   3
BRANCH   2   5
ATOM      5  C   UNK d   0      -1.622   5.996  24.587  0.00  0.00     0.115 C 
BRANCH   5   6
ATOM      6  C   UNK d   0      -0.991   5.289  23.418  0.00  0.00     0.052 C 
BRANCH   6   7
ATOM      7  C   UNK d   0       0.127   6.086  22.790  0.00  0.00    -0.020 A 
ATOM      8  C   UNK d   0       0.021   7.140  22.021  0.00  0.00    -0.011 A 
ATOM      9  C   UNK d   0       1.364   7.558  21.653  0.00  0.00     0.067 A 
ATOM     10  C   UNK d   0       1.929   8.593  20.892  0.00  0.00     0.062 C 
ATOM     11  N   UNK d   0       2.225   6.698  22.237  0.00  0.00    -0.248 NA
ATOM     12  C   UNK d   0       3.267   9.000  20.878  0.00  0.00     0.041 A 
ATOM     13  N   UNK d   0       4.411   8.289  20.860  0.00  0.00    -0.355 N 
ATOM     14  C   UNK d   0       3.561  10.374  20.945  0.00  0.00    -0.022 A 
ATOM     15  C   UNK d   0       5.422   9.176  20.923  0.00  0.00     0.042 A 
ATOM     16  H   UNK d   0       4.501   7.183  20.785  0.00  0.00     0.166 HD
ATOM     17  C   UNK d   0       6.816   8.972  20.934  0.00  0.00     0.062 C 
ATOM     18  C   UNK d   0       4.928  10.493  20.978  0.00  0.00    -0.013 A 
ATOM     19  C   UNK d   0       7.548   8.059  21.649  0.00  0.00     0.067 A 
ATOM     20  N   UNK d   0       6.868   7.095  22.276  0.00  0.00    -0.248 NA
ATOM     21  C   UNK d   0       8.956   7.848  21.942  0.00  0.00    -0.011 A 
ATOM     22  C   UNK d   0       7.729   6.270  22.958  0.00  0.00     0.066 A 
ATOM     23  C   UNK d   0       7.155   5.199  23.626  0.00  0.00     0.062 C 
ATOM     24  C   UNK d   0       9.055   6.802  22.712  0.00  0.00    -0.020 A 
ATOM     25  C   UNK d   0       5.810   4.799  23.617  0.00  0.00     0.041 A 
ATOM     26  N   UNK d   0       4.674   5.506  23.650  0.00  0.00    -0.355 N 
ATOM     27  C   UNK d   0       5.516   3.420  23.545  0.00  0.00    -0.022 A 
ATOM     28  C   UNK d   0       3.664   4.623  23.596  0.00  0.00     0.042 A 
ATOM     29  H   UNK d   0       4.584   6.616  23.736  0.00  0.00     0.166 HD
ATOM     30  C   UNK d   0       2.273   4.812  23.594  0.00  0.00     0.062 C 
ATOM     31  C   UNK d   0       4.160   3.300  23.530  0.00  0.00    -0.013 A 
ATOM     32  C   UNK d   0       1.544   5.790  22.936  0.00  0.00     0.066 A 
BRANCH   8  33
ATOM     33  C   UNK d   0      -1.225   7.799  21.588  0.00  0.00     0.151 C 
BRANCH  33  34
ATOM     34  C   UNK d   0      -1.399   9.136  22.183  0.00  0.00     0.143 C 
ATOM     35  O   UNK d   0      -1.698  10.112  21.479  0.00  0.00    -0.650 OA
BRANCH  34  36
ATOM     36  O   UNK d   0      -1.226   9.301  23.537  0.00  0.00    -0.776 OA
ATOM     37  H   UNK d   0      -0.739   8.594  24.104  0.00  0.00     0.167 HD
ENDBRANCH  34  36
ENDBRANCH  33  34
ENDBRANCH   8  33
BRANCH  31  38
ATOM     38  C   UNK d   0       3.381   2.008  23.446  0.00  0.00     0.151 C 
BRANCH  38  39
ATOM     39  C   UNK d   0       2.814   1.610  24.717  0.00  0.00     0.143 C 
ATOM     40  O   UNK d   0       1.820   0.868  24.798  0.00  0.00    -0.650 OA
BRANCH  39  41
ATOM     41  O   UNK d   0       3.395   2.066  25.900  0.00  0.00    -0.776 OA
ATOM     42  H   UNK d   0       3.978   1.399  26.415  0.00  0.00     0.167 HD
ENDBRANCH  39  41
ENDBRANCH  38  39
ENDBRANCH  31  38
BRANCH  27  43
ATOM     43  C   UNK d   0       6.456   2.241  23.492  0.00  0.00     0.052 C 
BRANCH  43  44
ATOM     44  C   UNK d   0       6.490   1.456  24.764  0.00  0.00     0.115 C 
BRANCH  44  45
ATOM     45  C   UNK d   0       6.459   0.022  24.378  0.00  0.00     0.139 C 
ATOM     46  O   UNK d   0       6.046  -0.273  23.228  0.00  0.00    -0.650 OA
BRANCH  45  47
ATOM     47  O   UNK d   0       6.865  -0.989  25.222  0.00  0.00    -0.776 OA
ATOM     48  H   UNK d   0       6.978  -1.967  24.911  0.00  0.00     0.167 HD
ENDBRANCH  45  47
ENDBRANCH  44  45
ENDBRANCH  43  44
ENDBRANCH  27  43
BRANCH  24  49
ATOM     49  C   UNK d   0      10.305   6.211  23.218  0.00  0.00     0.052 C 
BRANCH  49  50
ATOM     50  C   UNK d   0      10.491   6.545  24.676  0.00  0.00     0.115 C 
BRANCH  50  51
ATOM     51  C   UNK d   0      11.851   6.802  25.131  0.00  0.00     0.139 C 
ATOM     52  O   UNK d   0      12.442   6.057  25.948  0.00  0.00    -0.650 OA
BRANCH  51  53
ATOM     53  O   UNK d   0      12.536   7.909  24.657  0.00  0.00    -0.776 OA
ATOM     54  H   UNK d   0      13.161   8.386  25.283  0.00  0.00     0.167 HD
ENDBRANCH  51  53
ENDBRANCH  50  51
ENDBRANCH  49  50
ENDBRANCH  24  49
BRANCH  21  55
ATOM     55  C   UNK d   0      10.056   8.710  21.419  0.00  0.00     0.151 C 
BRANCH  55  56
ATOM     56  C   UNK d   0      10.180   9.966  22.175  0.00  0.00     0.143 C 
ATOM     57  O   UNK d   0       9.557  11.002  21.869  0.00  0.00    -0.650 OA
BRANCH  56  58
ATOM     58  O   UNK d   0      11.034   9.979  23.277  0.00  0.00    -0.776 OA
ATOM     59  H   UNK d   0      12.003   9.670  23.081  0.00  0.00     0.167 HD
ENDBRANCH  56  58
ENDBRANCH  55  56
ENDBRANCH  21  55
BRANCH  18  60
ATOM     60  C   UNK d   0       5.681  11.799  21.060  0.00  0.00     0.151 C 
BRANCH  60  61
ATOM     61  C   UNK d   0       6.307  11.987  19.742  0.00  0.00     0.143 C 
ATOM     62  O   UNK d   0       7.444  12.402  19.514  0.00  0.00    -0.650 OA
BRANCH  61  63
ATOM     63  O   UNK d   0       5.495  11.645  18.634  0.00  0.00    -0.776 OA
ATOM     64  H   UNK d   0       4.692  11.052  18.744  0.00  0.00     0.167 HD
ENDBRANCH  61  63
ENDBRANCH  60  61
ENDBRANCH  18  60
BRANCH  14  65
ATOM     65  C   UNK d   0       2.660  11.575  20.883  0.00  0.00     0.052 C 
BRANCH  65  66
ATOM     66  C   UNK d   0       2.335  12.129  22.224  0.00  0.00     0.115 C 
BRANCH  66  67
ATOM     67  C   UNK d   0       2.430  11.287  23.384  0.00  0.00     0.139 C 
ATOM     68  O   UNK d   0       1.429  10.537  23.682  0.00  0.00    -0.650 OA
BRANCH  67  69
ATOM     69  O   UNK d   0       3.503  11.169  24.267  0.00  0.00    -0.776 OA
ATOM     70  H   UNK d   0       3.704  12.000  24.842  0.00  0.00     0.167 HD
ENDBRANCH  67  69
ENDBRANCH  66  67
ENDBRANCH  65  66
ENDBRANCH  14  65
ENDBRANCH   6   7
ENDBRANCH   5   6
ENDBRANCH   2   5
TORSDOF 28
ENDMDL
MODEL 7
REMARK VINA RESULT:      -9.9      1.927      7.788
REMARK  28 active torsions:
REMARK  status: ('A' for Active; 'I' for Inactive)
REMARK    1  A    between atoms: C_2  and  O_3 
REMARK    2  A    between atoms: C_2  and  C_4 
REMARK    3  A    between atoms: C_4  and  C_5 
REMARK    4  A    between atoms: C_5  and  C_6 
REMARK    5  A    between atoms: C_7  and  C_8 
REMARK    6  A    between atoms: C_8  and  C_9 
REMARK    7  A    between atoms: C_9  and  O_11 
REMARK    8  A    between atoms: C_28  and  C_29 
REMARK    9  A    between atoms: C_29  and  C_30 
REMARK   10  A    between atoms: C_30  and  O_32 
REMARK   11  A    between atoms: C_33  and  C_34 
REMARK   12  A    between atoms: C_34  and  C_35 
REMARK   13  A    between atoms: C_35  and  C_36 
REMARK   14  A    between atoms: C_36  and  O_38 
REMARK   15  A    between atoms: C_39  and  C_40 
REMARK   16  A    between atoms: C_40  and  C_41 
REMARK   17  A    between atoms: C_41  and  C_42 
REMARK   18  A    between atoms: C_42  and  O_44 
REMARK   19  A    between atoms: C_45  and  C_46 
REMARK   20  A    between atoms: C_46  and  C_47 
REMARK   21  A    between atoms: C_47  and  O_49 
REMARK   22  A    between atoms: C_50  and  C_51 
REMARK   23  A    between atoms: C_51  and  C_52 
REMARK   24  A    between atoms: C_52  and  O_54 
REMARK   25  A    between atoms: C_55  and  C_56 
REMARK   26  A    between atoms: C_56  and  C_57 
REMARK   27  A    between atoms: C_57  and  C_58 
REMARK   28  A    between atoms: C_58  and  O_60 
ROOT
ATOM      1  O   UNK d   0      -2.408   6.645  24.065  0.00  0.00    -0.650 OA
ATOM      2  C   UNK d   0      -2.106   5.493  23.684  0.00  0.00     0.139 C 
ENDROOT
BRANCH   2   3
ATOM      3  O   UNK d   0      -2.784   4.933  22.628  0.00  0.00    -0.776 OA
ATOM      4  H   UNK d   0      -2.317   4.297  21.978  0.00  0.00     0.167 HD
ENDBRANCH   2   3
BRANCH   2   5
ATOM      5  C   UNK d   0      -1.022   4.737  24.373  0.00  0.00     0.115 C 
BRANCH   5   6
ATOM      6  C   UNK d   0      -0.147   4.048  23.361  0.00  0.00     0.052 C 
BRANCH   6   7
ATOM      7  C   UNK d   0       1.269   4.573  23.365  0.00  0.00    -0.020 A 
ATOM      8  C   UNK d   0       2.337   3.983  23.836  0.00  0.00    -0.011 A 
ATOM      9  C   UNK d   0       3.467   4.874  23.625  0.00  0.00     0.067 A 
ATOM     10  C   UNK d   0       4.848   4.833  23.872  0.00  0.00     0.062 C 
ATOM     11  N   UNK d   0       2.993   5.986  23.024  0.00  0.00    -0.248 NA
ATOM     12  C   UNK d   0       5.828   5.679  23.343  0.00  0.00     0.041 A 
ATOM     13  N   UNK d   0       5.844   7.013  23.160  0.00  0.00    -0.355 N 
ATOM     14  C   UNK d   0       7.015   5.115  22.841  0.00  0.00    -0.022 A 
ATOM     15  C   UNK d   0       7.006   7.309  22.548  0.00  0.00     0.042 A 
ATOM     16  H   UNK d   0       5.057   7.734  23.476  0.00  0.00     0.166 HD
ATOM     17  C   UNK d   0       7.529   8.549  22.130  0.00  0.00     0.062 C 
ATOM     18  C   UNK d   0       7.767   6.144  22.331  0.00  0.00    -0.013 A 
ATOM     19  C   UNK d   0       6.899   9.571  21.466  0.00  0.00     0.067 A 
ATOM     20  N   UNK d   0       5.569   9.494  21.361  0.00  0.00    -0.248 NA
ATOM     21  C   UNK d   0       7.312  10.788  20.789  0.00  0.00    -0.011 A 
ATOM     22  C   UNK d   0       5.084  10.573  20.663  0.00  0.00     0.066 A 
ATOM     23  C   UNK d   0       3.707  10.640  20.511  0.00  0.00     0.062 C 
ATOM     24  C   UNK d   0       6.246  11.368  20.317  0.00  0.00    -0.020 A 
ATOM     25  C   UNK d   0       2.738   9.787  21.062  0.00  0.00     0.041 A 
ATOM     26  N   UNK d   0       2.716   8.459  21.230  0.00  0.00    -0.355 N 
ATOM     27  C   UNK d   0       1.549  10.355  21.570  0.00  0.00    -0.022 A 
ATOM     28  C   UNK d   0       1.554   8.161  21.832  0.00  0.00     0.042 A 
ATOM     29  H   UNK d   0       3.503   7.735  20.903  0.00  0.00     0.166 HD
ATOM     30  C   UNK d   0       1.018   6.931  22.245  0.00  0.00     0.062 C 
ATOM     31  C   UNK d   0       0.795   9.333  22.060  0.00  0.00    -0.013 A 
ATOM     32  C   UNK d   0       1.678   5.867  22.839  0.00  0.00     0.066 A 
BRANCH   8  33
ATOM     33  C   UNK d   0       2.406   2.656  24.475  0.00  0.00     0.151 C 
BRANCH  33  34
ATOM     34  C   UNK d   0       3.038   1.640  23.614  0.00  0.00     0.143 C 
ATOM     35  O   UNK d   0       3.242   1.862  22.412  0.00  0.00    -0.650 OA
BRANCH  34  36
ATOM     36  O   UNK d   0       3.403   0.429  24.155  0.00  0.00    -0.776 OA
ATOM     37  H   UNK d   0       4.338   0.032  23.993  0.00  0.00     0.167 HD
ENDBRANCH  34  36
ENDBRANCH  33  34
ENDBRANCH   8  33
BRANCH  31  38
ATOM     38  C   UNK d   0      -0.560   9.461  22.717  0.00  0.00     0.151 C 
BRANCH  38  39
ATOM     39  C   UNK d   0      -1.653   9.378  21.771  0.00  0.00     0.143 C 
ATOM     40  O   UNK d   0      -1.548   9.776  20.597  0.00  0.00    -0.650 OA
BRANCH  39  41
ATOM     41  O   UNK d   0      -2.871   8.835  22.176  0.00  0.00    -0.776 OA
ATOM     42  H   UNK d   0      -2.833   7.961  22.710  0.00  0.00     0.167 HD
ENDBRANCH  39  41
ENDBRANCH  38  39
ENDBRANCH  31  38
BRANCH  27  43
ATOM     43  C   UNK d   0       1.115  11.799  21.603  0.00  0.00     0.052 C 
BRANCH  43  44
ATOM     44  C   UNK d   0       2.010  12.666  22.427  0.00  0.00     0.115 C 
BRANCH  44  45
ATOM     45  C   UNK d   0       1.852  14.051  21.911  0.00  0.00     0.139 C 
ATOM     46  O   UNK d   0       1.819  14.992  22.742  0.00  0.00    -0.650 OA
BRANCH  45  47
ATOM     47  O   UNK d   0       1.747  14.340  20.567  0.00  0.00    -0.776 OA
ATOM     48  H   UNK d   0       2.284  13.838  19.842  0.00  0.00     0.167 HD
ENDBRANCH  45  47
ENDBRANCH  44  45
ENDBRANCH  43  44
ENDBRANCH  27  43
BRANCH  24  49
ATOM     49  C   UNK d   0       6.203  12.649  19.593  0.00  0.00     0.052 C 
BRANCH  49  50
ATOM     50  C   UNK d   0       5.121  13.534  20.156  0.00  0.00     0.115 C 
BRANCH  50  51
ATOM     51  C   UNK d   0       5.494  14.897  20.511  0.00  0.00     0.139 C 
ATOM     52  O   UNK d   0       4.900  15.902  20.053  0.00  0.00    -0.650 OA
BRANCH  51  53
ATOM     53  O   UNK d   0       6.546  15.114  21.387  0.00  0.00    -0.776 OA
ATOM     54  H   UNK d   0       6.463  14.766  22.326  0.00  0.00     0.167 HD
ENDBRANCH  51  53
ENDBRANCH  50  51
ENDBRANCH  49  50
ENDBRANCH  24  49
BRANCH  21  55
ATOM     55  C   UNK d   0       8.729  11.247  20.687  0.00  0.00     0.151 C 
BRANCH  55  56
ATOM     56  C   UNK d   0       9.064  12.235  21.724  0.00  0.00     0.143 C 
ATOM     57  O   UNK d   0       8.885  13.460  21.573  0.00  0.00    -0.650 OA
BRANCH  56  58
ATOM     58  O   UNK d   0       9.604  11.764  22.920  0.00  0.00    -0.776 OA
ATOM     59  H   UNK d   0      10.639  11.730  22.948  0.00  0.00     0.167 HD
ENDBRANCH  56  58
ENDBRANCH  55  56
ENDBRANCH  21  55
BRANCH  18  60
ATOM     60  C   UNK d   0       9.120   5.987  21.682  0.00  0.00     0.151 C 
BRANCH  60  61
ATOM     61  C   UNK d   0      10.107   6.306  22.725  0.00  0.00     0.143 C 
ATOM     62  O   UNK d   0      10.026   6.049  23.927  0.00  0.00    -0.650 OA
BRANCH  61  63
ATOM     63  O   UNK d   0      11.267   6.979  22.272  0.00  0.00    -0.776 OA
ATOM     64  H   UNK d   0      11.199   7.837  21.754  0.00  0.00     0.167 HD
ENDBRANCH  61  63
ENDBRANCH  60  61
ENDBRANCH  18  60
BRANCH  14  65
ATOM     65  C   UNK d   0       7.530   3.704  22.894  0.00  0.00     0.052 C 
BRANCH  65  66
ATOM     66  C   UNK d   0       7.146   2.992  24.143  0.00  0.00     0.115 C 
BRANCH  66  67
ATOM     67  C   UNK d   0       6.520   1.703  24.063  0.00  0.00     0.139 C 
ATOM     68  O   UNK d   0       6.158   1.127  25.154  0.00  0.00    -0.650 OA
BRANCH  67  69
ATOM     69  O   UNK d   0       6.239   0.960  22.916  0.00  0.00    -0.776 OA
ATOM     70  H   UNK d   0       6.895   0.194  22.707  0.00  0.00     0.167 HD
ENDBRANCH  67  69
ENDBRANCH  66  67
ENDBRANCH  65  66
ENDBRANCH  14  65
ENDBRANCH   6   7
ENDBRANCH   5   6
ENDBRANCH   2   5
TORSDOF 28
ENDMDL
MODEL 8
REMARK VINA RESULT:      -9.6      1.844      8.104
REMARK  28 active torsions:
REMARK  status: ('A' for Active; 'I' for Inactive)
REMARK    1  A    between atoms: C_2  and  O_3 
REMARK    2  A    between atoms: C_2  and  C_4 
REMARK    3  A    between atoms: C_4  and  C_5 
REMARK    4  A    between atoms: C_5  and  C_6 
REMARK    5  A    between atoms: C_7  and  C_8 
REMARK    6  A    between atoms: C_8  and  C_9 
REMARK    7  A    between atoms: C_9  and  O_11 
REMARK    8  A    between atoms: C_28  and  C_29 
REMARK    9  A    between atoms: C_29  and  C_30 
REMARK   10  A    between atoms: C_30  and  O_32 
REMARK   11  A    between atoms: C_33  and  C_34 
REMARK   12  A    between atoms: C_34  and  C_35 
REMARK   13  A    between atoms: C_35  and  C_36 
REMARK   14  A    between atoms: C_36  and  O_38 
REMARK   15  A    between atoms: C_39  and  C_40 
REMARK   16  A    between atoms: C_40  and  C_41 
REMARK   17  A    between atoms: C_41  and  C_42 
REMARK   18  A    between atoms: C_42  and  O_44 
REMARK   19  A    between atoms: C_45  and  C_46 
REMARK   20  A    between atoms: C_46  and  C_47 
REMARK   21  A    between atoms: C_47  and  O_49 
REMARK   22  A    between atoms: C_50  and  C_51 
REMARK   23  A    between atoms: C_51  and  C_52 
REMARK   24  A    between atoms: C_52  and  O_54 
REMARK   25  A    between atoms: C_55  and  C_56 
REMARK   26  A    between atoms: C_56  and  C_57 
REMARK   27  A    between atoms: C_57  and  C_58 
REMARK   28  A    between atoms: C_58  and  O_60 
ROOT
ATOM      1  O   UNK d   0       7.405  10.521  15.747  0.00  0.00    -0.650 OA
ATOM      2  C   UNK d   0       7.652  11.427  16.575  0.00  0.00     0.139 C 
ENDROOT
BRANCH   2   3
ATOM      3  O   UNK d   0       7.732  12.729  16.144  0.00  0.00    -0.776 OA
ATOM      4  H   UNK d   0       7.784  12.953  15.148  0.00  0.00     0.167 HD
ENDBRANCH   2   3
BRANCH   2   5
ATOM      5  C   UNK d   0       7.860  11.091  18.012  0.00  0.00     0.115 C 
BRANCH   5   6
ATOM      6  C   UNK d   0       6.932  11.905  18.872  0.00  0.00     0.052 C 
BRANCH   6   7
ATOM      7  C   UNK d   0       6.037  11.047  19.735  0.00  0.00    -0.020 A 
ATOM      8  C   UNK d   0       4.796  11.281  20.077  0.00  0.00    -0.011 A 
ATOM      9  C   UNK d   0       4.352  10.182  20.919  0.00  0.00     0.067 A 
ATOM     10  C   UNK d   0       3.164   9.825  21.575  0.00  0.00     0.062 C 
ATOM     11  N   UNK d   0       5.390   9.328  21.043  0.00  0.00    -0.248 NA
ATOM     12  C   UNK d   0       2.838   8.578  22.119  0.00  0.00     0.041 A 
ATOM     13  N   UNK d   0       3.566   7.711  22.848  0.00  0.00    -0.355 N 
ATOM     14  C   UNK d   0       1.566   8.035  21.862  0.00  0.00    -0.022 A 
ATOM     15  C   UNK d   0       2.791   6.629  23.054  0.00  0.00     0.042 A 
ATOM     16  H   UNK d   0       4.600   7.869  23.227  0.00  0.00     0.166 HD
ATOM     17  C   UNK d   0       3.057   5.435  23.752  0.00  0.00     0.062 C 
ATOM     18  C   UNK d   0       1.530   6.796  22.450  0.00  0.00    -0.013 A 
ATOM     19  C   UNK d   0       4.179   4.647  23.717  0.00  0.00     0.067 A 
ATOM     20  N   UNK d   0       5.253   5.151  23.103  0.00  0.00    -0.248 NA
ATOM     21  C   UNK d   0       4.538   3.319  24.186  0.00  0.00    -0.011 A 
ATOM     22  C   UNK d   0       6.287   4.248  23.135  0.00  0.00     0.066 A 
ATOM     23  C   UNK d   0       7.482   4.659  22.562  0.00  0.00     0.062 C 
ATOM     24  C   UNK d   0       5.772   3.090  23.838  0.00  0.00    -0.020 A 
ATOM     25  C   UNK d   0       7.793   5.921  22.033  0.00  0.00     0.041 A 
ATOM     26  N   UNK d   0       7.075   6.776  21.296  0.00  0.00    -0.355 N 
ATOM     27  C   UNK d   0       9.069   6.467  22.296  0.00  0.00    -0.022 A 
ATOM     28  C   UNK d   0       7.848   7.852  21.082  0.00  0.00     0.042 A 
ATOM     29  H   UNK d   0       6.040   6.612  20.907  0.00  0.00     0.166 HD
ATOM     30  C   UNK d   0       7.600   9.043  20.381  0.00  0.00     0.062 C 
ATOM     31  C   UNK d   0       9.112   7.689  21.698  0.00  0.00    -0.013 A 
ATOM     32  C   UNK d   0       6.433   9.791  20.353  0.00  0.00     0.066 A 
BRANCH   8  33
ATOM     33  C   UNK d   0       3.976  12.445  19.693  0.00  0.00     0.151 C 
BRANCH  33  34
ATOM     34  C   UNK d   0       3.887  13.457  20.761  0.00  0.00     0.143 C 
ATOM     35  O   UNK d   0       2.978  13.416  21.602  0.00  0.00    -0.650 OA
BRANCH  34  36
ATOM     36  O   UNK d   0       4.827  14.460  20.821  0.00  0.00    -0.776 OA
ATOM     37  H   UNK d   0       5.329  14.772  19.979  0.00  0.00     0.167 HD
ENDBRANCH  34  36
ENDBRANCH  33  34
ENDBRANCH   8  33
BRANCH  31  38
ATOM     38  C   UNK d   0      10.277   8.651  21.720  0.00  0.00     0.151 C 
BRANCH  38  39
ATOM     39  C   UNK d   0      10.115   9.706  22.697  0.00  0.00     0.143 C 
ATOM     40  O   UNK d   0       9.081   9.831  23.377  0.00  0.00    -0.650 OA
BRANCH  39  41
ATOM     41  O   UNK d   0      11.147  10.623  22.895  0.00  0.00    -0.776 OA
ATOM     42  H   UNK d   0      11.673  10.912  22.064  0.00  0.00     0.167 HD
ENDBRANCH  39  41
ENDBRANCH  38  39
ENDBRANCH  31  38
BRANCH  27  43
ATOM     43  C   UNK d   0      10.220   5.881  23.073  0.00  0.00     0.052 C 
BRANCH  43  44
ATOM     44  C   UNK d   0      10.271   6.344  24.493  0.00  0.00     0.115 C 
BRANCH  44  45
ATOM     45  C   UNK d   0      11.678   6.744  24.759  0.00  0.00     0.139 C 
ATOM     46  O   UNK d   0      12.330   7.270  23.824  0.00  0.00    -0.650 OA
BRANCH  45  47
ATOM     47  O   UNK d   0      12.286   6.566  25.983  0.00  0.00    -0.776 OA
ATOM     48  H   UNK d   0      12.238   5.679  26.509  0.00  0.00     0.167 HD
ENDBRANCH  45  47
ENDBRANCH  44  45
ENDBRANCH  43  44
ENDBRANCH  27  43
BRANCH  24  49
ATOM     49  C   UNK d   0       6.550   1.877  24.145  0.00  0.00     0.052 C 
BRANCH  49  50
ATOM     50  C   UNK d   0       6.142   0.748  23.234  0.00  0.00     0.115 C 
BRANCH  50  51
ATOM     51  C   UNK d   0       5.892  -0.548  23.852  0.00  0.00     0.139 C 
ATOM     52  O   UNK d   0       6.812  -1.349  24.139  0.00  0.00    -0.650 OA
BRANCH  51  53
ATOM     53  O   UNK d   0       4.591  -0.931  24.141  0.00  0.00    -0.776 OA
ATOM     54  H   UNK d   0       4.159  -1.625  23.556  0.00  0.00     0.167 HD
ENDBRANCH  51  53
ENDBRANCH  50  51
ENDBRANCH  49  50
ENDBRANCH  24  49
BRANCH  21  55
ATOM     55  C   UNK d   0       3.613   2.419  24.936  0.00  0.00     0.151 C 
BRANCH  55  56
ATOM     56  C   UNK d   0       2.478   1.982  24.108  0.00  0.00     0.143 C 
ATOM     57  O   UNK d   0       1.313   2.388  24.290  0.00  0.00    -0.650 OA
BRANCH  56  58
ATOM     58  O   UNK d   0       2.735   1.075  23.081  0.00  0.00    -0.776 OA
ATOM     59  H   UNK d   0       2.129   1.176  22.247  0.00  0.00     0.167 HD
ENDBRANCH  56  58
ENDBRANCH  55  56
ENDBRANCH  21  55
BRANCH  18  60
ATOM     60  C   UNK d   0       0.350   5.856  22.415  0.00  0.00     0.151 C 
BRANCH  60  61
ATOM     61  C   UNK d   0      -0.208   5.857  23.775  0.00  0.00     0.143 C 
ATOM     62  O   UNK d   0      -0.383   6.834  24.505  0.00  0.00    -0.650 OA
BRANCH  61  63
ATOM     63  O   UNK d   0      -0.576   4.585  24.277  0.00  0.00    -0.776 OA
ATOM     64  H   UNK d   0      -1.249   4.014  23.797  0.00  0.00     0.167 HD
ENDBRANCH  61  63
ENDBRANCH  60  61
ENDBRANCH  18  60
BRANCH  14  65
ATOM     65  C   UNK d   0       0.360   8.634  21.194  0.00  0.00     0.052 C 
BRANCH  65  66
ATOM     66  C   UNK d   0      -0.480   9.438  22.122  0.00  0.00     0.115 C 
BRANCH  66  67
ATOM     67  C   UNK d   0      -1.864   9.102  22.300  0.00  0.00     0.139 C 
ATOM     68  O   UNK d   0      -2.661   9.233  21.299  0.00  0.00    -0.650 OA
BRANCH  67  69
ATOM     69  O   UNK d   0      -2.487   8.636  23.457  0.00  0.00    -0.776 OA
ATOM     70  H   UNK d   0      -1.957   8.759  24.332  0.00  0.00     0.167 HD
ENDBRANCH  67  69
ENDBRANCH  66  67
ENDBRANCH  65  66
ENDBRANCH  14  65
ENDBRANCH   6   7
ENDBRANCH   5   6
ENDBRANCH   2   5
TORSDOF 28
ENDMDL
MODEL 9
REMARK VINA RESULT:      -9.6      1.866      9.927
REMARK  28 active torsions:
REMARK  status: ('A' for Active; 'I' for Inactive)
REMARK    1  A    between atoms: C_2  and  O_3 
REMARK    2  A    between atoms: C_2  and  C_4 
REMARK    3  A    between atoms: C_4  and  C_5 
REMARK    4  A    between atoms: C_5  and  C_6 
REMARK    5  A    between atoms: C_7  and  C_8 
REMARK    6  A    between atoms: C_8  and  C_9 
REMARK    7  A    between atoms: C_9  and  O_11 
REMARK    8  A    between atoms: C_28  and  C_29 
REMARK    9  A    between atoms: C_29  and  C_30 
REMARK   10  A    between atoms: C_30  and  O_32 
REMARK   11  A    between atoms: C_33  and  C_34 
REMARK   12  A    between atoms: C_34  and  C_35 
REMARK   13  A    between atoms: C_35  and  C_36 
REMARK   14  A    between atoms: C_36  and  O_38 
REMARK   15  A    between atoms: C_39  and  C_40 
REMARK   16  A    between atoms: C_40  and  C_41 
REMARK   17  A    between atoms: C_41  and  C_42 
REMARK   18  A    between atoms: C_42  and  O_44 
REMARK   19  A    between atoms: C_45  and  C_46 
REMARK   20  A    between atoms: C_46  and  C_47 
REMARK   21  A    between atoms: C_47  and  O_49 
REMARK   22  A    between atoms: C_50  and  C_51 
REMARK   23  A    between atoms: C_51  and  C_52 
REMARK   24  A    between atoms: C_52  and  O_54 
REMARK   25  A    between atoms: C_55  and  C_56 
REMARK   26  A    between atoms: C_56  and  C_57 
REMARK   27  A    between atoms: C_57  and  C_58 
REMARK   28  A    between atoms: C_58  and  O_60 
ROOT
ATOM      1  O   UNK d   0      10.769   6.021  20.501  0.00  0.00    -0.650 OA
ATOM      2  C   UNK d   0      10.304   6.029  21.662  0.00  0.00     0.139 C 
ENDROOT
BRANCH   2   3
ATOM      3  O   UNK d   0      10.498   7.132  22.458  0.00  0.00    -0.776 OA
ATOM      4  H   UNK d   0      10.422   8.078  22.077  0.00  0.00     0.167 HD
ENDBRANCH   2   3
BRANCH   2   5
ATOM      5  C   UNK d   0       9.548   4.851  22.173  0.00  0.00     0.115 C 
BRANCH   5   6
ATOM      6  C   UNK d   0       8.942   5.166  23.514  0.00  0.00     0.052 C 
BRANCH   6   7
ATOM      7  C   UNK d   0       7.436   5.255  23.465  0.00  0.00    -0.020 A 
ATOM      8  C   UNK d   0       6.571   4.312  23.738  0.00  0.00    -0.011 A 
ATOM      9  C   UNK d   0       5.239   4.860  23.543  0.00  0.00     0.067 A 
ATOM     10  C   UNK d   0       3.922   4.394  23.682  0.00  0.00     0.062 C 
ATOM     11  N   UNK d   0       5.387   6.141  23.146  0.00  0.00    -0.248 NA
ATOM     12  C   UNK d   0       2.752   5.160  23.715  0.00  0.00     0.041 A 
ATOM     13  N   UNK d   0       2.360   6.212  22.973  0.00  0.00    -0.355 N 
ATOM     14  C   UNK d   0       1.786   4.883  24.700  0.00  0.00    -0.022 A 
ATOM     15  C   UNK d   0       1.174   6.616  23.466  0.00  0.00     0.042 A 
ATOM     16  H   UNK d   0       2.901   6.649  22.105  0.00  0.00     0.166 HD
ATOM     17  C   UNK d   0       0.327   7.668  23.063  0.00  0.00     0.062 C 
ATOM     18  C   UNK d   0       0.781   5.807  24.550  0.00  0.00    -0.013 A 
ATOM     19  C   UNK d   0       0.652   8.960  22.739  0.00  0.00     0.067 A 
ATOM     20  N   UNK d   0       1.950   9.237  22.584  0.00  0.00    -0.248 NA
ATOM     21  C   UNK d   0      -0.078  10.197  22.515  0.00  0.00    -0.011 A 
ATOM     22  C   UNK d   0       2.121  10.565  22.278  0.00  0.00     0.066 A 
ATOM     23  C   UNK d   0       3.424  10.983  22.053  0.00  0.00     0.062 C 
ATOM     24  C   UNK d   0       0.787  11.133  22.250  0.00  0.00    -0.020 A 
ATOM     25  C   UNK d   0       4.585  10.195  22.011  0.00  0.00     0.041 A 
ATOM     26  N   UNK d   0       4.981   9.158  22.758  0.00  0.00    -0.355 N 
ATOM     27  C   UNK d   0       5.552  10.470  21.019  0.00  0.00    -0.022 A 
ATOM     28  C   UNK d   0       6.168   8.759  22.274  0.00  0.00     0.042 A 
ATOM     29  H   UNK d   0       4.441   8.727  23.637  0.00  0.00     0.166 HD
ATOM     30  C   UNK d   0       7.025   7.720  22.671  0.00  0.00     0.062 C 
ATOM     31  C   UNK d   0       6.557   9.566  21.178  0.00  0.00    -0.013 A 
ATOM     32  C   UNK d   0       6.685   6.441  23.080  0.00  0.00     0.066 A 
BRANCH   8  33
ATOM     33  C   UNK d   0       6.871   2.932  24.163  0.00  0.00     0.151 C 
BRANCH  33  34
ATOM     34  C   UNK d   0       6.230   1.919  23.305  0.00  0.00     0.143 C 
ATOM     35  O   UNK d   0       6.186   2.062  22.075  0.00  0.00    -0.650 OA
BRANCH  34  36
ATOM     36  O   UNK d   0       5.672   0.802  23.882  0.00  0.00    -0.776 OA
ATOM     37  H   UNK d   0       5.629   0.693  24.904  0.00  0.00     0.167 HD
ENDBRANCH  34  36
ENDBRANCH  33  34
ENDBRANCH   8  33
BRANCH  31  38
ATOM     38  C   UNK d   0       7.805   9.463  20.333  0.00  0.00     0.151 C 
BRANCH  38  39
ATOM     39  C   UNK d   0       8.989   9.934  21.021  0.00  0.00     0.143 C 
ATOM     40  O   UNK d   0      10.130   9.535  20.731  0.00  0.00    -0.650 OA
BRANCH  39  41
ATOM     41  O   UNK d   0       8.860  10.870  22.047  0.00  0.00    -0.776 OA
ATOM     42  H   UNK d   0       8.840  10.505  23.005  0.00  0.00     0.167 HD
ENDBRANCH  39  41
ENDBRANCH  38  39
ENDBRANCH  31  38
BRANCH  27  43
ATOM     43  C   UNK d   0       5.555  11.538  19.954  0.00  0.00     0.052 C 
BRANCH  43  44
ATOM     44  C   UNK d   0       6.471  12.677  20.262  0.00  0.00     0.115 C 
BRANCH  44  45
ATOM     45  C   UNK d   0       5.641  13.910  20.230  0.00  0.00     0.139 C 
ATOM     46  O   UNK d   0       5.795  14.751  21.151  0.00  0.00    -0.650 OA
BRANCH  45  47
ATOM     47  O   UNK d   0       4.722  14.166  19.237  0.00  0.00    -0.776 OA
ATOM     48  H   UNK d   0       4.987  14.534  18.309  0.00  0.00     0.167 HD
ENDBRANCH  45  47
ENDBRANCH  44  45
ENDBRANCH  43  44
ENDBRANCH  27  43
BRANCH  24  49
ATOM     49  C   UNK d   0       0.477  12.535  21.922  0.00  0.00     0.052 C 
BRANCH  49  50
ATOM     50  C   UNK d   0       1.564  13.125  21.061  0.00  0.00     0.115 C 
BRANCH  50  51
ATOM     51  C   UNK d   0       2.194  14.351  21.533  0.00  0.00     0.139 C 
ATOM     52  O   UNK d   0       2.526  14.523  22.730  0.00  0.00    -0.650 OA
BRANCH  51  53
ATOM     53  O   UNK d   0       2.443  15.382  20.641  0.00  0.00    -0.776 OA
ATOM     54  H   UNK d   0       2.052  15.317  19.718  0.00  0.00     0.167 HD
ENDBRANCH  51  53
ENDBRANCH  50  51
ENDBRANCH  49  50
ENDBRANCH  24  49
BRANCH  21  55
ATOM     55  C   UNK d   0      -1.565  10.313  22.585  0.00  0.00     0.151 C 
BRANCH  55  56
ATOM     56  C   UNK d   0      -2.236   9.340  21.709  0.00  0.00     0.143 C 
ATOM     57  O   UNK d   0      -3.075   8.519  22.129  0.00  0.00    -0.650 OA
BRANCH  56  58
ATOM     58  O   UNK d   0      -1.908   9.353  20.354  0.00  0.00    -0.776 OA
ATOM     59  H   UNK d   0      -1.071   8.796  20.103  0.00  0.00     0.167 HD
ENDBRANCH  56  58
ENDBRANCH  55  56
ENDBRANCH  21  55
BRANCH  18  60
ATOM     60  C   UNK d   0      -0.457   5.884  25.408  0.00  0.00     0.151 C 
BRANCH  60  61
ATOM     61  C   UNK d   0      -0.044   6.541  26.657  0.00  0.00     0.143 C 
ATOM     62  O   UNK d   0      -0.029   6.048  27.785  0.00  0.00    -0.650 OA
BRANCH  61  63
ATOM     63  O   UNK d   0       0.379   7.885  26.519  0.00  0.00    -0.776 OA
ATOM     64  H   UNK d   0      -0.279   8.643  26.568  0.00  0.00     0.167 HD
ENDBRANCH  61  63
ENDBRANCH  60  61
ENDBRANCH  18  60
BRANCH  14  65
ATOM     65  C   UNK d   0       1.694   3.763  25.697  0.00  0.00     0.052 C 
BRANCH  65  66
ATOM     66  C   UNK d   0       1.196   2.494  25.103  0.00  0.00     0.115 C 
BRANCH  66  67
ATOM     67  C   UNK d   0       1.930   1.277  25.306  0.00  0.00     0.139 C 
ATOM     68  O   UNK d   0       2.827   0.949  24.445  0.00  0.00    -0.650 OA
BRANCH  67  69
ATOM     69  O   UNK d   0       1.796   0.365  26.353  0.00  0.00    -0.776 OA
ATOM     70  H   UNK d   0       0.844   0.007  26.516  0.00  0.00     0.167 HD
ENDBRANCH  67  69
ENDBRANCH  66  67
ENDBRANCH  65  66
ENDBRANCH  14  65
ENDBRANCH   6   7
ENDBRANCH   5   6
ENDBRANCH   2   5
TORSDOF 28
ENDMDL
MODEL 10
REMARK VINA RESULT:      -9.6      1.769      7.274
REMARK  28 active torsions:
REMARK  status: ('A' for Active; 'I' for Inactive)
REMARK    1  A    between atoms: C_2  and  O_3 
REMARK    2  A    between atoms: C_2  and  C_4 
REMARK    3  A    between atoms: C_4  and  C_5 
REMARK    4  A    between atoms: C_5  and  C_6 
REMARK    5  A    between atoms: C_7  and  C_8 
REMARK    6  A    between atoms: C_8  and  C_9 
REMARK    7  A    between atoms: C_9  and  O_11 
REMARK    8  A    between atoms: C_28  and  C_29 
REMARK    9  A    between atoms: C_29  and  C_30 
REMARK   10  A    between atoms: C_30  and  O_32 
REMARK   11  A    between atoms: C_33  and  C_34 
REMARK   12  A    between atoms: C_34  and  C_35 
REMARK   13  A    between atoms: C_35  and  C_36 
REMARK   14  A    between atoms: C_36  and  O_38 
REMARK   15  A    between atoms: C_39  and  C_40 
REMARK   16  A    between atoms: C_40  and  C_41 
REMARK   17  A    between atoms: C_41  and  C_42 
REMARK   18  A    between atoms: C_42  and  O_44 
REMARK   19  A    between atoms: C_45  and  C_46 
REMARK   20  A    between atoms: C_46  and  C_47 
REMARK   21  A    between atoms: C_47  and  O_49 
REMARK   22  A    between atoms: C_50  and  C_51 
REMARK   23  A    between atoms: C_51  and  C_52 
REMARK   24  A    between atoms: C_52  and  O_54 
REMARK   25  A    between atoms: C_55  and  C_56 
REMARK   26  A    between atoms: C_56  and  C_57 
REMARK   27  A    between atoms: C_57  and  C_58 
REMARK   28  A    between atoms: C_58  and  O_60 
ROOT
ATOM      1  O   UNK d   0       3.675  14.600  21.562  0.00  0.00    -0.650 OA
ATOM      2  C   UNK d   0       2.712  14.203  20.869  0.00  0.00     0.139 C 
ENDROOT
BRANCH   2   3
ATOM      3  O   UNK d   0       2.817  14.218  19.499  0.00  0.00    -0.776 OA
ATOM      4  H   UNK d   0       3.730  14.255  19.040  0.00  0.00     0.167 HD
ENDBRANCH   2   3
BRANCH   2   5
ATOM      5  C   UNK d   0       1.464  13.722  21.527  0.00  0.00     0.115 C 
BRANCH   5   6
ATOM      6  C   UNK d   0       0.964  12.480  20.841  0.00  0.00     0.052 C 
BRANCH   6   7
ATOM      7  C   UNK d   0       1.319  11.219  21.592  0.00  0.00    -0.020 A 
ATOM      8  C   UNK d   0       0.559  10.535  22.409  0.00  0.00    -0.011 A 
ATOM      9  C   UNK d   0       1.333   9.406  22.897  0.00  0.00     0.067 A 
ATOM     10  C   UNK d   0       1.106   8.317  23.754  0.00  0.00     0.062 C 
ATOM     11  N   UNK d   0       2.555   9.483  22.330  0.00  0.00    -0.248 NA
ATOM     12  C   UNK d   0       1.891   7.167  23.888  0.00  0.00     0.041 A 
ATOM     13  N   UNK d   0       3.227   7.008  23.949  0.00  0.00    -0.355 N 
ATOM     14  C   UNK d   0       1.259   5.911  23.919  0.00  0.00    -0.022 A 
ATOM     15  C   UNK d   0       3.458   5.683  24.009  0.00  0.00     0.042 A 
ATOM     16  H   UNK d   0       3.990   7.817  23.968  0.00  0.00     0.166 HD
ATOM     17  C   UNK d   0       4.672   4.970  24.088  0.00  0.00     0.062 C 
ATOM     18  C   UNK d   0       2.248   4.963  23.992  0.00  0.00    -0.013 A 
ATOM     19  C   UNK d   0       5.830   5.158  23.379  0.00  0.00     0.067 A 
ATOM     20  N   UNK d   0       5.919   6.275  22.651  0.00  0.00    -0.248 NA
ATOM     21  C   UNK d   0       7.064   4.417  23.178  0.00  0.00    -0.011 A 
ATOM     22  C   UNK d   0       7.121   6.317  21.989  0.00  0.00     0.066 A 
ATOM     23  C   UNK d   0       7.363   7.447  21.222  0.00  0.00     0.062 C 
ATOM     24  C   UNK d   0       7.814   5.099  22.360  0.00  0.00    -0.020 A 
ATOM     25  C   UNK d   0       6.567   8.598  21.110  0.00  0.00     0.041 A 
ATOM     26  N   UNK d   0       5.240   8.755  21.035  0.00  0.00    -0.355 N 
ATOM     27  C   UNK d   0       7.202   9.858  21.084  0.00  0.00    -0.022 A 
ATOM     28  C   UNK d   0       5.007  10.075  20.965  0.00  0.00     0.042 A 
ATOM     29  H   UNK d   0       4.475   7.941  21.004  0.00  0.00     0.166 HD
ATOM     30  C   UNK d   0       3.806  10.797  20.877  0.00  0.00     0.062 C 
ATOM     31  C   UNK d   0       6.223  10.799  20.993  0.00  0.00    -0.013 A 
ATOM     32  C   UNK d   0       2.611  10.552  21.534  0.00  0.00     0.066 A 
BRANCH   8  33
ATOM     33  C   UNK d   0      -0.834  10.840  22.786  0.00  0.00     0.151 C 
BRANCH  33  34
ATOM     34  C   UNK d   0      -1.782   9.794  22.361  0.00  0.00     0.143 C 
ATOM     35  O   UNK d   0      -2.346   9.071  23.194  0.00  0.00    -0.650 OA
BRANCH  34  36
ATOM     36  O   UNK d   0      -2.040   9.621  21.021  0.00  0.00    -0.776 OA
ATOM     37  H   UNK d   0      -1.318   9.800  20.310  0.00  0.00     0.167 HD
ENDBRANCH  34  36
ENDBRANCH  33  34
ENDBRANCH   8  33
BRANCH  31  38
ATOM     38  C   UNK d   0       6.426  12.295  20.948  0.00  0.00     0.151 C 
BRANCH  38  39
ATOM     39  C   UNK d   0       6.403  12.825  19.601  0.00  0.00     0.143 C 
ATOM     40  O   UNK d   0       6.815  12.176  18.624  0.00  0.00    -0.650 OA
BRANCH  39  41
ATOM     41  O   UNK d   0       5.905  14.108  19.377  0.00  0.00    -0.776 OA
ATOM     42  H   UNK d   0       6.386  14.879  19.851  0.00  0.00     0.167 HD
ENDBRANCH  39  41
ENDBRANCH  38  39
ENDBRANCH  31  38
BRANCH  27  43
ATOM     43  C   UNK d   0       8.672  10.192  21.138  0.00  0.00     0.052 C 
BRANCH  43  44
ATOM     44  C   UNK d   0       9.295  10.342  19.788  0.00  0.00     0.115 C 
BRANCH  44  45
ATOM     45  C   UNK d   0      10.223   9.194  19.618  0.00  0.00     0.139 C 
ATOM     46  O   UNK d   0      11.355   9.264  20.156  0.00  0.00    -0.650 OA
BRANCH  45  47
ATOM     47  O   UNK d   0       9.889   8.063  18.904  0.00  0.00    -0.776 OA
ATOM     48  H   UNK d   0       9.935   8.018  17.873  0.00  0.00     0.167 HD
ENDBRANCH  45  47
ENDBRANCH  44  45
ENDBRANCH  43  44
ENDBRANCH  27  43
BRANCH  24  49
ATOM     49  C   UNK d   0       9.169   4.732  21.914  0.00  0.00     0.052 C 
BRANCH  49  50
ATOM     50  C   UNK d   0      10.204   5.346  22.821  0.00  0.00     0.115 C 
BRANCH  50  51
ATOM     51  C   UNK d   0      10.698   6.669  22.467  0.00  0.00     0.139 C 
ATOM     52  O   UNK d   0      10.422   7.695  23.132  0.00  0.00    -0.650 OA
BRANCH  51  53
ATOM     53  O   UNK d   0      11.505   6.824  21.350  0.00  0.00    -0.776 OA
ATOM     54  H   UNK d   0      11.648   7.752  20.991  0.00  0.00     0.167 HD
ENDBRANCH  51  53
ENDBRANCH  50  51
ENDBRANCH  49  50
ENDBRANCH  24  49
BRANCH  21  55
ATOM     55  C   UNK d   0       7.367   3.108  23.827  0.00  0.00     0.151 C 
BRANCH  55  56
ATOM     56  C   UNK d   0       6.314   2.111  23.576  0.00  0.00     0.143 C 
ATOM     57  O   UNK d   0       5.943   1.796  22.429  0.00  0.00    -0.650 OA
BRANCH  56  58
ATOM     58  O   UNK d   0       5.719   1.504  24.681  0.00  0.00    -0.776 OA
ATOM     59  H   UNK d   0       4.784   1.095  24.502  0.00  0.00     0.167 HD
ENDBRANCH  56  58
ENDBRANCH  55  56
ENDBRANCH  21  55
BRANCH  18  60
ATOM     60  C   UNK d   0       2.016   3.473  24.039  0.00  0.00     0.151 C 
BRANCH  60  61
ATOM     61  C   UNK d   0       2.127   3.091  25.455  0.00  0.00     0.143 C 
ATOM     62  O   UNK d   0       1.371   3.414  26.372  0.00  0.00    -0.650 OA
BRANCH  61  63
ATOM     63  O   UNK d   0       3.230   2.261  25.770  0.00  0.00    -0.776 OA
ATOM     64  H   UNK d   0       4.163   2.631  25.805  0.00  0.00     0.167 HD
ENDBRANCH  61  63
ENDBRANCH  60  61
ENDBRANCH  18  60
BRANCH  14  65
ATOM     65  C   UNK d   0      -0.198   5.548  23.983  0.00  0.00     0.052 C 
BRANCH  65  66
ATOM     66  C   UNK d   0      -0.763   5.174  22.658  0.00  0.00     0.115 C 
BRANCH  66  67
ATOM     67  C   UNK d   0      -1.926   5.854  22.163  0.00  0.00     0.139 C 
ATOM     68  O   UNK d   0      -3.044   5.683  22.776  0.00  0.00    -0.650 OA
BRANCH  67  69
ATOM     69  O   UNK d   0      -2.013   6.708  21.064  0.00  0.00    -0.776 OA
ATOM     70  H   UNK d   0      -1.848   7.706  21.259  0.00  0.00     0.167 HD
ENDBRANCH  67  69
ENDBRANCH  66  67
ENDBRANCH  65  66
ENDBRANCH  14  65
ENDBRANCH   6   7
ENDBRANCH   5   6
ENDBRANCH   2   5
TORSDOF 28
ENDMDL
MODEL 11
REMARK VINA RESULT:      -9.6      1.833      7.830
REMARK  28 active torsions:
REMARK  status: ('A' for Active; 'I' for Inactive)
REMARK    1  A    between atoms: C_2  and  O_3 
REMARK    2  A    between atoms: C_2  and  C_4 
REMARK    3  A    between atoms: C_4  and  C_5 
REMARK    4  A    between atoms: C_5  and  C_6 
REMARK    5  A    between atoms: C_7  and  C_8 
REMARK    6  A    between atoms: C_8  and  C_9 
REMARK    7  A    between atoms: C_9  and  O_11 
REMARK    8  A    between atoms: C_28  and  C_29 
REMARK    9  A    between atoms: C_29  and  C_30 
REMARK   10  A    between atoms: C_30  and  O_32 
REMARK   11  A    between atoms: C_33  and  C_34 
REMARK   12  A    between atoms: C_34  and  C_35 
REMARK   13  A    between atoms: C_35  and  C_36 
REMARK   14  A    between atoms: C_36  and  O_38 
REMARK   15  A    between atoms: C_39  and  C_40 
REMARK   16  A    between atoms: C_40  and  C_41 
REMARK   17  A    between atoms: C_41  and  C_42 
REMARK   18  A    between atoms: C_42  and  O_44 
REMARK   19  A    between atoms: C_45  and  C_46 
REMARK   20  A    between atoms: C_46  and  C_47 
REMARK   21  A    between atoms: C_47  and  O_49 
REMARK   22  A    between atoms: C_50  and  C_51 
REMARK   23  A    between atoms: C_51  and  C_52 
REMARK   24  A    between atoms: C_52  and  O_54 
REMARK   25  A    between atoms: C_55  and  C_56 
REMARK   26  A    between atoms: C_56  and  C_57 
REMARK   27  A    between atoms: C_57  and  C_58 
REMARK   28  A    between atoms: C_58  and  O_60 
ROOT
ATOM      1  O   UNK d   0       6.285  15.036  21.277  0.00  0.00    -0.650 OA
ATOM      2  C   UNK d   0       6.012  14.180  20.406  0.00  0.00     0.139 C 
ENDROOT
BRANCH   2   3
ATOM      3  O   UNK d   0       5.164  14.511  19.378  0.00  0.00    -0.776 OA
ATOM      4  H   UNK d   0       4.383  13.904  19.121  0.00  0.00     0.167 HD
ENDBRANCH   2   3
BRANCH   2   5
ATOM      5  C   UNK d   0       6.603  12.814  20.489  0.00  0.00     0.115 C 
BRANCH   5   6
ATOM      6  C   UNK d   0       5.838  11.864  19.608  0.00  0.00     0.052 C 
BRANCH   6   7
ATOM      7  C   UNK d   0       5.001  10.886  20.397  0.00  0.00    -0.020 A 
ATOM      8  C   UNK d   0       3.733  10.987  20.706  0.00  0.00    -0.011 A 
ATOM      9  C   UNK d   0       3.369   9.812  21.479  0.00  0.00     0.067 A 
ATOM     10  C   UNK d   0       2.199   9.315  22.076  0.00  0.00     0.062 C 
ATOM     11  N   UNK d   0       4.477   9.051  21.599  0.00  0.00    -0.248 NA
ATOM     12  C   UNK d   0       1.974   8.018  22.547  0.00  0.00     0.041 A 
ATOM     13  N   UNK d   0       2.757   7.185  23.260  0.00  0.00    -0.355 N 
ATOM     14  C   UNK d   0       0.766   7.375  22.221  0.00  0.00    -0.022 A 
ATOM     15  C   UNK d   0       2.080   6.028  23.387  0.00  0.00     0.042 A 
ATOM     16  H   UNK d   0       3.760   7.418  23.681  0.00  0.00     0.166 HD
ATOM     17  C   UNK d   0       2.435   4.829  24.037  0.00  0.00     0.062 C 
ATOM     18  C   UNK d   0       0.828   6.109  22.748  0.00  0.00    -0.013 A 
ATOM     19  C   UNK d   0       3.626   4.150  24.004  0.00  0.00     0.067 A 
ATOM     20  N   UNK d   0       4.666   4.780  23.452  0.00  0.00    -0.248 NA
ATOM     21  C   UNK d   0       4.092   2.838  24.421  0.00  0.00    -0.011 A 
ATOM     22  C   UNK d   0       5.779   3.975  23.477  0.00  0.00     0.066 A 
ATOM     23  C   UNK d   0       6.947   4.522  22.967  0.00  0.00     0.062 C 
ATOM     24  C   UNK d   0       5.352   2.740  24.106  0.00  0.00    -0.020 A 
ATOM     25  C   UNK d   0       7.155   5.832  22.510  0.00  0.00     0.041 A 
ATOM     26  N   UNK d   0       6.383   6.654  21.789  0.00  0.00    -0.355 N 
ATOM     27  C   UNK d   0       8.366   6.479  22.842  0.00  0.00    -0.022 A 
ATOM     28  C   UNK d   0       7.060   7.806  21.653  0.00  0.00     0.042 A 
ATOM     29  H   UNK d   0       5.380   6.416  21.357  0.00  0.00     0.166 HD
ATOM     30  C   UNK d   0       6.723   9.003  21.002  0.00  0.00     0.062 C 
ATOM     31  C   UNK d   0       8.313   7.728  22.305  0.00  0.00    -0.013 A 
ATOM     32  C   UNK d   0       5.493   9.641  20.969  0.00  0.00     0.066 A 
BRANCH   8  33
ATOM     33  C   UNK d   0       2.821  12.090  20.349  0.00  0.00     0.151 C 
BRANCH  33  34
ATOM     34  C   UNK d   0       2.465  12.932  21.505  0.00  0.00     0.143 C 
ATOM     35  O   UNK d   0       3.105  13.961  21.764  0.00  0.00    -0.650 OA
BRANCH  34  36
ATOM     36  O   UNK d   0       1.407  12.568  22.306  0.00  0.00    -0.776 OA
ATOM     37  H   UNK d   0       0.903  13.262  22.874  0.00  0.00     0.167 HD
ENDBRANCH  34  36
ENDBRANCH  33  34
ENDBRANCH   8  33
BRANCH  31  38
ATOM     38  C   UNK d   0       9.382   8.790  22.413  0.00  0.00     0.151 C 
BRANCH  38  39
ATOM     39  C   UNK d   0      10.414   8.653  21.407  0.00  0.00     0.143 C 
ATOM     40  O   UNK d   0      11.514   8.125  21.649  0.00  0.00    -0.650 OA
BRANCH  39  41
ATOM     41  O   UNK d   0      10.181   9.125  20.116  0.00  0.00    -0.776 OA
ATOM     42  H   UNK d   0      10.965   9.585  19.643  0.00  0.00     0.167 HD
ENDBRANCH  39  41
ENDBRANCH  38  39
ENDBRANCH  31  38
BRANCH  27  43
ATOM     43  C   UNK d   0       9.543   5.962  23.631  0.00  0.00     0.052 C 
BRANCH  43  44
ATOM     44  C   UNK d   0       9.305   5.948  25.106  0.00  0.00     0.115 C 
BRANCH  44  45
ATOM     45  C   UNK d   0      10.491   6.589  25.733  0.00  0.00     0.139 C 
ATOM     46  O   UNK d   0      10.826   7.732  25.333  0.00  0.00    -0.650 OA
BRANCH  45  47
ATOM     47  O   UNK d   0      11.226   5.986  26.730  0.00  0.00    -0.776 OA
ATOM     48  H   UNK d   0      12.259   5.989  26.745  0.00  0.00     0.167 HD
ENDBRANCH  45  47
ENDBRANCH  44  45
ENDBRANCH  43  44
ENDBRANCH  27  43
BRANCH  24  49
ATOM     49  C   UNK d   0       6.229   1.590  24.382  0.00  0.00     0.052 C 
BRANCH  49  50
ATOM     50  C   UNK d   0       6.131   0.576  23.271  0.00  0.00     0.115 C 
BRANCH  50  51
ATOM     51  C   UNK d   0       5.665  -0.757  23.628  0.00  0.00     0.139 C 
ATOM     52  O   UNK d   0       4.817  -1.382  22.947  0.00  0.00    -0.650 OA
BRANCH  51  53
ATOM     53  O   UNK d   0       6.165  -1.378  24.762  0.00  0.00    -0.776 OA
ATOM     54  H   UNK d   0       6.362  -0.810  25.567  0.00  0.00     0.167 HD
ENDBRANCH  51  53
ENDBRANCH  50  51
ENDBRANCH  49  50
ENDBRANCH  24  49
BRANCH  21  55
ATOM     55  C   UNK d   0       3.232   1.821  25.094  0.00  0.00     0.151 C 
BRANCH  55  56
ATOM     56  C   UNK d   0       2.192   1.297  24.196  0.00  0.00     0.143 C 
ATOM     57  O   UNK d   0       0.974   1.397  24.443  0.00  0.00    -0.650 OA
BRANCH  56  58
ATOM     58  O   UNK d   0       2.604   0.665  23.024  0.00  0.00    -0.776 OA
ATOM     59  H   UNK d   0       1.839   0.266  22.451  0.00  0.00     0.167 HD
ENDBRANCH  56  58
ENDBRANCH  55  56
ENDBRANCH  21  55
BRANCH  18  60
ATOM     60  C   UNK d   0      -0.258   5.068  22.627  0.00  0.00     0.151 C 
BRANCH  60  61
ATOM     61  C   UNK d   0      -0.857   4.952  23.965  0.00  0.00     0.143 C 
ATOM     62  O   UNK d   0      -1.294   5.866  24.664  0.00  0.00    -0.650 OA
BRANCH  61  63
ATOM     63  O   UNK d   0      -0.927   3.635  24.481  0.00  0.00    -0.776 OA
ATOM     64  H   UNK d   0      -0.338   2.905  24.121  0.00  0.00     0.167 HD
ENDBRANCH  61  63
ENDBRANCH  60  61
ENDBRANCH  18  60
BRANCH  14  65
ATOM     65  C   UNK d   0      -0.469   7.894  21.540  0.00  0.00     0.052 C 
BRANCH  65  66
ATOM     66  C   UNK d   0      -1.412   8.561  22.477  0.00  0.00     0.115 C 
BRANCH  66  67
ATOM     67  C   UNK d   0      -1.187   9.926  22.861  0.00  0.00     0.139 C 
ATOM     68  O   UNK d   0      -0.913  10.181  24.091  0.00  0.00    -0.650 OA
BRANCH  67  69
ATOM     69  O   UNK d   0      -1.227  11.059  22.048  0.00  0.00    -0.776 OA
ATOM     70  H   UNK d   0      -0.920  11.938  22.489  0.00  0.00     0.167 HD
ENDBRANCH  67  69
ENDBRANCH  66  67
ENDBRANCH  65  66
ENDBRANCH  14  65
ENDBRANCH   6   7
ENDBRANCH   5   6
ENDBRANCH   2   5
TORSDOF 28
ENDMDL
MODEL 12
REMARK VINA RESULT:      -9.6      3.367      7.137
REMARK  28 active torsions:
REMARK  status: ('A' for Active; 'I' for Inactive)
REMARK    1  A    between atoms: C_2  and  O_3 
REMARK    2  A    between atoms: C_2  and  C_4 
REMARK    3  A    between atoms: C_4  and  C_5 
REMARK    4  A    between atoms: C_5  and  C_6 
REMARK    5  A    between atoms: C_7  and  C_8 
REMARK    6  A    between atoms: C_8  and  C_9 
REMARK    7  A    between atoms: C_9  and  O_11 
REMARK    8  A    between atoms: C_28  and  C_29 
REMARK    9  A    between atoms: C_29  and  C_30 
REMARK   10  A    between atoms: C_30  and  O_32 
REMARK   11  A    between atoms: C_33  and  C_34 
REMARK   12  A    between atoms: C_34  and  C_35 
REMARK   13  A    between atoms: C_35  and  C_36 
REMARK   14  A    between atoms: C_36  and  O_38 
REMARK   15  A    between atoms: C_39  and  C_40 
REMARK   16  A    between atoms: C_40  and  C_41 
REMARK   17  A    between atoms: C_41  and  C_42 
REMARK   18  A    between atoms: C_42  and  O_44 
REMARK   19  A    between atoms: C_45  and  C_46 
REMARK   20  A    between atoms: C_46  and  C_47 
REMARK   21  A    between atoms: C_47  and  O_49 
REMARK   22  A    between atoms: C_50  and  C_51 
REMARK   23  A    between atoms: C_51  and  C_52 
REMARK   24  A    between atoms: C_52  and  O_54 
REMARK   25  A    between atoms: C_55  and  C_56 
REMARK   26  A    between atoms: C_56  and  C_57 
REMARK   27  A    between atoms: C_57  and  C_58 
REMARK   28  A    between atoms: C_58  and  O_60 
ROOT
ATOM      1  O   UNK d   0       0.342   0.994  27.933  0.00  0.00    -0.650 OA
ATOM      2  C   UNK d   0       0.247  -0.052  27.253  0.00  0.00     0.139 C 
ENDROOT
BRANCH   2   3
ATOM      3  O   UNK d   0      -0.803  -0.909  27.481  0.00  0.00    -0.776 OA
ATOM      4  H   UNK d   0      -1.515  -1.073  26.766  0.00  0.00     0.167 HD
ENDBRANCH   2   3
BRANCH   2   5
ATOM      5  C   UNK d   0       1.264  -0.362  26.209  0.00  0.00     0.115 C 
BRANCH   5   6
ATOM      6  C   UNK d   0       0.623  -0.374  24.849  0.00  0.00     0.052 C 
BRANCH   6   7
ATOM      7  C   UNK d   0       0.404   1.015  24.297  0.00  0.00    -0.020 A 
ATOM      8  C   UNK d   0      -0.725   1.552  23.910  0.00  0.00    -0.011 A 
ATOM      9  C   UNK d   0      -0.441   2.900  23.448  0.00  0.00     0.067 A 
ATOM     10  C   UNK d   0      -1.188   3.975  22.942  0.00  0.00     0.062 C 
ATOM     11  N   UNK d   0       0.887   3.099  23.584  0.00  0.00    -0.248 NA
ATOM     12  C   UNK d   0      -0.776   5.306  22.810  0.00  0.00     0.041 A 
ATOM     13  N   UNK d   0       0.384   5.835  22.376  0.00  0.00    -0.355 N 
ATOM     14  C   UNK d   0      -1.641   6.332  23.231  0.00  0.00    -0.022 A 
ATOM     15  C   UNK d   0       0.279   7.170  22.517  0.00  0.00     0.042 A 
ATOM     16  H   UNK d   0       1.251   5.278  21.959  0.00  0.00     0.166 HD
ATOM     17  C   UNK d   0       1.197   8.195  22.216  0.00  0.00     0.062 C 
ATOM     18  C   UNK d   0      -0.977   7.519  23.051  0.00  0.00    -0.013 A 
ATOM     19  C   UNK d   0       2.542   8.254  22.482  0.00  0.00     0.067 A 
ATOM     20  N   UNK d   0       3.125   7.129  22.904  0.00  0.00    -0.248 NA
ATOM     21  C   UNK d   0       3.571   9.280  22.441  0.00  0.00    -0.011 A 
ATOM     22  C   UNK d   0       4.460   7.345  23.143  0.00  0.00     0.066 A 
ATOM     23  C   UNK d   0       5.198   6.245  23.552  0.00  0.00     0.062 C 
ATOM     24  C   UNK d   0       4.690   8.743  22.832  0.00  0.00    -0.020 A 
ATOM     25  C   UNK d   0       4.768   4.914  23.666  0.00  0.00     0.041 A 
ATOM     26  N   UNK d   0       3.622   4.387  24.112  0.00  0.00    -0.355 N 
ATOM     27  C   UNK d   0       5.636   3.885  23.240  0.00  0.00    -0.022 A 
ATOM     28  C   UNK d   0       3.727   3.055  23.980  0.00  0.00     0.042 A 
ATOM     29  H   UNK d   0       2.755   4.948  24.541  0.00  0.00     0.166 HD
ATOM     30  C   UNK d   0       2.825   2.023  24.284  0.00  0.00     0.062 C 
ATOM     31  C   UNK d   0       4.985   2.706  23.434  0.00  0.00    -0.013 A 
ATOM     32  C   UNK d   0       1.453   2.003  24.091  0.00  0.00     0.066 A 
BRANCH   8  33
ATOM     33  C   UNK d   0      -2.056   0.919  23.925  0.00  0.00     0.151 C 
BRANCH  33  34
ATOM     34  C   UNK d   0      -2.900   1.390  25.039  0.00  0.00     0.143 C 
ATOM     35  O   UNK d   0      -3.965   1.986  24.822  0.00  0.00    -0.650 OA
BRANCH  34  36
ATOM     36  O   UNK d   0      -2.495   1.165  26.334  0.00  0.00    -0.776 OA
ATOM     37  H   UNK d   0      -1.541   1.395  26.643  0.00  0.00     0.167 HD
ENDBRANCH  34  36
ENDBRANCH  33  34
ENDBRANCH   8  33
BRANCH  31  38
ATOM     38  C   UNK d   0       5.517   1.330  23.109  0.00  0.00     0.151 C 
BRANCH  38  39
ATOM     39  C   UNK d   0       5.982   0.617  24.280  0.00  0.00     0.143 C 
ATOM     40  O   UNK d   0       6.495   1.198  25.253  0.00  0.00    -0.650 OA
BRANCH  39  41
ATOM     41  O   UNK d   0       5.857  -0.771  24.333  0.00  0.00    -0.776 OA
ATOM     42  H   UNK d   0       5.348  -1.158  25.134  0.00  0.00     0.167 HD
ENDBRANCH  39  41
ENDBRANCH  38  39
ENDBRANCH  31  38
BRANCH  27  43
ATOM     43  C   UNK d   0       7.029   3.981  22.670  0.00  0.00     0.052 C 
BRANCH  43  44
ATOM     44  C   UNK d   0       8.050   4.410  23.673  0.00  0.00     0.115 C 
BRANCH  44  45
ATOM     45  C   UNK d   0       9.023   5.267  22.949  0.00  0.00     0.139 C 
ATOM     46  O   UNK d   0       9.875   5.897  23.624  0.00  0.00    -0.650 OA
BRANCH  45  47
ATOM     47  O   UNK d   0       9.032   5.393  21.576  0.00  0.00    -0.776 OA
ATOM     48  H   UNK d   0       9.387   4.654  20.948  0.00  0.00     0.167 HD
ENDBRANCH  45  47
ENDBRANCH  44  45
ENDBRANCH  43  44
ENDBRANCH  27  43
BRANCH  24  49
ATOM     49  C   UNK d   0       5.998   9.416  22.905  0.00  0.00     0.052 C 
BRANCH  49  50
ATOM     50  C   UNK d   0       6.620   9.504  21.535  0.00  0.00     0.115 C 
BRANCH  50  51
ATOM     51  C   UNK d   0       7.479   8.403  21.123  0.00  0.00     0.139 C 
ATOM     52  O   UNK d   0       8.709   8.376  21.369  0.00  0.00    -0.650 OA
BRANCH  51  53
ATOM     53  O   UNK d   0       6.938   7.333  20.428  0.00  0.00    -0.776 OA
ATOM     54  H   UNK d   0       6.213   7.519  19.757  0.00  0.00     0.167 HD
ENDBRANCH  51  53
ENDBRANCH  50  51
ENDBRANCH  49  50
ENDBRANCH  24  49
BRANCH  21  55
ATOM     55  C   UNK d   0       3.329  10.689  22.010  0.00  0.00     0.151 C 
BRANCH  55  56
ATOM     56  C   UNK d   0       2.485  11.421  22.966  0.00  0.00     0.143 C 
ATOM     57  O   UNK d   0       2.881  11.751  24.101  0.00  0.00    -0.650 OA
BRANCH  56  58
ATOM     58  O   UNK d   0       1.190  11.751  22.569  0.00  0.00    -0.776 OA
ATOM     59  H   UNK d   0       0.712  11.031  21.997  0.00  0.00     0.167 HD
ENDBRANCH  56  58
ENDBRANCH  55  56
ENDBRANCH  21  55
BRANCH  18  60
ATOM     60  C   UNK d   0      -1.535   8.881  23.382  0.00  0.00     0.151 C 
BRANCH  60  61
ATOM     61  C   UNK d   0      -1.839   9.517  22.091  0.00  0.00     0.143 C 
ATOM     62  O   UNK d   0      -2.398   9.002  21.122  0.00  0.00    -0.650 OA
BRANCH  61  63
ATOM     63  O   UNK d   0      -1.435  10.869  21.976  0.00  0.00    -0.776 OA
ATOM     64  H   UNK d   0      -2.112  11.609  21.914  0.00  0.00     0.167 HD
ENDBRANCH  61  63
ENDBRANCH  60  61
ENDBRANCH  18  60
BRANCH  14  65
ATOM     65  C   UNK d   0      -3.070   6.282  23.692  0.00  0.00     0.052 C 
BRANCH  65  66
ATOM     66  C   UNK d   0      -4.045   6.294  22.569  0.00  0.00     0.115 C 
BRANCH  66  67
ATOM     67  C   UNK d   0      -5.015   5.240  22.457  0.00  0.00     0.139 C 
ATOM     68  O   UNK d   0      -5.958   5.364  21.592  0.00  0.00    -0.650 OA
BRANCH  67  69
ATOM     69  O   UNK d   0      -5.075   4.054  23.188  0.00  0.00    -0.776 OA
ATOM     70  H   UNK d   0      -4.679   4.094  24.138  0.00  0.00     0.167 HD
ENDBRANCH  67  69
ENDBRANCH  66  67
ENDBRANCH  65  66
ENDBRANCH  14  65
ENDBRANCH   6   7
ENDBRANCH   5   6
ENDBRANCH   2   5
TORSDOF 28
ENDMDL
MODEL 13
REMARK VINA RESULT:      -9.5      2.461      4.437
REMARK  28 active torsions:
REMARK  status: ('A' for Active; 'I' for Inactive)
REMARK    1  A    between atoms: C_2  and  O_3 
REMARK    2  A    between atoms: C_2  and  C_4 
REMARK    3  A    between atoms: C_4  and  C_5 
REMARK    4  A    between atoms: C_5  and  C_6 
REMARK    5  A    between atoms: C_7  and  C_8 
REMARK    6  A    between atoms: C_8  and  C_9 
REMARK    7  A    between atoms: C_9  and  O_11 
REMARK    8  A    between atoms: C_28  and  C_29 
REMARK    9  A    between atoms: C_29  and  C_30 
REMARK   10  A    between atoms: C_30  and  O_32 
REMARK   11  A    between atoms: C_33  and  C_34 
REMARK   12  A    between atoms: C_34  and  C_35 
REMARK   13  A    between atoms: C_35  and  C_36 
REMARK   14  A    between atoms: C_36  and  O_38 
REMARK   15  A    between atoms: C_39  and  C_40 
REMARK   16  A    between atoms: C_40  and  C_41 
REMARK   17  A    between atoms: C_41  and  C_42 
REMARK   18  A    between atoms: C_42  and  O_44 
REMARK   19  A    between atoms: C_45  and  C_46 
REMARK   20  A    between atoms: C_46  and  C_47 
REMARK   21  A    between atoms: C_47  and  O_49 
REMARK   22  A    between atoms: C_50  and  C_51 
REMARK   23  A    between atoms: C_51  and  C_52 
REMARK   24  A    between atoms: C_52  and  O_54 
REMARK   25  A    between atoms: C_55  and  C_56 
REMARK   26  A    between atoms: C_56  and  C_57 
REMARK   27  A    between atoms: C_57  and  C_58 
REMARK   28  A    between atoms: C_58  and  O_60 
ROOT
ATOM      1  O   UNK d   0       0.131   1.591  28.193  0.00  0.00    -0.650 OA
ATOM      2  C   UNK d   0       0.671   2.642  27.781  0.00  0.00     0.139 C 
ENDROOT
BRANCH   2   3
ATOM      3  O   UNK d   0       1.921   2.981  28.242  0.00  0.00    -0.776 OA
ATOM      4  H   UNK d   0       2.662   3.263  27.597  0.00  0.00     0.167 HD
ENDBRANCH   2   3
BRANCH   2   5
ATOM      5  C   UNK d   0      -0.037   3.514  26.802  0.00  0.00     0.115 C 
BRANCH   5   6
ATOM      6  C   UNK d   0       0.229   3.039  25.399  0.00  0.00     0.052 C 
BRANCH   6   7
ATOM      7  C   UNK d   0       0.484   4.176  24.439  0.00  0.00    -0.020 A 
ATOM      8  C   UNK d   0      -0.402   4.876  23.778  0.00  0.00    -0.011 A 
ATOM      9  C   UNK d   0       0.313   5.854  22.974  0.00  0.00     0.067 A 
ATOM     10  C   UNK d   0      -0.035   6.884  22.087  0.00  0.00     0.062 C 
ATOM     11  N   UNK d   0       1.631   5.673  23.202  0.00  0.00    -0.248 NA
ATOM     12  C   UNK d   0       0.790   7.911  21.616  0.00  0.00     0.041 A 
ATOM     13  N   UNK d   0       2.066   7.896  21.186  0.00  0.00    -0.355 N 
ATOM     14  C   UNK d   0       0.298   9.229  21.607  0.00  0.00    -0.022 A 
ATOM     15  C   UNK d   0       2.399   9.172  20.911  0.00  0.00     0.042 A 
ATOM     16  H   UNK d   0       2.712   7.000  21.059  0.00  0.00     0.166 HD
ATOM     17  C   UNK d   0       3.606   9.718  20.431  0.00  0.00     0.062 C 
ATOM     18  C   UNK d   0       1.316  10.037  21.164  0.00  0.00    -0.013 A 
ATOM     19  C   UNK d   0       4.892   9.448  20.826  0.00  0.00     0.067 A 
ATOM     20  N   UNK d   0       5.069   8.396  21.629  0.00  0.00    -0.248 NA
ATOM     21  C   UNK d   0       6.199  10.043  20.605  0.00  0.00    -0.011 A 
ATOM     22  C   UNK d   0       6.398   8.260  21.950  0.00  0.00     0.066 A 
ATOM     23  C   UNK d   0       6.731   7.179  22.753  0.00  0.00     0.062 C 
ATOM     24  C   UNK d   0       7.075   9.346  21.269  0.00  0.00    -0.020 A 
ATOM     25  C   UNK d   0       5.889   6.151  23.204  0.00  0.00     0.041 A 
ATOM     26  N   UNK d   0       4.626   6.168  23.646  0.00  0.00    -0.355 N 
ATOM     27  C   UNK d   0       6.382   4.828  23.209  0.00  0.00    -0.022 A 
ATOM     28  C   UNK d   0       4.294   4.898  23.929  0.00  0.00     0.042 A 
ATOM     29  H   UNK d   0       3.982   7.071  23.783  0.00  0.00     0.166 HD
ATOM     30  C   UNK d   0       3.101   4.343  24.416  0.00  0.00     0.062 C 
ATOM     31  C   UNK d   0       5.379   4.029  23.665  0.00  0.00    -0.013 A 
ATOM     32  C   UNK d   0       1.800   4.679  24.075  0.00  0.00     0.066 A 
BRANCH   8  33
ATOM     33  C   UNK d   0      -1.868   4.717  23.822  0.00  0.00     0.151 C 
BRANCH  33  34
ATOM     34  C   UNK d   0      -2.397   3.985  22.657  0.00  0.00     0.143 C 
ATOM     35  O   UNK d   0      -2.321   2.750  22.593  0.00  0.00    -0.650 OA
BRANCH  34  36
ATOM     36  O   UNK d   0      -2.981   4.686  21.627  0.00  0.00    -0.776 OA
ATOM     37  H   UNK d   0      -3.951   5.023  21.692  0.00  0.00     0.167 HD
ENDBRANCH  34  36
ENDBRANCH  33  34
ENDBRANCH   8  33
BRANCH  31  38
ATOM     38  C   UNK d   0       5.440   2.528  23.829  0.00  0.00     0.151 C 
BRANCH  38  39
ATOM     39  C   UNK d   0       5.111   1.816  22.612  0.00  0.00     0.143 C 
ATOM     40  O   UNK d   0       5.963   1.196  21.953  0.00  0.00    -0.650 OA
BRANCH  39  41
ATOM     41  O   UNK d   0       3.794   1.818  22.152  0.00  0.00    -0.776 OA
ATOM     42  H   UNK d   0       3.059   1.690  22.854  0.00  0.00     0.167 HD
ENDBRANCH  39  41
ENDBRANCH  38  39
ENDBRANCH  31  38
BRANCH  27  43
ATOM     43  C   UNK d   0       7.740   4.310  22.806  0.00  0.00     0.052 C 
BRANCH  43  44
ATOM     44  C   UNK d   0       8.860   4.920  23.585  0.00  0.00     0.115 C 
BRANCH  44  45
ATOM     45  C   UNK d   0       9.815   5.475  22.592  0.00  0.00     0.139 C 
ATOM     46  O   UNK d   0      10.685   6.286  22.996  0.00  0.00    -0.650 OA
BRANCH  45  47
ATOM     47  O   UNK d   0       9.787   5.134  21.257  0.00  0.00    -0.776 OA
ATOM     48  H   UNK d   0       9.068   4.513  20.852  0.00  0.00     0.167 HD
ENDBRANCH  45  47
ENDBRANCH  44  45
ENDBRANCH  43  44
ENDBRANCH  27  43
BRANCH  24  49
ATOM     49  C   UNK d   0       8.530   9.577  21.294  0.00  0.00     0.052 C 
BRANCH  49  50
ATOM     50  C   UNK d   0       9.237   8.566  20.429  0.00  0.00     0.115 C 
BRANCH  50  51
ATOM     51  C   UNK d   0       9.765   9.034  19.155  0.00  0.00     0.139 C 
ATOM     52  O   UNK d   0      10.885   9.586  19.049  0.00  0.00    -0.650 OA
BRANCH  51  53
ATOM     53  O   UNK d   0       9.013   8.874  18.001  0.00  0.00    -0.776 OA
ATOM     54  H   UNK d   0       8.288   9.542  17.810  0.00  0.00     0.167 HD
ENDBRANCH  51  53
ENDBRANCH  50  51
ENDBRANCH  49  50
ENDBRANCH  24  49
BRANCH  21  55
ATOM     55  C   UNK d   0       6.436  11.244  19.750  0.00  0.00     0.151 C 
BRANCH  55  56
ATOM     56  C   UNK d   0       6.650  10.883  18.340  0.00  0.00     0.143 C 
ATOM     57  O   UNK d   0       6.070   9.924  17.793  0.00  0.00    -0.650 OA
BRANCH  56  58
ATOM     58  O   UNK d   0       7.541  11.657  17.600  0.00  0.00    -0.776 OA
ATOM     59  H   UNK d   0       7.237  12.633  17.432  0.00  0.00     0.167 HD
ENDBRANCH  56  58
ENDBRANCH  55  56
ENDBRANCH  21  55
BRANCH  18  60
ATOM     60  C   UNK d   0       1.226  11.534  21.007  0.00  0.00     0.151 C 
BRANCH  60  61
ATOM     61  C   UNK d   0       1.959  12.105  22.147  0.00  0.00     0.143 C 
ATOM     62  O   UNK d   0       2.075  11.620  23.273  0.00  0.00    -0.650 OA
BRANCH  61  63
ATOM     63  O   UNK d   0       2.592  13.346  21.896  0.00  0.00    -0.776 OA
ATOM     64  H   UNK d   0       2.726  14.018  22.631  0.00  0.00     0.167 HD
ENDBRANCH  61  63
ENDBRANCH  60  61
ENDBRANCH  18  60
BRANCH  14  65
ATOM     65  C   UNK d   0      -1.076   9.765  21.889  0.00  0.00     0.052 C 
BRANCH  65  66
ATOM     66  C   UNK d   0      -1.220  10.303  23.269  0.00  0.00     0.115 C 
BRANCH  66  67
ATOM     67  C   UNK d   0      -1.430   9.400  24.366  0.00  0.00     0.139 C 
ATOM     68  O   UNK d   0      -0.822   9.631  25.475  0.00  0.00    -0.650 OA
BRANCH  67  69
ATOM     69  O   UNK d   0      -2.235   8.262  24.392  0.00  0.00    -0.776 OA
ATOM     70  H   UNK d   0      -2.867   8.142  23.587  0.00  0.00     0.167 HD
ENDBRANCH  67  69
ENDBRANCH  66  67
ENDBRANCH  65  66
ENDBRANCH  14  65
ENDBRANCH   6   7
ENDBRANCH   5   6
ENDBRANCH   2   5
TORSDOF 28
ENDMDL
MODEL 14
REMARK VINA RESULT:      -9.5      2.741      4.643
REMARK  28 active torsions:
REMARK  status: ('A' for Active; 'I' for Inactive)
REMARK    1  A    between atoms: C_2  and  O_3 
REMARK    2  A    between atoms: C_2  and  C_4 
REMARK    3  A    between atoms: C_4  and  C_5 
REMARK    4  A    between atoms: C_5  and  C_6 
REMARK    5  A    between atoms: C_7  and  C_8 
REMARK    6  A    between atoms: C_8  and  C_9 
REMARK    7  A    between atoms: C_9  and  O_11 
REMARK    8  A    between atoms: C_28  and  C_29 
REMARK    9  A    between atoms: C_29  and  C_30 
REMARK   10  A    between atoms: C_30  and  O_32 
REMARK   11  A    between atoms: C_33  and  C_34 
REMARK   12  A    between atoms: C_34  and  C_35 
REMARK   13  A    between atoms: C_35  and  C_36 
REMARK   14  A    between atoms: C_36  and  O_38 
REMARK   15  A    between atoms: C_39  and  C_40 
REMARK   16  A    between atoms: C_40  and  C_41 
REMARK   17  A    between atoms: C_41  and  C_42 
REMARK   18  A    between atoms: C_42  and  O_44 
REMARK   19  A    between atoms: C_45  and  C_46 
REMARK   20  A    between atoms: C_46  and  C_47 
REMARK   21  A    between atoms: C_47  and  O_49 
REMARK   22  A    between atoms: C_50  and  C_51 
REMARK   23  A    between atoms: C_51  and  C_52 
REMARK   24  A    between atoms: C_52  and  O_54 
REMARK   25  A    between atoms: C_55  and  C_56 
REMARK   26  A    between atoms: C_56  and  C_57 
REMARK   27  A    between atoms: C_57  and  C_58 
REMARK   28  A    between atoms: C_58  and  O_60 
ROOT
ATOM      1  O   UNK d   0      -0.996   0.432  24.871  0.00  0.00    -0.650 OA
ATOM      2  C   UNK d   0      -1.605   0.283  23.788  0.00  0.00     0.139 C 
ENDROOT
BRANCH   2   3
ATOM      3  O   UNK d   0      -1.872  -0.986  23.334  0.00  0.00    -0.776 OA
ATOM      4  H   UNK d   0      -2.330  -1.675  23.933  0.00  0.00     0.167 HD
ENDBRANCH   2   3
BRANCH   2   5
ATOM      5  C   UNK d   0      -2.034   1.475  23.001  0.00  0.00     0.115 C 
BRANCH   5   6
ATOM      6  C   UNK d   0      -2.130   2.679  23.898  0.00  0.00     0.052 C 
BRANCH   6   7
ATOM      7  C   UNK d   0      -1.242   3.813  23.445  0.00  0.00    -0.020 A 
ATOM      8  C   UNK d   0      -1.610   4.974  22.966  0.00  0.00    -0.011 A 
ATOM      9  C   UNK d   0      -0.407   5.731  22.661  0.00  0.00     0.067 A 
ATOM     10  C   UNK d   0      -0.116   7.009  22.159  0.00  0.00     0.062 C 
ATOM     11  N   UNK d   0       0.648   4.953  22.980  0.00  0.00    -0.248 NA
ATOM     12  C   UNK d   0       1.116   7.673  22.195  0.00  0.00     0.041 A 
ATOM     13  N   UNK d   0       2.366   7.233  21.958  0.00  0.00    -0.355 N 
ATOM     14  C   UNK d   0       1.150   9.022  22.590  0.00  0.00    -0.022 A 
ATOM     15  C   UNK d   0       3.194   8.268  22.200  0.00  0.00     0.042 A 
ATOM     16  H   UNK d   0       2.657   6.218  21.608  0.00  0.00     0.166 HD
ATOM     17  C   UNK d   0       4.597   8.355  22.107  0.00  0.00     0.062 C 
ATOM     18  C   UNK d   0       2.468   9.407  22.599  0.00  0.00    -0.013 A 
ATOM     19  C   UNK d   0       5.548   7.469  22.545  0.00  0.00     0.067 A 
ATOM     20  N   UNK d   0       5.118   6.267  22.938  0.00  0.00    -0.248 NA
ATOM     21  C   UNK d   0       6.990   7.487  22.722  0.00  0.00    -0.011 A 
ATOM     22  C   UNK d   0       6.175   5.499  23.361  0.00  0.00     0.066 A 
ATOM     23  C   UNK d   0       5.874   4.206  23.765  0.00  0.00     0.062 C 
ATOM     24  C   UNK d   0       7.350   6.332  23.204  0.00  0.00    -0.020 A 
ATOM     25  C   UNK d   0       4.633   3.554  23.709  0.00  0.00     0.041 A 
ATOM     26  N   UNK d   0       3.391   3.986  23.959  0.00  0.00    -0.355 N 
ATOM     27  C   UNK d   0       4.599   2.201  23.308  0.00  0.00    -0.022 A 
ATOM     28  C   UNK d   0       2.564   2.954  23.727  0.00  0.00     0.042 A 
ATOM     29  H   UNK d   0       3.102   5.003  24.321  0.00  0.00     0.166 HD
ATOM     30  C   UNK d   0       1.168   2.850  23.825  0.00  0.00     0.062 C 
ATOM     31  C   UNK d   0       3.294   1.813  23.316  0.00  0.00    -0.013 A 
ATOM     32  C   UNK d   0       0.213   3.786  23.458  0.00  0.00     0.066 A 
BRANCH   8  33
ATOM     33  C   UNK d   0      -2.991   5.447  22.758  0.00  0.00     0.151 C 
BRANCH  33  34
ATOM     34  C   UNK d   0      -3.265   5.807  21.355  0.00  0.00     0.143 C 
ATOM     35  O   UNK d   0      -3.449   6.988  21.025  0.00  0.00    -0.650 OA
BRANCH  34  36
ATOM     36  O   UNK d   0      -3.319   4.817  20.402  0.00  0.00    -0.776 OA
ATOM     37  H   UNK d   0      -2.910   3.888  20.573  0.00  0.00     0.167 HD
ENDBRANCH  34  36
ENDBRANCH  33  34
ENDBRANCH   8  33
BRANCH  31  38
ATOM     38  C   UNK d   0       2.767   0.447  22.944  0.00  0.00     0.151 C 
BRANCH  38  39
ATOM     39  C   UNK d   0       2.616  -0.427  24.088  0.00  0.00     0.143 C 
ATOM     40  O   UNK d   0       2.941  -1.627  24.056  0.00  0.00    -0.650 OA
BRANCH  39  41
ATOM     41  O   UNK d   0       2.090   0.081  25.275  0.00  0.00    -0.776 OA
ATOM     42  H   UNK d   0       1.130   0.438  25.239  0.00  0.00     0.167 HD
ENDBRANCH  39  41
ENDBRANCH  38  39
ENDBRANCH  31  38
BRANCH  27  43
ATOM     43  C   UNK d   0       5.735   1.284  22.929  0.00  0.00     0.052 C 
BRANCH  43  44
ATOM     44  C   UNK d   0       6.329   0.566  24.097  0.00  0.00     0.115 C 
BRANCH  44  45
ATOM     45  C   UNK d   0       6.103  -0.884  23.863  0.00  0.00     0.139 C 
ATOM     46  O   UNK d   0       6.009  -1.285  22.676  0.00  0.00    -0.650 OA
BRANCH  45  47
ATOM     47  O   UNK d   0       5.999  -1.800  24.888  0.00  0.00    -0.776 OA
ATOM     48  H   UNK d   0       6.458  -1.670  25.804  0.00  0.00     0.167 HD
ENDBRANCH  45  47
ENDBRANCH  44  45
ENDBRANCH  43  44
ENDBRANCH  27  43
BRANCH  24  49
ATOM     49  C   UNK d   0       8.729   5.907  23.499  0.00  0.00     0.052 C 
BRANCH  49  50
ATOM     50  C   UNK d   0       9.344   5.247  22.292  0.00  0.00     0.115 C 
BRANCH  50  51
ATOM     51  C   UNK d   0      10.345   6.007  21.556  0.00  0.00     0.139 C 
ATOM     52  O   UNK d   0      11.191   6.738  22.124  0.00  0.00    -0.650 OA
BRANCH  51  53
ATOM     53  O   UNK d   0      10.381   5.936  20.172  0.00  0.00    -0.776 OA
ATOM     54  H   UNK d   0       9.684   5.381  19.707  0.00  0.00     0.167 HD
ENDBRANCH  51  53
ENDBRANCH  50  51
ENDBRANCH  49  50
ENDBRANCH  24  49
BRANCH  21  55
ATOM     55  C   UNK d   0       7.858   8.654  22.387  0.00  0.00     0.151 C 
BRANCH  55  56
ATOM     56  C   UNK d   0       7.786   9.004  20.960  0.00  0.00     0.143 C 
ATOM     57  O   UNK d   0       7.288  10.071  20.551  0.00  0.00    -0.650 OA
BRANCH  56  58
ATOM     58  O   UNK d   0       8.301   8.091  20.041  0.00  0.00    -0.776 OA
ATOM     59  H   UNK d   0       8.966   8.491  19.354  0.00  0.00     0.167 HD
ENDBRANCH  56  58
ENDBRANCH  55  56
ENDBRANCH  21  55
BRANCH  18  60
ATOM     60  C   UNK d   0       2.965  10.781  22.972  0.00  0.00     0.151 C 
BRANCH  60  61
ATOM     61  C   UNK d   0       3.122  10.770  24.435  0.00  0.00     0.143 C 
ATOM     62  O   UNK d   0       3.212  11.747  25.179  0.00  0.00    -0.650 OA
BRANCH  61  63
ATOM     63  O   UNK d   0       3.172   9.484  25.025  0.00  0.00    -0.776 OA
ATOM     64  H   UNK d   0       4.008   8.929  24.988  0.00  0.00     0.167 HD
ENDBRANCH  61  63
ENDBRANCH  60  61
ENDBRANCH  18  60
BRANCH  14  65
ATOM     65  C   UNK d   0       0.037   9.994  22.861  0.00  0.00     0.052 C 
BRANCH  65  66
ATOM     66  C   UNK d   0      -0.977   9.465  23.813  0.00  0.00     0.115 C 
BRANCH  66  67
ATOM     67  C   UNK d   0      -0.829   9.711  25.220  0.00  0.00     0.139 C 
ATOM     68  O   UNK d   0       0.235   9.293  25.807  0.00  0.00    -0.650 OA
BRANCH  67  69
ATOM     69  O   UNK d   0      -1.719  10.368  26.069  0.00  0.00    -0.776 OA
ATOM     70  H   UNK d   0      -1.761  10.012  27.035  0.00  0.00     0.167 HD
ENDBRANCH  67  69
ENDBRANCH  66  67
ENDBRANCH  65  66
ENDBRANCH  14  65
ENDBRANCH   6   7
ENDBRANCH   5   6
ENDBRANCH   2   5
TORSDOF 28
ENDMDL
MODEL 15
REMARK VINA RESULT:      -9.5      1.603      7.633
REMARK  28 active torsions:
REMARK  status: ('A' for Active; 'I' for Inactive)
REMARK    1  A    between atoms: C_2  and  O_3 
REMARK    2  A    between atoms: C_2  and  C_4 
REMARK    3  A    between atoms: C_4  and  C_5 
REMARK    4  A    between atoms: C_5  and  C_6 
REMARK    5  A    between atoms: C_7  and  C_8 
REMARK    6  A    between atoms: C_8  and  C_9 
REMARK    7  A    between atoms: C_9  and  O_11 
REMARK    8  A    between atoms: C_28  and  C_29 
REMARK    9  A    between atoms: C_29  and  C_30 
REMARK   10  A    between atoms: C_30  and  O_32 
REMARK   11  A    between atoms: C_33  and  C_34 
REMARK   12  A    between atoms: C_34  and  C_35 
REMARK   13  A    between atoms: C_35  and  C_36 
REMARK   14  A    between atoms: C_36  and  O_38 
REMARK   15  A    between atoms: C_39  and  C_40 
REMARK   16  A    between atoms: C_40  and  C_41 
REMARK   17  A    between atoms: C_41  and  C_42 
REMARK   18  A    between atoms: C_42  and  O_44 
REMARK   19  A    between atoms: C_45  and  C_46 
REMARK   20  A    between atoms: C_46  and  C_47 
REMARK   21  A    between atoms: C_47  and  O_49 
REMARK   22  A    between atoms: C_50  and  C_51 
REMARK   23  A    between atoms: C_51  and  C_52 
REMARK   24  A    between atoms: C_52  and  O_54 
REMARK   25  A    between atoms: C_55  and  C_56 
REMARK   26  A    between atoms: C_56  and  C_57 
REMARK   27  A    between atoms: C_57  and  C_58 
REMARK   28  A    between atoms: C_58  and  O_60 
ROOT
ATOM      1  O   UNK d   0       0.364   3.023  25.229  0.00  0.00    -0.650 OA
ATOM      2  C   UNK d   0       1.356   2.836  25.968  0.00  0.00     0.139 C 
ENDROOT
BRANCH   2   3
ATOM      3  O   UNK d   0       1.409   3.457  27.193  0.00  0.00    -0.776 OA
ATOM      4  H   UNK d   0       1.339   4.473  27.273  0.00  0.00     0.167 HD
ENDBRANCH   2   3
BRANCH   2   5
ATOM      5  C   UNK d   0       2.467   1.950  25.520  0.00  0.00     0.115 C 
BRANCH   5   6
ATOM      6  C   UNK d   0       2.756   2.178  24.061  0.00  0.00     0.052 C 
BRANCH   6   7
ATOM      7  C   UNK d   0       3.711   3.325  23.831  0.00  0.00    -0.020 A 
ATOM      8  C   UNK d   0       5.007   3.333  24.013  0.00  0.00    -0.011 A 
ATOM      9  C   UNK d   0       5.496   4.658  23.669  0.00  0.00     0.067 A 
ATOM     10  C   UNK d   0       6.746   5.296  23.625  0.00  0.00     0.062 C 
ATOM     11  N   UNK d   0       4.429   5.394  23.293  0.00  0.00    -0.248 NA
ATOM     12  C   UNK d   0       7.058   6.506  22.996  0.00  0.00     0.041 A 
ATOM     13  N   UNK d   0       6.395   7.678  22.951  0.00  0.00    -0.355 N 
ATOM     14  C   UNK d   0       8.221   6.584  22.209  0.00  0.00    -0.022 A 
ATOM     15  C   UNK d   0       7.105   8.494  22.149  0.00  0.00     0.042 A 
ATOM     16  H   UNK d   0       5.456   7.929  23.490  0.00  0.00     0.166 HD
ATOM     17  C   UNK d   0       6.865   9.828  21.761  0.00  0.00     0.062 C 
ATOM     18  C   UNK d   0       8.256   7.844  21.665  0.00  0.00    -0.013 A 
ATOM     19  C   UNK d   0       5.694  10.408  21.346  0.00  0.00     0.067 A 
ATOM     20  N   UNK d   0       4.576   9.695  21.506  0.00  0.00    -0.248 NA
ATOM     21  C   UNK d   0       5.313  11.666  20.726  0.00  0.00    -0.011 A 
ATOM     22  C   UNK d   0       3.493  10.394  21.033  0.00  0.00     0.066 A 
ATOM     23  C   UNK d   0       2.255   9.783  21.172  0.00  0.00     0.062 C 
ATOM     24  C   UNK d   0       4.025  11.650  20.542  0.00  0.00    -0.020 A 
ATOM     25  C   UNK d   0       1.962   8.572  21.819  0.00  0.00     0.041 A 
ATOM     26  N   UNK d   0       2.612   7.403  21.852  0.00  0.00    -0.355 N 
ATOM     27  C   UNK d   0       0.796   8.496  22.612  0.00  0.00    -0.022 A 
ATOM     28  C   UNK d   0       1.902   6.584  22.644  0.00  0.00     0.042 A 
ATOM     29  H   UNK d   0       3.551   7.149  21.301  0.00  0.00     0.166 HD
ATOM     30  C   UNK d   0       2.124   5.253  23.031  0.00  0.00     0.062 C 
ATOM     31  C   UNK d   0       0.751   7.242  23.138  0.00  0.00    -0.013 A 
ATOM     32  C   UNK d   0       3.325   4.649  23.367  0.00  0.00     0.066 A 
BRANCH   8  33
ATOM     33  C   UNK d   0       5.841   2.213  24.487  0.00  0.00     0.151 C 
BRANCH  33  34
ATOM     34  C   UNK d   0       6.175   1.257  23.416  0.00  0.00     0.143 C 
ATOM     35  O   UNK d   0       6.533   0.101  23.684  0.00  0.00    -0.650 OA
BRANCH  34  36
ATOM     36  O   UNK d   0       6.089   1.657  22.103  0.00  0.00    -0.776 OA
ATOM     37  H   UNK d   0       5.282   2.195  21.760  0.00  0.00     0.167 HD
ENDBRANCH  34  36
ENDBRANCH  33  34
ENDBRANCH   8  33
BRANCH  31  38
ATOM     38  C   UNK d   0      -0.312   6.702  24.066  0.00  0.00     0.151 C 
BRANCH  38  39
ATOM     39  C   UNK d   0       0.083   6.743  25.458  0.00  0.00     0.143 C 
ATOM     40  O   UNK d   0       0.825   7.632  25.913  0.00  0.00    -0.650 OA
BRANCH  39  41
ATOM     41  O   UNK d   0      -0.378   5.759  26.331  0.00  0.00    -0.776 OA
ATOM     42  H   UNK d   0      -0.134   4.790  26.105  0.00  0.00     0.167 HD
ENDBRANCH  39  41
ENDBRANCH  38  39
ENDBRANCH  31  38
BRANCH  27  43
ATOM     43  C   UNK d   0      -0.252   9.548  22.879  0.00  0.00     0.052 C 
BRANCH  43  44
ATOM     44  C   UNK d   0      -1.079   9.875  21.679  0.00  0.00     0.115 C 
BRANCH  44  45
ATOM     45  C   UNK d   0      -2.185   8.884  21.643  0.00  0.00     0.139 C 
ATOM     46  O   UNK d   0      -2.820   8.667  22.704  0.00  0.00    -0.650 OA
BRANCH  45  47
ATOM     47  O   UNK d   0      -2.542   8.203  20.498  0.00  0.00    -0.776 OA
ATOM     48  H   UNK d   0      -3.175   8.600  19.785  0.00  0.00     0.167 HD
ENDBRANCH  45  47
ENDBRANCH  44  45
ENDBRANCH  43  44
ENDBRANCH  27  43
BRANCH  24  49
ATOM     49  C   UNK d   0       3.215  12.742  19.974  0.00  0.00     0.052 C 
BRANCH  49  50
ATOM     50  C   UNK d   0       2.885  13.758  21.038  0.00  0.00     0.115 C 
BRANCH  50  51
ATOM     51  C   UNK d   0       2.013  13.326  22.122  0.00  0.00     0.139 C 
ATOM     52  O   UNK d   0       2.377  13.322  23.322  0.00  0.00    -0.650 OA
BRANCH  51  53
ATOM     53  O   UNK d   0       0.726  12.896  21.838  0.00  0.00    -0.776 OA
ATOM     54  H   UNK d   0       0.151  13.474  21.251  0.00  0.00     0.167 HD
ENDBRANCH  51  53
ENDBRANCH  50  51
ENDBRANCH  49  50
ENDBRANCH  24  49
BRANCH  21  55
ATOM     55  C   UNK d   0       6.277  12.754  20.386  0.00  0.00     0.151 C 
BRANCH  55  56
ATOM     56  C   UNK d   0       7.436  12.250  19.634  0.00  0.00     0.143 C 
ATOM     57  O   UNK d   0       7.337  11.749  18.497  0.00  0.00    -0.650 OA
BRANCH  56  58
ATOM     58  O   UNK d   0       8.690  12.344  20.235  0.00  0.00    -0.776 OA
ATOM     59  H   UNK d   0       8.889  13.254  20.690  0.00  0.00     0.167 HD
ENDBRANCH  56  58
ENDBRANCH  55  56
ENDBRANCH  21  55
BRANCH  18  60
ATOM     60  C   UNK d   0       9.334   8.357  20.743  0.00  0.00     0.151 C 
BRANCH  60  61
ATOM     61  C   UNK d   0      10.372   8.929  21.614  0.00  0.00     0.143 C 
ATOM     62  O   UNK d   0      10.200   9.635  22.608  0.00  0.00    -0.650 OA
BRANCH  61  63
ATOM     63  O   UNK d   0      11.704   8.620  21.247  0.00  0.00    -0.776 OA
ATOM     64  H   UNK d   0      12.103   7.721  21.454  0.00  0.00     0.167 HD
ENDBRANCH  61  63
ENDBRANCH  60  61
ENDBRANCH  18  60
BRANCH  14  65
ATOM     65  C   UNK d   0       9.341   5.602  22.014  0.00  0.00     0.052 C 
BRANCH  65  66
ATOM     66  C   UNK d   0      10.143   5.381  23.248  0.00  0.00     0.115 C 
BRANCH  66  67
ATOM     67  C   UNK d   0      10.781   6.496  23.890  0.00  0.00     0.139 C 
ATOM     68  O   UNK d   0      11.994   6.777  23.567  0.00  0.00    -0.650 OA
BRANCH  67  69
ATOM     69  O   UNK d   0      10.244   7.347  24.855  0.00  0.00    -0.776 OA
ATOM     70  H   UNK d   0       9.369   7.824  24.593  0.00  0.00     0.167 HD
ENDBRANCH  67  69
ENDBRANCH  66  67
ENDBRANCH  65  66
ENDBRANCH  14  65
ENDBRANCH   6   7
ENDBRANCH   5   6
ENDBRANCH   2   5
TORSDOF 28
ENDMDL
MODEL 16
REMARK VINA RESULT:      -9.4      1.962      7.545
REMARK  28 active torsions:
REMARK  status: ('A' for Active; 'I' for Inactive)
REMARK    1  A    between atoms: C_2  and  O_3 
REMARK    2  A    between atoms: C_2  and  C_4 
REMARK    3  A    between atoms: C_4  and  C_5 
REMARK    4  A    between atoms: C_5  and  C_6 
REMARK    5  A    between atoms: C_7  and  C_8 
REMARK    6  A    between atoms: C_8  and  C_9 
REMARK    7  A    between atoms: C_9  and  O_11 
REMARK    8  A    between atoms: C_28  and  C_29 
REMARK    9  A    between atoms: C_29  and  C_30 
REMARK   10  A    between atoms: C_30  and  O_32 
REMARK   11  A    between atoms: C_33  and  C_34 
REMARK   12  A    between atoms: C_34  and  C_35 
REMARK   13  A    between atoms: C_35  and  C_36 
REMARK   14  A    between atoms: C_36  and  O_38 
REMARK   15  A    between atoms: C_39  and  C_40 
REMARK   16  A    between atoms: C_40  and  C_41 
REMARK   17  A    between atoms: C_41  and  C_42 
REMARK   18  A    between atoms: C_42  and  O_44 
REMARK   19  A    between atoms: C_45  and  C_46 
REMARK   20  A    between atoms: C_46  and  C_47 
REMARK   21  A    between atoms: C_47  and  O_49 
REMARK   22  A    between atoms: C_50  and  C_51 
REMARK   23  A    between atoms: C_51  and  C_52 
REMARK   24  A    between atoms: C_52  and  O_54 
REMARK   25  A    between atoms: C_55  and  C_56 
REMARK   26  A    between atoms: C_56  and  C_57 
REMARK   27  A    between atoms: C_57  and  C_58 
REMARK   28  A    between atoms: C_58  and  O_60 
ROOT
ATOM      1  O   UNK d   0      -2.493   7.052  22.512  0.00  0.00    -0.650 OA
ATOM      2  C   UNK d   0      -2.574   6.059  23.269  0.00  0.00     0.139 C 
ENDROOT
BRANCH   2   3
ATOM      3  O   UNK d   0      -3.809   5.525  23.550  0.00  0.00    -0.776 OA
ATOM      4  H   UNK d   0      -4.431   5.965  24.231  0.00  0.00     0.167 HD
ENDBRANCH   2   3
BRANCH   2   5
ATOM      5  C   UNK d   0      -1.341   5.465  23.858  0.00  0.00     0.115 C 
BRANCH   5   6
ATOM      6  C   UNK d   0      -0.479   4.879  22.773  0.00  0.00     0.052 C 
BRANCH   6   7
ATOM      7  C   UNK d   0       0.992   5.137  22.997  0.00  0.00    -0.020 A 
ATOM      8  C   UNK d   0       1.848   4.379  23.633  0.00  0.00    -0.011 A 
ATOM      9  C   UNK d   0       3.141   5.041  23.598  0.00  0.00     0.067 A 
ATOM     10  C   UNK d   0       4.436   4.759  24.059  0.00  0.00     0.062 C 
ATOM     11  N   UNK d   0       2.980   6.200  22.926  0.00  0.00    -0.248 NA
ATOM     12  C   UNK d   0       5.626   5.394  23.687  0.00  0.00     0.041 A 
ATOM     13  N   UNK d   0       5.916   6.696  23.503  0.00  0.00    -0.355 N 
ATOM     14  C   UNK d   0       6.751   4.606  23.380  0.00  0.00    -0.022 A 
ATOM     15  C   UNK d   0       7.193   6.755  23.080  0.00  0.00     0.042 A 
ATOM     16  H   UNK d   0       5.237   7.558  23.688  0.00  0.00     0.166 HD
ATOM     17  C   UNK d   0       7.993   7.864  22.744  0.00  0.00     0.062 C 
ATOM     18  C   UNK d   0       7.749   5.464  22.990  0.00  0.00    -0.013 A 
ATOM     19  C   UNK d   0       7.673   8.961  21.985  0.00  0.00     0.067 A 
ATOM     20  N   UNK d   0       6.385   9.124  21.673  0.00  0.00    -0.248 NA
ATOM     21  C   UNK d   0       8.404  10.059  21.376  0.00  0.00    -0.011 A 
ATOM     22  C   UNK d   0       6.220  10.249  20.902  0.00  0.00     0.066 A 
ATOM     23  C   UNK d   0       4.919  10.561  20.536  0.00  0.00     0.062 C 
ATOM     24  C   UNK d   0       7.548  10.807  20.740  0.00  0.00    -0.020 A 
ATOM     25  C   UNK d   0       3.737   9.917  20.932  0.00  0.00     0.041 A 
ATOM     26  N   UNK d   0       3.444   8.622  21.099  0.00  0.00    -0.355 N 
ATOM     27  C   UNK d   0       2.610  10.709  21.244  0.00  0.00    -0.022 A 
ATOM     28  C   UNK d   0       2.168   8.560  21.513  0.00  0.00     0.042 A 
ATOM     29  H   UNK d   0       4.124   7.757  20.903  0.00  0.00     0.166 HD
ATOM     30  C   UNK d   0       1.357   7.463  21.842  0.00  0.00     0.062 C 
ATOM     31  C   UNK d   0       1.613   9.858  21.613  0.00  0.00    -0.013 A 
ATOM     32  C   UNK d   0       1.709   6.317  22.537  0.00  0.00     0.066 A 
BRANCH   8  33
ATOM     33  C   UNK d   0       1.571   3.084  24.281  0.00  0.00     0.151 C 
BRANCH  33  34
ATOM     34  C   UNK d   0       1.703   3.140  25.748  0.00  0.00     0.143 C 
ATOM     35  O   UNK d   0       0.897   3.784  26.435  0.00  0.00    -0.650 OA
BRANCH  34  36
ATOM     36  O   UNK d   0       2.736   2.469  26.360  0.00  0.00    -0.776 OA
ATOM     37  H   UNK d   0       3.233   2.873  27.165  0.00  0.00     0.167 HD
ENDBRANCH  34  36
ENDBRANCH  33  34
ENDBRANCH   8  33
BRANCH  31  38
ATOM     38  C   UNK d   0       0.221  10.252  22.049  0.00  0.00     0.151 C 
BRANCH  38  39
ATOM     39  C   UNK d   0       0.024  10.130  23.477  0.00  0.00     0.143 C 
ATOM     40  O   UNK d   0       0.969   9.964  24.268  0.00  0.00    -0.650 OA
BRANCH  39  41
ATOM     41  O   UNK d   0      -1.267  10.198  24.000  0.00  0.00    -0.776 OA
ATOM     42  H   UNK d   0      -1.374   9.986  24.997  0.00  0.00     0.167 HD
ENDBRANCH  39  41
ENDBRANCH  38  39
ENDBRANCH  31  38
BRANCH  27  43
ATOM     43  C   UNK d   0       2.450  12.208  21.202  0.00  0.00     0.052 C 
BRANCH  43  44
ATOM     44  C   UNK d   0       3.116  12.840  20.024  0.00  0.00     0.115 C 
BRANCH  44  45
ATOM     45  C   UNK d   0       3.558  14.191  20.460  0.00  0.00     0.139 C 
ATOM     46  O   UNK d   0       4.669  14.292  21.038  0.00  0.00    -0.650 OA
BRANCH  45  47
ATOM     47  O   UNK d   0       2.806  15.326  20.252  0.00  0.00    -0.776 OA
ATOM     48  H   UNK d   0       3.224  16.266  20.161  0.00  0.00     0.167 HD
ENDBRANCH  45  47
ENDBRANCH  44  45
ENDBRANCH  43  44
ENDBRANCH  27  43
BRANCH  24  49
ATOM     49  C   UNK d   0       7.855  12.051  20.012  0.00  0.00     0.052 C 
BRANCH  49  50
ATOM     50  C   UNK d   0       7.482  11.913  18.558  0.00  0.00     0.115 C 
BRANCH  50  51
ATOM     51  C   UNK d   0       8.350  11.094  17.724  0.00  0.00     0.139 C 
ATOM     52  O   UNK d   0       7.907  10.300  16.861  0.00  0.00    -0.650 OA
BRANCH  51  53
ATOM     53  O   UNK d   0       9.726  11.178  17.875  0.00  0.00    -0.776 OA
ATOM     54  H   UNK d   0      10.128  12.077  18.075  0.00  0.00     0.167 HD
ENDBRANCH  51  53
ENDBRANCH  50  51
ENDBRANCH  49  50
ENDBRANCH  24  49
BRANCH  21  55
ATOM     55  C   UNK d   0       9.879  10.249  21.496  0.00  0.00     0.151 C 
BRANCH  55  56
ATOM     56  C   UNK d   0      10.629   9.257  20.710  0.00  0.00     0.143 C 
ATOM     57  O   UNK d   0      10.285   8.904  19.565  0.00  0.00    -0.650 OA
BRANCH  56  58
ATOM     58  O   UNK d   0      11.769   8.700  21.286  0.00  0.00    -0.776 OA
ATOM     59  H   UNK d   0      12.102   7.827  20.839  0.00  0.00     0.167 HD
ENDBRANCH  56  58
ENDBRANCH  55  56
ENDBRANCH  21  55
BRANCH  18  60
ATOM     60  C   UNK d   0       9.133   5.042  22.563  0.00  0.00     0.151 C 
BRANCH  60  61
ATOM     61  C   UNK d   0      10.065   5.768  23.439  0.00  0.00     0.143 C 
ATOM     62  O   UNK d   0      10.040   5.820  24.669  0.00  0.00    -0.650 OA
BRANCH  61  63
ATOM     63  O   UNK d   0      11.094   6.475  22.771  0.00  0.00    -0.776 OA
ATOM     64  H   UNK d   0      12.040   6.452  23.106  0.00  0.00     0.167 HD
ENDBRANCH  61  63
ENDBRANCH  60  61
ENDBRANCH  18  60
BRANCH  14  65
ATOM     65  C   UNK d   0       6.981   3.128  23.520  0.00  0.00     0.052 C 
BRANCH  65  66
ATOM     66  C   UNK d   0       5.934   2.311  22.850  0.00  0.00     0.115 C 
BRANCH  66  67
ATOM     67  C   UNK d   0       5.463   1.107  23.475  0.00  0.00     0.139 C 
ATOM     68  O   UNK d   0       5.863  -0.023  23.011  0.00  0.00    -0.650 OA
BRANCH  67  69
ATOM     69  O   UNK d   0       4.594   0.993  24.561  0.00  0.00    -0.776 OA
ATOM     70  H   UNK d   0       4.754   0.186  25.179  0.00  0.00     0.167 HD
ENDBRANCH  67  69
ENDBRANCH  66  67
ENDBRANCH  65  66
ENDBRANCH  14  65
ENDBRANCH   6   7
ENDBRANCH   5   6
ENDBRANCH   2   5
TORSDOF 28
ENDMDL
MODEL 17
REMARK VINA RESULT:      -9.2      3.148      8.759
REMARK  28 active torsions:
REMARK  status: ('A' for Active; 'I' for Inactive)
REMARK    1  A    between atoms: C_2  and  O_3 
REMARK    2  A    between atoms: C_2  and  C_4 
REMARK    3  A    between atoms: C_4  and  C_5 
REMARK    4  A    between atoms: C_5  and  C_6 
REMARK    5  A    between atoms: C_7  and  C_8 
REMARK    6  A    between atoms: C_8  and  C_9 
REMARK    7  A    between atoms: C_9  and  O_11 
REMARK    8  A    between atoms: C_28  and  C_29 
REMARK    9  A    between atoms: C_29  and  C_30 
REMARK   10  A    between atoms: C_30  and  O_32 
REMARK   11  A    between atoms: C_33  and  C_34 
REMARK   12  A    between atoms: C_34  and  C_35 
REMARK   13  A    between atoms: C_35  and  C_36 
REMARK   14  A    between atoms: C_36  and  O_38 
REMARK   15  A    between atoms: C_39  and  C_40 
REMARK   16  A    between atoms: C_40  and  C_41 
REMARK   17  A    between atoms: C_41  and  C_42 
REMARK   18  A    between atoms: C_42  and  O_44 
REMARK   19  A    between atoms: C_45  and  C_46 
REMARK   20  A    between atoms: C_46  and  C_47 
REMARK   21  A    between atoms: C_47  and  O_49 
REMARK   22  A    between atoms: C_50  and  C_51 
REMARK   23  A    between atoms: C_51  and  C_52 
REMARK   24  A    between atoms: C_52  and  O_54 
REMARK   25  A    between atoms: C_55  and  C_56 
REMARK   26  A    between atoms: C_56  and  C_57 
REMARK   27  A    between atoms: C_57  and  C_58 
REMARK   28  A    between atoms: C_58  and  O_60 
ROOT
ATOM      1  O   UNK d   0      -5.073   2.964  19.921  0.00  0.00    -0.650 OA
ATOM      2  C   UNK d   0      -4.953   4.124  20.372  0.00  0.00     0.139 C 
ENDROOT
BRANCH   2   3
ATOM      3  O   UNK d   0      -6.077   4.890  20.569  0.00  0.00    -0.776 OA
ATOM      4  H   UNK d   0      -6.492   4.989  21.498  0.00  0.00     0.167 HD
ENDBRANCH   2   3
BRANCH   2   5
ATOM      5  C   UNK d   0      -3.602   4.668  20.691  0.00  0.00     0.115 C 
BRANCH   5   6
ATOM      6  C   UNK d   0      -3.408   4.731  22.182  0.00  0.00     0.052 C 
BRANCH   6   7
ATOM      7  C   UNK d   0      -2.016   4.329  22.604  0.00  0.00    -0.020 A 
ATOM      8  C   UNK d   0      -1.620   3.161  23.041  0.00  0.00    -0.011 A 
ATOM      9  C   UNK d   0      -0.199   3.252  23.331  0.00  0.00     0.067 A 
ATOM     10  C   UNK d   0       0.798   2.378  23.792  0.00  0.00     0.062 C 
ATOM     11  N   UNK d   0       0.187   4.513  23.048  0.00  0.00    -0.248 NA
ATOM     12  C   UNK d   0       2.183   2.573  23.746  0.00  0.00     0.041 A 
ATOM     13  N   UNK d   0       2.934   3.659  24.010  0.00  0.00    -0.355 N 
ATOM     14  C   UNK d   0       3.004   1.519  23.306  0.00  0.00    -0.022 A 
ATOM     15  C   UNK d   0       4.210   3.324  23.741  0.00  0.00     0.042 A 
ATOM     16  H   UNK d   0       2.572   4.637  24.397  0.00  0.00     0.166 HD
ATOM     17  C   UNK d   0       5.395   4.080  23.845  0.00  0.00     0.062 C 
ATOM     18  C   UNK d   0       4.294   1.990  23.297  0.00  0.00    -0.013 A 
ATOM     19  C   UNK d   0       5.631   5.371  23.447  0.00  0.00     0.067 A 
ATOM     20  N   UNK d   0       4.569   6.098  23.090  0.00  0.00    -0.248 NA
ATOM     21  C   UNK d   0       6.803   6.216  23.283  0.00  0.00    -0.011 A 
ATOM     22  C   UNK d   0       4.961   7.356  22.703  0.00  0.00     0.066 A 
ATOM     23  C   UNK d   0       3.949   8.233  22.341  0.00  0.00     0.062 C 
ATOM     24  C   UNK d   0       6.404   7.375  22.843  0.00  0.00    -0.020 A 
ATOM     25  C   UNK d   0       2.563   8.022  22.407  0.00  0.00     0.041 A 
ATOM     26  N   UNK d   0       1.815   6.947  22.130  0.00  0.00    -0.355 N 
ATOM     27  C   UNK d   0       1.740   9.079  22.852  0.00  0.00    -0.022 A 
ATOM     28  C   UNK d   0       0.541   7.282  22.388  0.00  0.00     0.042 A 
ATOM     29  H   UNK d   0       2.179   5.969  21.731  0.00  0.00     0.166 HD
ATOM     30  C   UNK d   0      -0.647   6.543  22.281  0.00  0.00     0.062 C 
ATOM     31  C   UNK d   0       0.459   8.619  22.845  0.00  0.00    -0.013 A 
ATOM     32  C   UNK d   0      -0.859   5.212  22.606  0.00  0.00     0.066 A 
BRANCH   8  33
ATOM     33  C   UNK d   0      -2.451   1.955  23.219  0.00  0.00     0.151 C 
BRANCH  33  34
ATOM     34  C   UNK d   0      -3.002   1.839  24.581  0.00  0.00     0.143 C 
ATOM     35  O   UNK d   0      -4.223   1.736  24.767  0.00  0.00    -0.650 OA
BRANCH  34  36
ATOM     36  O   UNK d   0      -2.147   1.845  25.659  0.00  0.00    -0.776 OA
ATOM     37  H   UNK d   0      -1.650   2.701  25.941  0.00  0.00     0.167 HD
ENDBRANCH  34  36
ENDBRANCH  33  34
ENDBRANCH   8  33
BRANCH  31  38
ATOM     38  C   UNK d   0      -0.769   9.396  23.257  0.00  0.00     0.151 C 
BRANCH  38  39
ATOM     39  C   UNK d   0      -1.356  10.141  22.164  0.00  0.00     0.143 C 
ATOM     40  O   UNK d   0      -1.973   9.587  21.237  0.00  0.00    -0.650 OA
BRANCH  39  41
ATOM     41  O   UNK d   0      -1.235  11.530  22.137  0.00  0.00    -0.776 OA
ATOM     42  H   UNK d   0      -2.081  12.071  22.342  0.00  0.00     0.167 HD
ENDBRANCH  39  41
ENDBRANCH  38  39
ENDBRANCH  31  38
BRANCH  27  43
ATOM     43  C   UNK d   0       2.119  10.477  23.273  0.00  0.00     0.052 C 
BRANCH  43  44
ATOM     44  C   UNK d   0       2.581  11.331  22.137  0.00  0.00     0.115 C 
BRANCH  44  45
ATOM     45  C   UNK d   0       2.028  12.689  22.375  0.00  0.00     0.139 C 
ATOM     46  O   UNK d   0       1.094  13.087  21.635  0.00  0.00    -0.650 OA
BRANCH  45  47
ATOM     47  O   UNK d   0       2.492  13.520  23.372  0.00  0.00    -0.776 OA
ATOM     48  H   UNK d   0       2.020  13.618  24.286  0.00  0.00     0.167 HD
ENDBRANCH  45  47
ENDBRANCH  44  45
ENDBRANCH  43  44
ENDBRANCH  27  43
BRANCH  24  49
ATOM     49  C   UNK d   0       7.260   8.543  22.576  0.00  0.00     0.052 C 
BRANCH  49  50
ATOM     50  C   UNK d   0       7.667   8.574  21.125  0.00  0.00     0.115 C 
BRANCH  50  51
ATOM     51  C   UNK d   0       9.094   8.607  20.835  0.00  0.00     0.139 C 
ATOM     52  O   UNK d   0       9.890   9.361  21.443  0.00  0.00    -0.650 OA
BRANCH  51  53
ATOM     53  O   UNK d   0       9.614   7.782  19.850  0.00  0.00    -0.776 OA
ATOM     54  H   UNK d   0       9.164   6.900  19.683  0.00  0.00     0.167 HD
ENDBRANCH  51  53
ENDBRANCH  50  51
ENDBRANCH  49  50
ENDBRANCH  24  49
BRANCH  21  55
ATOM     55  C   UNK d   0       8.197   5.778  23.587  0.00  0.00     0.151 C 
BRANCH  55  56
ATOM     56  C   UNK d   0       8.837   5.133  22.430  0.00  0.00     0.143 C 
ATOM     57  O   UNK d   0       9.912   5.533  21.943  0.00  0.00    -0.650 OA
BRANCH  56  58
ATOM     58  O   UNK d   0       8.199   4.027  21.869  0.00  0.00    -0.776 OA
ATOM     59  H   UNK d   0       7.533   3.543  22.497  0.00  0.00     0.167 HD
ENDBRANCH  56  58
ENDBRANCH  55  56
ENDBRANCH  21  55
BRANCH  18  60
ATOM     60  C   UNK d   0       5.503   1.189  22.882  0.00  0.00     0.151 C 
BRANCH  60  61
ATOM     61  C   UNK d   0       6.022   0.573  24.113  0.00  0.00     0.143 C 
ATOM     62  O   UNK d   0       6.349   1.150  25.151  0.00  0.00    -0.650 OA
BRANCH  61  63
ATOM     63  O   UNK d   0       6.147  -0.836  24.075  0.00  0.00    -0.776 OA
ATOM     64  H   UNK d   0       5.410  -1.413  23.710  0.00  0.00     0.167 HD
ENDBRANCH  61  63
ENDBRANCH  60  61
ENDBRANCH  18  60
BRANCH  14  65
ATOM     65  C   UNK d   0       2.678   0.087  22.991  0.00  0.00     0.052 C 
BRANCH  65  66
ATOM     66  C   UNK d   0       2.521  -0.754  24.208  0.00  0.00     0.115 C 
BRANCH  66  67
ATOM     67  C   UNK d   0       2.792  -2.163  24.139  0.00  0.00     0.139 C 
ATOM     68  O   UNK d   0       4.018  -2.551  24.130  0.00  0.00    -0.650 OA
BRANCH  67  69
ATOM     69  O   UNK d   0       1.871  -3.207  24.078  0.00  0.00    -0.776 OA
ATOM     70  H   UNK d   0       2.237  -4.109  23.741  0.00  0.00     0.167 HD
ENDBRANCH  67  69
ENDBRANCH  66  67
ENDBRANCH  65  66
ENDBRANCH  14  65
ENDBRANCH   6   7
ENDBRANCH   5   6
ENDBRANCH   2   5
TORSDOF 28
ENDMDL
MODEL 18
REMARK VINA RESULT:      -9.2      1.768      8.100
REMARK  28 active torsions:
REMARK  status: ('A' for Active; 'I' for Inactive)
REMARK    1  A    between atoms: C_2  and  O_3 
REMARK    2  A    between atoms: C_2  and  C_4 
REMARK    3  A    between atoms: C_4  and  C_5 
REMARK    4  A    between atoms: C_5  and  C_6 
REMARK    5  A    between atoms: C_7  and  C_8 
REMARK    6  A    between atoms: C_8  and  C_9 
REMARK    7  A    between atoms: C_9  and  O_11 
REMARK    8  A    between atoms: C_28  and  C_29 
REMARK    9  A    between atoms: C_29  and  C_30 
REMARK   10  A    between atoms: C_30  and  O_32 
REMARK   11  A    between atoms: C_33  and  C_34 
REMARK   12  A    between atoms: C_34  and  C_35 
REMARK   13  A    between atoms: C_35  and  C_36 
REMARK   14  A    between atoms: C_36  and  O_38 
REMARK   15  A    between atoms: C_39  and  C_40 
REMARK   16  A    between atoms: C_40  and  C_41 
REMARK   17  A    between atoms: C_41  and  C_42 
REMARK   18  A    between atoms: C_42  and  O_44 
REMARK   19  A    between atoms: C_45  and  C_46 
REMARK   20  A    between atoms: C_46  and  C_47 
REMARK   21  A    between atoms: C_47  and  O_49 
REMARK   22  A    between atoms: C_50  and  C_51 
REMARK   23  A    between atoms: C_51  and  C_52 
REMARK   24  A    between atoms: C_52  and  O_54 
REMARK   25  A    between atoms: C_55  and  C_56 
REMARK   26  A    between atoms: C_56  and  C_57 
REMARK   27  A    between atoms: C_57  and  C_58 
REMARK   28  A    between atoms: C_58  and  O_60 
ROOT
ATOM      1  O   UNK d   0       4.271   0.991  24.257  0.00  0.00    -0.650 OA
ATOM      2  C   UNK d   0       5.468   1.352  24.309  0.00  0.00     0.139 C 
ENDROOT
BRANCH   2   3
ATOM      3  O   UNK d   0       6.224   1.022  25.407  0.00  0.00    -0.776 OA
ATOM      4  H   UNK d   0       7.162   1.406  25.537  0.00  0.00     0.167 HD
ENDBRANCH   2   3
BRANCH   2   5
ATOM      5  C   UNK d   0       6.063   2.132  23.187  0.00  0.00     0.115 C 
BRANCH   5   6
ATOM      6  C   UNK d   0       7.222   2.953  23.685  0.00  0.00     0.052 C 
BRANCH   6   7
ATOM      7  C   UNK d   0       7.031   4.432  23.446  0.00  0.00    -0.020 A 
ATOM      8  C   UNK d   0       7.958   5.341  23.290  0.00  0.00    -0.011 A 
ATOM      9  C   UNK d   0       7.298   6.622  23.098  0.00  0.00     0.067 A 
ATOM     10  C   UNK d   0       7.703   7.945  22.863  0.00  0.00     0.062 C 
ATOM     11  N   UNK d   0       5.968   6.399  23.157  0.00  0.00    -0.248 NA
ATOM     12  C   UNK d   0       6.908   9.009  22.423  0.00  0.00     0.041 A 
ATOM     13  N   UNK d   0       5.667   9.393  22.777  0.00  0.00    -0.355 N 
ATOM     14  C   UNK d   0       7.391   9.841  21.397  0.00  0.00    -0.022 A 
ATOM     15  C   UNK d   0       5.347  10.443  21.996  0.00  0.00     0.042 A 
ATOM     16  H   UNK d   0       5.037   8.945  23.577  0.00  0.00     0.166 HD
ATOM     17  C   UNK d   0       4.175  11.223  21.950  0.00  0.00     0.062 C 
ATOM     18  C   UNK d   0       6.403  10.752  21.117  0.00  0.00    -0.013 A 
ATOM     19  C   UNK d   0       2.866  10.814  21.969  0.00  0.00     0.067 A 
ATOM     20  N   UNK d   0       2.636   9.533  22.265  0.00  0.00    -0.248 NA
ATOM     21  C   UNK d   0       1.574  11.434  21.723  0.00  0.00    -0.011 A 
ATOM     22  C   UNK d   0       1.289   9.269  22.231  0.00  0.00     0.066 A 
ATOM     23  C   UNK d   0       0.905   7.977  22.558  0.00  0.00     0.062 C 
ATOM     24  C   UNK d   0       0.656  10.524  21.874  0.00  0.00    -0.020 A 
ATOM     25  C   UNK d   0       1.718   6.926  23.009  0.00  0.00     0.041 A 
ATOM     26  N   UNK d   0       2.945   6.535  22.647  0.00  0.00    -0.355 N 
ATOM     27  C   UNK d   0       1.234   6.095  24.043  0.00  0.00    -0.022 A 
ATOM     28  C   UNK d   0       3.263   5.483  23.419  0.00  0.00     0.042 A 
ATOM     29  H   UNK d   0       3.572   6.980  21.836  0.00  0.00     0.166 HD
ATOM     30  C   UNK d   0       4.421   4.692  23.469  0.00  0.00     0.062 C 
ATOM     31  C   UNK d   0       2.206   5.180  24.309  0.00  0.00    -0.013 A 
ATOM     32  C   UNK d   0       5.741   5.101  23.364  0.00  0.00     0.066 A 
BRANCH   8  33
ATOM     33  C   UNK d   0       9.417   5.130  23.309  0.00  0.00     0.151 C 
BRANCH  33  34
ATOM     34  C   UNK d   0      10.103   5.780  22.178  0.00  0.00     0.143 C 
ATOM     35  O   UNK d   0      10.910   6.702  22.367  0.00  0.00    -0.650 OA
BRANCH  34  36
ATOM     36  O   UNK d   0       9.840   5.358  20.895  0.00  0.00    -0.776 OA
ATOM     37  H   UNK d   0       9.715   6.031  20.126  0.00  0.00     0.167 HD
ENDBRANCH  34  36
ENDBRANCH  33  34
ENDBRANCH   8  33
BRANCH  31  38
ATOM     38  C   UNK d   0       2.142   4.090  25.353  0.00  0.00     0.151 C 
BRANCH  38  39
ATOM     39  C   UNK d   0       1.392   2.932  24.912  0.00  0.00     0.143 C 
ATOM     40  O   UNK d   0       0.462   2.448  25.580  0.00  0.00    -0.650 OA
BRANCH  39  41
ATOM     41  O   UNK d   0       1.714   2.329  23.697  0.00  0.00    -0.776 OA
ATOM     42  H   UNK d   0       1.161   1.509  23.428  0.00  0.00     0.167 HD
ENDBRANCH  39  41
ENDBRANCH  38  39
ENDBRANCH  31  38
BRANCH  27  43
ATOM     43  C   UNK d   0      -0.088   6.138  24.768  0.00  0.00     0.052 C 
BRANCH  43  44
ATOM     44  C   UNK d   0      -0.256   7.354  25.619  0.00  0.00     0.115 C 
BRANCH  44  45
ATOM     45  C   UNK d   0      -0.141   6.904  27.030  0.00  0.00     0.139 C 
ATOM     46  O   UNK d   0      -0.212   5.673  27.266  0.00  0.00    -0.650 OA
BRANCH  45  47
ATOM     47  O   UNK d   0       0.044   7.777  28.080  0.00  0.00    -0.776 OA
ATOM     48  H   UNK d   0       0.961   7.927  28.530  0.00  0.00     0.167 HD
ENDBRANCH  45  47
ENDBRANCH  44  45
ENDBRANCH  43  44
ENDBRANCH  27  43
BRANCH  24  49
ATOM     49  C   UNK d   0      -0.798  10.729  21.756  0.00  0.00     0.052 C 
BRANCH  49  50
ATOM     50  C   UNK d   0      -1.519  10.028  22.879  0.00  0.00     0.115 C 
BRANCH  50  51
ATOM     51  C   UNK d   0      -2.430   8.952  22.514  0.00  0.00     0.139 C 
ATOM     52  O   UNK d   0      -2.908   8.156  23.357  0.00  0.00    -0.650 OA
BRANCH  51  53
ATOM     53  O   UNK d   0      -2.794   8.780  21.188  0.00  0.00    -0.776 OA
ATOM     54  H   UNK d   0      -2.075   8.826  20.487  0.00  0.00     0.167 HD
ENDBRANCH  51  53
ENDBRANCH  50  51
ENDBRANCH  49  50
ENDBRANCH  24  49
BRANCH  21  55
ATOM     55  C   UNK d   0       1.393  12.873  21.368  0.00  0.00     0.151 C 
BRANCH  55  56
ATOM     56  C   UNK d   0       2.279  13.750  22.148  0.00  0.00     0.143 C 
ATOM     57  O   UNK d   0       2.235  13.820  23.392  0.00  0.00    -0.650 OA
BRANCH  56  58
ATOM     58  O   UNK d   0       3.201  14.527  21.450  0.00  0.00    -0.776 OA
ATOM     59  H   UNK d   0       3.553  14.104  20.572  0.00  0.00     0.167 HD
ENDBRANCH  56  58
ENDBRANCH  55  56
ENDBRANCH  21  55
BRANCH  18  60
ATOM     60  C   UNK d   0       6.496  11.833  20.069  0.00  0.00     0.151 C 
BRANCH  60  61
ATOM     61  C   UNK d   0       7.013  13.023  20.762  0.00  0.00     0.143 C 
ATOM     62  O   UNK d   0       8.139  13.174  21.238  0.00  0.00    -0.650 OA
BRANCH  61  63
ATOM     63  O   UNK d   0       6.099  14.098  20.878  0.00  0.00    -0.776 OA
ATOM     64  H   UNK d   0       6.284  14.872  21.491  0.00  0.00     0.167 HD
ENDBRANCH  61  63
ENDBRANCH  60  61
ENDBRANCH  18  60
BRANCH  14  65
ATOM     65  C   UNK d   0       8.739   9.900  20.735  0.00  0.00     0.052 C 
BRANCH  65  66
ATOM     66  C   UNK d   0       8.866   8.961  19.588  0.00  0.00     0.115 C 
BRANCH  66  67
ATOM     67  C   UNK d   0      10.159   8.701  19.021  0.00  0.00     0.139 C 
ATOM     68  O   UNK d   0      10.642   7.513  19.114  0.00  0.00    -0.650 OA
BRANCH  67  69
ATOM     69  O   UNK d   0      10.995   9.598  18.357  0.00  0.00    -0.776 OA
ATOM     70  H   UNK d   0      10.848   9.679  17.340  0.00  0.00     0.167 HD
ENDBRANCH  67  69
ENDBRANCH  66  67
ENDBRANCH  65  66
ENDBRANCH  14  65
ENDBRANCH   6   7
ENDBRANCH   5   6
ENDBRANCH   2   5
TORSDOF 28
ENDMDL
MODEL 19
REMARK VINA RESULT:      -9.1      1.925      8.167
REMARK  28 active torsions:
REMARK  status: ('A' for Active; 'I' for Inactive)
REMARK    1  A    between atoms: C_2  and  O_3 
REMARK    2  A    between atoms: C_2  and  C_4 
REMARK    3  A    between atoms: C_4  and  C_5 
REMARK    4  A    between atoms: C_5  and  C_6 
REMARK    5  A    between atoms: C_7  and  C_8 
REMARK    6  A    between atoms: C_8  and  C_9 
REMARK    7  A    between atoms: C_9  and  O_11 
REMARK    8  A    between atoms: C_28  and  C_29 
REMARK    9  A    between atoms: C_29  and  C_30 
REMARK   10  A    between atoms: C_30  and  O_32 
REMARK   11  A    between atoms: C_33  and  C_34 
REMARK   12  A    between atoms: C_34  and  C_35 
REMARK   13  A    between atoms: C_35  and  C_36 
REMARK   14  A    between atoms: C_36  and  O_38 
REMARK   15  A    between atoms: C_39  and  C_40 
REMARK   16  A    between atoms: C_40  and  C_41 
REMARK   17  A    between atoms: C_41  and  C_42 
REMARK   18  A    between atoms: C_42  and  O_44 
REMARK   19  A    between atoms: C_45  and  C_46 
REMARK   20  A    between atoms: C_46  and  C_47 
REMARK   21  A    between atoms: C_47  and  O_49 
REMARK   22  A    between atoms: C_50  and  C_51 
REMARK   23  A    between atoms: C_51  and  C_52 
REMARK   24  A    between atoms: C_52  and  O_54 
REMARK   25  A    between atoms: C_55  and  C_56 
REMARK   26  A    between atoms: C_56  and  C_57 
REMARK   27  A    between atoms: C_57  and  C_58 
REMARK   28  A    between atoms: C_58  and  O_60 
ROOT
ATOM      1  O   UNK d   0       2.309  15.107  20.646  0.00  0.00    -0.650 OA
ATOM      2  C   UNK d   0       2.460  13.941  21.075  0.00  0.00     0.139 C 
ENDROOT
BRANCH   2   3
ATOM      3  O   UNK d   0       1.358  13.220  21.468  0.00  0.00    -0.776 OA
ATOM      4  H   UNK d   0       1.289  12.836  22.413  0.00  0.00     0.167 HD
ENDBRANCH   2   3
BRANCH   2   5
ATOM      5  C   UNK d   0       3.824  13.345  21.157  0.00  0.00     0.115 C 
BRANCH   5   6
ATOM      6  C   UNK d   0       4.130  12.578  19.900  0.00  0.00     0.052 C 
BRANCH   6   7
ATOM      7  C   UNK d   0       4.884  11.298  20.169  0.00  0.00    -0.020 A 
ATOM      8  C   UNK d   0       6.127  11.024  19.862  0.00  0.00    -0.011 A 
ATOM      9  C   UNK d   0       6.407   9.670  20.311  0.00  0.00     0.067 A 
ATOM     10  C   UNK d   0       7.517   8.811  20.306  0.00  0.00     0.062 C 
ATOM     11  N   UNK d   0       5.277   9.192  20.874  0.00  0.00    -0.248 NA
ATOM     12  C   UNK d   0       7.679   7.631  21.040  0.00  0.00     0.041 A 
ATOM     13  N   UNK d   0       6.827   6.618  21.288  0.00  0.00    -0.355 N 
ATOM     14  C   UNK d   0       8.894   7.408  21.712  0.00  0.00    -0.022 A 
ATOM     15  C   UNK d   0       7.467   5.763  22.108  0.00  0.00     0.042 A 
ATOM     16  H   UNK d   0       5.800   6.500  20.877  0.00  0.00     0.166 HD
ATOM     17  C   UNK d   0       7.039   4.544  22.672  0.00  0.00     0.062 C 
ATOM     18  C   UNK d   0       8.766   6.225  22.396  0.00  0.00    -0.013 A 
ATOM     19  C   UNK d   0       5.840   4.243  23.266  0.00  0.00     0.067 A 
ATOM     20  N   UNK d   0       4.858   5.139  23.134  0.00  0.00    -0.248 NA
ATOM     21  C   UNK d   0       5.316   3.148  24.065  0.00  0.00    -0.011 A 
ATOM     22  C   UNK d   0       3.731   4.709  23.790  0.00  0.00     0.066 A 
ATOM     23  C   UNK d   0       2.616   5.530  23.702  0.00  0.00     0.062 C 
ATOM     24  C   UNK d   0       4.082   3.429  24.371  0.00  0.00    -0.020 A 
ATOM     25  C   UNK d   0       2.471   6.706  22.949  0.00  0.00     0.041 A 
ATOM     26  N   UNK d   0       3.312   7.720  22.714  0.00  0.00    -0.355 N 
ATOM     27  C   UNK d   0       1.252   6.926  22.271  0.00  0.00    -0.022 A 
ATOM     28  C   UNK d   0       2.672   8.578  21.904  0.00  0.00     0.042 A 
ATOM     29  H   UNK d   0       4.340   7.842  23.136  0.00  0.00     0.166 HD
ATOM     30  C   UNK d   0       3.082   9.798  21.343  0.00  0.00     0.062 C 
ATOM     31  C   UNK d   0       1.371   8.108  21.607  0.00  0.00    -0.013 A 
ATOM     32  C   UNK d   0       4.324  10.124  20.821  0.00  0.00     0.066 A 
BRANCH   8  33
ATOM     33  C   UNK d   0       7.086  11.911  19.179  0.00  0.00     0.151 C 
BRANCH  33  34
ATOM     34  C   UNK d   0       7.772  11.251  18.054  0.00  0.00     0.143 C 
ATOM     35  O   UNK d   0       7.131  10.797  17.096  0.00  0.00    -0.650 OA
BRANCH  34  36
ATOM     36  O   UNK d   0       9.143  11.137  18.072  0.00  0.00    -0.776 OA
ATOM     37  H   UNK d   0       9.675  10.949  17.211  0.00  0.00     0.167 HD
ENDBRANCH  34  36
ENDBRANCH  33  34
ENDBRANCH   8  33
BRANCH  31  38
ATOM     38  C   UNK d   0       0.320   8.749  20.731  0.00  0.00     0.151 C 
BRANCH  38  39
ATOM     39  C   UNK d   0      -0.525   9.676  21.454  0.00  0.00     0.143 C 
ATOM     40  O   UNK d   0      -0.065  10.509  22.254  0.00  0.00    -0.650 OA
BRANCH  39  41
ATOM     41  O   UNK d   0      -1.905   9.644  21.256  0.00  0.00    -0.776 OA
ATOM     42  H   UNK d   0      -2.440  10.445  21.606  0.00  0.00     0.167 HD
ENDBRANCH  39  41
ENDBRANCH  38  39
ENDBRANCH  31  38
BRANCH  27  43
ATOM     43  C   UNK d   0       0.008   6.074  22.234  0.00  0.00     0.052 C 
BRANCH  43  44
ATOM     44  C   UNK d   0      -0.858   6.240  23.441  0.00  0.00     0.115 C 
BRANCH  44  45
ATOM     45  C   UNK d   0      -2.086   6.945  22.989  0.00  0.00     0.139 C 
ATOM     46  O   UNK d   0      -2.566   6.637  21.870  0.00  0.00    -0.650 OA
BRANCH  45  47
ATOM     47  O   UNK d   0      -2.715   7.910  23.745  0.00  0.00    -0.776 OA
ATOM     48  H   UNK d   0      -2.337   8.863  23.865  0.00  0.00     0.167 HD
ENDBRANCH  45  47
ENDBRANCH  44  45
ENDBRANCH  43  44
ENDBRANCH  27  43
BRANCH  24  49
ATOM     49  C   UNK d   0       3.163   2.573  25.140  0.00  0.00     0.052 C 
BRANCH  49  50
ATOM     50  C   UNK d   0       2.310   1.750  24.209  0.00  0.00     0.115 C 
BRANCH  50  51
ATOM     51  C   UNK d   0       1.775   0.499  24.729  0.00  0.00     0.139 C 
ATOM     52  O   UNK d   0       0.597   0.386  25.141  0.00  0.00    -0.650 OA
BRANCH  51  53
ATOM     53  O   UNK d   0       2.586  -0.625  24.780  0.00  0.00    -0.776 OA
ATOM     54  H   UNK d   0       2.969  -0.975  23.919  0.00  0.00     0.167 HD
ENDBRANCH  51  53
ENDBRANCH  50  51
ENDBRANCH  49  50
ENDBRANCH  24  49
BRANCH  21  55
ATOM     55  C   UNK d   0       6.101   1.934  24.434  0.00  0.00     0.151 C 
BRANCH  55  56
ATOM     56  C   UNK d   0       5.804   0.795  23.552  0.00  0.00     0.143 C 
ATOM     57  O   UNK d   0       5.952   0.843  22.315  0.00  0.00    -0.650 OA
BRANCH  56  58
ATOM     58  O   UNK d   0       5.337  -0.379  24.142  0.00  0.00    -0.776 OA
ATOM     59  H   UNK d   0       4.678  -0.927  23.560  0.00  0.00     0.167 HD
ENDBRANCH  56  58
ENDBRANCH  55  56
ENDBRANCH  21  55
BRANCH  18  60
ATOM     60  C   UNK d   0       9.836   5.607  23.262  0.00  0.00     0.151 C 
BRANCH  60  61
ATOM     61  C   UNK d   0       9.735   6.276  24.567  0.00  0.00     0.143 C 
ATOM     62  O   UNK d   0      10.598   6.959  25.120  0.00  0.00    -0.650 OA
BRANCH  61  63
ATOM     63  O   UNK d   0       8.503   6.101  25.241  0.00  0.00    -0.776 OA
ATOM     64  H   UNK d   0       7.840   6.852  25.313  0.00  0.00     0.167 HD
ENDBRANCH  61  63
ENDBRANCH  60  61
ENDBRANCH  18  60
BRANCH  14  65
ATOM     65  C   UNK d   0      10.187   8.172  21.679  0.00  0.00     0.052 C 
BRANCH  65  66
ATOM     66  C   UNK d   0      10.218   9.307  22.640  0.00  0.00     0.115 C 
BRANCH  66  67
ATOM     67  C   UNK d   0       9.921  10.635  22.182  0.00  0.00     0.139 C 
ATOM     68  O   UNK d   0       9.976  10.876  20.920  0.00  0.00    -0.650 OA
BRANCH  67  69
ATOM     69  O   UNK d   0       9.567  11.744  22.950  0.00  0.00    -0.776 OA
ATOM     70  H   UNK d   0       9.848  12.660  22.571  0.00  0.00     0.167 HD
ENDBRANCH  67  69
ENDBRANCH  66  67
ENDBRANCH  65  66
ENDBRANCH  14  65
ENDBRANCH   6   7
ENDBRANCH   5   6
ENDBRANCH   2   5
TORSDOF 28
ENDMDL
MODEL 20
REMARK VINA RESULT:      -9.0      3.244      8.941
REMARK  28 active torsions:
REMARK  status: ('A' for Active; 'I' for Inactive)
REMARK    1  A    between atoms: C_2  and  O_3 
REMARK    2  A    between atoms: C_2  and  C_4 
REMARK    3  A    between atoms: C_4  and  C_5 
REMARK    4  A    between atoms: C_5  and  C_6 
REMARK    5  A    between atoms: C_7  and  C_8 
REMARK    6  A    between atoms: C_8  and  C_9 
REMARK    7  A    between atoms: C_9  and  O_11 
REMARK    8  A    between atoms: C_28  and  C_29 
REMARK    9  A    between atoms: C_29  and  C_30 
REMARK   10  A    between atoms: C_30  and  O_32 
REMARK   11  A    between atoms: C_33  and  C_34 
REMARK   12  A    between atoms: C_34  and  C_35 
REMARK   13  A    between atoms: C_35  and  C_36 
REMARK   14  A    between atoms: C_36  and  O_38 
REMARK   15  A    between atoms: C_39  and  C_40 
REMARK   16  A    between atoms: C_40  and  C_41 
REMARK   17  A    between atoms: C_41  and  C_42 
REMARK   18  A    between atoms: C_42  and  O_44 
REMARK   19  A    between atoms: C_45  and  C_46 
REMARK   20  A    between atoms: C_46  and  C_47 
REMARK   21  A    between atoms: C_47  and  O_49 
REMARK   22  A    between atoms: C_50  and  C_51 
REMARK   23  A    between atoms: C_51  and  C_52 
REMARK   24  A    between atoms: C_52  and  O_54 
REMARK   25  A    between atoms: C_55  and  C_56 
REMARK   26  A    between atoms: C_56  and  C_57 
REMARK   27  A    between atoms: C_57  and  C_58 
REMARK   28  A    between atoms: C_58  and  O_60 
ROOT
ATOM      1  O   UNK d   0       7.390   7.963  21.604  0.00  0.00    -0.650 OA
ATOM      2  C   UNK d   0       6.563   8.474  20.817  0.00  0.00     0.139 C 
ENDROOT
BRANCH   2   3
ATOM      3  O   UNK d   0       6.630   8.169  19.479  0.00  0.00    -0.776 OA
ATOM      4  H   UNK d   0       7.310   7.494  19.125  0.00  0.00     0.167 HD
ENDBRANCH   2   3
BRANCH   2   5
ATOM      5  C   UNK d   0       5.517   9.404  21.330  0.00  0.00     0.115 C 
BRANCH   5   6
ATOM      6  C   UNK d   0       5.453   9.333  22.832  0.00  0.00     0.052 C 
BRANCH   6   7
ATOM      7  C   UNK d   0       4.186   8.680  23.329  0.00  0.00    -0.020 A 
ATOM      8  C   UNK d   0       3.105   9.270  23.772  0.00  0.00    -0.011 A 
ATOM      9  C   UNK d   0       2.155   8.235  24.146  0.00  0.00     0.067 A 
ATOM     10  C   UNK d   0       0.846   8.197  24.652  0.00  0.00     0.062 C 
ATOM     11  N   UNK d   0       2.743   7.045  23.904  0.00  0.00    -0.248 NA
ATOM     12  C   UNK d   0      -0.016   7.095  24.690  0.00  0.00     0.041 A 
ATOM     13  N   UNK d   0       0.205   5.807  25.012  0.00  0.00    -0.355 N 
ATOM     14  C   UNK d   0      -1.352   7.264  24.284  0.00  0.00    -0.022 A 
ATOM     15  C   UNK d   0      -0.954   5.152  24.814  0.00  0.00     0.042 A 
ATOM     16  H   UNK d   0       1.157   5.373  25.390  0.00  0.00     0.166 HD
ATOM     17  C   UNK d   0      -1.278   3.792  24.997  0.00  0.00     0.062 C 
ATOM     18  C   UNK d   0      -1.954   6.032  24.357  0.00  0.00    -0.013 A 
ATOM     19  C   UNK d   0      -0.565   2.679  24.630  0.00  0.00     0.067 A 
ATOM     20  N   UNK d   0       0.691   2.873  24.222  0.00  0.00    -0.248 NA
ATOM     21  C   UNK d   0      -0.827   1.252  24.547  0.00  0.00    -0.011 A 
ATOM     22  C   UNK d   0       1.270   1.676  23.876  0.00  0.00     0.066 A 
ATOM     23  C   UNK d   0       2.594   1.727  23.468  0.00  0.00     0.062 C 
ATOM     24  C   UNK d   0       0.249   0.671  24.101  0.00  0.00    -0.020 A 
ATOM     25  C   UNK d   0       3.447   2.842  23.450  0.00  0.00     0.041 A 
ATOM     26  N   UNK d   0       3.231   4.120  23.115  0.00  0.00    -0.355 N 
ATOM     27  C   UNK d   0       4.787   2.673  23.861  0.00  0.00    -0.022 A 
ATOM     28  C   UNK d   0       4.388   4.773  23.303  0.00  0.00     0.042 A 
ATOM     29  H   UNK d   0       2.277   4.552  22.725  0.00  0.00     0.166 HD
ATOM     30  C   UNK d   0       4.727   6.123  23.117  0.00  0.00     0.062 C 
ATOM     31  C   UNK d   0       5.390   3.890  23.772  0.00  0.00    -0.013 A 
ATOM     32  C   UNK d   0       3.966   7.244  23.411  0.00  0.00     0.066 A 
BRANCH   8  33
ATOM     33  C   UNK d   0       2.871  10.721  23.885  0.00  0.00     0.151 C 
BRANCH  33  34
ATOM     34  C   UNK d   0       2.995  11.213  25.269  0.00  0.00     0.143 C 
ATOM     35  O   UNK d   0       2.825  10.452  26.232  0.00  0.00    -0.650 OA
BRANCH  34  36
ATOM     36  O   UNK d   0       3.303  12.535  25.491  0.00  0.00    -0.776 OA
ATOM     37  H   UNK d   0       2.604  13.191  25.866  0.00  0.00     0.167 HD
ENDBRANCH  34  36
ENDBRANCH  33  34
ENDBRANCH   8  33
BRANCH  31  38
ATOM     38  C   UNK d   0       6.826   4.202  24.124  0.00  0.00     0.151 C 
BRANCH  38  39
ATOM     39  C   UNK d   0       7.692   4.236  22.965  0.00  0.00     0.143 C 
ATOM     40  O   UNK d   0       8.790   4.820  22.972  0.00  0.00    -0.650 OA
BRANCH  39  41
ATOM     41  O   UNK d   0       7.296   3.594  21.792  0.00  0.00    -0.776 OA
ATOM     42  H   UNK d   0       7.198   4.179  20.956  0.00  0.00     0.167 HD
ENDBRANCH  39  41
ENDBRANCH  38  39
ENDBRANCH  31  38
BRANCH  27  43
ATOM     43  C   UNK d   0       5.498   1.426  24.322  0.00  0.00     0.052 C 
BRANCH  43  44
ATOM     44  C   UNK d   0       6.134   0.661  23.207  0.00  0.00     0.115 C 
BRANCH  44  45
ATOM     45  C   UNK d   0       5.902  -0.779  23.492  0.00  0.00     0.139 C 
ATOM     46  O   UNK d   0       5.694  -1.549  22.522  0.00  0.00    -0.650 OA
BRANCH  45  47
ATOM     47  O   UNK d   0       5.911  -1.298  24.769  0.00  0.00    -0.776 OA
ATOM     48  H   UNK d   0       6.782  -1.481  25.293  0.00  0.00     0.167 HD
ENDBRANCH  45  47
ENDBRANCH  44  45
ENDBRANCH  43  44
ENDBRANCH  27  43
BRANCH  24  49
ATOM     49  C   UNK d   0       0.436  -0.776  23.900  0.00  0.00     0.052 C 
BRANCH  49  50
ATOM     50  C   UNK d   0       1.580  -1.279  24.742  0.00  0.00     0.115 C 
BRANCH  50  51
ATOM     51  C   UNK d   0       2.583  -2.101  24.077  0.00  0.00     0.139 C 
ATOM     52  O   UNK d   0       3.323  -2.899  24.699  0.00  0.00    -0.650 OA
BRANCH  51  53
ATOM     53  O   UNK d   0       2.743  -2.011  22.703  0.00  0.00    -0.776 OA
ATOM     54  H   UNK d   0       2.600  -2.839  22.153  0.00  0.00     0.167 HD
ENDBRANCH  51  53
ENDBRANCH  50  51
ENDBRANCH  49  50
ENDBRANCH  24  49
BRANCH  21  55
ATOM     55  C   UNK d   0      -2.124   0.617  24.925  0.00  0.00     0.151 C 
BRANCH  55  56
ATOM     56  C   UNK d   0      -3.153   0.805  23.891  0.00  0.00     0.143 C 
ATOM     57  O   UNK d   0      -3.980   1.737  23.923  0.00  0.00    -0.650 OA
BRANCH  56  58
ATOM     58  O   UNK d   0      -3.188  -0.107  22.837  0.00  0.00    -0.776 OA
ATOM     59  H   UNK d   0      -3.651   0.237  21.977  0.00  0.00     0.167 HD
ENDBRANCH  56  58
ENDBRANCH  55  56
ENDBRANCH  21  55
BRANCH  18  60
ATOM     60  C   UNK d   0      -3.393   5.750  24.002  0.00  0.00     0.151 C 
BRANCH  60  61
ATOM     61  C   UNK d   0      -3.403   5.450  22.562  0.00  0.00     0.143 C 
ATOM     62  O   UNK d   0      -2.803   4.540  21.990  0.00  0.00    -0.650 OA
BRANCH  61  63
ATOM     63  O   UNK d   0      -4.196   6.317  21.772  0.00  0.00    -0.776 OA
ATOM     64  H   UNK d   0      -3.805   6.806  20.987  0.00  0.00     0.167 HD
ENDBRANCH  61  63
ENDBRANCH  60  61
ENDBRANCH  18  60
BRANCH  14  65
ATOM     65  C   UNK d   0      -2.122   8.505  23.931  0.00  0.00     0.052 C 
BRANCH  65  66
ATOM     66  C   UNK d   0      -1.601   9.186  22.715  0.00  0.00     0.115 C 
BRANCH  66  67
ATOM     67  C   UNK d   0      -1.328   8.420  21.532  0.00  0.00     0.139 C 
ATOM     68  O   UNK d   0      -0.108   8.118  21.264  0.00  0.00    -0.650 OA
BRANCH  67  69
ATOM     69  O   UNK d   0      -2.244   7.941  20.596  0.00  0.00    -0.776 OA
ATOM     70  H   UNK d   0      -2.404   8.543  19.776  0.00  0.00     0.167 HD
ENDBRANCH  67  69
ENDBRANCH  66  67
ENDBRANCH  65  66
ENDBRANCH  14  65
ENDBRANCH   6   7
ENDBRANCH   5   6
ENDBRANCH   2   5
TORSDOF 28
ENDMDL
