MODEL 1
REMARK VINA RESULT:     -10.3      0.000      0.000
REMARK  16 active torsions:
REMARK  status: ('A' for Active; 'I' for Inactive)
REMARK    1  A    between atoms: C_6  and  C_7 
REMARK    2  A    between atoms: C_7  and  C_8 
REMARK    3  A    between atoms: C_8  and  C_9 
REMARK    4  A    between atoms: C_9  and  O_11 
REMARK    5  A    between atoms: C_16  and  C_17 
REMARK    6  A    between atoms: C_17  and  C_18 
REMARK    7  A    between atoms: C_18  and  C_19 
REMARK    8  A    between atoms: C_19  and  O_21 
REMARK    9  A    between atoms: C_28  and  C_29 
REMARK   10  A    between atoms: C_29  and  C_30 
REMARK   11  A    between atoms: C_30  and  C_31 
REMARK   12  A    between atoms: C_31  and  O_33 
REMARK   13  A    between atoms: C_42  and  C_43 
REMARK   14  A    between atoms: C_43  and  C_44 
REMARK   15  A    between atoms: C_44  and  C_45 
REMARK   16  A    between atoms: C_45  and  O_47 
ROOT
HETATM    1  C   UNK     0      -5.241  -7.425  28.861  0.00  0.00     0.051 C 
HETATM    2  C   UNK     0      -4.017  -6.575  28.584  0.00  0.00    -0.031 A 
HETATM    3  C   UNK     0      -3.784  -5.679  27.553  0.00  0.00     0.021 A 
HETATM    4  N   UNK     0      -2.537  -5.168  27.686  0.00  0.00    -0.361 N 
HETATM    5  C   UNK     0      -1.974  -5.712  28.785  0.00  0.00     0.022 A 
HETATM    6  C   UNK     0      -2.872  -6.599  29.370  0.00  0.00    -0.027 A 
HETATM    7  C   UNK     0      -0.652  -5.417  29.423  0.00  0.00     0.115 C 
HETATM    8  C   UNK     0      -0.253  -3.955  29.519  0.00  0.00     0.021 A 
HETATM    9  N   UNK     0      -1.036  -2.887  29.737  0.00  0.00    -0.361 N 
HETATM   10  C   UNK     0      -0.269  -1.780  29.649  0.00  0.00     0.022 A 
HETATM   11  C   UNK     0       1.046  -2.145  29.378  0.00  0.00    -0.027 A 
HETATM   12  C   UNK     0       1.063  -3.514  29.294  0.00  0.00    -0.031 A 
HETATM   13  C   UNK     0       2.287  -4.358  29.017  0.00  0.00     0.051 C 
HETATM   14  C   UNK     0      -0.752  -0.337  29.765  0.00  0.00     0.115 C 
HETATM   15  C   UNK     0      -1.770   0.058  28.708  0.00  0.00     0.021 A 
HETATM   16  N   UNK     0      -2.967  -0.509  28.466  0.00  0.00    -0.361 N 
HETATM   17  C   UNK     0      -3.528   0.083  27.409  0.00  0.00     0.022 A 
HETATM   18  C   UNK     0      -2.659   1.090  26.945  0.00  0.00    -0.027 A 
HETATM   19  C   UNK     0      -1.563   1.066  27.768  0.00  0.00    -0.031 A 
HETATM   20  C   UNK     0      -0.391   2.022  27.640  0.00  0.00     0.051 C 
HETATM   21  C   UNK     0      -4.824  -0.228  26.696  0.00  0.00     0.115 C 
HETATM   22  C   UNK     0      -5.256  -1.674  26.632  0.00  0.00     0.022 A 
HETATM   23  N   UNK     0      -4.497  -2.758  26.421  0.00  0.00    -0.361 N 
HETATM   24  C   UNK     0      -5.267  -3.852  26.589  0.00  0.00     0.021 A 
HETATM   25  C   UNK     0      -6.554  -3.464  26.906  0.00  0.00    -0.031 A 
HETATM   26  C   UNK     0      -7.777  -4.324  27.148  0.00  0.00     0.051 C 
HETATM   27  C   UNK     0      -6.572  -2.074  26.939  0.00  0.00    -0.027 A 
HETATM   28  C   UNK     0      -4.835  -5.308  26.545  0.00  0.00     0.115 C 
HETATM   29  H   UNK     0      -2.048  -4.457  26.981  0.00  0.00     0.165 HD
HETATM   30  H   UNK     0      -2.122  -2.914  30.002  0.00  0.00     0.165 HD
HETATM   31  H   UNK     0      -3.448  -1.312  29.083  0.00  0.00     0.165 HD
HETATM   32  H   UNK     0      -3.421  -2.760  26.108  0.00  0.00     0.165 HD
ENDROOT
BRANCH   6  33
HETATM   33  C   UNK     0      -2.726  -7.458  30.600  0.00  0.00     0.051 C 
BRANCH  33  34
HETATM   34  C   UNK     0      -3.203  -6.719  31.828  0.00  0.00     0.114 C 
BRANCH  34  35
HETATM   35  C   UNK     0      -2.137  -6.839  32.864  0.00  0.00     0.139 C 
HETATM   36  O   UNK     0      -1.102  -6.115  32.800  0.00  0.00    -0.650 OA
BRANCH  35  37
HETATM   37  O   UNK     0      -2.224  -7.728  33.929  0.00  0.00    -0.776 OA
HETATM   38  H   UNK     0      -2.129  -7.427  34.885  0.00  0.00     0.167 HD
ENDBRANCH  35  37
ENDBRANCH  34  35
ENDBRANCH  33  34
ENDBRANCH   6  33
BRANCH  27  39
HETATM   39  C   UNK     0      -7.810  -1.285  27.179  0.00  0.00     0.051 C 
BRANCH  39  40
HETATM   40  C   UNK     0      -8.578  -0.829  26.021  0.00  0.00     0.114 C 
BRANCH  40  41
HETATM   41  C   UNK     0      -8.158   0.291  25.210  0.00  0.00     0.139 C 
HETATM   42  O   UNK     0      -7.811   1.383  25.680  0.00  0.00    -0.650 OA
BRANCH  41  43
HETATM   43  O   UNK     0      -8.136   0.149  23.793  0.00  0.00    -0.776 OA
HETATM   44  H   UNK     0      -9.031   0.297  23.343  0.00  0.00     0.167 HD
ENDBRANCH  41  43
ENDBRANCH  40  41
ENDBRANCH  39  40
ENDBRANCH  27  39
BRANCH  11  45
HETATM   45  C   UNK     0       2.252  -1.262  29.202  0.00  0.00     0.051 C 
BRANCH  45  46
HETATM   46  C   UNK     0       2.466  -0.798  27.807  0.00  0.00     0.114 C 
BRANCH  46  47
HETATM   47  C   UNK     0       3.810  -1.284  27.382  0.00  0.00     0.139 C 
HETATM   48  O   UNK     0       4.620  -1.625  28.255  0.00  0.00    -0.650 OA
BRANCH  47  49
HETATM   49  O   UNK     0       4.144  -1.351  26.053  0.00  0.00    -0.776 OA
HETATM   50  H   UNK     0       3.627  -1.941  25.390  0.00  0.00     0.167 HD
ENDBRANCH  47  49
ENDBRANCH  46  47
ENDBRANCH  45  46
ENDBRANCH  11  45
BRANCH  18  51
HETATM   51  C   UNK     0      -2.872   2.039  25.794  0.00  0.00     0.051 C 
BRANCH  51  52
HETATM   52  C   UNK     0      -3.690   3.198  26.344  0.00  0.00     0.114 C 
BRANCH  52  53
HETATM   53  C   UNK     0      -4.941   3.396  25.586  0.00  0.00     0.139 C 
HETATM   54  O   UNK     0      -5.757   4.258  25.948  0.00  0.00    -0.650 OA
BRANCH  53  55
HETATM   55  O   UNK     0      -5.197   2.619  24.483  0.00  0.00    -0.776 OA
HETATM   56  H   UNK     0      -6.033   2.113  24.305  0.00  0.00     0.167 HD
ENDBRANCH  53  55
ENDBRANCH  52  53
ENDBRANCH  51  52
ENDBRANCH  18  51
TORSDOF 16
ENDMDL
MODEL 2
REMARK VINA RESULT:      -9.8      1.551      1.774
REMARK  16 active torsions:
REMARK  status: ('A' for Active; 'I' for Inactive)
REMARK    1  A    between atoms: C_6  and  C_7 
REMARK    2  A    between atoms: C_7  and  C_8 
REMARK    3  A    between atoms: C_8  and  C_9 
REMARK    4  A    between atoms: C_9  and  O_11 
REMARK    5  A    between atoms: C_16  and  C_17 
REMARK    6  A    between atoms: C_17  and  C_18 
REMARK    7  A    between atoms: C_18  and  C_19 
REMARK    8  A    between atoms: C_19  and  O_21 
REMARK    9  A    between atoms: C_28  and  C_29 
REMARK   10  A    between atoms: C_29  and  C_30 
REMARK   11  A    between atoms: C_30  and  C_31 
REMARK   12  A    between atoms: C_31  and  O_33 
REMARK   13  A    between atoms: C_42  and  C_43 
REMARK   14  A    between atoms: C_43  and  C_44 
REMARK   15  A    between atoms: C_44  and  C_45 
REMARK   16  A    between atoms: C_45  and  O_47 
ROOT
HETATM    1  C   UNK     0      -5.893  -7.289  29.051  0.00  0.00     0.051 C 
HETATM    2  C   UNK     0      -4.721  -6.434  28.614  0.00  0.00    -0.031 A 
HETATM    3  C   UNK     0      -4.577  -5.654  27.477  0.00  0.00     0.021 A 
HETATM    4  N   UNK     0      -3.347  -5.088  27.483  0.00  0.00    -0.361 N 
HETATM    5  C   UNK     0      -2.707  -5.484  28.603  0.00  0.00     0.022 A 
HETATM    6  C   UNK     0      -3.536  -6.330  29.331  0.00  0.00    -0.027 A 
HETATM    7  C   UNK     0      -1.367  -5.073  29.129  0.00  0.00     0.115 C 
HETATM    8  C   UNK     0      -1.023  -3.597  29.040  0.00  0.00     0.021 A 
HETATM    9  N   UNK     0      -1.837  -2.539  29.181  0.00  0.00    -0.361 N 
HETATM   10  C   UNK     0      -1.120  -1.423  28.928  0.00  0.00     0.022 A 
HETATM   11  C   UNK     0       0.193  -1.771  28.626  0.00  0.00    -0.027 A 
HETATM   12  C   UNK     0       0.261  -3.139  28.694  0.00  0.00    -0.031 A 
HETATM   13  C   UNK     0       1.502  -3.966  28.444  0.00  0.00     0.051 C 
HETATM   14  C   UNK     0      -1.655   0.006  28.910  0.00  0.00     0.115 C 
HETATM   15  C   UNK     0      -2.742   0.244  27.874  0.00  0.00     0.021 A 
HETATM   16  N   UNK     0      -3.925  -0.388  27.765  0.00  0.00    -0.361 N 
HETATM   17  C   UNK     0      -4.563   0.061  26.681  0.00  0.00     0.022 A 
HETATM   18  C   UNK     0      -3.762   1.039  26.061  0.00  0.00    -0.027 A 
HETATM   19  C   UNK     0      -2.624   1.145  26.818  0.00  0.00    -0.031 A 
HETATM   20  C   UNK     0      -1.500   2.121  26.520  0.00  0.00     0.051 C 
HETATM   21  C   UNK     0      -5.881  -0.373  26.081  0.00  0.00     0.115 C 
HETATM   22  C   UNK     0      -6.256  -1.832  26.201  0.00  0.00     0.022 A 
HETATM   23  N   UNK     0      -5.467  -2.905  26.070  0.00  0.00    -0.361 N 
HETATM   24  C   UNK     0      -6.181  -4.000  26.402  0.00  0.00     0.021 A 
HETATM   25  C   UNK     0      -7.465  -3.622  26.745  0.00  0.00    -0.031 A 
HETATM   26  C   UNK     0      -8.638  -4.491  27.149  0.00  0.00     0.051 C 
HETATM   27  C   UNK     0      -7.538  -2.239  26.625  0.00  0.00    -0.027 A 
HETATM   28  C   UNK     0      -5.693  -5.435  26.495  0.00  0.00     0.115 C 
HETATM   29  H   UNK     0      -2.925  -4.445  26.677  0.00  0.00     0.165 HD
HETATM   30  H   UNK     0      -2.905  -2.573  29.508  0.00  0.00     0.165 HD
HETATM   31  H   UNK     0      -4.340  -1.132  28.493  0.00  0.00     0.165 HD
HETATM   32  H   UNK     0      -4.409  -2.905  25.699  0.00  0.00     0.165 HD
ENDROOT
BRANCH   6  33
HETATM   33  C   UNK     0      -3.292  -7.038  30.640  0.00  0.00     0.051 C 
BRANCH  33  34
HETATM   34  C   UNK     0      -3.500  -6.100  31.804  0.00  0.00     0.114 C 
BRANCH  34  35
HETATM   35  C   UNK     0      -2.424  -6.376  32.799  0.00  0.00     0.139 C 
HETATM   36  O   UNK     0      -2.387  -7.486  33.405  0.00  0.00    -0.650 OA
BRANCH  35  37
HETATM   37  O   UNK     0      -1.430  -5.453  33.102  0.00  0.00    -0.776 OA
HETATM   38  H   UNK     0      -1.632  -4.582  33.565  0.00  0.00     0.167 HD
ENDBRANCH  35  37
ENDBRANCH  34  35
ENDBRANCH  33  34
ENDBRANCH   6  33
BRANCH  27  39
HETATM   39  C   UNK     0      -8.793  -1.471  26.845  0.00  0.00     0.051 C 
BRANCH  39  40
HETATM   40  C   UNK     0      -9.880  -1.625  25.878  0.00  0.00     0.114 C 
BRANCH  40  41
HETATM   41  C   UNK     0     -11.248  -1.852  26.285  0.00  0.00     0.139 C 
HETATM   42  O   UNK     0     -11.568  -2.249  27.414  0.00  0.00    -0.650 OA
BRANCH  41  43
HETATM   43  O   UNK     0     -12.296  -1.611  25.352  0.00  0.00    -0.776 OA
HETATM   44  H   UNK     0     -12.928  -2.392  25.221  0.00  0.00     0.167 HD
ENDBRANCH  41  43
ENDBRANCH  40  41
ENDBRANCH  39  40
ENDBRANCH  27  39
BRANCH  11  45
HETATM   45  C   UNK     0       1.351  -0.872  28.286  0.00  0.00     0.051 C 
BRANCH  45  46
HETATM   46  C   UNK     0       1.966  -0.205  29.462  0.00  0.00     0.114 C 
BRANCH  46  47
HETATM   47  C   UNK     0       3.402   0.029  29.136  0.00  0.00     0.139 C 
HETATM   48  O   UNK     0       3.877   1.157  29.331  0.00  0.00    -0.650 OA
BRANCH  47  49
HETATM   49  O   UNK     0       4.181  -0.980  28.630  0.00  0.00    -0.776 OA
HETATM   50  H   UNK     0       4.210  -1.913  29.056  0.00  0.00     0.167 HD
ENDBRANCH  47  49
ENDBRANCH  46  47
ENDBRANCH  45  46
ENDBRANCH  11  45
BRANCH  18  51
HETATM   51  C   UNK     0      -4.072   1.843  24.825  0.00  0.00     0.051 C 
BRANCH  51  52
HETATM   52  C   UNK     0      -4.571   3.196  25.312  0.00  0.00     0.114 C 
BRANCH  52  53
HETATM   53  C   UNK     0      -5.973   3.438  24.920  0.00  0.00     0.139 C 
HETATM   54  O   UNK     0      -6.644   4.298  25.513  0.00  0.00    -0.650 OA
BRANCH  53  55
HETATM   55  O   UNK     0      -6.529   2.706  23.899  0.00  0.00    -0.776 OA
HETATM   56  H   UNK     0      -6.085   2.463  23.045  0.00  0.00     0.167 HD
ENDBRANCH  53  55
ENDBRANCH  52  53
ENDBRANCH  51  52
ENDBRANCH  18  51
TORSDOF 16
ENDMDL
MODEL 3
REMARK VINA RESULT:      -9.7      2.014      7.179
REMARK  16 active torsions:
REMARK  status: ('A' for Active; 'I' for Inactive)
REMARK    1  A    between atoms: C_6  and  C_7 
REMARK    2  A    between atoms: C_7  and  C_8 
REMARK    3  A    between atoms: C_8  and  C_9 
REMARK    4  A    between atoms: C_9  and  O_11 
REMARK    5  A    between atoms: C_16  and  C_17 
REMARK    6  A    between atoms: C_17  and  C_18 
REMARK    7  A    between atoms: C_18  and  C_19 
REMARK    8  A    between atoms: C_19  and  O_21 
REMARK    9  A    between atoms: C_28  and  C_29 
REMARK   10  A    between atoms: C_29  and  C_30 
REMARK   11  A    between atoms: C_30  and  C_31 
REMARK   12  A    between atoms: C_31  and  O_33 
REMARK   13  A    between atoms: C_42  and  C_43 
REMARK   14  A    between atoms: C_43  and  C_44 
REMARK   15  A    between atoms: C_44  and  C_45 
REMARK   16  A    between atoms: C_45  and  O_47 
ROOT
HETATM    1  C   UNK     0       1.152  -6.758  30.915  0.00  0.00     0.051 C 
HETATM    2  C   UNK     0      -0.258  -6.365  30.525  0.00  0.00    -0.031 A 
HETATM    3  C   UNK     0      -0.921  -5.163  30.717  0.00  0.00     0.021 A 
HETATM    4  N   UNK     0      -2.182  -5.272  30.235  0.00  0.00    -0.361 N 
HETATM    5  C   UNK     0      -2.334  -6.515  29.731  0.00  0.00     0.022 A 
HETATM    6  C   UNK     0      -1.150  -7.226  29.899  0.00  0.00    -0.027 A 
HETATM    7  C   UNK     0      -3.498  -7.111  29.003  0.00  0.00     0.115 C 
HETATM    8  C   UNK     0      -4.174  -6.233  27.965  0.00  0.00     0.021 A 
HETATM    9  N   UNK     0      -3.616  -5.336  27.137  0.00  0.00    -0.361 N 
HETATM   10  C   UNK     0      -4.607  -4.724  26.453  0.00  0.00     0.022 A 
HETATM   11  C   UNK     0      -5.835  -5.248  26.845  0.00  0.00    -0.027 A 
HETATM   12  C   UNK     0      -5.570  -6.199  27.797  0.00  0.00    -0.031 A 
HETATM   13  C   UNK     0      -6.608  -7.038  28.507  0.00  0.00     0.051 C 
HETATM   14  C   UNK     0      -4.439  -3.589  25.447  0.00  0.00     0.115 C 
HETATM   15  C   UNK     0      -3.814  -2.334  26.034  0.00  0.00     0.021 A 
HETATM   16  N   UNK     0      -2.614  -2.216  26.633  0.00  0.00    -0.361 N 
HETATM   17  C   UNK     0      -2.465  -0.965  27.073  0.00  0.00     0.022 A 
HETATM   18  C   UNK     0      -3.618  -0.229  26.736  0.00  0.00    -0.027 A 
HETATM   19  C   UNK     0      -4.455  -1.098  26.084  0.00  0.00    -0.031 A 
HETATM   20  C   UNK     0      -5.805  -0.701  25.514  0.00  0.00     0.051 C 
HETATM   21  C   UNK     0      -1.339  -0.342  27.867  0.00  0.00     0.115 C 
HETATM   22  C   UNK     0      -0.628  -1.217  28.873  0.00  0.00     0.022 A 
HETATM   23  N   UNK     0      -1.157  -2.122  29.707  0.00  0.00    -0.361 N 
HETATM   24  C   UNK     0      -0.149  -2.773  30.321  0.00  0.00     0.021 A 
HETATM   25  C   UNK     0       1.059  -2.269  29.878  0.00  0.00    -0.031 A 
HETATM   26  C   UNK     0       2.463  -2.648  30.302  0.00  0.00     0.051 C 
HETATM   27  C   UNK     0       0.778  -1.272  28.951  0.00  0.00    -0.027 A 
HETATM   28  C   UNK     0      -0.248  -3.945  31.282  0.00  0.00     0.115 C 
HETATM   29  H   UNK     0      -2.968  -4.484  30.289  0.00  0.00     0.165 HD
HETATM   30  H   UNK     0      -2.521  -5.168  26.996  0.00  0.00     0.165 HD
HETATM   31  H   UNK     0      -1.836  -3.020  26.705  0.00  0.00     0.165 HD
HETATM   32  H   UNK     0      -2.250  -2.279  29.903  0.00  0.00     0.165 HD
ENDROOT
BRANCH   6  33
HETATM   33  C   UNK     0      -0.808  -8.644  29.517  0.00  0.00     0.051 C 
BRANCH  33  34
HETATM   34  C   UNK     0      -1.135  -9.595  30.643  0.00  0.00     0.114 C 
BRANCH  34  35
HETATM   35  C   UNK     0       0.093 -10.395  30.923  0.00  0.00     0.139 C 
HETATM   36  O   UNK     0       1.191 -10.089  30.373  0.00  0.00    -0.650 OA
BRANCH  35  37
HETATM   37  O   UNK     0       0.096 -11.487  31.781  0.00  0.00    -0.776 OA
HETATM   38  H   UNK     0       0.846 -12.160  31.788  0.00  0.00     0.167 HD
ENDBRANCH  35  37
ENDBRANCH  34  35
ENDBRANCH  33  34
ENDBRANCH   6  33
BRANCH  27  39
HETATM   39  C   UNK     0       1.834  -0.445  28.305  0.00  0.00     0.051 C 
BRANCH  39  40
HETATM   40  C   UNK     0       2.225  -0.768  26.933  0.00  0.00     0.114 C 
BRANCH  40  41
HETATM   41  C   UNK     0       3.383  -1.579  26.633  0.00  0.00     0.139 C 
HETATM   42  O   UNK     0       3.431  -2.801  26.829  0.00  0.00    -0.650 OA
BRANCH  41  43
HETATM   43  O   UNK     0       4.540  -0.957  26.083  0.00  0.00    -0.776 OA
HETATM   44  H   UNK     0       5.416  -1.389  26.350  0.00  0.00     0.167 HD
ENDBRANCH  41  43
ENDBRANCH  40  41
ENDBRANCH  39  40
ENDBRANCH  27  39
BRANCH  11  45
HETATM   45  C   UNK     0      -7.212  -4.886  26.357  0.00  0.00     0.051 C 
BRANCH  45  46
HETATM   46  C   UNK     0      -7.751  -3.630  26.938  0.00  0.00     0.114 C 
BRANCH  46  47
HETATM   47  C   UNK     0      -8.984  -3.283  26.176  0.00  0.00     0.139 C 
HETATM   48  O   UNK     0      -9.536  -4.169  25.508  0.00  0.00    -0.650 OA
BRANCH  47  49
HETATM   49  O   UNK     0      -9.498  -2.012  26.210  0.00  0.00    -0.776 OA
HETATM   50  H   UNK     0     -10.385  -1.769  25.752  0.00  0.00     0.167 HD
ENDBRANCH  47  49
ENDBRANCH  46  47
ENDBRANCH  45  46
ENDBRANCH  11  45
BRANCH  18  51
HETATM   51  C   UNK     0      -3.899   1.227  27.002  0.00  0.00     0.051 C 
BRANCH  51  52
HETATM   52  C   UNK     0      -2.957   2.014  26.103  0.00  0.00     0.114 C 
BRANCH  52  53
HETATM   53  C   UNK     0      -3.691   2.802  25.094  0.00  0.00     0.139 C 
HETATM   54  O   UNK     0      -4.257   3.857  25.423  0.00  0.00    -0.650 OA
BRANCH  53  55
HETATM   55  O   UNK     0      -3.746   2.361  23.795  0.00  0.00    -0.776 OA
HETATM   56  H   UNK     0      -3.782   2.934  22.985  0.00  0.00     0.167 HD
ENDBRANCH  53  55
ENDBRANCH  52  53
ENDBRANCH  51  52
ENDBRANCH  18  51
TORSDOF 16
ENDMDL
MODEL 4
REMARK VINA RESULT:      -9.6      2.755      7.195
REMARK  16 active torsions:
REMARK  status: ('A' for Active; 'I' for Inactive)
REMARK    1  A    between atoms: C_6  and  C_7 
REMARK    2  A    between atoms: C_7  and  C_8 
REMARK    3  A    between atoms: C_8  and  C_9 
REMARK    4  A    between atoms: C_9  and  O_11 
REMARK    5  A    between atoms: C_16  and  C_17 
REMARK    6  A    between atoms: C_17  and  C_18 
REMARK    7  A    between atoms: C_18  and  C_19 
REMARK    8  A    between atoms: C_19  and  O_21 
REMARK    9  A    between atoms: C_28  and  C_29 
REMARK   10  A    between atoms: C_29  and  C_30 
REMARK   11  A    between atoms: C_30  and  C_31 
REMARK   12  A    between atoms: C_31  and  O_33 
REMARK   13  A    between atoms: C_42  and  C_43 
REMARK   14  A    between atoms: C_43  and  C_44 
REMARK   15  A    between atoms: C_44  and  C_45 
REMARK   16  A    between atoms: C_45  and  O_47 
ROOT
HETATM    1  C   UNK     0      -8.030  -2.583  25.182  0.00  0.00     0.051 C 
HETATM    2  C   UNK     0      -7.021  -3.572  25.729  0.00  0.00    -0.031 A 
HETATM    3  C   UNK     0      -5.642  -3.587  25.594  0.00  0.00     0.021 A 
HETATM    4  N   UNK     0      -5.149  -4.680  26.225  0.00  0.00    -0.361 N 
HETATM    5  C   UNK     0      -6.183  -5.356  26.766  0.00  0.00     0.022 A 
HETATM    6  C   UNK     0      -7.369  -4.693  26.472  0.00  0.00    -0.027 A 
HETATM    7  C   UNK     0      -6.172  -6.573  27.639  0.00  0.00     0.115 C 
HETATM    8  C   UNK     0      -5.121  -6.617  28.733  0.00  0.00     0.021 A 
HETATM    9  N   UNK     0      -4.640  -5.605  29.472  0.00  0.00    -0.361 N 
HETATM   10  C   UNK     0      -3.654  -6.091  30.257  0.00  0.00     0.022 A 
HETATM   11  C   UNK     0      -3.503  -7.455  30.023  0.00  0.00    -0.027 A 
HETATM   12  C   UNK     0      -4.424  -7.793  29.065  0.00  0.00    -0.031 A 
HETATM   13  C   UNK     0      -4.627  -9.180  28.499  0.00  0.00     0.051 C 
HETATM   14  C   UNK     0      -2.784  -5.282  31.214  0.00  0.00     0.115 C 
HETATM   15  C   UNK     0      -1.963  -4.198  30.534  0.00  0.00     0.021 A 
HETATM   16  N   UNK     0      -2.415  -3.168  29.795  0.00  0.00    -0.361 N 
HETATM   17  C   UNK     0      -1.375  -2.482  29.317  0.00  0.00     0.022 A 
HETATM   18  C   UNK     0      -0.188  -3.088  29.774  0.00  0.00    -0.027 A 
HETATM   19  C   UNK     0      -0.570  -4.161  30.537  0.00  0.00    -0.031 A 
HETATM   20  C   UNK     0       0.405  -5.076  31.256  0.00  0.00     0.051 C 
HETATM   21  C   UNK     0      -1.341  -1.293  28.383  0.00  0.00     0.115 C 
HETATM   22  C   UNK     0      -2.408  -1.214  27.317  0.00  0.00     0.022 A 
HETATM   23  N   UNK     0      -2.909  -2.205  26.568  0.00  0.00    -0.361 N 
HETATM   24  C   UNK     0      -3.941  -1.715  25.852  0.00  0.00     0.021 A 
HETATM   25  C   UNK     0      -4.102  -0.373  26.138  0.00  0.00    -0.031 A 
HETATM   26  C   UNK     0      -5.094   0.614  25.558  0.00  0.00     0.051 C 
HETATM   27  C   UNK     0      -3.132  -0.029  27.073  0.00  0.00    -0.027 A 
HETATM   28  C   UNK     0      -4.878  -2.477  24.931  0.00  0.00     0.115 C 
HETATM   29  H   UNK     0      -4.077  -4.986  26.250  0.00  0.00     0.165 HD
HETATM   30  H   UNK     0      -5.028  -4.557  29.479  0.00  0.00     0.165 HD
HETATM   31  H   UNK     0      -3.491  -2.890  29.646  0.00  0.00     0.165 HD
HETATM   32  H   UNK     0      -2.511  -3.251  26.506  0.00  0.00     0.165 HD
ENDROOT
BRANCH   6  33
HETATM   33  C   UNK     0      -8.791  -5.039  26.838  0.00  0.00     0.051 C 
BRANCH  33  34
HETATM   34  C   UNK     0      -9.435  -5.869  25.753  0.00  0.00     0.114 C 
BRANCH  34  35
HETATM   35  C   UNK     0     -10.905  -5.629  25.821  0.00  0.00     0.139 C 
HETATM   36  O   UNK     0     -11.695  -6.584  26.078  0.00  0.00    -0.650 OA
BRANCH  35  37
HETATM   37  O   UNK     0     -11.470  -4.377  25.614  0.00  0.00    -0.776 OA
HETATM   38  H   UNK     0     -10.914  -3.538  25.579  0.00  0.00     0.167 HD
ENDBRANCH  35  37
ENDBRANCH  34  35
ENDBRANCH  33  34
ENDBRANCH   6  33
BRANCH  27  39
HETATM   39  C   UNK     0      -2.945   1.360  27.574  0.00  0.00     0.051 C 
BRANCH  39  40
HETATM   40  C   UNK     0      -1.614   1.958  27.480  0.00  0.00     0.114 C 
BRANCH  40  41
HETATM   41  C   UNK     0      -0.876   2.383  28.649  0.00  0.00     0.139 C 
HETATM   42  O   UNK     0      -1.315   2.296  29.803  0.00  0.00    -0.650 OA
BRANCH  41  43
HETATM   43  O   UNK     0       0.427   2.932  28.481  0.00  0.00    -0.776 OA
HETATM   44  H   UNK     0       0.473   3.939  28.579  0.00  0.00     0.167 HD
ENDBRANCH  41  43
ENDBRANCH  40  41
ENDBRANCH  39  40
ENDBRANCH  27  39
BRANCH  11  45
HETATM   45  C   UNK     0      -2.541  -8.419  30.665  0.00  0.00     0.051 C 
BRANCH  45  46
HETATM   46  C   UNK     0      -1.169  -8.373  30.099  0.00  0.00     0.114 C 
BRANCH  46  47
HETATM   47  C   UNK     0      -0.350  -9.371  30.845  0.00  0.00     0.139 C 
HETATM   48  O   UNK     0      -0.927 -10.164  31.601  0.00  0.00    -0.650 OA
BRANCH  47  49
HETATM   49  O   UNK     0       1.014  -9.410  30.699  0.00  0.00    -0.776 OA
HETATM   50  H   UNK     0       1.586  -8.558  30.688  0.00  0.00     0.167 HD
ENDBRANCH  47  49
ENDBRANCH  46  47
ENDBRANCH  45  46
ENDBRANCH  11  45
BRANCH  18  51
HETATM   51  C   UNK     0       1.232  -2.656  29.516  0.00  0.00     0.051 C 
BRANCH  51  52
HETATM   52  C   UNK     0       1.633  -1.784  30.696  0.00  0.00     0.114 C 
BRANCH  52  53
HETATM   53  C   UNK     0       1.214  -0.381  30.511  0.00  0.00     0.139 C 
HETATM   54  O   UNK     0       1.788   0.333  29.673  0.00  0.00    -0.650 OA
BRANCH  53  55
HETATM   55  O   UNK     0       0.190   0.128  31.271  0.00  0.00    -0.776 OA
HETATM   56  H   UNK     0      -0.365  -0.380  31.920  0.00  0.00     0.167 HD
ENDBRANCH  53  55
ENDBRANCH  52  53
ENDBRANCH  51  52
ENDBRANCH  18  51
TORSDOF 16
ENDMDL
MODEL 5
REMARK VINA RESULT:      -9.5      2.079      7.050
REMARK  16 active torsions:
REMARK  status: ('A' for Active; 'I' for Inactive)
REMARK    1  A    between atoms: C_6  and  C_7 
REMARK    2  A    between atoms: C_7  and  C_8 
REMARK    3  A    between atoms: C_8  and  C_9 
REMARK    4  A    between atoms: C_9  and  O_11 
REMARK    5  A    between atoms: C_16  and  C_17 
REMARK    6  A    between atoms: C_17  and  C_18 
REMARK    7  A    between atoms: C_18  and  C_19 
REMARK    8  A    between atoms: C_19  and  O_21 
REMARK    9  A    between atoms: C_28  and  C_29 
REMARK   10  A    between atoms: C_29  and  C_30 
REMARK   11  A    between atoms: C_30  and  C_31 
REMARK   12  A    between atoms: C_31  and  O_33 
REMARK   13  A    between atoms: C_42  and  C_43 
REMARK   14  A    between atoms: C_43  and  C_44 
REMARK   15  A    between atoms: C_44  and  C_45 
REMARK   16  A    between atoms: C_45  and  O_47 
ROOT
HETATM    1  C   UNK     0       0.288   0.931  27.630  0.00  0.00     0.051 C 
HETATM    2  C   UNK     0      -0.056  -0.289  28.459  0.00  0.00    -0.031 A 
HETATM    3  C   UNK     0      -1.291  -0.726  28.911  0.00  0.00     0.021 A 
HETATM    4  N   UNK     0      -1.120  -1.851  29.645  0.00  0.00    -0.361 N 
HETATM    5  C   UNK     0       0.197  -2.146  29.664  0.00  0.00     0.022 A 
HETATM    6  C   UNK     0       0.892  -1.187  28.934  0.00  0.00    -0.027 A 
HETATM    7  C   UNK     0       0.900  -3.329  30.252  0.00  0.00     0.115 C 
HETATM    8  C   UNK     0       0.246  -4.684  30.041  0.00  0.00     0.021 A 
HETATM    9  N   UNK     0      -0.432  -5.128  28.972  0.00  0.00    -0.361 N 
HETATM   10  C   UNK     0      -0.913  -6.356  29.261  0.00  0.00     0.022 A 
HETATM   11  C   UNK     0      -0.526  -6.716  30.548  0.00  0.00    -0.027 A 
HETATM   12  C   UNK     0       0.205  -5.668  31.046  0.00  0.00    -0.031 A 
HETATM   13  C   UNK     0       0.838  -5.616  32.418  0.00  0.00     0.051 C 
HETATM   14  C   UNK     0      -1.798  -7.212  28.360  0.00  0.00     0.115 C 
HETATM   15  C   UNK     0      -3.130  -6.568  28.012  0.00  0.00     0.021 A 
HETATM   16  N   UNK     0      -3.337  -5.390  27.394  0.00  0.00    -0.361 N 
HETATM   17  C   UNK     0      -4.648  -5.147  27.339  0.00  0.00     0.022 A 
HETATM   18  C   UNK     0      -5.330  -6.223  27.942  0.00  0.00    -0.027 A 
HETATM   19  C   UNK     0      -4.368  -7.107  28.358  0.00  0.00    -0.031 A 
HETATM   20  C   UNK     0      -4.674  -8.432  29.032  0.00  0.00     0.051 C 
HETATM   21  C   UNK     0      -5.392  -3.940  26.815  0.00  0.00     0.115 C 
HETATM   22  C   UNK     0      -4.733  -2.590  26.979  0.00  0.00     0.022 A 
HETATM   23  N   UNK     0      -4.048  -2.123  28.030  0.00  0.00    -0.361 N 
HETATM   24  C   UNK     0      -3.513  -0.932  27.692  0.00  0.00     0.021 A 
HETATM   25  C   UNK     0      -3.871  -0.621  26.394  0.00  0.00    -0.031 A 
HETATM   26  C   UNK     0      -3.549   0.621  25.588  0.00  0.00     0.051 C 
HETATM   27  C   UNK     0      -4.653  -1.666  25.917  0.00  0.00    -0.027 A 
HETATM   28  C   UNK     0      -2.581  -0.063  28.519  0.00  0.00     0.115 C 
HETATM   29  H   UNK     0      -1.925  -2.407  30.178  0.00  0.00     0.165 HD
HETATM   30  H   UNK     0      -0.532  -4.598  27.993  0.00  0.00     0.165 HD
HETATM   31  H   UNK     0      -2.543  -4.738  26.944  0.00  0.00     0.165 HD
HETATM   32  H   UNK     0      -3.971  -2.609  29.037  0.00  0.00     0.165 HD
ENDROOT
BRANCH   6  33
HETATM   33  C   UNK     0       2.369  -1.060  28.658  0.00  0.00     0.051 C 
BRANCH  33  34
HETATM   34  C   UNK     0       2.747  -1.818  27.408  0.00  0.00     0.114 C 
BRANCH  34  35
HETATM   35  C   UNK     0       3.967  -2.616  27.721  0.00  0.00     0.139 C 
HETATM   36  O   UNK     0       4.906  -2.104  28.399  0.00  0.00    -0.650 OA
BRANCH  35  37
HETATM   37  O   UNK     0       4.133  -3.929  27.300  0.00  0.00    -0.776 OA
HETATM   38  H   UNK     0       4.161  -4.178  26.324  0.00  0.00     0.167 HD
ENDBRANCH  35  37
ENDBRANCH  34  35
ENDBRANCH  33  34
ENDBRANCH   6  33
BRANCH  27  39
HETATM   39  C   UNK     0      -5.286  -1.656  24.570  0.00  0.00     0.051 C 
BRANCH  39  40
HETATM   40  C   UNK     0      -6.696  -1.279  24.470  0.00  0.00     0.114 C 
BRANCH  40  41
HETATM   41  C   UNK     0      -7.183   0.008  24.911  0.00  0.00     0.139 C 
HETATM   42  O   UNK     0      -7.775   0.184  25.985  0.00  0.00    -0.650 OA
BRANCH  41  43
HETATM   43  O   UNK     0      -6.981   1.146  24.079  0.00  0.00    -0.776 OA
HETATM   44  H   UNK     0      -7.741   1.816  24.093  0.00  0.00     0.167 HD
ENDBRANCH  41  43
ENDBRANCH  40  41
ENDBRANCH  39  40
ENDBRANCH  27  39
BRANCH  11  45
HETATM   45  C   UNK     0      -0.817  -7.989  31.298  0.00  0.00     0.051 C 
BRANCH  45  46
HETATM   46  C   UNK     0      -2.240  -8.148  31.692  0.00  0.00     0.114 C 
BRANCH  46  47
HETATM   47  C   UNK     0      -2.424  -7.426  32.983  0.00  0.00     0.139 C 
HETATM   48  O   UNK     0      -2.696  -6.218  32.953  0.00  0.00    -0.650 OA
BRANCH  47  49
HETATM   49  O   UNK     0      -2.293  -8.083  34.180  0.00  0.00    -0.776 OA
HETATM   50  H   UNK     0      -3.101  -8.289  34.781  0.00  0.00     0.167 HD
ENDBRANCH  47  49
ENDBRANCH  46  47
ENDBRANCH  45  46
ENDBRANCH  11  45
BRANCH  18  51
HETATM   51  C   UNK     0      -6.817  -6.409  28.094  0.00  0.00     0.051 C 
BRANCH  51  52
HETATM   52  C   UNK     0      -7.290  -7.113  26.830  0.00  0.00     0.114 C 
BRANCH  52  53
HETATM   53  C   UNK     0      -8.578  -6.576  26.352  0.00  0.00     0.139 C 
HETATM   54  O   UNK     0      -8.720  -5.353  26.189  0.00  0.00    -0.650 OA
BRANCH  53  55
HETATM   55  O   UNK     0      -9.618  -7.435  26.091  0.00  0.00    -0.776 OA
HETATM   56  H   UNK     0     -10.554  -7.332  26.405  0.00  0.00     0.167 HD
ENDBRANCH  53  55
ENDBRANCH  52  53
ENDBRANCH  51  52
ENDBRANCH  18  51
TORSDOF 16
ENDMDL
MODEL 6
REMARK VINA RESULT:      -9.5      3.413      8.144
REMARK  16 active torsions:
REMARK  status: ('A' for Active; 'I' for Inactive)
REMARK    1  A    between atoms: C_6  and  C_7 
REMARK    2  A    between atoms: C_7  and  C_8 
REMARK    3  A    between atoms: C_8  and  C_9 
REMARK    4  A    between atoms: C_9  and  O_11 
REMARK    5  A    between atoms: C_16  and  C_17 
REMARK    6  A    between atoms: C_17  and  C_18 
REMARK    7  A    between atoms: C_18  and  C_19 
REMARK    8  A    between atoms: C_19  and  O_21 
REMARK    9  A    between atoms: C_28  and  C_29 
REMARK   10  A    between atoms: C_29  and  C_30 
REMARK   11  A    between atoms: C_30  and  C_31 
REMARK   12  A    between atoms: C_31  and  O_33 
REMARK   13  A    between atoms: C_42  and  C_43 
REMARK   14  A    between atoms: C_43  and  C_44 
REMARK   15  A    between atoms: C_44  and  C_45 
REMARK   16  A    between atoms: C_45  and  O_47 
ROOT
HETATM    1  C   UNK     0      -6.907  -9.821  27.096  0.00  0.00     0.051 C 
HETATM    2  C   UNK     0      -6.989  -8.320  27.285  0.00  0.00    -0.031 A 
HETATM    3  C   UNK     0      -6.387  -7.519  28.242  0.00  0.00     0.021 A 
HETATM    4  N   UNK     0      -6.768  -6.234  28.046  0.00  0.00    -0.361 N 
HETATM    5  C   UNK     0      -7.592  -6.198  26.978  0.00  0.00     0.022 A 
HETATM    6  C   UNK     0      -7.754  -7.486  26.480  0.00  0.00    -0.027 A 
HETATM    7  C   UNK     0      -8.210  -5.020  26.293  0.00  0.00     0.115 C 
HETATM    8  C   UNK     0      -7.318  -3.809  26.081  0.00  0.00     0.021 A 
HETATM    9  N   UNK     0      -6.006  -3.776  25.802  0.00  0.00    -0.361 N 
HETATM   10  C   UNK     0      -5.612  -2.485  25.791  0.00  0.00     0.022 A 
HETATM   11  C   UNK     0      -6.702  -1.663  26.062  0.00  0.00    -0.027 A 
HETATM   12  C   UNK     0      -7.780  -2.491  26.245  0.00  0.00    -0.031 A 
HETATM   13  C   UNK     0      -9.188  -2.036  26.558  0.00  0.00     0.051 C 
HETATM   14  C   UNK     0      -4.188  -1.979  25.580  0.00  0.00     0.115 C 
HETATM   15  C   UNK     0      -3.199  -2.466  26.626  0.00  0.00     0.021 A 
HETATM   16  N   UNK     0      -2.889  -3.740  26.933  0.00  0.00    -0.361 N 
HETATM   17  C   UNK     0      -2.030  -3.748  27.955  0.00  0.00     0.022 A 
HETATM   18  C   UNK     0      -1.760  -2.416  28.326  0.00  0.00    -0.027 A 
HETATM   19  C   UNK     0      -2.497  -1.623  27.485  0.00  0.00    -0.031 A 
HETATM   20  C   UNK     0      -2.471  -0.105  27.517  0.00  0.00     0.051 C 
HETATM   21  C   UNK     0      -1.436  -4.912  28.716  0.00  0.00     0.115 C 
HETATM   22  C   UNK     0      -2.297  -6.140  28.896  0.00  0.00     0.022 A 
HETATM   23  N   UNK     0      -3.607  -6.203  29.171  0.00  0.00    -0.361 N 
HETATM   24  C   UNK     0      -3.993  -7.492  29.099  0.00  0.00     0.021 A 
HETATM   25  C   UNK     0      -2.904  -8.280  28.781  0.00  0.00    -0.031 A 
HETATM   26  C   UNK     0      -2.828  -9.786  28.629  0.00  0.00     0.051 C 
HETATM   27  C   UNK     0      -1.807  -7.437  28.646  0.00  0.00    -0.027 A 
HETATM   28  C   UNK     0      -5.399  -8.051  29.241  0.00  0.00     0.115 C 
HETATM   29  H   UNK     0      -6.483  -5.368  28.687  0.00  0.00     0.165 HD
HETATM   30  H   UNK     0      -5.365  -4.660  25.562  0.00  0.00     0.165 HD
HETATM   31  H   UNK     0      -3.247  -4.651  26.387  0.00  0.00     0.165 HD
HETATM   32  H   UNK     0      -4.263  -5.341  29.461  0.00  0.00     0.165 HD
ENDROOT
BRANCH   6  33
HETATM   33  C   UNK     0      -8.573  -7.978  25.313  0.00  0.00     0.051 C 
BRANCH  33  34
HETATM   34  C   UNK     0      -9.976  -8.322  25.751  0.00  0.00     0.114 C 
BRANCH  34  35
HETATM   35  C   UNK     0     -10.251  -9.721  25.313  0.00  0.00     0.139 C 
HETATM   36  O   UNK     0      -9.429 -10.328  24.566  0.00  0.00    -0.650 OA
BRANCH  35  37
HETATM   37  O   UNK     0     -11.393 -10.415  25.693  0.00  0.00    -0.776 OA
HETATM   38  H   UNK     0     -12.187  -9.952  26.106  0.00  0.00     0.167 HD
ENDBRANCH  35  37
ENDBRANCH  34  35
ENDBRANCH  33  34
ENDBRANCH   6  33
BRANCH  27  39
HETATM   39  C   UNK     0      -0.431  -7.935  28.375  0.00  0.00     0.051 C 
BRANCH  39  40
HETATM   40  C   UNK     0       0.488  -8.085  29.502  0.00  0.00     0.114 C 
BRANCH  40  41
HETATM   41  C   UNK     0       1.557  -7.145  29.756  0.00  0.00     0.139 C 
HETATM   42  O   UNK     0       1.699  -6.086  29.129  0.00  0.00    -0.650 OA
BRANCH  41  43
HETATM   43  O   UNK     0       2.504  -7.435  30.778  0.00  0.00    -0.776 OA
HETATM   44  H   UNK     0       2.505  -8.399  31.087  0.00  0.00     0.167 HD
ENDBRANCH  41  43
ENDBRANCH  40  41
ENDBRANCH  39  40
ENDBRANCH  27  39
BRANCH  11  45
HETATM   45  C   UNK     0      -6.751  -0.161  26.147  0.00  0.00     0.051 C 
BRANCH  45  46
HETATM   46  C   UNK     0      -6.536   0.526  24.848  0.00  0.00     0.114 C 
BRANCH  46  47
HETATM   47  C   UNK     0      -5.426   1.503  25.044  0.00  0.00     0.139 C 
HETATM   48  O   UNK     0      -4.796   1.890  24.051  0.00  0.00    -0.650 OA
BRANCH  47  49
HETATM   49  O   UNK     0      -5.109   1.963  26.297  0.00  0.00    -0.776 OA
HETATM   50  H   UNK     0      -4.157   2.261  26.543  0.00  0.00     0.167 HD
ENDBRANCH  47  49
ENDBRANCH  46  47
ENDBRANCH  45  46
ENDBRANCH  11  45
BRANCH  18  51
HETATM   51  C   UNK     0      -0.834  -1.925  29.408  0.00  0.00     0.051 C 
BRANCH  51  52
HETATM   52  C   UNK     0       0.256  -1.127  28.707  0.00  0.00     0.114 C 
BRANCH  52  53
HETATM   53  C   UNK     0       0.619   0.088  29.460  0.00  0.00     0.139 C 
HETATM   54  O   UNK     0       1.440   0.890  28.988  0.00  0.00    -0.650 OA
BRANCH  53  55
HETATM   55  O   UNK     0       0.045   0.324  30.686  0.00  0.00    -0.776 OA
HETATM   56  H   UNK     0       0.251   1.085  31.291  0.00  0.00     0.167 HD
ENDBRANCH  53  55
ENDBRANCH  52  53
ENDBRANCH  51  52
ENDBRANCH  18  51
TORSDOF 16
ENDMDL
MODEL 7
REMARK VINA RESULT:      -9.2      3.151      8.223
REMARK  16 active torsions:
REMARK  status: ('A' for Active; 'I' for Inactive)
REMARK    1  A    between atoms: C_6  and  C_7 
REMARK    2  A    between atoms: C_7  and  C_8 
REMARK    3  A    between atoms: C_8  and  C_9 
REMARK    4  A    between atoms: C_9  and  O_11 
REMARK    5  A    between atoms: C_16  and  C_17 
REMARK    6  A    between atoms: C_17  and  C_18 
REMARK    7  A    between atoms: C_18  and  C_19 
REMARK    8  A    between atoms: C_19  and  O_21 
REMARK    9  A    between atoms: C_28  and  C_29 
REMARK   10  A    between atoms: C_29  and  C_30 
REMARK   11  A    between atoms: C_30  and  C_31 
REMARK   12  A    between atoms: C_31  and  O_33 
REMARK   13  A    between atoms: C_42  and  C_43 
REMARK   14  A    between atoms: C_43  and  C_44 
REMARK   15  A    between atoms: C_44  and  C_45 
REMARK   16  A    between atoms: C_45  and  O_47 
ROOT
HETATM    1  C   UNK     0      -8.807   0.530  24.478  0.00  0.00     0.051 C 
HETATM    2  C   UNK     0      -7.725   0.075  25.436  0.00  0.00    -0.031 A 
HETATM    3  C   UNK     0      -7.809  -0.803  26.505  0.00  0.00     0.021 A 
HETATM    4  N   UNK     0      -6.597  -0.890  27.101  0.00  0.00    -0.361 N 
HETATM    5  C   UNK     0      -5.739  -0.094  26.430  0.00  0.00     0.022 A 
HETATM    6  C   UNK     0      -6.413   0.527  25.384  0.00  0.00    -0.027 A 
HETATM    7  C   UNK     0      -4.267   0.095  26.623  0.00  0.00     0.115 C 
HETATM    8  C   UNK     0      -3.446  -1.156  26.879  0.00  0.00     0.021 A 
HETATM    9  N   UNK     0      -3.615  -2.386  26.370  0.00  0.00    -0.361 N 
HETATM   10  C   UNK     0      -2.712  -3.207  26.947  0.00  0.00     0.022 A 
HETATM   11  C   UNK     0      -1.934  -2.484  27.846  0.00  0.00    -0.027 A 
HETATM   12  C   UNK     0      -2.391  -1.191  27.808  0.00  0.00    -0.031 A 
HETATM   13  C   UNK     0      -1.836  -0.044  28.622  0.00  0.00     0.051 C 
HETATM   14  C   UNK     0      -2.582  -4.710  26.714  0.00  0.00     0.115 C 
HETATM   15  C   UNK     0      -3.823  -5.501  27.096  0.00  0.00     0.021 A 
HETATM   16  N   UNK     0      -5.071  -5.355  26.612  0.00  0.00    -0.361 N 
HETATM   17  C   UNK     0      -5.890  -6.192  27.253  0.00  0.00     0.022 A 
HETATM   18  C   UNK     0      -5.138  -6.925  28.193  0.00  0.00    -0.027 A 
HETATM   19  C   UNK     0      -3.845  -6.484  28.083  0.00  0.00    -0.031 A 
HETATM   20  C   UNK     0      -2.691  -7.041  28.897  0.00  0.00     0.051 C 
HETATM   21  C   UNK     0      -7.387  -6.367  27.136  0.00  0.00     0.115 C 
HETATM   22  C   UNK     0      -8.212  -5.137  26.837  0.00  0.00     0.022 A 
HETATM   23  N   UNK     0      -8.064  -3.899  27.327  0.00  0.00    -0.361 N 
HETATM   24  C   UNK     0      -8.921  -3.083  26.681  0.00  0.00     0.021 A 
HETATM   25  C   UNK     0      -9.646  -3.815  25.761  0.00  0.00    -0.031 A 
HETATM   26  C   UNK     0     -10.750  -3.353  24.832  0.00  0.00     0.051 C 
HETATM   27  C   UNK     0      -9.211  -5.133  25.842  0.00  0.00    -0.027 A 
HETATM   28  C   UNK     0      -9.057  -1.577  26.825  0.00  0.00     0.115 C 
HETATM   29  H   UNK     0      -6.365  -1.483  28.016  0.00  0.00     0.165 HD
HETATM   30  H   UNK     0      -4.339  -2.668  25.566  0.00  0.00     0.165 HD
HETATM   31  H   UNK     0      -5.373  -4.682  25.768  0.00  0.00     0.165 HD
HETATM   32  H   UNK     0      -7.382  -3.598  28.164  0.00  0.00     0.165 HD
ENDROOT
BRANCH   6  33
HETATM   33  C   UNK     0      -5.911   1.506  24.353  0.00  0.00     0.051 C 
BRANCH  33  34
HETATM   34  C   UNK     0      -5.880   2.907  24.916  0.00  0.00     0.114 C 
BRANCH  34  35
HETATM   35  C   UNK     0      -4.450   3.270  25.133  0.00  0.00     0.139 C 
HETATM   36  O   UNK     0      -4.126   4.041  26.083  0.00  0.00    -0.650 OA
BRANCH  35  37
HETATM   37  O   UNK     0      -3.425   2.791  24.327  0.00  0.00    -0.776 OA
HETATM   38  H   UNK     0      -2.711   3.396  23.954  0.00  0.00     0.167 HD
ENDBRANCH  35  37
ENDBRANCH  34  35
ENDBRANCH  33  34
ENDBRANCH   6  33
BRANCH  27  39
HETATM   39  C   UNK     0      -9.814  -6.237  25.047  0.00  0.00     0.051 C 
BRANCH  39  40
HETATM   40  C   UNK     0     -10.619  -7.237  25.747  0.00  0.00     0.114 C 
BRANCH  40  41
HETATM   41  C   UNK     0     -12.040  -7.070  25.960  0.00  0.00     0.139 C 
HETATM   42  O   UNK     0     -12.679  -7.690  26.820  0.00  0.00    -0.650 OA
BRANCH  41  43
HETATM   43  O   UNK     0     -12.757  -6.149  25.145  0.00  0.00    -0.776 OA
HETATM   44  H   UNK     0     -12.974  -5.270  25.598  0.00  0.00     0.167 HD
ENDBRANCH  41  43
ENDBRANCH  40  41
ENDBRANCH  39  40
ENDBRANCH  27  39
BRANCH  11  45
HETATM   45  C   UNK     0      -0.801  -2.967  28.712  0.00  0.00     0.051 C 
BRANCH  45  46
HETATM   46  C   UNK     0      -1.238  -3.599  29.983  0.00  0.00     0.114 C 
BRANCH  46  47
HETATM   47  C   UNK     0      -0.188  -3.310  31.002  0.00  0.00     0.139 C 
HETATM   48  O   UNK     0       0.051  -2.128  31.287  0.00  0.00    -0.650 OA
BRANCH  47  49
HETATM   49  O   UNK     0       0.499  -4.329  31.612  0.00  0.00    -0.776 OA
HETATM   50  H   UNK     0       0.469  -5.293  31.261  0.00  0.00     0.167 HD
ENDBRANCH  47  49
ENDBRANCH  46  47
ENDBRANCH  45  46
ENDBRANCH  11  45
BRANCH  18  51
HETATM   51  C   UNK     0      -5.622  -8.002  29.129  0.00  0.00     0.051 C 
BRANCH  51  52
HETATM   52  C   UNK     0      -6.231  -9.087  28.252  0.00  0.00     0.114 C 
BRANCH  52  53
HETATM   53  C   UNK     0      -5.252 -10.141  27.923  0.00  0.00     0.139 C 
HETATM   54  O   UNK     0      -4.087 -10.062  28.346  0.00  0.00    -0.650 OA
BRANCH  53  55
HETATM   55  O   UNK     0      -5.636 -11.205  27.144  0.00  0.00    -0.776 OA
HETATM   56  H   UNK     0      -6.398 -11.218  26.507  0.00  0.00     0.167 HD
ENDBRANCH  53  55
ENDBRANCH  52  53
ENDBRANCH  51  52
ENDBRANCH  18  51
TORSDOF 16
ENDMDL
MODEL 8
REMARK VINA RESULT:      -9.1      3.015      8.351
REMARK  16 active torsions:
REMARK  status: ('A' for Active; 'I' for Inactive)
REMARK    1  A    between atoms: C_6  and  C_7 
REMARK    2  A    between atoms: C_7  and  C_8 
REMARK    3  A    between atoms: C_8  and  C_9 
REMARK    4  A    between atoms: C_9  and  O_11 
REMARK    5  A    between atoms: C_16  and  C_17 
REMARK    6  A    between atoms: C_17  and  C_18 
REMARK    7  A    between atoms: C_18  and  C_19 
REMARK    8  A    between atoms: C_19  and  O_21 
REMARK    9  A    between atoms: C_28  and  C_29 
REMARK   10  A    between atoms: C_29  and  C_30 
REMARK   11  A    between atoms: C_30  and  C_31 
REMARK   12  A    between atoms: C_31  and  O_33 
REMARK   13  A    between atoms: C_42  and  C_43 
REMARK   14  A    between atoms: C_43  and  C_44 
REMARK   15  A    between atoms: C_44  and  C_45 
REMARK   16  A    between atoms: C_45  and  O_47 
ROOT
HETATM    1  C   UNK     0      -7.066  -9.689  27.019  0.00  0.00     0.051 C 
HETATM    2  C   UNK     0      -6.842  -8.236  27.382  0.00  0.00    -0.031 A 
HETATM    3  C   UNK     0      -6.069  -7.691  28.395  0.00  0.00     0.021 A 
HETATM    4  N   UNK     0      -6.190  -6.343  28.367  0.00  0.00    -0.361 N 
HETATM    5  C   UNK     0      -7.017  -6.016  27.353  0.00  0.00     0.022 A 
HETATM    6  C   UNK     0      -7.446  -7.176  26.717  0.00  0.00    -0.027 A 
HETATM    7  C   UNK     0      -7.405  -4.664  26.839  0.00  0.00     0.115 C 
HETATM    8  C   UNK     0      -6.295  -3.634  26.724  0.00  0.00     0.021 A 
HETATM    9  N   UNK     0      -5.010  -3.824  26.386  0.00  0.00    -0.361 N 
HETATM   10  C   UNK     0      -4.367  -2.643  26.505  0.00  0.00     0.022 A 
HETATM   11  C   UNK     0      -5.264  -1.664  26.922  0.00  0.00    -0.027 A 
HETATM   12  C   UNK     0      -6.481  -2.282  27.062  0.00  0.00    -0.031 A 
HETATM   13  C   UNK     0      -7.761  -1.603  27.494  0.00  0.00     0.051 C 
HETATM   14  C   UNK     0      -2.877  -2.402  26.283  0.00  0.00     0.115 C 
HETATM   15  C   UNK     0      -1.979  -3.198  27.216  0.00  0.00     0.021 A 
HETATM   16  N   UNK     0      -1.922  -4.535  27.359  0.00  0.00    -0.361 N 
HETATM   17  C   UNK     0      -1.056  -4.836  28.330  0.00  0.00     0.022 A 
HETATM   18  C   UNK     0      -0.516  -3.637  28.838  0.00  0.00    -0.027 A 
HETATM   19  C   UNK     0      -1.101  -2.619  28.131  0.00  0.00    -0.031 A 
HETATM   20  C   UNK     0      -0.772  -1.151  28.336  0.00  0.00     0.051 C 
HETATM   21  C   UNK     0      -0.687  -6.177  28.922  0.00  0.00     0.115 C 
HETATM   22  C   UNK     0      -1.771  -7.226  29.001  0.00  0.00     0.022 A 
HETATM   23  N   UNK     0      -3.059  -7.066  29.331  0.00  0.00    -0.361 N 
HETATM   24  C   UNK     0      -3.697  -8.237  29.130  0.00  0.00     0.021 A 
HETATM   25  C   UNK     0      -2.795  -9.177  28.670  0.00  0.00    -0.031 A 
HETATM   26  C   UNK     0      -3.025 -10.638  28.343  0.00  0.00     0.051 C 
HETATM   27  C   UNK     0      -1.555  -8.554  28.580  0.00  0.00    -0.027 A 
HETATM   28  C   UNK     0      -5.181  -8.524  29.276  0.00  0.00     0.115 C 
HETATM   29  H   UNK     0      -5.722  -5.634  29.088  0.00  0.00     0.165 HD
HETATM   30  H   UNK     0      -4.565  -4.779  26.015  0.00  0.00     0.165 HD
HETATM   31  H   UNK     0      -2.467  -5.285  26.730  0.00  0.00     0.165 HD
HETATM   32  H   UNK     0      -3.522  -6.135  29.750  0.00  0.00     0.165 HD
ENDROOT
BRANCH   6  33
HETATM   33  C   UNK     0      -8.376  -7.353  25.543  0.00  0.00     0.051 C 
BRANCH  33  34
HETATM   34  C   UNK     0      -9.763  -7.723  26.011  0.00  0.00     0.114 C 
BRANCH  34  35
HETATM   35  C   UNK     0     -10.514  -6.453  26.230  0.00  0.00     0.139 C 
HETATM   36  O   UNK     0     -11.151  -6.267  27.307  0.00  0.00    -0.650 OA
BRANCH  35  37
HETATM   37  O   UNK     0     -10.550  -5.432  25.288  0.00  0.00    -0.776 OA
HETATM   38  H   UNK     0     -10.384  -5.601  24.309  0.00  0.00     0.167 HD
ENDBRANCH  35  37
ENDBRANCH  34  35
ENDBRANCH  33  34
ENDBRANCH   6  33
BRANCH  27  39
HETATM   39  C   UNK     0      -0.314  -9.273  28.185  0.00  0.00     0.051 C 
BRANCH  39  40
HETATM   40  C   UNK     0       0.618  -9.679  29.237  0.00  0.00     0.114 C 
BRANCH  40  41
HETATM   41  C   UNK     0       1.870  -8.994  29.465  0.00  0.00     0.139 C 
HETATM   42  O   UNK     0       2.905  -9.233  28.829  0.00  0.00    -0.650 OA
BRANCH  41  43
HETATM   43  O   UNK     0       1.935  -7.987  30.469  0.00  0.00    -0.776 OA
HETATM   44  H   UNK     0       1.457  -7.126  30.231  0.00  0.00     0.167 HD
ENDBRANCH  41  43
ENDBRANCH  40  41
ENDBRANCH  39  40
ENDBRANCH  27  39
BRANCH  11  45
HETATM   45  C   UNK     0      -5.011  -0.203  27.181  0.00  0.00     0.051 C 
BRANCH  45  46
HETATM   46  C   UNK     0      -5.387   0.687  26.053  0.00  0.00     0.114 C 
BRANCH  46  47
HETATM   47  C   UNK     0      -4.157   0.913  25.241  0.00  0.00     0.139 C 
HETATM   48  O   UNK     0      -3.974   0.212  24.236  0.00  0.00    -0.650 OA
BRANCH  47  49
HETATM   49  O   UNK     0      -3.247   1.876  25.597  0.00  0.00    -0.776 OA
HETATM   50  H   UNK     0      -2.544   1.717  26.328  0.00  0.00     0.167 HD
ENDBRANCH  47  49
ENDBRANCH  46  47
ENDBRANCH  45  46
ENDBRANCH  11  45
BRANCH  18  51
HETATM   51  C   UNK     0       0.517  -3.473  29.922  0.00  0.00     0.051 C 
BRANCH  51  52
HETATM   52  C   UNK     0      -0.230  -3.587  31.243  0.00  0.00     0.114 C 
BRANCH  52  53
HETATM   53  C   UNK     0       0.488  -2.912  32.341  0.00  0.00     0.139 C 
HETATM   54  O   UNK     0       1.519  -3.418  32.813  0.00  0.00    -0.650 OA
BRANCH  53  55
HETATM   55  O   UNK     0       0.009  -1.724  32.837  0.00  0.00    -0.776 OA
HETATM   56  H   UNK     0      -0.565  -1.077  32.350  0.00  0.00     0.167 HD
ENDBRANCH  53  55
ENDBRANCH  52  53
ENDBRANCH  51  52
ENDBRANCH  18  51
TORSDOF 16
ENDMDL
MODEL 9
REMARK VINA RESULT:      -9.1     35.897     39.028
REMARK  16 active torsions:
REMARK  status: ('A' for Active; 'I' for Inactive)
REMARK    1  A    between atoms: C_6  and  C_7 
REMARK    2  A    between atoms: C_7  and  C_8 
REMARK    3  A    between atoms: C_8  and  C_9 
REMARK    4  A    between atoms: C_9  and  O_11 
REMARK    5  A    between atoms: C_16  and  C_17 
REMARK    6  A    between atoms: C_17  and  C_18 
REMARK    7  A    between atoms: C_18  and  C_19 
REMARK    8  A    between atoms: C_19  and  O_21 
REMARK    9  A    between atoms: C_28  and  C_29 
REMARK   10  A    between atoms: C_29  and  C_30 
REMARK   11  A    between atoms: C_30  and  C_31 
REMARK   12  A    between atoms: C_31  and  O_33 
REMARK   13  A    between atoms: C_42  and  C_43 
REMARK   14  A    between atoms: C_43  and  C_44 
REMARK   15  A    between atoms: C_44  and  C_45 
REMARK   16  A    between atoms: C_45  and  O_47 
ROOT
HETATM    1  C   UNK     0      13.998 -16.786  -1.941  0.00  0.00     0.051 C 
HETATM    2  C   UNK     0      14.721 -18.105  -1.754  0.00  0.00    -0.031 A 
HETATM    3  C   UNK     0      16.082 -18.358  -1.680  0.00  0.00     0.021 A 
HETATM    4  N   UNK     0      16.275 -19.691  -1.541  0.00  0.00    -0.361 N 
HETATM    5  C   UNK     0      15.067 -20.292  -1.516  0.00  0.00     0.022 A 
HETATM    6  C   UNK     0      14.073 -19.328  -1.650  0.00  0.00    -0.027 A 
HETATM    7  C   UNK     0      14.724 -21.731  -1.288  0.00  0.00     0.115 C 
HETATM    8  C   UNK     0      15.488 -22.448  -0.190  0.00  0.00     0.021 A 
HETATM    9  N   UNK     0      15.919 -21.962   0.985  0.00  0.00    -0.361 N 
HETATM   10  C   UNK     0      16.632 -22.927   1.602  0.00  0.00     0.022 A 
HETATM   11  C   UNK     0      16.654 -24.070   0.809  0.00  0.00    -0.027 A 
HETATM   12  C   UNK     0      15.935 -23.775  -0.322  0.00  0.00    -0.031 A 
HETATM   13  C   UNK     0      15.685 -24.726  -1.471  0.00  0.00     0.051 C 
HETATM   14  C   UNK     0      17.363 -22.794   2.935  0.00  0.00     0.115 C 
HETATM   15  C   UNK     0      18.449 -21.730   2.939  0.00  0.00     0.021 A 
HETATM   16  N   UNK     0      18.312 -20.416   2.682  0.00  0.00    -0.361 N 
HETATM   17  C   UNK     0      19.513 -19.835   2.717  0.00  0.00     0.022 A 
HETATM   18  C   UNK     0      20.478 -20.815   3.021  0.00  0.00    -0.027 A 
HETATM   19  C   UNK     0      19.798 -21.998   3.159  0.00  0.00    -0.031 A 
HETATM   20  C   UNK     0      20.460 -23.314   3.526  0.00  0.00     0.051 C 
HETATM   21  C   UNK     0      19.909 -18.404   2.429  0.00  0.00     0.115 C 
HETATM   22  C   UNK     0      19.127 -17.664   1.369  0.00  0.00     0.022 A 
HETATM   23  N   UNK     0      18.682 -18.124   0.192  0.00  0.00    -0.361 N 
HETATM   24  C   UNK     0      17.910 -17.173  -0.370  0.00  0.00     0.021 A 
HETATM   25  C   UNK     0      17.865 -16.069   0.460  0.00  0.00    -0.031 A 
HETATM   26  C   UNK     0      17.165 -14.743   0.246  0.00  0.00     0.051 C 
HETATM   27  C   UNK     0      18.637 -16.359   1.579  0.00  0.00    -0.027 A 
HETATM   28  C   UNK     0      17.112 -17.265  -1.659  0.00  0.00     0.115 C 
HETATM   29  H   UNK     0      17.265 -20.203  -1.501  0.00  0.00     0.165 HD
HETATM   30  H   UNK     0      15.679 -20.954   1.403  0.00  0.00     0.165 HD
HETATM   31  H   UNK     0      17.342 -19.878   2.519  0.00  0.00     0.165 HD
HETATM   32  H   UNK     0      18.945 -19.110  -0.273  0.00  0.00     0.165 HD
ENDROOT
BRANCH   6  33
HETATM   33  C   UNK     0      12.573 -19.481  -1.688  0.00  0.00     0.051 C 
BRANCH  33  34
HETATM   34  C   UNK     0      12.009 -19.567  -0.289  0.00  0.00     0.114 C 
BRANCH  34  35
HETATM   35  C   UNK     0      11.081 -20.734  -0.254  0.00  0.00     0.139 C 
HETATM   36  O   UNK     0      10.578 -21.114   0.843  0.00  0.00    -0.650 OA
BRANCH  35  37
HETATM   37  O   UNK     0      10.727 -21.445  -1.394  0.00  0.00    -0.776 OA
HETATM   38  H   UNK     0       9.775 -21.498  -1.717  0.00  0.00     0.167 HD
ENDBRANCH  35  37
ENDBRANCH  34  35
ENDBRANCH  33  34
ENDBRANCH   6  33
BRANCH  27  39
HETATM   39  C   UNK     0      18.885 -15.377   2.669  0.00  0.00     0.051 C 
BRANCH  39  40
HETATM   40  C   UNK     0      19.985 -14.427   2.510  0.00  0.00     0.114 C 
BRANCH  40  41
HETATM   41  C   UNK     0      19.770 -12.998   2.477  0.00  0.00     0.139 C 
HETATM   42  O   UNK     0      19.983 -12.297   1.478  0.00  0.00    -0.650 OA
BRANCH  41  43
HETATM   43  O   UNK     0      19.288 -12.344   3.646  0.00  0.00    -0.776 OA
HETATM   44  H   UNK     0      19.864 -11.573   3.963  0.00  0.00     0.167 HD
ENDBRANCH  41  43
ENDBRANCH  40  41
ENDBRANCH  39  40
ENDBRANCH  27  39
BRANCH  11  45
HETATM   45  C   UNK     0      17.313 -25.395   1.083  0.00  0.00     0.051 C 
BRANCH  45  46
HETATM   46  C   UNK     0      18.751 -25.444   0.712  0.00  0.00     0.114 C 
BRANCH  46  47
HETATM   47  C   UNK     0      18.850 -26.191  -0.574  0.00  0.00     0.139 C 
HETATM   48  O   UNK     0      18.213 -27.247  -0.697  0.00  0.00    -0.650 OA
BRANCH  47  49
HETATM   49  O   UNK     0      19.630 -25.723  -1.601  0.00  0.00    -0.776 OA
HETATM   50  H   UNK     0      20.582 -26.072  -1.766  0.00  0.00     0.167 HD
ENDBRANCH  47  49
ENDBRANCH  46  47
ENDBRANCH  45  46
ENDBRANCH  11  45
BRANCH  18  51
HETATM   51  C   UNK     0      21.963 -20.631   3.192  0.00  0.00     0.051 C 
BRANCH  51  52
HETATM   52  C   UNK     0      22.256 -20.872   4.665  0.00  0.00     0.114 C 
BRANCH  52  53
HETATM   53  C   UNK     0      23.148 -19.837   5.224  0.00  0.00     0.139 C 
HETATM   54  O   UNK     0      23.703 -20.021   6.319  0.00  0.00    -0.650 OA
BRANCH  53  55
HETATM   55  O   UNK     0      23.355 -18.671   4.528  0.00  0.00    -0.776 OA
HETATM   56  H   UNK     0      22.942 -17.791   4.727  0.00  0.00     0.167 HD
ENDBRANCH  53  55
ENDBRANCH  52  53
ENDBRANCH  51  52
ENDBRANCH  18  51
TORSDOF 16
ENDMDL
MODEL 10
REMARK VINA RESULT:      -9.1      2.114      6.953
REMARK  16 active torsions:
REMARK  status: ('A' for Active; 'I' for Inactive)
REMARK    1  A    between atoms: C_6  and  C_7 
REMARK    2  A    between atoms: C_7  and  C_8 
REMARK    3  A    between atoms: C_8  and  C_9 
REMARK    4  A    between atoms: C_9  and  O_11 
REMARK    5  A    between atoms: C_16  and  C_17 
REMARK    6  A    between atoms: C_17  and  C_18 
REMARK    7  A    between atoms: C_18  and  C_19 
REMARK    8  A    between atoms: C_19  and  O_21 
REMARK    9  A    between atoms: C_28  and  C_29 
REMARK   10  A    between atoms: C_29  and  C_30 
REMARK   11  A    between atoms: C_30  and  C_31 
REMARK   12  A    between atoms: C_31  and  O_33 
REMARK   13  A    between atoms: C_42  and  C_43 
REMARK   14  A    between atoms: C_43  and  C_44 
REMARK   15  A    between atoms: C_44  and  C_45 
REMARK   16  A    between atoms: C_45  and  O_47 
ROOT
HETATM    1  C   UNK     0       2.544  -0.340  29.724  0.00  0.00     0.051 C 
HETATM    2  C   UNK     0       1.450  -1.384  29.818  0.00  0.00    -0.031 A 
HETATM    3  C   UNK     0       0.092  -1.218  30.041  0.00  0.00     0.021 A 
HETATM    4  N   UNK     0      -0.501  -2.435  30.078  0.00  0.00    -0.361 N 
HETATM    5  C   UNK     0       0.448  -3.373  29.875  0.00  0.00     0.022 A 
HETATM    6  C   UNK     0       1.680  -2.750  29.712  0.00  0.00    -0.027 A 
HETATM    7  C   UNK     0       0.305  -4.856  29.731  0.00  0.00     0.115 C 
HETATM    8  C   UNK     0      -0.854  -5.350  28.883  0.00  0.00     0.021 A 
HETATM    9  N   UNK     0      -1.373  -4.801  27.774  0.00  0.00    -0.361 N 
HETATM   10  C   UNK     0      -2.450  -5.528  27.410  0.00  0.00     0.022 A 
HETATM   11  C   UNK     0      -2.624  -6.581  28.304  0.00  0.00    -0.027 A 
HETATM   12  C   UNK     0      -1.622  -6.474  29.235  0.00  0.00    -0.031 A 
HETATM   13  C   UNK     0      -1.410  -7.411  30.403  0.00  0.00     0.051 C 
HETATM   14  C   UNK     0      -3.385  -5.231  26.242  0.00  0.00     0.115 C 
HETATM   15  C   UNK     0      -4.093  -3.890  26.345  0.00  0.00     0.021 A 
HETATM   16  N   UNK     0      -3.532  -2.670  26.436  0.00  0.00    -0.361 N 
HETATM   17  C   UNK     0      -4.493  -1.755  26.580  0.00  0.00     0.022 A 
HETATM   18  C   UNK     0      -5.741  -2.409  26.573  0.00  0.00    -0.027 A 
HETATM   19  C   UNK     0      -5.477  -3.746  26.424  0.00  0.00    -0.031 A 
HETATM   20  C   UNK     0      -6.552  -4.813  26.330  0.00  0.00     0.051 C 
HETATM   21  C   UNK     0      -4.389  -0.262  26.794  0.00  0.00     0.115 C 
HETATM   22  C   UNK     0      -3.216   0.248  27.599  0.00  0.00     0.022 A 
HETATM   23  N   UNK     0      -2.676  -0.281  28.704  0.00  0.00    -0.361 N 
HETATM   24  C   UNK     0      -1.560   0.413  29.004  0.00  0.00     0.021 A 
HETATM   25  C   UNK     0      -1.383   1.420  28.074  0.00  0.00    -0.031 A 
HETATM   26  C   UNK     0      -0.303   2.480  28.011  0.00  0.00     0.051 C 
HETATM   27  C   UNK     0      -2.431   1.334  27.165  0.00  0.00    -0.027 A 
HETATM   28  C   UNK     0      -0.560   0.133  30.113  0.00  0.00     0.115 C 
HETATM   29  H   UNK     0      -1.580  -2.625  30.286  0.00  0.00     0.165 HD
HETATM   30  H   UNK     0      -0.951  -3.928  27.217  0.00  0.00     0.165 HD
HETATM   31  H   UNK     0      -2.438  -2.444  26.349  0.00  0.00     0.165 HD
HETATM   32  H   UNK     0      -3.102  -1.123  29.310  0.00  0.00     0.165 HD
ENDROOT
BRANCH   6  33
HETATM   33  C   UNK     0       3.044  -3.346  29.468  0.00  0.00     0.051 C 
BRANCH  33  34
HETATM   34  C   UNK     0       3.299  -3.511  27.989  0.00  0.00     0.114 C 
BRANCH  34  35
HETATM   35  C   UNK     0       4.736  -3.873  27.821  0.00  0.00     0.139 C 
HETATM   36  O   UNK     0       5.642  -3.056  28.156  0.00  0.00    -0.650 OA
BRANCH  35  37
HETATM   37  O   UNK     0       5.144  -5.097  27.305  0.00  0.00    -0.776 OA
HETATM   38  H   UNK     0       4.596  -5.934  27.417  0.00  0.00     0.167 HD
ENDBRANCH  35  37
ENDBRANCH  34  35
ENDBRANCH  33  34
ENDBRANCH   6  33
BRANCH  27  39
HETATM   39  C   UNK     0      -2.619   2.304  26.052  0.00  0.00     0.051 C 
BRANCH  39  40
HETATM   40  C   UNK     0      -3.774   3.199  26.099  0.00  0.00     0.114 C 
BRANCH  40  41
HETATM   41  C   UNK     0      -4.820   3.162  25.102  0.00  0.00     0.139 C 
HETATM   42  O   UNK     0      -5.833   3.874  25.146  0.00  0.00    -0.650 OA
BRANCH  41  43
HETATM   43  O   UNK     0      -4.696   2.265  24.004  0.00  0.00    -0.776 OA
HETATM   44  H   UNK     0      -3.914   2.459  23.390  0.00  0.00     0.167 HD
ENDBRANCH  41  43
ENDBRANCH  40  41
ENDBRANCH  39  40
ENDBRANCH  27  39
BRANCH  11  45
HETATM   45  C   UNK     0      -3.679  -7.654  28.301  0.00  0.00     0.051 C 
BRANCH  45  46
HETATM   46  C   UNK     0      -5.005  -7.202  28.797  0.00  0.00     0.114 C 
BRANCH  46  47
HETATM   47  C   UNK     0      -6.025  -8.138  28.244  0.00  0.00     0.139 C 
HETATM   48  O   UNK     0      -5.869  -9.355  28.417  0.00  0.00    -0.650 OA
BRANCH  47  49
HETATM   49  O   UNK     0      -7.114  -7.664  27.556  0.00  0.00    -0.776 OA
HETATM   50  H   UNK     0      -7.097  -6.765  27.060  0.00  0.00     0.167 HD
ENDBRANCH  47  49
ENDBRANCH  46  47
ENDBRANCH  45  46
ENDBRANCH  11  45
BRANCH  18  51
HETATM   51  C   UNK     0      -7.111  -1.792  26.682  0.00  0.00     0.051 C 
BRANCH  51  52
HETATM   52  C   UNK     0      -7.411  -1.678  28.169  0.00  0.00     0.114 C 
BRANCH  52  53
HETATM   53  C   UNK     0      -8.861  -1.609  28.434  0.00  0.00     0.139 C 
HETATM   54  O   UNK     0      -9.272  -1.318  29.568  0.00  0.00    -0.650 OA
BRANCH  53  55
HETATM   55  O   UNK     0      -9.750  -1.871  27.420  0.00  0.00    -0.776 OA
HETATM   56  H   UNK     0     -10.386  -1.222  27.019  0.00  0.00     0.167 HD
ENDBRANCH  53  55
ENDBRANCH  52  53
ENDBRANCH  51  52
ENDBRANCH  18  51
TORSDOF 16
ENDMDL
MODEL 11
REMARK VINA RESULT:      -9.0      2.937      7.478
REMARK  16 active torsions:
REMARK  status: ('A' for Active; 'I' for Inactive)
REMARK    1  A    between atoms: C_6  and  C_7 
REMARK    2  A    between atoms: C_7  and  C_8 
REMARK    3  A    between atoms: C_8  and  C_9 
REMARK    4  A    between atoms: C_9  and  O_11 
REMARK    5  A    between atoms: C_16  and  C_17 
REMARK    6  A    between atoms: C_17  and  C_18 
REMARK    7  A    between atoms: C_18  and  C_19 
REMARK    8  A    between atoms: C_19  and  O_21 
REMARK    9  A    between atoms: C_28  and  C_29 
REMARK   10  A    between atoms: C_29  and  C_30 
REMARK   11  A    between atoms: C_30  and  C_31 
REMARK   12  A    between atoms: C_31  and  O_33 
REMARK   13  A    between atoms: C_42  and  C_43 
REMARK   14  A    between atoms: C_43  and  C_44 
REMARK   15  A    between atoms: C_44  and  C_45 
REMARK   16  A    between atoms: C_45  and  O_47 
ROOT
HETATM    1  C   UNK     0       1.724  -6.510  31.005  0.00  0.00     0.051 C 
HETATM    2  C   UNK     0       0.252  -6.296  30.721  0.00  0.00    -0.031 A 
HETATM    3  C   UNK     0      -0.507  -5.141  30.830  0.00  0.00     0.021 A 
HETATM    4  N   UNK     0      -1.790  -5.424  30.503  0.00  0.00    -0.361 N 
HETATM    5  C   UNK     0      -1.864  -6.731  30.179  0.00  0.00     0.022 A 
HETATM    6  C   UNK     0      -0.605  -7.308  30.307  0.00  0.00    -0.027 A 
HETATM    7  C   UNK     0      -3.026  -7.519  29.659  0.00  0.00     0.115 C 
HETATM    8  C   UNK     0      -3.882  -6.851  28.596  0.00  0.00     0.021 A 
HETATM    9  N   UNK     0      -3.497  -6.030  27.608  0.00  0.00    -0.361 N 
HETATM   10  C   UNK     0      -4.603  -5.603  26.962  0.00  0.00     0.022 A 
HETATM   11  C   UNK     0      -5.731  -6.173  27.545  0.00  0.00    -0.027 A 
HETATM   12  C   UNK     0      -5.283  -6.961  28.575  0.00  0.00    -0.031 A 
HETATM   13  C   UNK     0      -6.161  -7.783  29.492  0.00  0.00     0.051 C 
HETATM   14  C   UNK     0      -4.645  -4.605  25.809  0.00  0.00     0.115 C 
HETATM   15  C   UNK     0      -4.096  -3.232  26.163  0.00  0.00     0.021 A 
HETATM   16  N   UNK     0      -2.862  -2.931  26.611  0.00  0.00    -0.361 N 
HETATM   17  C   UNK     0      -2.797  -1.624  26.872  0.00  0.00     0.022 A 
HETATM   18  C   UNK     0      -4.045  -1.043  26.571  0.00  0.00    -0.027 A 
HETATM   19  C   UNK     0      -4.849  -2.060  26.126  0.00  0.00    -0.031 A 
HETATM   20  C   UNK     0      -6.279  -1.863  25.657  0.00  0.00     0.051 C 
HETATM   21  C   UNK     0      -1.669  -0.805  27.458  0.00  0.00     0.115 C 
HETATM   22  C   UNK     0      -0.783  -1.471  28.484  0.00  0.00     0.022 A 
HETATM   23  N   UNK     0      -1.139  -2.296  29.477  0.00  0.00    -0.361 N 
HETATM   24  C   UNK     0      -0.017  -2.769  30.056  0.00  0.00     0.021 A 
HETATM   25  C   UNK     0       1.088  -2.227  29.428  0.00  0.00    -0.031 A 
HETATM   26  C   UNK     0       2.556  -2.423  29.744  0.00  0.00     0.051 C 
HETATM   27  C   UNK     0       0.623  -1.393  28.418  0.00  0.00    -0.027 A 
HETATM   28  C   UNK     0       0.092  -3.804  31.163  0.00  0.00     0.115 C 
HETATM   29  H   UNK     0      -2.642  -4.706  30.541  0.00  0.00     0.165 HD
HETATM   30  H   UNK     0      -2.441  -5.788  27.331  0.00  0.00     0.165 HD
HETATM   31  H   UNK     0      -2.005  -3.648  26.701  0.00  0.00     0.165 HD
HETATM   32  H   UNK     0      -2.187  -2.519  29.806  0.00  0.00     0.165 HD
ENDROOT
BRANCH   6  33
HETATM   33  C   UNK     0      -0.161  -8.729  30.072  0.00  0.00     0.051 C 
BRANCH  33  34
HETATM   34  C   UNK     0       0.539  -8.858  28.740  0.00  0.00     0.114 C 
BRANCH  34  35
HETATM   35  C   UNK     0       1.773  -9.666  28.960  0.00  0.00     0.139 C 
HETATM   36  O   UNK     0       1.714 -10.756  29.601  0.00  0.00    -0.650 OA
BRANCH  35  37
HETATM   37  O   UNK     0       3.018  -9.277  28.482  0.00  0.00    -0.776 OA
HETATM   38  H   UNK     0       3.223  -9.233  27.497  0.00  0.00     0.167 HD
ENDBRANCH  35  37
ENDBRANCH  34  35
ENDBRANCH  33  34
ENDBRANCH   6  33
BRANCH  27  39
HETATM   39  C   UNK     0       1.525  -0.573  27.564  0.00  0.00     0.051 C 
BRANCH  39  40
HETATM   40  C   UNK     0       1.729   0.832  27.918  0.00  0.00     0.114 C 
BRANCH  40  41
HETATM   41  C   UNK     0       3.033   1.362  28.248  0.00  0.00     0.139 C 
HETATM   42  O   UNK     0       3.660   1.049  29.269  0.00  0.00    -0.650 OA
BRANCH  41  43
HETATM   43  O   UNK     0       3.643   2.295  27.362  0.00  0.00    -0.776 OA
HETATM   44  H   UNK     0       4.063   3.095  27.820  0.00  0.00     0.167 HD
ENDBRANCH  41  43
ENDBRANCH  40  41
ENDBRANCH  39  40
ENDBRANCH  27  39
BRANCH  11  45
HETATM   45  C   UNK     0      -7.177  -6.001  27.165  0.00  0.00     0.051 C 
BRANCH  45  46
HETATM   46  C   UNK     0      -7.549  -6.658  25.886  0.00  0.00     0.114 C 
BRANCH  46  47
HETATM   47  C   UNK     0      -8.319  -7.888  26.228  0.00  0.00     0.139 C 
HETATM   48  O   UNK     0      -9.556  -7.839  26.200  0.00  0.00    -0.650 OA
BRANCH  47  49
HETATM   49  O   UNK     0      -7.672  -9.049  26.569  0.00  0.00    -0.776 OA
HETATM   50  H   UNK     0      -8.035  -9.972  26.305  0.00  0.00     0.167 HD
ENDBRANCH  47  49
ENDBRANCH  46  47
ENDBRANCH  45  46
ENDBRANCH  11  45
BRANCH  18  51
HETATM   51  C   UNK     0      -4.443   0.406  26.680  0.00  0.00     0.051 C 
BRANCH  51  52
HETATM   52  C   UNK     0      -4.024   1.063  25.372  0.00  0.00     0.114 C 
BRANCH  52  53
HETATM   53  C   UNK     0      -4.499   2.457  25.281  0.00  0.00     0.139 C 
HETATM   54  O   UNK     0      -5.003   2.873  24.225  0.00  0.00    -0.650 OA
BRANCH  53  55
HETATM   55  O   UNK     0      -4.377   3.289  26.367  0.00  0.00    -0.776 OA
HETATM   56  H   UNK     0      -4.752   4.205  26.446  0.00  0.00     0.167 HD
ENDBRANCH  53  55
ENDBRANCH  52  53
ENDBRANCH  51  52
ENDBRANCH  18  51
TORSDOF 16
ENDMDL
MODEL 12
REMARK VINA RESULT:      -9.0      5.322     10.126
REMARK  16 active torsions:
REMARK  status: ('A' for Active; 'I' for Inactive)
REMARK    1  A    between atoms: C_6  and  C_7 
REMARK    2  A    between atoms: C_7  and  C_8 
REMARK    3  A    between atoms: C_8  and  C_9 
REMARK    4  A    between atoms: C_9  and  O_11 
REMARK    5  A    between atoms: C_16  and  C_17 
REMARK    6  A    between atoms: C_17  and  C_18 
REMARK    7  A    between atoms: C_18  and  C_19 
REMARK    8  A    between atoms: C_19  and  O_21 
REMARK    9  A    between atoms: C_28  and  C_29 
REMARK   10  A    between atoms: C_29  and  C_30 
REMARK   11  A    between atoms: C_30  and  C_31 
REMARK   12  A    between atoms: C_31  and  O_33 
REMARK   13  A    between atoms: C_42  and  C_43 
REMARK   14  A    between atoms: C_43  and  C_44 
REMARK   15  A    between atoms: C_44  and  C_45 
REMARK   16  A    between atoms: C_45  and  O_47 
ROOT
HETATM    1  C   UNK     0      -8.030  -9.654  25.963  0.00  0.00     0.051 C 
HETATM    2  C   UNK     0      -7.022  -9.269  27.027  0.00  0.00    -0.031 A 
HETATM    3  C   UNK     0      -6.091 -10.059  27.683  0.00  0.00     0.021 A 
HETATM    4  N   UNK     0      -5.421  -9.297  28.580  0.00  0.00    -0.361 N 
HETATM    5  C   UNK     0      -5.898  -8.038  28.503  0.00  0.00     0.022 A 
HETATM    6  C   UNK     0      -6.903  -7.986  27.543  0.00  0.00    -0.027 A 
HETATM    7  C   UNK     0      -5.438  -6.800  29.209  0.00  0.00     0.115 C 
HETATM    8  C   UNK     0      -3.937  -6.594  29.314  0.00  0.00     0.021 A 
HETATM    9  N   UNK     0      -2.986  -6.908  28.422  0.00  0.00    -0.361 N 
HETATM   10  C   UNK     0      -1.785  -6.631  28.974  0.00  0.00     0.022 A 
HETATM   11  C   UNK     0      -1.970  -6.115  30.253  0.00  0.00    -0.027 A 
HETATM   12  C   UNK     0      -3.323  -6.089  30.474  0.00  0.00    -0.031 A 
HETATM   13  C   UNK     0      -3.993  -5.597  31.737  0.00  0.00     0.051 C 
HETATM   14  C   UNK     0      -0.421  -6.890  28.341  0.00  0.00     0.115 C 
HETATM   15  C   UNK     0      -0.151  -8.354  28.036  0.00  0.00     0.021 A 
HETATM   16  N   UNK     0      -0.870  -9.175  27.247  0.00  0.00    -0.361 N 
HETATM   17  C   UNK     0      -0.345 -10.401  27.297  0.00  0.00     0.022 A 
HETATM   18  C   UNK     0       0.775 -10.377  28.152  0.00  0.00    -0.027 A 
HETATM   19  C   UNK     0       0.886  -9.089  28.607  0.00  0.00    -0.031 A 
HETATM   20  C   UNK     0       1.991  -8.614  29.534  0.00  0.00     0.051 C 
HETATM   21  C   UNK     0      -0.816 -11.687  26.655  0.00  0.00     0.115 C 
HETATM   22  C   UNK     0      -2.306 -11.886  26.504  0.00  0.00     0.022 A 
HETATM   23  N   UNK     0      -3.277 -11.578  27.374  0.00  0.00    -0.361 N 
HETATM   24  C   UNK     0      -4.465 -11.790  26.774  0.00  0.00     0.021 A 
HETATM   25  C   UNK     0      -4.255 -12.254  25.490  0.00  0.00    -0.031 A 
HETATM   26  C   UNK     0      -5.272 -12.669  24.447  0.00  0.00     0.051 C 
HETATM   27  C   UNK     0      -2.880 -12.324  25.294  0.00  0.00    -0.027 A 
HETATM   28  C   UNK     0      -5.850 -11.498  27.326  0.00  0.00     0.115 C 
HETATM   29  H   UNK     0      -4.642  -9.663  29.289  0.00  0.00     0.165 HD
HETATM   30  H   UNK     0      -3.160  -7.280  27.382  0.00  0.00     0.165 HD
HETATM   31  H   UNK     0      -1.737  -8.873  26.604  0.00  0.00     0.165 HD
HETATM   32  H   UNK     0      -3.131 -11.250  28.436  0.00  0.00     0.165 HD
ENDROOT
BRANCH   6  33
HETATM   33  C   UNK     0      -7.750  -6.824  27.087  0.00  0.00     0.051 C 
BRANCH  33  34
HETATM   34  C   UNK     0      -7.280  -6.314  25.746  0.00  0.00     0.114 C 
BRANCH  34  35
HETATM   35  C   UNK     0      -6.272  -5.246  26.003  0.00  0.00     0.139 C 
HETATM   36  O   UNK     0      -6.473  -4.384  26.907  0.00  0.00    -0.650 OA
BRANCH  35  37
HETATM   37  O   UNK     0      -5.087  -5.145  25.284  0.00  0.00    -0.776 OA
HETATM   38  H   UNK     0      -5.013  -4.582  24.452  0.00  0.00     0.167 HD
ENDBRANCH  35  37
ENDBRANCH  34  35
ENDBRANCH  33  34
ENDBRANCH   6  33
BRANCH  27  39
HETATM   39  C   UNK     0      -2.265 -12.852  24.045  0.00  0.00     0.051 C 
BRANCH  39  40
HETATM   40  C   UNK     0      -1.853 -11.896  23.018  0.00  0.00     0.114 C 
BRANCH  40  41
HETATM   41  C   UNK     0      -0.496 -11.837  22.522  0.00  0.00     0.139 C 
HETATM   42  O   UNK     0       0.501 -11.850  23.255  0.00  0.00    -0.650 OA
BRANCH  41  43
HETATM   43  O   UNK     0      -0.277 -11.758  21.117  0.00  0.00    -0.776 OA
HETATM   44  H   UNK     0       0.669 -11.976  20.828  0.00  0.00     0.167 HD
ENDBRANCH  41  43
ENDBRANCH  40  41
ENDBRANCH  39  40
ENDBRANCH  27  39
BRANCH  11  45
HETATM   45  C   UNK     0      -0.932  -5.657  31.242  0.00  0.00     0.051 C 
BRANCH  45  46
HETATM   46  C   UNK     0      -0.567  -4.222  31.117  0.00  0.00     0.114 C 
BRANCH  46  47
HETATM   47  C   UNK     0      -0.441  -3.677  32.499  0.00  0.00     0.139 C 
HETATM   48  O   UNK     0      -1.459  -3.600  33.201  0.00  0.00    -0.650 OA
BRANCH  47  49
HETATM   49  O   UNK     0       0.775  -3.267  32.985  0.00  0.00    -0.776 OA
HETATM   50  H   UNK     0       1.382  -2.624  32.462  0.00  0.00     0.167 HD
ENDBRANCH  47  49
ENDBRANCH  46  47
ENDBRANCH  45  46
ENDBRANCH  11  45
BRANCH  18  51
HETATM   51  C   UNK     0       1.701 -11.513  28.498  0.00  0.00     0.051 C 
BRANCH  51  52
HETATM   52  C   UNK     0       1.112 -12.181  29.732  0.00  0.00     0.114 C 
BRANCH  52  53
HETATM   53  C   UNK     0       0.986 -13.641  29.559  0.00  0.00     0.139 C 
HETATM   54  O   UNK     0       1.100 -14.146  28.431  0.00  0.00    -0.650 OA
BRANCH  53  55
HETATM   55  O   UNK     0       0.738 -14.436  30.652  0.00  0.00    -0.776 OA
HETATM   56  H   UNK     0       0.190 -14.189  31.442  0.00  0.00     0.167 HD
ENDBRANCH  53  55
ENDBRANCH  52  53
ENDBRANCH  51  52
ENDBRANCH  18  51
TORSDOF 16
ENDMDL
MODEL 13
REMARK VINA RESULT:      -8.9      3.547      9.108
REMARK  16 active torsions:
REMARK  status: ('A' for Active; 'I' for Inactive)
REMARK    1  A    between atoms: C_6  and  C_7 
REMARK    2  A    between atoms: C_7  and  C_8 
REMARK    3  A    between atoms: C_8  and  C_9 
REMARK    4  A    between atoms: C_9  and  O_11 
REMARK    5  A    between atoms: C_16  and  C_17 
REMARK    6  A    between atoms: C_17  and  C_18 
REMARK    7  A    between atoms: C_18  and  C_19 
REMARK    8  A    between atoms: C_19  and  O_21 
REMARK    9  A    between atoms: C_28  and  C_29 
REMARK   10  A    between atoms: C_29  and  C_30 
REMARK   11  A    between atoms: C_30  and  C_31 
REMARK   12  A    between atoms: C_31  and  O_33 
REMARK   13  A    between atoms: C_42  and  C_43 
REMARK   14  A    between atoms: C_43  and  C_44 
REMARK   15  A    between atoms: C_44  and  C_45 
REMARK   16  A    between atoms: C_45  and  O_47 
ROOT
HETATM    1  C   UNK     0      -4.322  -5.790  29.632  0.00  0.00     0.051 C 
HETATM    2  C   UNK     0      -3.229  -4.740  29.652  0.00  0.00    -0.031 A 
HETATM    3  C   UNK     0      -2.064  -4.698  30.401  0.00  0.00     0.021 A 
HETATM    4  N   UNK     0      -1.398  -3.553  30.117  0.00  0.00    -0.361 N 
HETATM    5  C   UNK     0      -2.109  -2.870  29.196  0.00  0.00     0.022 A 
HETATM    6  C   UNK     0      -3.262  -3.583  28.885  0.00  0.00    -0.027 A 
HETATM    7  C   UNK     0      -1.769  -1.599  28.481  0.00  0.00     0.115 C 
HETATM    8  C   UNK     0      -0.340  -1.455  27.990  0.00  0.00     0.021 A 
HETATM    9  N   UNK     0       0.478  -2.402  27.506  0.00  0.00    -0.361 N 
HETATM   10  C   UNK     0       1.684  -1.840  27.280  0.00  0.00     0.022 A 
HETATM   11  C   UNK     0       1.640  -0.491  27.620  0.00  0.00    -0.027 A 
HETATM   12  C   UNK     0       0.367  -0.242  28.068  0.00  0.00    -0.031 A 
HETATM   13  C   UNK     0      -0.145   1.100  28.543  0.00  0.00     0.051 C 
HETATM   14  C   UNK     0       2.937  -2.560  26.789  0.00  0.00     0.115 C 
HETATM   15  C   UNK     0       3.417  -3.664  27.717  0.00  0.00     0.021 A 
HETATM   16  N   UNK     0       2.735  -4.753  28.120  0.00  0.00    -0.361 N 
HETATM   17  C   UNK     0       3.480  -5.441  28.987  0.00  0.00     0.022 A 
HETATM   18  C   UNK     0       4.710  -4.774  29.150  0.00  0.00    -0.027 A 
HETATM   19  C   UNK     0       4.659  -3.663  28.348  0.00  0.00    -0.031 A 
HETATM   20  C   UNK     0       5.803  -2.678  28.196  0.00  0.00     0.051 C 
HETATM   21  C   UNK     0       3.150  -6.687  29.777  0.00  0.00     0.115 C 
HETATM   22  C   UNK     0       1.722  -6.865  30.235  0.00  0.00     0.022 A 
HETATM   23  N   UNK     0       0.883  -5.939  30.718  0.00  0.00    -0.361 N 
HETATM   24  C   UNK     0      -0.333  -6.503  30.861  0.00  0.00     0.021 A 
HETATM   25  C   UNK     0      -0.274  -7.827  30.471  0.00  0.00    -0.031 A 
HETATM   26  C   UNK     0      -1.367  -8.876  30.488  0.00  0.00     0.051 C 
HETATM   27  C   UNK     0       1.031  -8.082  30.066  0.00  0.00    -0.027 A 
HETATM   28  C   UNK     0      -1.626  -5.829  31.288  0.00  0.00     0.115 C 
HETATM   29  H   UNK     0      -0.450  -3.217  30.597  0.00  0.00     0.165 HD
HETATM   30  H   UNK     0       0.192  -3.458  27.274  0.00  0.00     0.165 HD
HETATM   31  H   UNK     0       1.725  -5.068  27.748  0.00  0.00     0.165 HD
HETATM   32  H   UNK     0       1.153  -4.889  31.003  0.00  0.00     0.165 HD
ENDROOT
BRANCH   6  33
HETATM   33  C   UNK     0      -4.379  -3.252  27.928  0.00  0.00     0.051 C 
BRANCH  33  34
HETATM   34  C   UNK     0      -4.050  -3.731  26.534  0.00  0.00     0.114 C 
BRANCH  34  35
HETATM   35  C   UNK     0      -4.451  -2.653  25.585  0.00  0.00     0.139 C 
HETATM   36  O   UNK     0      -5.551  -2.727  24.964  0.00  0.00    -0.650 OA
BRANCH  35  37
HETATM   37  O   UNK     0      -3.659  -1.538  25.340  0.00  0.00    -0.776 OA
HETATM   38  H   UNK     0      -2.834  -1.338  25.882  0.00  0.00     0.167 HD
ENDBRANCH  35  37
ENDBRANCH  34  35
ENDBRANCH  33  34
ENDBRANCH   6  33
BRANCH  27  39
HETATM   39  C   UNK     0       1.499  -9.430  29.642  0.00  0.00     0.051 C 
BRANCH  39  40
HETATM   40  C   UNK     0       2.207  -9.549  28.367  0.00  0.00     0.114 C 
BRANCH  40  41
HETATM   41  C   UNK     0       3.577 -10.004  28.286  0.00  0.00     0.139 C 
HETATM   42  O   UNK     0       4.499  -9.318  27.823  0.00  0.00    -0.650 OA
BRANCH  41  43
HETATM   43  O   UNK     0       3.902 -11.307  28.759  0.00  0.00    -0.776 OA
HETATM   44  H   UNK     0       4.779 -11.364  29.262  0.00  0.00     0.167 HD
ENDBRANCH  41  43
ENDBRANCH  40  41
ENDBRANCH  39  40
ENDBRANCH  27  39
BRANCH  11  45
HETATM   45  C   UNK     0       2.734   0.539  27.534  0.00  0.00     0.051 C 
BRANCH  45  46
HETATM   46  C   UNK     0       3.515   0.700  28.786  0.00  0.00     0.114 C 
BRANCH  46  47
HETATM   47  C   UNK     0       4.919   1.016  28.394  0.00  0.00     0.139 C 
HETATM   48  O   UNK     0       5.837   0.667  29.149  0.00  0.00    -0.650 OA
BRANCH  47  49
HETATM   49  O   UNK     0       5.189   1.680  27.224  0.00  0.00    -0.776 OA
HETATM   50  H   UNK     0       5.306   2.700  27.191  0.00  0.00     0.167 HD
ENDBRANCH  47  49
ENDBRANCH  46  47
ENDBRANCH  45  46
ENDBRANCH  11  45
BRANCH  18  51
HETATM   51  C   UNK     0       5.880  -5.184  30.007  0.00  0.00     0.051 C 
BRANCH  51  52
HETATM   52  C   UNK     0       6.787  -6.021  29.118  0.00  0.00     0.114 C 
BRANCH  52  53
HETATM   53  C   UNK     0       7.160  -7.297  29.759  0.00  0.00     0.139 C 
HETATM   54  O   UNK     0       8.356  -7.575  29.940  0.00  0.00    -0.650 OA
BRANCH  53  55
HETATM   55  O   UNK     0       6.178  -8.173  30.152  0.00  0.00    -0.776 OA
HETATM   56  H   UNK     0       5.362  -8.405  29.636  0.00  0.00     0.167 HD
ENDBRANCH  53  55
ENDBRANCH  52  53
ENDBRANCH  51  52
ENDBRANCH  18  51
TORSDOF 16
ENDMDL
MODEL 14
REMARK VINA RESULT:      -8.9      2.761      8.520
REMARK  16 active torsions:
REMARK  status: ('A' for Active; 'I' for Inactive)
REMARK    1  A    between atoms: C_6  and  C_7 
REMARK    2  A    between atoms: C_7  and  C_8 
REMARK    3  A    between atoms: C_8  and  C_9 
REMARK    4  A    between atoms: C_9  and  O_11 
REMARK    5  A    between atoms: C_16  and  C_17 
REMARK    6  A    between atoms: C_17  and  C_18 
REMARK    7  A    between atoms: C_18  and  C_19 
REMARK    8  A    between atoms: C_19  and  O_21 
REMARK    9  A    between atoms: C_28  and  C_29 
REMARK   10  A    between atoms: C_29  and  C_30 
REMARK   11  A    between atoms: C_30  and  C_31 
REMARK   12  A    between atoms: C_31  and  O_33 
REMARK   13  A    between atoms: C_42  and  C_43 
REMARK   14  A    between atoms: C_43  and  C_44 
REMARK   15  A    between atoms: C_44  and  C_45 
REMARK   16  A    between atoms: C_45  and  O_47 
ROOT
HETATM    1  C   UNK     0      -5.557  -2.751  27.784  0.00  0.00     0.051 C 
HETATM    2  C   UNK     0      -4.261  -2.070  28.175  0.00  0.00    -0.031 A 
HETATM    3  C   UNK     0      -3.284  -2.485  29.066  0.00  0.00     0.021 A 
HETATM    4  N   UNK     0      -2.313  -1.543  29.126  0.00  0.00    -0.361 N 
HETATM    5  C   UNK     0      -2.646  -0.542  28.286  0.00  0.00     0.022 A 
HETATM    6  C   UNK     0      -3.861  -0.838  27.677  0.00  0.00    -0.027 A 
HETATM    7  C   UNK     0      -1.873   0.685  27.913  0.00  0.00     0.115 C 
HETATM    8  C   UNK     0      -0.386   0.503  27.661  0.00  0.00     0.021 A 
HETATM    9  N   UNK     0       0.245  -0.539  27.099  0.00  0.00    -0.361 N 
HETATM   10  C   UNK     0       1.574  -0.308  27.165  0.00  0.00     0.022 A 
HETATM   11  C   UNK     0       1.804   0.920  27.777  0.00  0.00    -0.027 A 
HETATM   12  C   UNK     0       0.573   1.437  28.092  0.00  0.00    -0.031 A 
HETATM   13  C   UNK     0       0.331   2.767  28.771  0.00  0.00     0.051 C 
HETATM   14  C   UNK     0       2.677  -1.257  26.703  0.00  0.00     0.115 C 
HETATM   15  C   UNK     0       2.684  -2.593  27.428  0.00  0.00     0.021 A 
HETATM   16  N   UNK     0       1.689  -3.498  27.493  0.00  0.00    -0.361 N 
HETATM   17  C   UNK     0       2.063  -4.505  28.285  0.00  0.00     0.022 A 
HETATM   18  C   UNK     0       3.368  -4.249  28.751  0.00  0.00    -0.027 A 
HETATM   19  C   UNK     0       3.746  -3.049  28.206  0.00  0.00    -0.031 A 
HETATM   20  C   UNK     0       5.107  -2.414  28.425  0.00  0.00     0.051 C 
HETATM   21  C   UNK     0       1.292  -5.724  28.737  0.00  0.00     0.115 C 
HETATM   22  C   UNK     0      -0.196  -5.568  28.949  0.00  0.00     0.022 A 
HETATM   23  N   UNK     0      -0.853  -4.540  29.502  0.00  0.00    -0.361 N 
HETATM   24  C   UNK     0      -2.176  -4.755  29.356  0.00  0.00     0.021 A 
HETATM   25  C   UNK     0      -2.376  -5.956  28.702  0.00  0.00    -0.031 A 
HETATM   26  C   UNK     0      -3.679  -6.642  28.347  0.00  0.00     0.051 C 
HETATM   27  C   UNK     0      -1.124  -6.495  28.432  0.00  0.00    -0.027 A 
HETATM   28  C   UNK     0      -3.316  -3.828  29.740  0.00  0.00     0.115 C 
HETATM   29  H   UNK     0      -1.419  -1.574  29.791  0.00  0.00     0.165 HD
HETATM   30  H   UNK     0      -0.245  -1.416  26.611  0.00  0.00     0.165 HD
HETATM   31  H   UNK     0       0.721  -3.448  26.930  0.00  0.00     0.165 HD
HETATM   32  H   UNK     0      -0.388  -3.673  30.040  0.00  0.00     0.165 HD
ENDROOT
BRANCH   6  33
HETATM   33  C   UNK     0      -4.660  -0.047  26.672  0.00  0.00     0.051 C 
BRANCH  33  34
HETATM   34  C   UNK     0      -3.946   0.006  25.343  0.00  0.00     0.114 C 
BRANCH  34  35
HETATM   35  C   UNK     0      -4.445   1.209  24.615  0.00  0.00     0.139 C 
HETATM   36  O   UNK     0      -5.682   1.477  24.602  0.00  0.00    -0.650 OA
BRANCH  35  37
HETATM   37  O   UNK     0      -3.601   2.077  23.934  0.00  0.00    -0.776 OA
HETATM   38  H   UNK     0      -2.635   1.853  23.756  0.00  0.00     0.167 HD
ENDBRANCH  35  37
ENDBRANCH  34  35
ENDBRANCH  33  34
ENDBRANCH   6  33
BRANCH  27  39
HETATM   39  C   UNK     0      -0.935  -7.827  27.795  0.00  0.00     0.051 C 
BRANCH  39  40
HETATM   40  C   UNK     0      -0.539  -8.951  28.642  0.00  0.00     0.114 C 
BRANCH  40  41
HETATM   41  C   UNK     0       0.836  -9.386  28.754  0.00  0.00     0.139 C 
HETATM   42  O   UNK     0       1.460  -9.924  27.829  0.00  0.00    -0.650 OA
BRANCH  41  43
HETATM   43  O   UNK     0       1.524  -9.192  29.985  0.00  0.00    -0.776 OA
HETATM   44  H   UNK     0       1.907  -8.263  30.110  0.00  0.00     0.167 HD
ENDBRANCH  41  43
ENDBRANCH  40  41
ENDBRANCH  39  40
ENDBRANCH  27  39
BRANCH  11  45
HETATM   45  C   UNK     0       3.116   1.600  28.061  0.00  0.00     0.051 C 
BRANCH  45  46
HETATM   46  C   UNK     0       3.806   1.102  29.279  0.00  0.00     0.114 C 
BRANCH  46  47
HETATM   47  C   UNK     0       5.262   1.038  28.967  0.00  0.00     0.139 C 
HETATM   48  O   UNK     0       6.066   0.954  29.907  0.00  0.00    -0.650 OA
BRANCH  47  49
HETATM   49  O   UNK     0       5.705   1.073  27.669  0.00  0.00    -0.776 OA
HETATM   50  H   UNK     0       6.233   1.870  27.295  0.00  0.00     0.167 HD
ENDBRANCH  47  49
ENDBRANCH  46  47
ENDBRANCH  45  46
ENDBRANCH  11  45
BRANCH  18  51
HETATM   51  C   UNK     0       4.217  -5.111  29.649  0.00  0.00     0.051 C 
BRANCH  51  52
HETATM   52  C   UNK     0       5.012  -6.028  28.732  0.00  0.00     0.114 C 
BRANCH  52  53
HETATM   53  C   UNK     0       5.025  -7.419  29.224  0.00  0.00     0.139 C 
HETATM   54  O   UNK     0       4.126  -8.206  28.887  0.00  0.00    -0.650 OA
BRANCH  53  55
HETATM   55  O   UNK     0       6.035  -7.836  30.058  0.00  0.00    -0.776 OA
HETATM   56  H   UNK     0       6.803  -8.411  29.803  0.00  0.00     0.167 HD
ENDBRANCH  53  55
ENDBRANCH  52  53
ENDBRANCH  51  52
ENDBRANCH  18  51
TORSDOF 16
ENDMDL
MODEL 15
REMARK VINA RESULT:      -8.8      2.719      4.487
REMARK  16 active torsions:
REMARK  status: ('A' for Active; 'I' for Inactive)
REMARK    1  A    between atoms: C_6  and  C_7 
REMARK    2  A    between atoms: C_7  and  C_8 
REMARK    3  A    between atoms: C_8  and  C_9 
REMARK    4  A    between atoms: C_9  and  O_11 
REMARK    5  A    between atoms: C_16  and  C_17 
REMARK    6  A    between atoms: C_17  and  C_18 
REMARK    7  A    between atoms: C_18  and  C_19 
REMARK    8  A    between atoms: C_19  and  O_21 
REMARK    9  A    between atoms: C_28  and  C_29 
REMARK   10  A    between atoms: C_29  and  C_30 
REMARK   11  A    between atoms: C_30  and  C_31 
REMARK   12  A    between atoms: C_31  and  O_33 
REMARK   13  A    between atoms: C_42  and  C_43 
REMARK   14  A    between atoms: C_43  and  C_44 
REMARK   15  A    between atoms: C_44  and  C_45 
REMARK   16  A    between atoms: C_45  and  O_47 
ROOT
HETATM    1  C   UNK     0      -1.964  -7.946  31.189  0.00  0.00     0.051 C 
HETATM    2  C   UNK     0      -1.534  -6.765  30.344  0.00  0.00    -0.031 A 
HETATM    3  C   UNK     0      -1.817  -6.483  29.017  0.00  0.00     0.021 A 
HETATM    4  N   UNK     0      -1.195  -5.331  28.668  0.00  0.00    -0.361 N 
HETATM    5  C   UNK     0      -0.529  -4.869  29.746  0.00  0.00     0.022 A 
HETATM    6  C   UNK     0      -0.717  -5.743  30.811  0.00  0.00    -0.027 A 
HETATM    7  C   UNK     0       0.236  -3.594  29.918  0.00  0.00     0.115 C 
HETATM    8  C   UNK     0      -0.391  -2.339  29.336  0.00  0.00     0.021 A 
HETATM    9  N   UNK     0      -1.689  -2.007  29.271  0.00  0.00    -0.361 N 
HETATM   10  C   UNK     0      -1.791  -0.846  28.589  0.00  0.00     0.022 A 
HETATM   11  C   UNK     0      -0.522  -0.414  28.213  0.00  0.00    -0.027 A 
HETATM   12  C   UNK     0       0.365  -1.350  28.681  0.00  0.00    -0.031 A 
HETATM   13  C   UNK     0       1.866  -1.294  28.511  0.00  0.00     0.051 C 
HETATM   14  C   UNK     0      -3.086  -0.128  28.219  0.00  0.00     0.115 C 
HETATM   15  C   UNK     0      -4.012  -0.946  27.334  0.00  0.00     0.021 A 
HETATM   16  N   UNK     0      -4.549  -2.151  27.598  0.00  0.00    -0.361 N 
HETATM   17  C   UNK     0      -5.248  -2.562  26.538  0.00  0.00     0.022 A 
HETATM   18  C   UNK     0      -5.171  -1.572  25.538  0.00  0.00    -0.027 A 
HETATM   19  C   UNK     0      -4.396  -0.564  26.049  0.00  0.00    -0.031 A 
HETATM   20  C   UNK     0      -4.086   0.722  25.306  0.00  0.00     0.051 C 
HETATM   21  C   UNK     0      -5.977  -3.865  26.300  0.00  0.00     0.115 C 
HETATM   22  C   UNK     0      -5.388  -5.116  26.910  0.00  0.00     0.022 A 
HETATM   23  N   UNK     0      -4.099  -5.471  26.993  0.00  0.00    -0.361 N 
HETATM   24  C   UNK     0      -4.015  -6.588  27.743  0.00  0.00     0.021 A 
HETATM   25  C   UNK     0      -5.282  -6.968  28.144  0.00  0.00    -0.031 A 
HETATM   26  C   UNK     0      -5.702  -8.172  28.961  0.00  0.00     0.051 C 
HETATM   27  C   UNK     0      -6.177  -6.041  27.623  0.00  0.00    -0.027 A 
HETATM   28  C   UNK     0      -2.759  -7.314  28.192  0.00  0.00     0.115 C 
HETATM   29  H   UNK     0      -1.199  -4.874  27.651  0.00  0.00     0.165 HD
HETATM   30  H   UNK     0      -2.533  -2.563  29.748  0.00  0.00     0.165 HD
HETATM   31  H   UNK     0      -4.472  -2.704  28.571  0.00  0.00     0.165 HD
HETATM   32  H   UNK     0      -3.239  -4.960  26.487  0.00  0.00     0.165 HD
ENDROOT
BRANCH   6  33
HETATM   33  C   UNK     0      -0.184  -5.684  32.221  0.00  0.00     0.051 C 
BRANCH  33  34
HETATM   34  C   UNK     0      -0.863  -4.585  33.003  0.00  0.00     0.114 C 
BRANCH  34  35
HETATM   35  C   UNK     0       0.079  -3.430  33.060  0.00  0.00     0.139 C 
HETATM   36  O   UNK     0       1.327  -3.629  33.117  0.00  0.00    -0.650 OA
BRANCH  35  37
HETATM   37  O   UNK     0      -0.353  -2.109  33.051  0.00  0.00    -0.776 OA
HETATM   38  H   UNK     0      -1.249  -1.843  32.676  0.00  0.00     0.167 HD
ENDBRANCH  35  37
ENDBRANCH  34  35
ENDBRANCH  33  34
ENDBRANCH   6  33
BRANCH  27  39
HETATM   39  C   UNK     0      -7.652  -6.158  27.785  0.00  0.00     0.051 C 
BRANCH  39  40
HETATM   40  C   UNK     0      -8.458  -6.465  26.604  0.00  0.00     0.114 C 
BRANCH  40  41
HETATM   41  C   UNK     0      -8.695  -7.821  26.163  0.00  0.00     0.139 C 
HETATM   42  O   UNK     0      -7.884  -8.744  26.324  0.00  0.00    -0.650 OA
BRANCH  41  43
HETATM   43  O   UNK     0      -9.920  -8.131  25.507  0.00  0.00    -0.776 OA
HETATM   44  H   UNK     0     -10.323  -7.360  24.988  0.00  0.00     0.167 HD
ENDBRANCH  41  43
ENDBRANCH  40  41
ENDBRANCH  39  40
ENDBRANCH  27  39
BRANCH  11  45
HETATM   45  C   UNK     0      -0.136   0.824  27.449  0.00  0.00     0.051 C 
BRANCH  45  46
HETATM   46  C   UNK     0       0.270   1.965  28.309  0.00  0.00     0.114 C 
BRANCH  46  47
HETATM   47  C   UNK     0      -0.978   2.654  28.746  0.00  0.00     0.139 C 
HETATM   48  O   UNK     0      -1.823   2.949  27.889  0.00  0.00    -0.650 OA
BRANCH  47  49
HETATM   49  O   UNK     0      -1.187   2.957  30.068  0.00  0.00    -0.776 OA
HETATM   50  H   UNK     0      -1.997   3.506  30.380  0.00  0.00     0.167 HD
ENDBRANCH  47  49
ENDBRANCH  46  47
ENDBRANCH  45  46
ENDBRANCH  11  45
BRANCH  18  51
HETATM   51  C   UNK     0      -5.820  -1.577  24.178  0.00  0.00     0.051 C 
BRANCH  51  52
HETATM   52  C   UNK     0      -7.311  -1.392  24.416  0.00  0.00     0.114 C 
BRANCH  52  53
HETATM   53  C   UNK     0      -7.626  -0.034  24.899  0.00  0.00     0.139 C 
HETATM   54  O   UNK     0      -8.125   0.126  26.024  0.00  0.00    -0.650 OA
BRANCH  53  55
HETATM   55  O   UNK     0      -7.368   1.050  24.095  0.00  0.00    -0.776 OA
HETATM   56  H   UNK     0      -7.833   1.926  24.129  0.00  0.00     0.167 HD
ENDBRANCH  53  55
ENDBRANCH  52  53
ENDBRANCH  51  52
ENDBRANCH  18  51
TORSDOF 16
ENDMDL
MODEL 16
REMARK VINA RESULT:      -8.7     35.157     38.583
REMARK  16 active torsions:
REMARK  status: ('A' for Active; 'I' for Inactive)
REMARK    1  A    between atoms: C_6  and  C_7 
REMARK    2  A    between atoms: C_7  and  C_8 
REMARK    3  A    between atoms: C_8  and  C_9 
REMARK    4  A    between atoms: C_9  and  O_11 
REMARK    5  A    between atoms: C_16  and  C_17 
REMARK    6  A    between atoms: C_17  and  C_18 
REMARK    7  A    between atoms: C_18  and  C_19 
REMARK    8  A    between atoms: C_19  and  O_21 
REMARK    9  A    between atoms: C_28  and  C_29 
REMARK   10  A    between atoms: C_29  and  C_30 
REMARK   11  A    between atoms: C_30  and  C_31 
REMARK   12  A    between atoms: C_31  and  O_33 
REMARK   13  A    between atoms: C_42  and  C_43 
REMARK   14  A    between atoms: C_43  and  C_44 
REMARK   15  A    between atoms: C_44  and  C_45 
REMARK   16  A    between atoms: C_45  and  O_47 
ROOT
HETATM    1  C   UNK     0      12.228 -18.436  -1.962  0.00  0.00     0.051 C 
HETATM    2  C   UNK     0      13.210 -17.751  -1.033  0.00  0.00    -0.031 A 
HETATM    3  C   UNK     0      13.743 -18.196   0.167  0.00  0.00     0.021 A 
HETATM    4  N   UNK     0      14.558 -17.238   0.669  0.00  0.00    -0.361 N 
HETATM    5  C   UNK     0      14.563 -16.197  -0.189  0.00  0.00     0.022 A 
HETATM    6  C   UNK     0      13.728 -16.483  -1.264  0.00  0.00    -0.027 A 
HETATM    7  C   UNK     0      15.367 -14.935  -0.149  0.00  0.00     0.115 C 
HETATM    8  C   UNK     0      16.829 -15.070   0.238  0.00  0.00     0.021 A 
HETATM    9  N   UNK     0      17.683 -16.064  -0.051  0.00  0.00    -0.361 N 
HETATM   10  C   UNK     0      18.851 -15.809   0.575  0.00  0.00     0.022 A 
HETATM   11  C   UNK     0      18.750 -14.613   1.280  0.00  0.00    -0.027 A 
HETATM   12  C   UNK     0      17.479 -14.142   1.072  0.00  0.00    -0.031 A 
HETATM   13  C   UNK     0      16.918 -12.859   1.643  0.00  0.00     0.051 C 
HETATM   14  C   UNK     0      20.086 -16.706   0.578  0.00  0.00     0.115 C 
HETATM   15  C   UNK     0      19.848 -18.081   1.181  0.00  0.00     0.021 A 
HETATM   16  N   UNK     0      18.957 -19.009   0.783  0.00  0.00    -0.361 N 
HETATM   17  C   UNK     0      19.010 -20.052   1.615  0.00  0.00     0.022 A 
HETATM   18  C   UNK     0      19.988 -19.795   2.596  0.00  0.00    -0.027 A 
HETATM   19  C   UNK     0      20.506 -18.558   2.312  0.00  0.00    -0.031 A 
HETATM   20  C   UNK     0      21.622 -17.908   3.109  0.00  0.00     0.051 C 
HETATM   21  C   UNK     0      18.174 -21.311   1.648  0.00  0.00     0.115 C 
HETATM   22  C   UNK     0      16.728 -21.200   1.223  0.00  0.00     0.022 A 
HETATM   23  N   UNK     0      15.857 -20.220   1.493  0.00  0.00    -0.361 N 
HETATM   24  C   UNK     0      14.726 -20.454   0.796  0.00  0.00     0.021 A 
HETATM   25  C   UNK     0      14.870 -21.619   0.068  0.00  0.00    -0.031 A 
HETATM   26  C   UNK     0      13.866 -22.312  -0.831  0.00  0.00     0.051 C 
HETATM   27  C   UNK     0      16.143 -22.115   0.325  0.00  0.00    -0.027 A 
HETATM   28  C   UNK     0      13.491 -19.575   0.706  0.00  0.00     0.115 C 
HETATM   29  H   UNK     0      15.093 -17.288   1.646  0.00  0.00     0.165 HD
HETATM   30  H   UNK     0      17.480 -16.922  -0.738  0.00  0.00     0.165 HD
HETATM   31  H   UNK     0      18.312 -18.948  -0.131  0.00  0.00     0.165 HD
HETATM   32  H   UNK     0      16.015 -19.375   2.213  0.00  0.00     0.165 HD
ENDROOT
BRANCH   6  33
HETATM   33  C   UNK     0      13.388 -15.654  -2.476  0.00  0.00     0.051 C 
BRANCH  33  34
HETATM   34  C   UNK     0      14.368 -15.915  -3.595  0.00  0.00     0.114 C 
BRANCH  34  35
HETATM   35  C   UNK     0      14.634 -14.611  -4.269  0.00  0.00     0.139 C 
HETATM   36  O   UNK     0      15.498 -13.816  -3.797  0.00  0.00    -0.650 OA
BRANCH  35  37
HETATM   37  O   UNK     0      13.967 -14.213  -5.421  0.00  0.00    -0.776 OA
HETATM   38  H   UNK     0      14.376 -13.572  -6.081  0.00  0.00     0.167 HD
ENDBRANCH  35  37
ENDBRANCH  34  35
ENDBRANCH  33  34
ENDBRANCH   6  33
BRANCH  27  39
HETATM   39  C   UNK     0      16.639 -23.404  -0.231  0.00  0.00     0.051 C 
BRANCH  39  40
HETATM   40  C   UNK     0      17.498 -23.364  -1.414  0.00  0.00     0.114 C 
BRANCH  40  41
HETATM   41  C   UNK     0      18.106 -24.555  -1.965  0.00  0.00     0.139 C 
HETATM   42  O   UNK     0      19.143 -24.542  -2.642  0.00  0.00    -0.650 OA
BRANCH  41  43
HETATM   43  O   UNK     0      17.493 -25.818  -1.726  0.00  0.00    -0.776 OA
HETATM   44  H   UNK     0      17.315 -26.018  -0.749  0.00  0.00     0.167 HD
ENDBRANCH  41  43
ENDBRANCH  40  41
ENDBRANCH  39  40
ENDBRANCH  27  39
BRANCH  11  45
HETATM   45  C   UNK     0      19.793 -13.923   2.118  0.00  0.00     0.051 C 
BRANCH  45  46
HETATM   46  C   UNK     0      20.769 -13.124   1.334  0.00  0.00     0.114 C 
BRANCH  46  47
HETATM   47  C   UNK     0      20.409 -11.688   1.513  0.00  0.00     0.139 C 
HETATM   48  O   UNK     0      19.965 -11.321   2.610  0.00  0.00    -0.650 OA
BRANCH  47  49
HETATM   49  O   UNK     0      20.564 -10.792   0.486  0.00  0.00    -0.776 OA
HETATM   50  H   UNK     0      20.942 -11.070  -0.428  0.00  0.00     0.167 HD
ENDBRANCH  47  49
ENDBRANCH  46  47
ENDBRANCH  45  46
ENDBRANCH  11  45
BRANCH  18  51
HETATM   51  C   UNK     0      20.420 -20.689   3.729  0.00  0.00     0.051 C 
BRANCH  51  52
HETATM   52  C   UNK     0      21.836 -21.138   3.401  0.00  0.00     0.114 C 
BRANCH  52  53
HETATM   53  C   UNK     0      22.684 -21.208   4.608  0.00  0.00     0.139 C 
HETATM   54  O   UNK     0      23.096 -22.306   5.014  0.00  0.00    -0.650 OA
BRANCH  53  55
HETATM   55  O   UNK     0      23.009 -20.054   5.278  0.00  0.00    -0.776 OA
HETATM   56  H   UNK     0      23.912 -19.804   5.605  0.00  0.00     0.167 HD
ENDBRANCH  53  55
ENDBRANCH  52  53
ENDBRANCH  51  52
ENDBRANCH  18  51
TORSDOF 16
ENDMDL
MODEL 17
REMARK VINA RESULT:      -8.6      4.305     11.804
REMARK  16 active torsions:
REMARK  status: ('A' for Active; 'I' for Inactive)
REMARK    1  A    between atoms: C_6  and  C_7 
REMARK    2  A    between atoms: C_7  and  C_8 
REMARK    3  A    between atoms: C_8  and  C_9 
REMARK    4  A    between atoms: C_9  and  O_11 
REMARK    5  A    between atoms: C_16  and  C_17 
REMARK    6  A    between atoms: C_17  and  C_18 
REMARK    7  A    between atoms: C_18  and  C_19 
REMARK    8  A    between atoms: C_19  and  O_21 
REMARK    9  A    between atoms: C_28  and  C_29 
REMARK   10  A    between atoms: C_29  and  C_30 
REMARK   11  A    between atoms: C_30  and  C_31 
REMARK   12  A    between atoms: C_31  and  O_33 
REMARK   13  A    between atoms: C_42  and  C_43 
REMARK   14  A    between atoms: C_43  and  C_44 
REMARK   15  A    between atoms: C_44  and  C_45 
REMARK   16  A    between atoms: C_45  and  O_47 
ROOT
HETATM    1  C   UNK     0       3.712   1.255  28.237  0.00  0.00     0.051 C 
HETATM    2  C   UNK     0       3.053  -0.062  27.881  0.00  0.00    -0.031 A 
HETATM    3  C   UNK     0       3.577  -1.153  27.205  0.00  0.00     0.021 A 
HETATM    4  N   UNK     0       2.616  -2.100  27.085  0.00  0.00    -0.361 N 
HETATM    5  C   UNK     0       1.495  -1.640  27.676  0.00  0.00     0.022 A 
HETATM    6  C   UNK     0       1.732  -0.366  28.183  0.00  0.00    -0.027 A 
HETATM    7  C   UNK     0       0.185  -2.329  27.901  0.00  0.00     0.115 C 
HETATM    8  C   UNK     0       0.246  -3.776  28.356  0.00  0.00     0.021 A 
HETATM    9  N   UNK     0       1.136  -4.359  29.174  0.00  0.00    -0.361 N 
HETATM   10  C   UNK     0       0.858  -5.679  29.224  0.00  0.00     0.022 A 
HETATM   11  C   UNK     0      -0.248  -5.953  28.423  0.00  0.00    -0.027 A 
HETATM   12  C   UNK     0      -0.638  -4.758  27.873  0.00  0.00    -0.031 A 
HETATM   13  C   UNK     0      -1.808  -4.569  26.934  0.00  0.00     0.051 C 
HETATM   14  C   UNK     0       1.651  -6.739  29.982  0.00  0.00     0.115 C 
HETATM   15  C   UNK     0       3.095  -6.871  29.526  0.00  0.00     0.021 A 
HETATM   16  N   UNK     0       4.044  -5.915  29.516  0.00  0.00    -0.361 N 
HETATM   17  C   UNK     0       5.160  -6.410  28.977  0.00  0.00     0.022 A 
HETATM   18  C   UNK     0       4.931  -7.756  28.628  0.00  0.00    -0.027 A 
HETATM   19  C   UNK     0       3.635  -8.033  28.979  0.00  0.00    -0.031 A 
HETATM   20  C   UNK     0       2.986  -9.394  28.807  0.00  0.00     0.051 C 
HETATM   21  C   UNK     0       6.476  -5.732  28.673  0.00  0.00     0.115 C 
HETATM   22  C   UNK     0       6.434  -4.279  28.262  0.00  0.00     0.022 A 
HETATM   23  N   UNK     0       5.558  -3.671  27.452  0.00  0.00    -0.361 N 
HETATM   24  C   UNK     0       5.805  -2.346  27.479  0.00  0.00     0.021 A 
HETATM   25  C   UNK     0       6.874  -2.096  28.318  0.00  0.00    -0.031 A 
HETATM   26  C   UNK     0       7.546  -0.777  28.640  0.00  0.00     0.051 C 
HETATM   27  C   UNK     0       7.294  -3.318  28.831  0.00  0.00    -0.027 A 
HETATM   28  C   UNK     0       5.020  -1.240  26.796  0.00  0.00     0.115 C 
HETATM   29  H   UNK     0       2.725  -3.071  26.548  0.00  0.00     0.165 HD
HETATM   30  H   UNK     0       1.931  -3.833  29.757  0.00  0.00     0.165 HD
HETATM   31  H   UNK     0       3.939  -4.883  29.941  0.00  0.00     0.165 HD
HETATM   32  H   UNK     0       4.782  -4.177  26.820  0.00  0.00     0.165 HD
ENDROOT
BRANCH   6  33
HETATM   33  C   UNK     0       0.811   0.572  28.920  0.00  0.00     0.051 C 
BRANCH  33  34
HETATM   34  C   UNK     0      -0.138   1.253  27.961  0.00  0.00     0.114 C 
BRANCH  34  35
HETATM   35  C   UNK     0      -1.088   2.066  28.775  0.00  0.00     0.139 C 
HETATM   36  O   UNK     0      -1.209   1.850  30.016  0.00  0.00    -0.650 OA
BRANCH  35  37
HETATM   37  O   UNK     0      -1.866   3.078  28.228  0.00  0.00    -0.776 OA
HETATM   38  H   UNK     0      -1.716   3.422  27.293  0.00  0.00     0.167 HD
ENDBRANCH  35  37
ENDBRANCH  34  35
ENDBRANCH  33  34
ENDBRANCH   6  33
BRANCH  27  39
HETATM   39  C   UNK     0       8.476  -3.460  29.724  0.00  0.00     0.051 C 
BRANCH  39  40
HETATM   40  C   UNK     0       9.779  -3.725  29.114  0.00  0.00     0.114 C 
BRANCH  40  41
HETATM   41  C   UNK     0      10.048  -4.933  28.367  0.00  0.00     0.139 C 
HETATM   42  O   UNK     0       9.964  -5.007  27.134  0.00  0.00    -0.650 OA
BRANCH  41  43
HETATM   43  O   UNK     0      10.430  -6.110  29.071  0.00  0.00    -0.776 OA
HETATM   44  H   UNK     0      11.389  -6.110  29.399  0.00  0.00     0.167 HD
ENDBRANCH  41  43
ENDBRANCH  40  41
ENDBRANCH  39  40
ENDBRANCH  27  39
BRANCH  11  45
HETATM   45  C   UNK     0      -0.926  -7.273  28.173  0.00  0.00     0.051 C 
BRANCH  45  46
HETATM   46  C   UNK     0      -2.216  -7.437  28.891  0.00  0.00     0.114 C 
BRANCH  46  47
HETATM   47  C   UNK     0      -1.893  -7.759  30.311  0.00  0.00     0.139 C 
HETATM   48  O   UNK     0      -2.208  -6.944  31.189  0.00  0.00    -0.650 OA
BRANCH  47  49
HETATM   49  O   UNK     0      -1.262  -8.932  30.639  0.00  0.00    -0.776 OA
HETATM   50  H   UNK     0      -0.818  -9.529  29.931  0.00  0.00     0.167 HD
ENDBRANCH  47  49
ENDBRANCH  46  47
ENDBRANCH  45  46
ENDBRANCH  11  45
BRANCH  18  51
HETATM   51  C   UNK     0       5.901  -8.732  28.014  0.00  0.00     0.051 C 
BRANCH  51  52
HETATM   52  C   UNK     0       6.750  -9.265  29.158  0.00  0.00     0.114 C 
BRANCH  52  53
HETATM   53  C   UNK     0       8.078  -8.623  29.202  0.00  0.00     0.139 C 
HETATM   54  O   UNK     0       8.694  -8.396  28.149  0.00  0.00    -0.650 OA
BRANCH  53  55
HETATM   55  O   UNK     0       8.628  -8.283  30.414  0.00  0.00    -0.776 OA
HETATM   56  H   UNK     0       8.178  -7.773  31.137  0.00  0.00     0.167 HD
ENDBRANCH  53  55
ENDBRANCH  52  53
ENDBRANCH  51  52
ENDBRANCH  18  51
TORSDOF 16
ENDMDL
MODEL 18
REMARK VINA RESULT:      -8.3      5.970     11.154
REMARK  16 active torsions:
REMARK  status: ('A' for Active; 'I' for Inactive)
REMARK    1  A    between atoms: C_6  and  C_7 
REMARK    2  A    between atoms: C_7  and  C_8 
REMARK    3  A    between atoms: C_8  and  C_9 
REMARK    4  A    between atoms: C_9  and  O_11 
REMARK    5  A    between atoms: C_16  and  C_17 
REMARK    6  A    between atoms: C_17  and  C_18 
REMARK    7  A    between atoms: C_18  and  C_19 
REMARK    8  A    between atoms: C_19  and  O_21 
REMARK    9  A    between atoms: C_28  and  C_29 
REMARK   10  A    between atoms: C_29  and  C_30 
REMARK   11  A    between atoms: C_30  and  C_31 
REMARK   12  A    between atoms: C_31  and  O_33 
REMARK   13  A    between atoms: C_42  and  C_43 
REMARK   14  A    between atoms: C_43  and  C_44 
REMARK   15  A    between atoms: C_44  and  C_45 
REMARK   16  A    between atoms: C_45  and  O_47 
ROOT
HETATM    1  C   UNK     0       7.837  -9.680  29.436  0.00  0.00     0.051 C 
HETATM    2  C   UNK     0       6.750  -8.667  29.139  0.00  0.00    -0.031 A 
HETATM    3  C   UNK     0       5.659  -8.770  28.291  0.00  0.00     0.021 A 
HETATM    4  N   UNK     0       4.969  -7.605  28.316  0.00  0.00    -0.361 N 
HETATM    5  C   UNK     0       5.592  -6.765  29.168  0.00  0.00     0.022 A 
HETATM    6  C   UNK     0       6.712  -7.396  29.698  0.00  0.00    -0.027 A 
HETATM    7  C   UNK     0       5.187  -5.397  29.622  0.00  0.00     0.115 C 
HETATM    8  C   UNK     0       3.718  -5.195  29.950  0.00  0.00     0.021 A 
HETATM    9  N   UNK     0       2.860  -6.060  30.512  0.00  0.00    -0.361 N 
HETATM   10  C   UNK     0       1.638  -5.487  30.528  0.00  0.00     0.022 A 
HETATM   11  C   UNK     0       1.713  -4.215  29.969  0.00  0.00    -0.027 A 
HETATM   12  C   UNK     0       3.021  -4.024  29.603  0.00  0.00    -0.031 A 
HETATM   13  C   UNK     0       3.574  -2.774  28.955  0.00  0.00     0.051 C 
HETATM   14  C   UNK     0       0.346  -6.134  31.020  0.00  0.00     0.115 C 
HETATM   15  C   UNK     0      -0.046  -7.387  30.254  0.00  0.00     0.021 A 
HETATM   16  N   UNK     0       0.671  -8.517  30.105  0.00  0.00    -0.361 N 
HETATM   17  C   UNK     0       0.009  -9.353  29.303  0.00  0.00     0.022 A 
HETATM   18  C   UNK     0      -1.202  -8.744  28.918  0.00  0.00    -0.027 A 
HETATM   19  C   UNK     0      -1.225  -7.513  29.521  0.00  0.00    -0.031 A 
HETATM   20  C   UNK     0      -2.379  -6.535  29.399  0.00  0.00     0.051 C 
HETATM   21  C   UNK     0       0.411 -10.710  28.769  0.00  0.00     0.115 C 
HETATM   22  C   UNK     0       1.875 -10.940  28.480  0.00  0.00     0.022 A 
HETATM   23  N   UNK     0       2.754 -10.095  27.925  0.00  0.00    -0.361 N 
HETATM   24  C   UNK     0       3.979 -10.655  27.990  0.00  0.00     0.021 A 
HETATM   25  C   UNK     0       3.885 -11.895  28.593  0.00  0.00    -0.031 A 
HETATM   26  C   UNK     0       4.975 -12.914  28.853  0.00  0.00     0.051 C 
HETATM   27  C   UNK     0       2.548 -12.100  28.915  0.00  0.00    -0.027 A 
HETATM   28  C   UNK     0       5.305 -10.042  27.574  0.00  0.00     0.115 C 
HETATM   29  H   UNK     0       4.069  -7.371  27.701  0.00  0.00     0.165 HD
HETATM   30  H   UNK     0       3.124  -7.056  30.945  0.00  0.00     0.165 HD
HETATM   31  H   UNK     0       1.642  -8.748  30.614  0.00  0.00     0.165 HD
HETATM   32  H   UNK     0       2.512  -9.113  27.442  0.00  0.00     0.165 HD
ENDROOT
BRANCH   6  33
HETATM   33  C   UNK     0       7.736  -6.890  30.682  0.00  0.00     0.051 C 
BRANCH  33  34
HETATM   34  C   UNK     0       8.913  -6.278  29.961  0.00  0.00     0.114 C 
BRANCH  34  35
HETATM   35  C   UNK     0       9.742  -5.569  30.979  0.00  0.00     0.139 C 
HETATM   36  O   UNK     0       9.803  -4.305  30.983  0.00  0.00    -0.650 OA
BRANCH  35  37
HETATM   37  O   UNK     0      10.469  -6.242  31.953  0.00  0.00    -0.776 OA
HETATM   38  H   UNK     0      11.334  -6.715  31.743  0.00  0.00     0.167 HD
ENDBRANCH  35  37
ENDBRANCH  34  35
ENDBRANCH  33  34
ENDBRANCH   6  33
BRANCH  27  39
HETATM   39  C   UNK     0       2.044 -13.363  29.518  0.00  0.00     0.051 C 
BRANCH  39  40
HETATM   40  C   UNK     0       0.869 -13.297  30.387  0.00  0.00     0.114 C 
BRANCH  40  41
HETATM   41  C   UNK     0      -0.020 -14.423  30.568  0.00  0.00     0.139 C 
HETATM   42  O   UNK     0      -1.074 -14.570  29.935  0.00  0.00    -0.650 OA
BRANCH  41  43
HETATM   43  O   UNK     0       0.320 -15.425  31.521  0.00  0.00    -0.776 OA
HETATM   44  H   UNK     0       1.184 -15.915  31.324  0.00  0.00     0.167 HD
ENDBRANCH  41  43
ENDBRANCH  40  41
ENDBRANCH  39  40
ENDBRANCH  27  39
BRANCH  11  45
HETATM   45  C   UNK     0       0.614  -3.203  29.781  0.00  0.00     0.051 C 
BRANCH  45  46
HETATM   46  C   UNK     0       0.706  -2.033  30.690  0.00  0.00     0.114 C 
BRANCH  46  47
HETATM   47  C   UNK     0       0.509  -2.537  32.080  0.00  0.00     0.139 C 
HETATM   48  O   UNK     0      -0.585  -3.035  32.379  0.00  0.00    -0.650 OA
BRANCH  47  49
HETATM   49  O   UNK     0       1.515  -2.450  33.008  0.00  0.00    -0.776 OA
HETATM   50  H   UNK     0       1.381  -2.733  33.986  0.00  0.00     0.167 HD
ENDBRANCH  47  49
ENDBRANCH  46  47
ENDBRANCH  45  46
ENDBRANCH  11  45
BRANCH  18  51
HETATM   51  C   UNK     0      -2.287  -9.312  28.041  0.00  0.00     0.051 C 
BRANCH  51  52
HETATM   52  C   UNK     0      -2.998 -10.369  28.873  0.00  0.00     0.114 C 
BRANCH  52  53
HETATM   53  C   UNK     0      -3.189 -11.624  28.121  0.00  0.00     0.139 C 
HETATM   54  O   UNK     0      -3.672 -11.596  26.978  0.00  0.00    -0.650 OA
BRANCH  53  55
HETATM   55  O   UNK     0      -2.831 -12.820  28.693  0.00  0.00    -0.776 OA
HETATM   56  H   UNK     0      -2.257 -13.517  28.280  0.00  0.00     0.167 HD
ENDBRANCH  53  55
ENDBRANCH  52  53
ENDBRANCH  51  52
ENDBRANCH  18  51
TORSDOF 16
ENDMDL
MODEL 19
REMARK VINA RESULT:      -8.2      2.816      7.797
REMARK  16 active torsions:
REMARK  status: ('A' for Active; 'I' for Inactive)
REMARK    1  A    between atoms: C_6  and  C_7 
REMARK    2  A    between atoms: C_7  and  C_8 
REMARK    3  A    between atoms: C_8  and  C_9 
REMARK    4  A    between atoms: C_9  and  O_11 
REMARK    5  A    between atoms: C_16  and  C_17 
REMARK    6  A    between atoms: C_17  and  C_18 
REMARK    7  A    between atoms: C_18  and  C_19 
REMARK    8  A    between atoms: C_19  and  O_21 
REMARK    9  A    between atoms: C_28  and  C_29 
REMARK   10  A    between atoms: C_29  and  C_30 
REMARK   11  A    between atoms: C_30  and  C_31 
REMARK   12  A    between atoms: C_31  and  O_33 
REMARK   13  A    between atoms: C_42  and  C_43 
REMARK   14  A    between atoms: C_43  and  C_44 
REMARK   15  A    between atoms: C_44  and  C_45 
REMARK   16  A    between atoms: C_45  and  O_47 
ROOT
HETATM    1  C   UNK     0      -7.248  -2.699  25.784  0.00  0.00     0.051 C 
HETATM    2  C   UNK     0      -6.281  -3.775  26.234  0.00  0.00    -0.031 A 
HETATM    3  C   UNK     0      -4.902  -3.829  26.104  0.00  0.00     0.021 A 
HETATM    4  N   UNK     0      -4.455  -4.996  26.625  0.00  0.00    -0.361 N 
HETATM    5  C   UNK     0      -5.518  -5.683  27.092  0.00  0.00     0.022 A 
HETATM    6  C   UNK     0      -6.677  -4.950  26.861  0.00  0.00    -0.027 A 
HETATM    7  C   UNK     0      -5.560  -6.980  27.839  0.00  0.00     0.115 C 
HETATM    8  C   UNK     0      -4.519  -7.173  28.928  0.00  0.00     0.021 A 
HETATM    9  N   UNK     0      -4.007  -6.259  29.766  0.00  0.00    -0.361 N 
HETATM   10  C   UNK     0      -3.046  -6.857  30.502  0.00  0.00     0.022 A 
HETATM   11  C   UNK     0      -2.944  -8.195  30.135  0.00  0.00    -0.027 A 
HETATM   12  C   UNK     0      -3.869  -8.401  29.144  0.00  0.00    -0.031 A 
HETATM   13  C   UNK     0      -4.120  -9.717  28.441  0.00  0.00     0.051 C 
HETATM   14  C   UNK     0      -2.154  -6.181  31.539  0.00  0.00     0.115 C 
HETATM   15  C   UNK     0      -1.288  -5.066  30.974  0.00  0.00     0.021 A 
HETATM   16  N   UNK     0      -1.695  -3.952  30.339  0.00  0.00    -0.361 N 
HETATM   17  C   UNK     0      -0.626  -3.261  29.936  0.00  0.00     0.022 A 
HETATM   18  C   UNK     0       0.533  -3.955  30.335  0.00  0.00    -0.027 A 
HETATM   19  C   UNK     0       0.105  -5.083  30.986  0.00  0.00    -0.031 A 
HETATM   20  C   UNK     0       1.040  -6.101  31.614  0.00  0.00     0.051 C 
HETATM   21  C   UNK     0      -0.541  -1.988  29.125  0.00  0.00     0.115 C 
HETATM   22  C   UNK     0      -1.596  -1.762  28.068  0.00  0.00     0.022 A 
HETATM   23  N   UNK     0      -2.128  -2.655  27.222  0.00  0.00    -0.361 N 
HETATM   24  C   UNK     0      -3.135  -2.057  26.554  0.00  0.00     0.021 A 
HETATM   25  C   UNK     0      -3.247  -0.745  26.972  0.00  0.00    -0.031 A 
HETATM   26  C   UNK     0      -4.197   0.331  26.489  0.00  0.00     0.051 C 
HETATM   27  C   UNK     0      -2.273  -0.533  27.940  0.00  0.00    -0.027 A 
HETATM   28  C   UNK     0      -4.092  -2.687  25.558  0.00  0.00     0.115 C 
HETATM   29  H   UNK     0      -3.396  -5.344  26.624  0.00  0.00     0.165 HD
HETATM   30  H   UNK     0      -4.355  -5.202  29.875  0.00  0.00     0.165 HD
HETATM   31  H   UNK     0      -2.759  -3.620  30.214  0.00  0.00     0.165 HD
HETATM   32  H   UNK     0      -1.768  -3.704  27.058  0.00  0.00     0.165 HD
ENDROOT
BRANCH   6  33
HETATM   33  C   UNK     0      -8.113  -5.276  27.184  0.00  0.00     0.051 C 
BRANCH  33  34
HETATM   34  C   UNK     0      -8.754  -6.047  26.054  0.00  0.00     0.114 C 
BRANCH  34  35
HETATM   35  C   UNK     0     -10.070  -5.407  25.768  0.00  0.00     0.139 C 
HETATM   36  O   UNK     0     -10.206  -4.648  24.765  0.00  0.00    -0.650 OA
BRANCH  35  37
HETATM   37  O   UNK     0     -11.189  -5.608  26.567  0.00  0.00    -0.776 OA
HETATM   38  H   UNK     0     -12.066  -5.147  26.384  0.00  0.00     0.167 HD
ENDBRANCH  35  37
ENDBRANCH  34  35
ENDBRANCH  33  34
ENDBRANCH   6  33
BRANCH  27  39
HETATM   39  C   UNK     0      -2.038   0.792  28.578  0.00  0.00     0.051 C 
BRANCH  39  40
HETATM   40  C   UNK     0      -0.742   1.038  29.210  0.00  0.00     0.114 C 
BRANCH  40  41
HETATM   41  C   UNK     0       0.384   1.570  28.476  0.00  0.00     0.139 C 
HETATM   42  O   UNK     0       0.811   2.724  28.622  0.00  0.00    -0.650 OA
BRANCH  41  43
HETATM   43  O   UNK     0       1.050   0.738  27.533  0.00  0.00    -0.776 OA
HETATM   44  H   UNK     0       0.964   1.042  26.571  0.00  0.00     0.167 HD
ENDBRANCH  41  43
ENDBRANCH  40  41
ENDBRANCH  39  40
ENDBRANCH  27  39
BRANCH  11  45
HETATM   45  C   UNK     0      -2.024  -9.254  30.681  0.00  0.00     0.051 C 
BRANCH  45  46
HETATM   46  C   UNK     0      -0.661  -9.235  30.092  0.00  0.00     0.114 C 
BRANCH  46  47
HETATM   47  C   UNK     0      -0.075 -10.592  30.291  0.00  0.00     0.139 C 
HETATM   48  O   UNK     0       0.136 -11.298  29.295  0.00  0.00    -0.650 OA
BRANCH  47  49
HETATM   49  O   UNK     0       0.222 -11.051  31.549  0.00  0.00    -0.776 OA
HETATM   50  H   UNK     0       1.179 -11.301  31.826  0.00  0.00     0.167 HD
ENDBRANCH  47  49
ENDBRANCH  46  47
ENDBRANCH  45  46
ENDBRANCH  11  45
BRANCH  18  51
HETATM   51  C   UNK     0       1.971  -3.554  30.127  0.00  0.00     0.051 C 
BRANCH  51  52
HETATM   52  C   UNK     0       2.369  -4.090  28.760  0.00  0.00     0.114 C 
BRANCH  52  53
HETATM   53  C   UNK     0       3.822  -4.328  28.666  0.00  0.00     0.139 C 
HETATM   54  O   UNK     0       4.533  -4.243  29.680  0.00  0.00    -0.650 OA
BRANCH  53  55
HETATM   55  O   UNK     0       4.382  -4.640  27.451  0.00  0.00    -0.776 OA
HETATM   56  H   UNK     0       4.202  -4.181  26.590  0.00  0.00     0.167 HD
ENDBRANCH  53  55
ENDBRANCH  52  53
ENDBRANCH  51  52
ENDBRANCH  18  51
TORSDOF 16
ENDMDL
MODEL 20
REMARK VINA RESULT:      -8.1      2.477      3.064
REMARK  16 active torsions:
REMARK  status: ('A' for Active; 'I' for Inactive)
REMARK    1  A    between atoms: C_6  and  C_7 
REMARK    2  A    between atoms: C_7  and  C_8 
REMARK    3  A    between atoms: C_8  and  C_9 
REMARK    4  A    between atoms: C_9  and  O_11 
REMARK    5  A    between atoms: C_16  and  C_17 
REMARK    6  A    between atoms: C_17  and  C_18 
REMARK    7  A    between atoms: C_18  and  C_19 
REMARK    8  A    between atoms: C_19  and  O_21 
REMARK    9  A    between atoms: C_28  and  C_29 
REMARK   10  A    between atoms: C_29  and  C_30 
REMARK   11  A    between atoms: C_30  and  C_31 
REMARK   12  A    between atoms: C_31  and  O_33 
REMARK   13  A    between atoms: C_42  and  C_43 
REMARK   14  A    between atoms: C_43  and  C_44 
REMARK   15  A    between atoms: C_44  and  C_45 
REMARK   16  A    between atoms: C_45  and  O_47 
ROOT
HETATM    1  C   UNK     0      -5.032  -8.014  28.635  0.00  0.00     0.051 C 
HETATM    2  C   UNK     0      -3.641  -7.425  28.521  0.00  0.00    -0.031 A 
HETATM    3  C   UNK     0      -3.159  -6.472  27.637  0.00  0.00     0.021 A 
HETATM    4  N   UNK     0      -1.842  -6.270  27.880  0.00  0.00    -0.361 N 
HETATM    5  C   UNK     0      -1.476  -7.067  28.905  0.00  0.00     0.022 A 
HETATM    6  C   UNK     0      -2.577  -7.805  29.328  0.00  0.00    -0.027 A 
HETATM    7  C   UNK     0      -0.163  -7.158  29.618  0.00  0.00     0.115 C 
HETATM    8  C   UNK     0       0.532  -5.846  29.937  0.00  0.00     0.021 A 
HETATM    9  N   UNK     0      -0.017  -4.672  30.283  0.00  0.00    -0.361 N 
HETATM   10  C   UNK     0       0.973  -3.759  30.380  0.00  0.00     0.022 A 
HETATM   11  C   UNK     0       2.194  -4.364  30.097  0.00  0.00    -0.027 A 
HETATM   12  C   UNK     0       1.923  -5.680  29.817  0.00  0.00    -0.031 A 
HETATM   13  C   UNK     0       2.953  -6.726  29.457  0.00  0.00     0.051 C 
HETATM   14  C   UNK     0       0.802  -2.274  30.689  0.00  0.00     0.115 C 
HETATM   15  C   UNK     0      -0.042  -1.526  29.670  0.00  0.00     0.021 A 
HETATM   16  N   UNK     0      -1.315  -1.779  29.313  0.00  0.00    -0.361 N 
HETATM   17  C   UNK     0      -1.672  -0.942  28.337  0.00  0.00     0.022 A 
HETATM   18  C   UNK     0      -0.581  -0.096  28.050  0.00  0.00    -0.027 A 
HETATM   19  C   UNK     0       0.433  -0.472  28.892  0.00  0.00    -0.031 A 
HETATM   20  C   UNK     0       1.787   0.212  28.939  0.00  0.00     0.051 C 
HETATM   21  C   UNK     0      -2.959  -0.860  27.548  0.00  0.00     0.115 C 
HETATM   22  C   UNK     0      -3.684  -2.154  27.262  0.00  0.00     0.022 A 
HETATM   23  N   UNK     0      -3.163  -3.340  26.919  0.00  0.00    -0.361 N 
HETATM   24  C   UNK     0      -4.157  -4.251  26.904  0.00  0.00     0.021 A 
HETATM   25  C   UNK     0      -5.349  -3.635  27.236  0.00  0.00    -0.031 A 
HETATM   26  C   UNK     0      -6.740  -4.229  27.313  0.00  0.00     0.051 C 
HETATM   27  C   UNK     0      -5.072  -2.293  27.469  0.00  0.00    -0.027 A 
HETATM   28  C   UNK     0      -4.044  -5.746  26.663  0.00  0.00     0.115 C 
HETATM   29  H   UNK     0      -1.171  -5.595  27.300  0.00  0.00     0.165 HD
HETATM   30  H   UNK     0      -1.097  -4.495  30.509  0.00  0.00     0.165 HD
HETATM   31  H   UNK     0      -1.993  -2.532  29.793  0.00  0.00     0.165 HD
HETATM   32  H   UNK     0      -2.095  -3.536  26.641  0.00  0.00     0.165 HD
ENDROOT
BRANCH   6  33
HETATM   33  C   UNK     0      -2.692  -8.833  30.425  0.00  0.00     0.051 C 
BRANCH  33  34
HETATM   34  C   UNK     0      -1.712  -9.961  30.206  0.00  0.00     0.114 C 
BRANCH  34  35
HETATM   35  C   UNK     0      -2.005 -10.555  28.870  0.00  0.00     0.139 C 
HETATM   36  O   UNK     0      -3.099 -11.159  28.668  0.00  0.00    -0.650 OA
BRANCH  35  37
HETATM   37  O   UNK     0      -1.118 -10.476  27.804  0.00  0.00    -0.776 OA
HETATM   38  H   UNK     0      -1.352 -10.823  26.887  0.00  0.00     0.167 HD
ENDBRANCH  35  37
ENDBRANCH  34  35
ENDBRANCH  33  34
ENDBRANCH   6  33
BRANCH  27  39
HETATM   39  C   UNK     0      -6.125  -1.290  27.784  0.00  0.00     0.051 C 
BRANCH  39  40
HETATM   40  C   UNK     0      -6.775  -0.594  26.674  0.00  0.00     0.114 C 
BRANCH  40  41
HETATM   41  C   UNK     0      -7.970  -1.102  26.039  0.00  0.00     0.139 C 
HETATM   42  O   UNK     0      -9.078  -1.131  26.593  0.00  0.00    -0.650 OA
BRANCH  41  43
HETATM   43  O   UNK     0      -7.888  -1.598  24.707  0.00  0.00    -0.776 OA
HETATM   44  H   UNK     0      -6.958  -1.574  24.308  0.00  0.00     0.167 HD
ENDBRANCH  41  43
ENDBRANCH  40  41
ENDBRANCH  39  40
ENDBRANCH  27  39
BRANCH  11  45
HETATM   45  C   UNK     0       3.568  -3.752  30.088  0.00  0.00     0.051 C 
BRANCH  45  46
HETATM   46  C   UNK     0       3.961  -3.165  28.781  0.00  0.00     0.114 C 
BRANCH  46  47
HETATM   47  C   UNK     0       5.153  -3.920  28.298  0.00  0.00     0.139 C 
HETATM   48  O   UNK     0       6.245  -3.716  28.845  0.00  0.00    -0.650 OA
BRANCH  47  49
HETATM   49  O   UNK     0       5.044  -4.821  27.269  0.00  0.00    -0.776 OA
HETATM   50  H   UNK     0       4.173  -4.938  26.736  0.00  0.00     0.167 HD
ENDBRANCH  47  49
ENDBRANCH  46  47
ENDBRANCH  45  46
ENDBRANCH  11  45
BRANCH  18  51
HETATM   51  C   UNK     0      -0.517   1.022  27.042  0.00  0.00     0.051 C 
BRANCH  51  52
HETATM   52  C   UNK     0      -1.403   2.135  27.583  0.00  0.00     0.114 C 
BRANCH  52  53
HETATM   53  C   UNK     0      -0.793   2.807  28.747  0.00  0.00     0.139 C 
HETATM   54  O   UNK     0      -1.350   2.759  29.855  0.00  0.00    -0.650 OA
BRANCH  53  55
HETATM   55  O   UNK     0       0.391   3.487  28.595  0.00  0.00    -0.776 OA
HETATM   56  H   UNK     0       1.019   3.403  27.831  0.00  0.00     0.167 HD
ENDBRANCH  53  55
ENDBRANCH  52  53
ENDBRANCH  51  52
ENDBRANCH  18  51
TORSDOF 16
ENDMDL
