MODEL 1
REMARK VINA RESULT:      -7.0      0.000      0.000
REMARK  28 active torsions:
REMARK  status: ('A' for Active; 'I' for Inactive)
REMARK    1  A    between atoms: C_2  and  O_3 
REMARK    2  A    between atoms: C_2  and  C_4 
REMARK    3  A    between atoms: C_4  and  C_5 
REMARK    4  A    between atoms: C_5  and  C_6 
REMARK    5  A    between atoms: C_7  and  C_8 
REMARK    6  A    between atoms: C_8  and  C_9 
REMARK    7  A    between atoms: C_9  and  O_11 
REMARK    8  A    between atoms: C_28  and  C_29 
REMARK    9  A    between atoms: C_29  and  C_30 
REMARK   10  A    between atoms: C_30  and  O_32 
REMARK   11  A    between atoms: C_33  and  C_34 
REMARK   12  A    between atoms: C_34  and  C_35 
REMARK   13  A    between atoms: C_35  and  C_36 
REMARK   14  A    between atoms: C_36  and  O_38 
REMARK   15  A    between atoms: C_39  and  C_40 
REMARK   16  A    between atoms: C_40  and  C_41 
REMARK   17  A    between atoms: C_41  and  C_42 
REMARK   18  A    between atoms: C_42  and  O_44 
REMARK   19  A    between atoms: C_45  and  C_46 
REMARK   20  A    between atoms: C_46  and  C_47 
REMARK   21  A    between atoms: C_47  and  O_49 
REMARK   22  A    between atoms: C_50  and  C_51 
REMARK   23  A    between atoms: C_51  and  C_52 
REMARK   24  A    between atoms: C_52  and  O_54 
REMARK   25  A    between atoms: C_55  and  C_56 
REMARK   26  A    between atoms: C_56  and  C_57 
REMARK   27  A    between atoms: C_57  and  C_58 
REMARK   28  A    between atoms: C_58  and  O_60 
ROOT
ATOM      1  O   UNK d   0     -21.284  23.608 -10.155  0.00  0.00    -0.650 OA
ATOM      2  C   UNK d   0     -20.995  24.521 -10.960  0.00  0.00     0.139 C 
ENDROOT
BRANCH   2   3
ATOM      3  O   UNK d   0     -21.655  25.724 -10.879  0.00  0.00    -0.776 OA
ATOM      4  H   UNK d   0     -21.564  26.321 -10.054  0.00  0.00     0.167 HD
ENDBRANCH   2   3
BRANCH   2   5
ATOM      5  C   UNK d   0     -19.946  24.302 -11.996  0.00  0.00     0.115 C 
BRANCH   5   6
ATOM      6  C   UNK d   0     -20.494  24.616 -13.362  0.00  0.00     0.052 C 
BRANCH   6   7
ATOM      7  C   UNK d   0     -21.525  23.612 -13.819  0.00  0.00    -0.020 A 
ATOM      8  C   UNK d   0     -22.767  23.842 -14.160  0.00  0.00    -0.011 A 
ATOM      9  C   UNK d   0     -23.373  22.570 -14.518  0.00  0.00     0.067 A 
ATOM     10  C   UNK d   0     -24.628  22.140 -14.977  0.00  0.00     0.062 C 
ATOM     11  N   UNK d   0     -22.429  21.618 -14.361  0.00  0.00    -0.248 NA
ATOM     12  C   UNK d   0     -24.945  20.899 -15.538  0.00  0.00     0.041 A 
ATOM     13  N   UNK d   0     -24.583  19.649 -15.190  0.00  0.00    -0.355 N 
ATOM     14  C   UNK d   0     -25.731  20.860 -16.705  0.00  0.00    -0.022 A 
ATOM     15  C   UNK d   0     -25.112  18.820 -16.109  0.00  0.00     0.042 A 
ATOM     16  H   UNK d   0     -23.981  19.358 -14.300  0.00  0.00     0.166 HD
ATOM     17  C   UNK d   0     -25.043  17.417 -16.220  0.00  0.00     0.062 C 
ATOM     18  C   UNK d   0     -25.838  19.542 -17.075  0.00  0.00    -0.013 A 
ATOM     19  C   UNK d   0     -23.957  16.592 -16.075  0.00  0.00     0.067 A 
ATOM     20  N   UNK d   0     -22.847  17.138 -15.571  0.00  0.00    -0.248 NA
ATOM     21  C   UNK d   0     -23.660  15.197 -16.352  0.00  0.00    -0.011 A 
ATOM     22  C   UNK d   0     -21.845  16.200 -15.499  0.00  0.00     0.066 A 
ATOM     23  C   UNK d   0     -20.642  16.625 -14.956  0.00  0.00     0.062 C 
ATOM     24  C   UNK d   0     -22.422  14.975 -16.017  0.00  0.00    -0.020 A 
ATOM     25  C   UNK d   0     -20.348  17.873 -14.385  0.00  0.00     0.041 A 
ATOM     26  N   UNK d   0     -20.696  19.115 -14.740  0.00  0.00    -0.355 N 
ATOM     27  C   UNK d   0     -19.563  17.910 -13.212  0.00  0.00    -0.022 A 
ATOM     28  C   UNK d   0     -20.162  19.945 -13.830  0.00  0.00     0.042 A 
ATOM     29  H   UNK d   0     -21.291  19.407 -15.640  0.00  0.00     0.166 HD
ATOM     30  C   UNK d   0     -20.214  21.343 -13.712  0.00  0.00     0.062 C 
ATOM     31  C   UNK d   0     -19.441  19.218 -12.853  0.00  0.00    -0.013 A 
ATOM     32  C   UNK d   0     -21.294  22.180 -13.943  0.00  0.00     0.066 A 
BRANCH   8  33
ATOM     33  C   UNK d   0     -23.452  25.148 -14.179  0.00  0.00     0.151 C 
BRANCH  33  34
ATOM     34  C   UNK d   0     -24.548  25.231 -13.196  0.00  0.00     0.143 C 
ATOM     35  O   UNK d   0     -24.339  25.029 -11.991  0.00  0.00    -0.650 OA
BRANCH  34  36
ATOM     36  O   UNK d   0     -25.818  25.537 -13.625  0.00  0.00    -0.776 OA
ATOM     37  H   UNK d   0     -25.976  26.185 -14.409  0.00  0.00     0.167 HD
ENDBRANCH  34  36
ENDBRANCH  33  34
ENDBRANCH   8  33
BRANCH  31  38
ATOM     38  C   UNK d   0     -18.696  19.746 -11.650  0.00  0.00     0.151 C 
BRANCH  38  39
ATOM     39  C   UNK d   0     -19.558  20.441 -10.717  0.00  0.00     0.143 C 
ATOM     40  O   UNK d   0     -20.708  20.048 -10.454  0.00  0.00    -0.650 OA
BRANCH  39  41
ATOM     41  O   UNK d   0     -19.095  21.594 -10.083  0.00  0.00    -0.776 OA
ATOM     42  H   UNK d   0     -18.191  21.526  -9.605  0.00  0.00     0.167 HD
ENDBRANCH  39  41
ENDBRANCH  38  39
ENDBRANCH  31  38
BRANCH  27  43
ATOM     43  C   UNK d   0     -18.938  16.775 -12.440  0.00  0.00     0.052 C 
BRANCH  43  44
ATOM     44  C   UNK d   0     -19.269  16.798 -10.983  0.00  0.00     0.115 C 
BRANCH  44  45
ATOM     45  C   UNK d   0     -19.920  15.498 -10.675  0.00  0.00     0.139 C 
ATOM     46  O   UNK d   0     -20.380  15.326  -9.519  0.00  0.00    -0.650 OA
BRANCH  45  47
ATOM     47  O   UNK d   0     -20.041  14.485 -11.602  0.00  0.00    -0.776 OA
ATOM     48  H   UNK d   0     -19.347  14.324 -12.350  0.00  0.00     0.167 HD
ENDBRANCH  45  47
ENDBRANCH  44  45
ENDBRANCH  43  44
ENDBRANCH  27  43
BRANCH  24  49
ATOM     49  C   UNK d   0     -21.719  13.683 -16.095  0.00  0.00     0.052 C 
BRANCH  49  50
ATOM     50  C   UNK d   0     -22.315  12.702 -15.118  0.00  0.00     0.115 C 
BRANCH  50  51
ATOM     51  C   UNK d   0     -21.912  12.824 -13.724  0.00  0.00     0.139 C 
ATOM     52  O   UNK d   0     -21.052  12.077 -13.200  0.00  0.00    -0.650 OA
BRANCH  51  53
ATOM     53  O   UNK d   0     -22.491  13.798 -12.925  0.00  0.00    -0.776 OA
ATOM     54  H   UNK d   0     -21.980  14.648 -12.764  0.00  0.00     0.167 HD
ENDBRANCH  51  53
ENDBRANCH  50  51
ENDBRANCH  49  50
ENDBRANCH  24  49
BRANCH  21  55
ATOM     55  C   UNK d   0     -24.646  14.230 -16.919  0.00  0.00     0.151 C 
BRANCH  55  56
ATOM     56  C   UNK d   0     -24.577  14.168 -18.387  0.00  0.00     0.143 C 
ATOM     57  O   UNK d   0     -25.191  14.963 -19.125  0.00  0.00    -0.650 OA
BRANCH  56  58
ATOM     58  O   UNK d   0     -23.786  13.173 -18.958  0.00  0.00    -0.776 OA
ATOM     59  H   UNK d   0     -23.093  13.510 -19.651  0.00  0.00     0.167 HD
ENDBRANCH  56  58
ENDBRANCH  55  56
ENDBRANCH  21  55
BRANCH  18  60
ATOM     60  C   UNK d   0     -26.592  19.043 -18.282  0.00  0.00     0.151 C 
BRANCH  60  61
ATOM     61  C   UNK d   0     -27.979  18.839 -17.837  0.00  0.00     0.143 C 
ATOM     62  O   UNK d   0     -28.954  19.543 -18.101  0.00  0.00    -0.650 OA
BRANCH  61  63
ATOM     63  O   UNK d   0     -28.188  17.704 -17.017  0.00  0.00    -0.776 OA
ATOM     64  H   UNK d   0     -27.785  17.647 -16.099  0.00  0.00     0.167 HD
ENDBRANCH  61  63
ENDBRANCH  60  61
ENDBRANCH  18  60
BRANCH  14  65
ATOM     65  C   UNK d   0     -26.462  21.953 -17.431  0.00  0.00     0.052 C 
BRANCH  65  66
ATOM     66  C   UNK d   0     -27.693  22.398 -16.725  0.00  0.00     0.115 C 
BRANCH  66  67
ATOM     67  C   UNK d   0     -27.623  23.483 -15.787  0.00  0.00     0.139 C 
ATOM     68  O   UNK d   0     -27.276  24.644 -16.216  0.00  0.00    -0.650 OA
BRANCH  67  69
ATOM     69  O   UNK d   0     -27.889  23.446 -14.419  0.00  0.00    -0.776 OA
ATOM     70  H   UNK d   0     -28.430  24.239 -14.046  0.00  0.00     0.167 HD
ENDBRANCH  67  69
ENDBRANCH  66  67
ENDBRANCH  65  66
ENDBRANCH  14  65
ENDBRANCH   6   7
ENDBRANCH   5   6
ENDBRANCH   2   5
TORSDOF 28
ENDMDL
MODEL 2
REMARK VINA RESULT:      -7.0     20.207     23.549
REMARK  28 active torsions:
REMARK  status: ('A' for Active; 'I' for Inactive)
REMARK    1  A    between atoms: C_2  and  O_3 
REMARK    2  A    between atoms: C_2  and  C_4 
REMARK    3  A    between atoms: C_4  and  C_5 
REMARK    4  A    between atoms: C_5  and  C_6 
REMARK    5  A    between atoms: C_7  and  C_8 
REMARK    6  A    between atoms: C_8  and  C_9 
REMARK    7  A    between atoms: C_9  and  O_11 
REMARK    8  A    between atoms: C_28  and  C_29 
REMARK    9  A    between atoms: C_29  and  C_30 
REMARK   10  A    between atoms: C_30  and  O_32 
REMARK   11  A    between atoms: C_33  and  C_34 
REMARK   12  A    between atoms: C_34  and  C_35 
REMARK   13  A    between atoms: C_35  and  C_36 
REMARK   14  A    between atoms: C_36  and  O_38 
REMARK   15  A    between atoms: C_39  and  C_40 
REMARK   16  A    between atoms: C_40  and  C_41 
REMARK   17  A    between atoms: C_41  and  C_42 
REMARK   18  A    between atoms: C_42  and  O_44 
REMARK   19  A    between atoms: C_45  and  C_46 
REMARK   20  A    between atoms: C_46  and  C_47 
REMARK   21  A    between atoms: C_47  and  O_49 
REMARK   22  A    between atoms: C_50  and  C_51 
REMARK   23  A    between atoms: C_51  and  C_52 
REMARK   24  A    between atoms: C_52  and  O_54 
REMARK   25  A    between atoms: C_55  and  C_56 
REMARK   26  A    between atoms: C_56  and  C_57 
REMARK   27  A    between atoms: C_57  and  C_58 
REMARK   28  A    between atoms: C_58  and  O_60 
ROOT
ATOM      1  O   UNK d   0     -43.335  19.132   4.698  0.00  0.00    -0.650 OA
ATOM      2  C   UNK d   0     -43.986  18.065   4.633  0.00  0.00     0.139 C 
ENDROOT
BRANCH   2   3
ATOM      3  O   UNK d   0     -44.457  17.493   5.790  0.00  0.00    -0.776 OA
ATOM      4  H   UNK d   0     -45.309  17.835   6.239  0.00  0.00     0.167 HD
ENDBRANCH   2   3
BRANCH   2   5
ATOM      5  C   UNK d   0     -44.244  17.426   3.312  0.00  0.00     0.115 C 
BRANCH   5   6
ATOM      6  C   UNK d   0     -43.211  16.366   3.039  0.00  0.00     0.052 C 
BRANCH   6   7
ATOM      7  C   UNK d   0     -41.936  16.933   2.461  0.00  0.00    -0.020 A 
ATOM      8  C   UNK d   0     -40.745  16.931   3.003  0.00  0.00    -0.011 A 
ATOM      9  C   UNK d   0     -39.837  17.595   2.082  0.00  0.00     0.067 A 
ATOM     10  C   UNK d   0     -38.466  17.895   2.052  0.00  0.00     0.062 C 
ATOM     11  N   UNK d   0     -40.562  17.974   1.008  0.00  0.00    -0.248 NA
ATOM     12  C   UNK d   0     -37.712  18.299   0.945  0.00  0.00     0.041 A 
ATOM     13  N   UNK d   0     -37.982  19.177  -0.039  0.00  0.00    -0.355 N 
ATOM     14  C   UNK d   0     -36.463  17.694   0.716  0.00  0.00    -0.022 A 
ATOM     15  C   UNK d   0     -36.940  19.138  -0.892  0.00  0.00     0.042 A 
ATOM     16  H   UNK d   0     -38.882  19.825  -0.120  0.00  0.00     0.166 HD
ATOM     17  C   UNK d   0     -36.709  19.853  -2.084  0.00  0.00     0.062 C 
ATOM     18  C   UNK d   0     -35.968  18.220  -0.451  0.00  0.00    -0.013 A 
ATOM     19  C   UNK d   0     -37.571  20.104  -3.120  0.00  0.00     0.067 A 
ATOM     20  N   UNK d   0     -38.859  19.816  -2.919  0.00  0.00    -0.248 NA
ATOM     21  C   UNK d   0     -37.455  20.619  -4.475  0.00  0.00    -0.011 A 
ATOM     22  C   UNK d   0     -39.594  20.104  -4.043  0.00  0.00     0.066 A 
ATOM     23  C   UNK d   0     -40.961  19.888  -3.958  0.00  0.00     0.062 C 
ATOM     24  C   UNK d   0     -38.641  20.613  -5.010  0.00  0.00    -0.020 A 
ATOM     25  C   UNK d   0     -41.702  19.494  -2.833  0.00  0.00     0.041 A 
ATOM     26  N   UNK d   0     -41.440  18.611  -1.862  0.00  0.00    -0.355 N 
ATOM     27  C   UNK d   0     -42.953  20.105  -2.601  0.00  0.00    -0.022 A 
ATOM     28  C   UNK d   0     -42.481  18.641  -1.015  0.00  0.00     0.042 A 
ATOM     29  H   UNK d   0     -40.539  17.952  -1.788  0.00  0.00     0.166 HD
ATOM     30  C   UNK d   0     -42.729  17.929   0.169  0.00  0.00     0.062 C 
ATOM     31  C   UNK d   0     -43.453  19.572  -1.453  0.00  0.00    -0.013 A 
ATOM     32  C   UNK d   0     -41.832  17.604   1.174  0.00  0.00     0.066 A 
BRANCH   8  33
ATOM     33  C   UNK d   0     -40.369  16.369   4.313  0.00  0.00     0.151 C 
BRANCH  33  34
ATOM     34  C   UNK d   0     -39.998  14.944   4.237  0.00  0.00     0.143 C 
ATOM     35  O   UNK d   0     -38.812  14.600   4.128  0.00  0.00    -0.650 OA
BRANCH  34  36
ATOM     36  O   UNK d   0     -40.984  13.986   4.285  0.00  0.00    -0.776 OA
ATOM     37  H   UNK d   0     -41.883  14.120   3.805  0.00  0.00     0.167 HD
ENDBRANCH  34  36
ENDBRANCH  33  34
ENDBRANCH   8  33
BRANCH  31  38
ATOM     38  C   UNK d   0     -44.767  19.932  -0.801  0.00  0.00     0.151 C 
BRANCH  38  39
ATOM     39  C   UNK d   0     -45.870  19.122  -1.274  0.00  0.00     0.143 C 
ATOM     40  O   UNK d   0     -46.632  19.499  -2.181  0.00  0.00    -0.650 OA
BRANCH  39  41
ATOM     41  O   UNK d   0     -46.096  17.870  -0.702  0.00  0.00    -0.776 OA
ATOM     42  H   UNK d   0     -46.908  17.346  -1.045  0.00  0.00     0.167 HD
ENDBRANCH  39  41
ENDBRANCH  38  39
ENDBRANCH  31  38
BRANCH  27  43
ATOM     43  C   UNK d   0     -43.674  21.151  -3.414  0.00  0.00     0.052 C 
BRANCH  43  44
ATOM     44  C   UNK d   0     -43.348  22.549  -3.000  0.00  0.00     0.115 C 
BRANCH  44  45
ATOM     45  C   UNK d   0     -42.501  23.124  -4.078  0.00  0.00     0.139 C 
ATOM     46  O   UNK d   0     -41.663  24.005  -3.766  0.00  0.00    -0.650 OA
BRANCH  45  47
ATOM     47  O   UNK d   0     -42.596  22.727  -5.395  0.00  0.00    -0.776 OA
ATOM     48  H   UNK d   0     -42.443  21.752  -5.698  0.00  0.00     0.167 HD
ENDBRANCH  45  47
ENDBRANCH  44  45
ENDBRANCH  43  44
ENDBRANCH  27  43
BRANCH  24  49
ATOM     49  C   UNK d   0     -38.987  21.089  -6.360  0.00  0.00     0.052 C 
BRANCH  49  50
ATOM     50  C   UNK d   0     -39.581  19.970  -7.175  0.00  0.00     0.115 C 
BRANCH  50  51
ATOM     51  C   UNK d   0     -40.840  20.240  -7.858  0.00  0.00     0.139 C 
ATOM     52  O   UNK d   0     -41.550  21.239  -7.596  0.00  0.00    -0.650 OA
BRANCH  51  53
ATOM     53  O   UNK d   0     -41.290  19.368  -8.838  0.00  0.00    -0.776 OA
ATOM     54  H   UNK d   0     -42.279  19.204  -8.910  0.00  0.00     0.167 HD
ENDBRANCH  51  53
ENDBRANCH  50  51
ENDBRANCH  49  50
ENDBRANCH  24  49
BRANCH  21  55
ATOM     55  C   UNK d   0     -36.171  21.068  -5.090  0.00  0.00     0.151 C 
BRANCH  55  56
ATOM     56  C   UNK d   0     -35.796  22.423  -4.657  0.00  0.00     0.143 C 
ATOM     57  O   UNK d   0     -34.897  22.639  -3.821  0.00  0.00    -0.650 OA
BRANCH  56  58
ATOM     58  O   UNK d   0     -36.485  23.497  -5.217  0.00  0.00    -0.776 OA
ATOM     59  H   UNK d   0     -37.173  23.241  -5.948  0.00  0.00     0.167 HD
ENDBRANCH  56  58
ENDBRANCH  55  56
ENDBRANCH  21  55
BRANCH  18  60
ATOM     60  C   UNK d   0     -34.648  17.843  -1.078  0.00  0.00     0.151 C 
BRANCH  60  61
ATOM     61  C   UNK d   0     -33.729  18.951  -0.780  0.00  0.00     0.143 C 
ATOM     62  O   UNK d   0     -33.375  19.849  -1.546  0.00  0.00    -0.650 OA
BRANCH  61  63
ATOM     63  O   UNK d   0     -33.208  18.964   0.536  0.00  0.00    -0.776 OA
ATOM     64  H   UNK d   0     -32.598  18.235   0.860  0.00  0.00     0.167 HD
ENDBRANCH  61  63
ENDBRANCH  60  61
ENDBRANCH  18  60
BRANCH  14  65
ATOM     65  C   UNK d   0     -35.665  16.740   1.559  0.00  0.00     0.052 C 
BRANCH  65  66
ATOM     66  C   UNK d   0     -35.709  17.069   3.009  0.00  0.00     0.115 C 
BRANCH  66  67
ATOM     67  C   UNK d   0     -35.259  16.103   3.972  0.00  0.00     0.139 C 
ATOM     68  O   UNK d   0     -34.207  16.368   4.662  0.00  0.00    -0.650 OA
BRANCH  67  69
ATOM     69  O   UNK d   0     -35.832  14.867   4.272  0.00  0.00    -0.776 OA
ATOM     70  H   UNK d   0     -35.414  14.361   5.067  0.00  0.00     0.167 HD
ENDBRANCH  67  69
ENDBRANCH  66  67
ENDBRANCH  65  66
ENDBRANCH  14  65
ENDBRANCH   6   7
ENDBRANCH   5   6
ENDBRANCH   2   5
TORSDOF 28
ENDMDL
MODEL 3
REMARK VINA RESULT:      -6.9     20.879     23.257
REMARK  28 active torsions:
REMARK  status: ('A' for Active; 'I' for Inactive)
REMARK    1  A    between atoms: C_2  and  O_3 
REMARK    2  A    between atoms: C_2  and  C_4 
REMARK    3  A    between atoms: C_4  and  C_5 
REMARK    4  A    between atoms: C_5  and  C_6 
REMARK    5  A    between atoms: C_7  and  C_8 
REMARK    6  A    between atoms: C_8  and  C_9 
REMARK    7  A    between atoms: C_9  and  O_11 
REMARK    8  A    between atoms: C_28  and  C_29 
REMARK    9  A    between atoms: C_29  and  C_30 
REMARK   10  A    between atoms: C_30  and  O_32 
REMARK   11  A    between atoms: C_33  and  C_34 
REMARK   12  A    between atoms: C_34  and  C_35 
REMARK   13  A    between atoms: C_35  and  C_36 
REMARK   14  A    between atoms: C_36  and  O_38 
REMARK   15  A    between atoms: C_39  and  C_40 
REMARK   16  A    between atoms: C_40  and  C_41 
REMARK   17  A    between atoms: C_41  and  C_42 
REMARK   18  A    between atoms: C_42  and  O_44 
REMARK   19  A    between atoms: C_45  and  C_46 
REMARK   20  A    between atoms: C_46  and  C_47 
REMARK   21  A    between atoms: C_47  and  O_49 
REMARK   22  A    between atoms: C_50  and  C_51 
REMARK   23  A    between atoms: C_51  and  C_52 
REMARK   24  A    between atoms: C_52  and  O_54 
REMARK   25  A    between atoms: C_55  and  C_56 
REMARK   26  A    between atoms: C_56  and  C_57 
REMARK   27  A    between atoms: C_57  and  C_58 
REMARK   28  A    between atoms: C_58  and  O_60 
ROOT
ATOM      1  O   UNK d   0     -47.449  17.563  -0.499  0.00  0.00    -0.650 OA
ATOM      2  C   UNK d   0     -47.557  18.707  -0.005  0.00  0.00     0.139 C 
ENDROOT
BRANCH   2   3
ATOM      3  O   UNK d   0     -48.647  19.480  -0.328  0.00  0.00    -0.776 OA
ATOM      4  H   UNK d   0     -48.760  19.866  -1.267  0.00  0.00     0.167 HD
ENDBRANCH   2   3
BRANCH   2   5
ATOM      5  C   UNK d   0     -46.513  19.223   0.925  0.00  0.00     0.115 C 
BRANCH   5   6
ATOM      6  C   UNK d   0     -45.862  20.449   0.343  0.00  0.00     0.052 C 
BRANCH   6   7
ATOM      7  C   UNK d   0     -44.603  20.129  -0.426  0.00  0.00    -0.020 A 
ATOM      8  C   UNK d   0     -44.398  20.257  -1.712  0.00  0.00    -0.011 A 
ATOM      9  C   UNK d   0     -43.041  19.819  -1.993  0.00  0.00     0.067 A 
ATOM     10  C   UNK d   0     -42.222  19.726  -3.128  0.00  0.00     0.062 C 
ATOM     11  N   UNK d   0     -42.494  19.435  -0.820  0.00  0.00    -0.248 NA
ATOM     12  C   UNK d   0     -40.836  19.538  -3.160  0.00  0.00     0.041 A 
ATOM     13  N   UNK d   0     -40.036  18.721  -2.448  0.00  0.00    -0.355 N 
ATOM     14  C   UNK d   0     -40.059  20.338  -4.018  0.00  0.00    -0.022 A 
ATOM     15  C   UNK d   0     -38.771  18.988  -2.826  0.00  0.00     0.042 A 
ATOM     16  H   UNK d   0     -40.360  17.958  -1.706  0.00  0.00     0.166 HD
ATOM     17  C   UNK d   0     -37.552  18.424  -2.401  0.00  0.00     0.062 C 
ATOM     18  C   UNK d   0     -38.746  19.996  -3.809  0.00  0.00    -0.013 A 
ATOM     19  C   UNK d   0     -37.130  18.143  -1.127  0.00  0.00     0.067 A 
ATOM     20  N   UNK d   0     -38.044  18.220  -0.156  0.00  0.00    -0.248 NA
ATOM     21  C   UNK d   0     -35.872  17.774  -0.500  0.00  0.00    -0.011 A 
ATOM     22  C   UNK d   0     -37.475  17.929   1.059  0.00  0.00     0.066 A 
ATOM     23  C   UNK d   0     -38.325  17.935   2.155  0.00  0.00     0.062 C 
ATOM     24  C   UNK d   0     -36.079  17.654   0.779  0.00  0.00    -0.020 A 
ATOM     25  C   UNK d   0     -39.717  18.113   2.164  0.00  0.00     0.041 A 
ATOM     26  N   UNK d   0     -40.511  18.935   1.467  0.00  0.00    -0.355 N 
ATOM     27  C   UNK d   0     -40.495  17.307   3.023  0.00  0.00    -0.022 A 
ATOM     28  C   UNK d   0     -41.771  18.677   1.850  0.00  0.00     0.042 A 
ATOM     29  H   UNK d   0     -40.183  19.709   0.730  0.00  0.00     0.166 HD
ATOM     30  C   UNK d   0     -42.992  19.237   1.442  0.00  0.00     0.062 C 
ATOM     31  C   UNK d   0     -41.796  17.657   2.830  0.00  0.00    -0.013 A 
ATOM     32  C   UNK d   0     -43.382  19.598   0.162  0.00  0.00     0.066 A 
BRANCH   8  33
ATOM     33  C   UNK d   0     -45.360  20.750  -2.716  0.00  0.00     0.151 C 
BRANCH  33  34
ATOM     34  C   UNK d   0     -46.412  19.766  -3.029  0.00  0.00     0.143 C 
ATOM     35  O   UNK d   0     -47.587  20.123  -3.195  0.00  0.00    -0.650 OA
BRANCH  34  36
ATOM     36  O   UNK d   0     -46.083  18.435  -3.135  0.00  0.00    -0.776 OA
ATOM     37  H   UNK d   0     -45.415  17.996  -2.486  0.00  0.00     0.167 HD
ENDBRANCH  34  36
ENDBRANCH  33  34
ENDBRANCH   8  33
BRANCH  31  38
ATOM     38  C   UNK d   0     -42.995  17.051   3.523  0.00  0.00     0.151 C 
BRANCH  38  39
ATOM     39  C   UNK d   0     -43.400  17.796   4.696  0.00  0.00     0.143 C 
ATOM     40  O   UNK d   0     -44.408  18.524   4.707  0.00  0.00    -0.650 OA
BRANCH  39  41
ATOM     41  O   UNK d   0     -42.644  17.701   5.864  0.00  0.00    -0.776 OA
ATOM     42  H   UNK d   0     -41.816  18.302   5.928  0.00  0.00     0.167 HD
ENDBRANCH  39  41
ENDBRANCH  38  39
ENDBRANCH  31  38
BRANCH  27  43
ATOM     43  C   UNK d   0     -40.057  16.244   3.998  0.00  0.00     0.052 C 
BRANCH  43  44
ATOM     44  C   UNK d   0     -40.528  14.874   3.630  0.00  0.00     0.115 C 
BRANCH  44  45
ATOM     45  C   UNK d   0     -39.905  13.936   4.600  0.00  0.00     0.139 C 
ATOM     46  O   UNK d   0     -38.688  13.659   4.458  0.00  0.00    -0.650 OA
BRANCH  45  47
ATOM     47  O   UNK d   0     -40.603  13.368   5.644  0.00  0.00    -0.776 OA
ATOM     48  H   UNK d   0     -40.236  13.329   6.608  0.00  0.00     0.167 HD
ENDBRANCH  45  47
ENDBRANCH  44  45
ENDBRANCH  43  44
ENDBRANCH  27  43
BRANCH  24  49
ATOM     49  C   UNK d   0     -35.082  17.255   1.787  0.00  0.00     0.052 C 
BRANCH  49  50
ATOM     50  C   UNK d   0     -34.691  15.812   1.595  0.00  0.00     0.115 C 
BRANCH  50  51
ATOM     51  C   UNK d   0     -33.843  15.211   2.616  0.00  0.00     0.139 C 
ATOM     52  O   UNK d   0     -34.299  14.495   3.539  0.00  0.00    -0.650 OA
BRANCH  51  53
ATOM     53  O   UNK d   0     -32.474  15.429   2.586  0.00  0.00    -0.776 OA
ATOM     54  H   UNK d   0     -32.140  16.304   2.222  0.00  0.00     0.167 HD
ENDBRANCH  51  53
ENDBRANCH  50  51
ENDBRANCH  49  50
ENDBRANCH  24  49
BRANCH  21  55
ATOM     55  C   UNK d   0     -34.594  17.575  -1.247  0.00  0.00     0.151 C 
BRANCH  55  56
ATOM     56  C   UNK d   0     -34.181  18.790  -1.966  0.00  0.00     0.143 C 
ATOM     57  O   UNK d   0     -33.918  19.861  -1.385  0.00  0.00    -0.650 OA
BRANCH  56  58
ATOM     58  O   UNK d   0     -34.084  18.721  -3.355  0.00  0.00    -0.776 OA
ATOM     59  H   UNK d   0     -33.959  17.766  -3.736  0.00  0.00     0.167 HD
ENDBRANCH  56  58
ENDBRANCH  55  56
ENDBRANCH  21  55
BRANCH  18  60
ATOM     60  C   UNK d   0     -37.569  20.617  -4.519  0.00  0.00     0.151 C 
BRANCH  60  61
ATOM     61  C   UNK d   0     -36.963  21.551  -3.558  0.00  0.00     0.143 C 
ATOM     62  O   UNK d   0     -37.546  22.393  -2.874  0.00  0.00    -0.650 OA
BRANCH  61  63
ATOM     63  O   UNK d   0     -35.558  21.448  -3.421  0.00  0.00    -0.776 OA
ATOM     64  H   UNK d   0     -34.978  21.197  -4.203  0.00  0.00     0.167 HD
ENDBRANCH  61  63
ENDBRANCH  60  61
ENDBRANCH  18  60
BRANCH  14  65
ATOM     65  C   UNK d   0     -40.467  21.319  -5.080  0.00  0.00     0.052 C 
BRANCH  65  66
ATOM     66  C   UNK d   0     -40.974  20.663  -6.315  0.00  0.00     0.115 C 
BRANCH  66  67
ATOM     67  C   UNK d   0     -40.066  20.367  -7.387  0.00  0.00     0.139 C 
ATOM     68  O   UNK d   0     -39.235  21.276  -7.756  0.00  0.00    -0.650 OA
BRANCH  67  69
ATOM     69  O   UNK d   0     -39.960  19.180  -8.111  0.00  0.00    -0.776 OA
ATOM     70  H   UNK d   0     -39.846  19.285  -9.129  0.00  0.00     0.167 HD
ENDBRANCH  67  69
ENDBRANCH  66  67
ENDBRANCH  65  66
ENDBRANCH  14  65
ENDBRANCH   6   7
ENDBRANCH   5   6
ENDBRANCH   2   5
TORSDOF 28
ENDMDL
MODEL 4
REMARK VINA RESULT:      -6.8     20.150     22.420
REMARK  28 active torsions:
REMARK  status: ('A' for Active; 'I' for Inactive)
REMARK    1  A    between atoms: C_2  and  O_3 
REMARK    2  A    between atoms: C_2  and  C_4 
REMARK    3  A    between atoms: C_4  and  C_5 
REMARK    4  A    between atoms: C_5  and  C_6 
REMARK    5  A    between atoms: C_7  and  C_8 
REMARK    6  A    between atoms: C_8  and  C_9 
REMARK    7  A    between atoms: C_9  and  O_11 
REMARK    8  A    between atoms: C_28  and  C_29 
REMARK    9  A    between atoms: C_29  and  C_30 
REMARK   10  A    between atoms: C_30  and  O_32 
REMARK   11  A    between atoms: C_33  and  C_34 
REMARK   12  A    between atoms: C_34  and  C_35 
REMARK   13  A    between atoms: C_35  and  C_36 
REMARK   14  A    between atoms: C_36  and  O_38 
REMARK   15  A    between atoms: C_39  and  C_40 
REMARK   16  A    between atoms: C_40  and  C_41 
REMARK   17  A    between atoms: C_41  and  C_42 
REMARK   18  A    between atoms: C_42  and  O_44 
REMARK   19  A    between atoms: C_45  and  C_46 
REMARK   20  A    between atoms: C_46  and  C_47 
REMARK   21  A    between atoms: C_47  and  O_49 
REMARK   22  A    between atoms: C_50  and  C_51 
REMARK   23  A    between atoms: C_51  and  C_52 
REMARK   24  A    between atoms: C_52  and  O_54 
REMARK   25  A    between atoms: C_55  and  C_56 
REMARK   26  A    between atoms: C_56  and  C_57 
REMARK   27  A    between atoms: C_57  and  C_58 
REMARK   28  A    between atoms: C_58  and  O_60 
ROOT
ATOM      1  O   UNK d   0     -45.484  19.212   4.454  0.00  0.00    -0.650 OA
ATOM      2  C   UNK d   0     -44.761  18.195   4.363  0.00  0.00     0.139 C 
ENDROOT
BRANCH   2   3
ATOM      3  O   UNK d   0     -44.459  17.480   5.497  0.00  0.00    -0.776 OA
ATOM      4  H   UNK d   0     -45.052  17.533   6.327  0.00  0.00     0.167 HD
ENDBRANCH   2   3
BRANCH   2   5
ATOM      5  C   UNK d   0     -44.235  17.768   3.036  0.00  0.00     0.115 C 
BRANCH   5   6
ATOM      6  C   UNK d   0     -44.452  18.854   2.018  0.00  0.00     0.052 C 
BRANCH   6   7
ATOM      7  C   UNK d   0     -43.434  18.819   0.903  0.00  0.00    -0.020 A 
ATOM      8  C   UNK d   0     -43.662  18.809  -0.385  0.00  0.00    -0.011 A 
ATOM      9  C   UNK d   0     -42.377  18.763  -1.063  0.00  0.00     0.067 A 
ATOM     10  C   UNK d   0     -41.935  18.755  -2.395  0.00  0.00     0.062 C 
ATOM     11  N   UNK d   0     -41.421  18.742  -0.110  0.00  0.00    -0.248 NA
ATOM     12  C   UNK d   0     -40.636  18.990  -2.858  0.00  0.00     0.041 A 
ATOM     13  N   UNK d   0     -39.441  18.568  -2.401  0.00  0.00    -0.355 N 
ATOM     14  C   UNK d   0     -40.450  19.850  -3.956  0.00  0.00    -0.022 A 
ATOM     15  C   UNK d   0     -38.503  19.144  -3.176  0.00  0.00     0.042 A 
ATOM     16  H   UNK d   0     -39.266  17.862  -1.560  0.00  0.00     0.166 HD
ATOM     17  C   UNK d   0     -37.098  19.044  -3.136  0.00  0.00     0.062 C 
ATOM     18  C   UNK d   0     -39.097  19.955  -4.162  0.00  0.00    -0.013 A 
ATOM     19  C   UNK d   0     -36.260  19.096  -2.051  0.00  0.00     0.067 A 
ATOM     20  N   UNK d   0     -36.829  19.036  -0.844  0.00  0.00    -0.248 NA
ATOM     21  C   UNK d   0     -34.827  19.220  -1.842  0.00  0.00    -0.011 A 
ATOM     22  C   UNK d   0     -35.873  19.115   0.138  0.00  0.00     0.066 A 
ATOM     23  C   UNK d   0     -36.324  19.027   1.447  0.00  0.00     0.062 C 
ATOM     24  C   UNK d   0     -34.607  19.235  -0.559  0.00  0.00    -0.020 A 
ATOM     25  C   UNK d   0     -37.632  18.777   1.891  0.00  0.00     0.041 A 
ATOM     26  N   UNK d   0     -38.818  19.208   1.446  0.00  0.00    -0.355 N 
ATOM     27  C   UNK d   0     -37.818  17.911   2.990  0.00  0.00    -0.022 A 
ATOM     28  C   UNK d   0     -39.756  18.643   2.222  0.00  0.00     0.042 A 
ATOM     29  H   UNK d   0     -38.992  19.927   0.607  0.00  0.00     0.166 HD
ATOM     30  C   UNK d   0     -41.156  18.741   2.199  0.00  0.00     0.062 C 
ATOM     31  C   UNK d   0     -39.158  17.819   3.206  0.00  0.00    -0.013 A 
ATOM     32  C   UNK d   0     -41.992  18.774   1.095  0.00  0.00     0.066 A 
BRANCH   8  33
ATOM     33  C   UNK d   0     -44.977  18.834  -1.052  0.00  0.00     0.151 C 
BRANCH  33  34
ATOM     34  C   UNK d   0     -45.182  20.048  -1.862  0.00  0.00     0.143 C 
ATOM     35  O   UNK d   0     -44.974  21.174  -1.387  0.00  0.00    -0.650 OA
BRANCH  34  36
ATOM     36  O   UNK d   0     -45.613  19.927  -3.163  0.00  0.00    -0.776 OA
ATOM     37  H   UNK d   0     -45.910  19.019  -3.545  0.00  0.00     0.167 HD
ENDBRANCH  34  36
ENDBRANCH  33  34
ENDBRANCH   8  33
BRANCH  31  38
ATOM     38  C   UNK d   0     -39.835  16.991   4.273  0.00  0.00     0.151 C 
BRANCH  38  39
ATOM     39  C   UNK d   0     -40.138  15.646   3.832  0.00  0.00     0.143 C 
ATOM     40  O   UNK d   0     -39.601  14.644   4.336  0.00  0.00    -0.650 OA
BRANCH  39  41
ATOM     41  O   UNK d   0     -41.063  15.452   2.807  0.00  0.00    -0.776 OA
ATOM     42  H   UNK d   0     -40.968  14.594   2.255  0.00  0.00     0.167 HD
ENDBRANCH  39  41
ENDBRANCH  38  39
ENDBRANCH  31  38
BRANCH  27  43
ATOM     43  C   UNK d   0     -36.790  17.186   3.823  0.00  0.00     0.052 C 
BRANCH  43  44
ATOM     44  C   UNK d   0     -35.920  16.271   3.024  0.00  0.00     0.115 C 
BRANCH  44  45
ATOM     45  C   UNK d   0     -34.523  16.522   3.465  0.00  0.00     0.139 C 
ATOM     46  O   UNK d   0     -34.260  16.412   4.688  0.00  0.00    -0.650 OA
BRANCH  45  47
ATOM     47  O   UNK d   0     -33.514  16.861   2.591  0.00  0.00    -0.776 OA
ATOM     48  H   UNK d   0     -32.610  17.253   2.903  0.00  0.00     0.167 HD
ENDBRANCH  45  47
ENDBRANCH  44  45
ENDBRANCH  43  44
ENDBRANCH  27  43
BRANCH  24  49
ATOM     49  C   UNK d   0     -33.290  19.309   0.095  0.00  0.00     0.052 C 
BRANCH  49  50
ATOM     50  C   UNK d   0     -33.034  20.705   0.602  0.00  0.00     0.115 C 
BRANCH  50  51
ATOM     51  C   UNK d   0     -32.801  20.861   2.031  0.00  0.00     0.139 C 
ATOM     52  O   UNK d   0     -32.466  21.954   2.546  0.00  0.00    -0.650 OA
BRANCH  51  53
ATOM     53  O   UNK d   0     -32.947  19.770   2.874  0.00  0.00    -0.776 OA
ATOM     54  H   UNK d   0     -33.253  19.936   3.817  0.00  0.00     0.167 HD
ENDBRANCH  51  53
ENDBRANCH  50  51
ENDBRANCH  49  50
ENDBRANCH  24  49
BRANCH  21  55
ATOM     55  C   UNK d   0     -33.827  19.306  -2.947  0.00  0.00     0.151 C 
BRANCH  55  56
ATOM     56  C   UNK d   0     -33.931  20.573  -3.687  0.00  0.00     0.143 C 
ATOM     57  O   UNK d   0     -33.436  21.640  -3.273  0.00  0.00    -0.650 OA
BRANCH  56  58
ATOM     58  O   UNK d   0     -34.616  20.561  -4.901  0.00  0.00    -0.776 OA
ATOM     59  H   UNK d   0     -34.051  20.266  -5.718  0.00  0.00     0.167 HD
ENDBRANCH  56  58
ENDBRANCH  55  56
ENDBRANCH  21  55
BRANCH  18  60
ATOM     60  C   UNK d   0     -38.449  20.789  -5.239  0.00  0.00     0.151 C 
BRANCH  60  61
ATOM     61  C   UNK d   0     -38.039  22.042  -4.588  0.00  0.00     0.143 C 
ATOM     62  O   UNK d   0     -36.956  22.281  -4.052  0.00  0.00    -0.650 OA
BRANCH  61  63
ATOM     63  O   UNK d   0     -39.013  23.070  -4.592  0.00  0.00    -0.776 OA
ATOM     64  H   UNK d   0     -39.801  23.034  -5.213  0.00  0.00     0.167 HD
ENDBRANCH  61  63
ENDBRANCH  60  61
ENDBRANCH  18  60
BRANCH  14  65
ATOM     65  C   UNK d   0     -41.447  20.494  -4.878  0.00  0.00     0.052 C 
BRANCH  65  66
ATOM     66  C   UNK d   0     -42.104  21.688  -4.281  0.00  0.00     0.115 C 
BRANCH  66  67
ATOM     67  C   UNK d   0     -43.496  21.934  -4.533  0.00  0.00     0.139 C 
ATOM     68  O   UNK d   0     -44.065  21.307  -5.500  0.00  0.00    -0.650 OA
BRANCH  67  69
ATOM     69  O   UNK d   0     -44.348  22.797  -3.844  0.00  0.00    -0.776 OA
ATOM     70  H   UNK d   0     -44.459  23.737  -4.251  0.00  0.00     0.167 HD
ENDBRANCH  67  69
ENDBRANCH  66  67
ENDBRANCH  65  66
ENDBRANCH  14  65
ENDBRANCH   6   7
ENDBRANCH   5   6
ENDBRANCH   2   5
TORSDOF 28
ENDMDL
MODEL 5
REMARK VINA RESULT:      -6.7     21.194     23.757
REMARK  28 active torsions:
REMARK  status: ('A' for Active; 'I' for Inactive)
REMARK    1  A    between atoms: C_2  and  O_3 
REMARK    2  A    between atoms: C_2  and  C_4 
REMARK    3  A    between atoms: C_4  and  C_5 
REMARK    4  A    between atoms: C_5  and  C_6 
REMARK    5  A    between atoms: C_7  and  C_8 
REMARK    6  A    between atoms: C_8  and  C_9 
REMARK    7  A    between atoms: C_9  and  O_11 
REMARK    8  A    between atoms: C_28  and  C_29 
REMARK    9  A    between atoms: C_29  and  C_30 
REMARK   10  A    between atoms: C_30  and  O_32 
REMARK   11  A    between atoms: C_33  and  C_34 
REMARK   12  A    between atoms: C_34  and  C_35 
REMARK   13  A    between atoms: C_35  and  C_36 
REMARK   14  A    between atoms: C_36  and  O_38 
REMARK   15  A    between atoms: C_39  and  C_40 
REMARK   16  A    between atoms: C_40  and  C_41 
REMARK   17  A    between atoms: C_41  and  C_42 
REMARK   18  A    between atoms: C_42  and  O_44 
REMARK   19  A    between atoms: C_45  and  C_46 
REMARK   20  A    between atoms: C_46  and  C_47 
REMARK   21  A    between atoms: C_47  and  O_49 
REMARK   22  A    between atoms: C_50  and  C_51 
REMARK   23  A    between atoms: C_51  and  C_52 
REMARK   24  A    between atoms: C_52  and  O_54 
REMARK   25  A    between atoms: C_55  and  C_56 
REMARK   26  A    between atoms: C_56  and  C_57 
REMARK   27  A    between atoms: C_57  and  C_58 
REMARK   28  A    between atoms: C_58  and  O_60 
ROOT
ATOM      1  O   UNK d   0     -39.667  20.504  -9.724  0.00  0.00    -0.650 OA
ATOM      2  C   UNK d   0     -40.448  20.058  -8.854  0.00  0.00     0.139 C 
ENDROOT
BRANCH   2   3
ATOM      3  O   UNK d   0     -41.653  19.524  -9.240  0.00  0.00    -0.776 OA
ATOM      4  H   UNK d   0     -41.924  18.579  -8.963  0.00  0.00     0.167 HD
ENDBRANCH   2   3
BRANCH   2   5
ATOM      5  C   UNK d   0     -40.069  20.109  -7.413  0.00  0.00     0.115 C 
BRANCH   5   6
ATOM      6  C   UNK d   0     -40.450  21.440  -6.824  0.00  0.00     0.052 C 
BRANCH   6   7
ATOM      7  C   UNK d   0     -41.405  21.310  -5.662  0.00  0.00    -0.020 A 
ATOM      8  C   UNK d   0     -42.604  21.823  -5.554  0.00  0.00    -0.011 A 
ATOM      9  C   UNK d   0     -43.138  21.436  -4.258  0.00  0.00     0.067 A 
ATOM     10  C   UNK d   0     -44.338  21.633  -3.557  0.00  0.00     0.062 C 
ATOM     11  N   UNK d   0     -42.194  20.694  -3.642  0.00  0.00    -0.248 NA
ATOM     12  C   UNK d   0     -44.779  20.945  -2.422  0.00  0.00     0.041 A 
ATOM     13  N   UNK d   0     -44.127  20.563  -1.308  0.00  0.00    -0.355 N 
ATOM     14  C   UNK d   0     -46.109  20.488  -2.378  0.00  0.00    -0.022 A 
ATOM     15  C   UNK d   0     -45.006  19.869  -0.561  0.00  0.00     0.042 A 
ATOM     16  H   UNK d   0     -43.071  20.796  -1.045  0.00  0.00     0.166 HD
ATOM     17  C   UNK d   0     -44.849  19.248   0.695  0.00  0.00     0.062 C 
ATOM     18  C   UNK d   0     -46.260  19.800  -1.199  0.00  0.00    -0.013 A 
ATOM     19  C   UNK d   0     -43.818  18.463   1.145  0.00  0.00     0.067 A 
ATOM     20  N   UNK d   0     -42.715  18.423   0.394  0.00  0.00    -0.248 NA
ATOM     21  C   UNK d   0     -43.590  17.595   2.288  0.00  0.00    -0.011 A 
ATOM     22  C   UNK d   0     -41.783  17.589   0.961  0.00  0.00     0.066 A 
ATOM     23  C   UNK d   0     -40.568  17.483   0.299  0.00  0.00     0.062 C 
ATOM     24  C   UNK d   0     -42.398  17.083   2.172  0.00  0.00    -0.020 A 
ATOM     25  C   UNK d   0     -40.140  18.193  -0.833  0.00  0.00     0.041 A 
ATOM     26  N   UNK d   0     -40.784  18.560  -1.947  0.00  0.00    -0.355 N 
ATOM     27  C   UNK d   0     -38.806  18.655  -0.875  0.00  0.00    -0.022 A 
ATOM     28  C   UNK d   0     -39.907  19.245  -2.698  0.00  0.00     0.042 A 
ATOM     29  H   UNK d   0     -41.841  18.315  -2.214  0.00  0.00     0.166 HD
ATOM     30  C   UNK d   0     -40.047  19.859  -3.952  0.00  0.00     0.062 C 
ATOM     31  C   UNK d   0     -38.650  19.322  -2.051  0.00  0.00    -0.013 A 
ATOM     32  C   UNK d   0     -41.127  20.580  -4.434  0.00  0.00     0.066 A 
BRANCH   8  33
ATOM     33  C   UNK d   0     -43.306  22.652  -6.551  0.00  0.00     0.151 C 
BRANCH  33  34
ATOM     34  C   UNK d   0     -44.261  21.879  -7.365  0.00  0.00     0.143 C 
ATOM     35  O   UNK d   0     -45.483  21.983  -7.184  0.00  0.00    -0.650 OA
BRANCH  34  36
ATOM     36  O   UNK d   0     -43.787  21.029  -8.338  0.00  0.00    -0.776 OA
ATOM     37  H   UNK d   0     -42.808  21.071  -8.653  0.00  0.00     0.167 HD
ENDBRANCH  34  36
ENDBRANCH  33  34
ENDBRANCH   8  33
BRANCH  31  38
ATOM     38  C   UNK d   0     -37.390  20.004  -2.528  0.00  0.00     0.151 C 
BRANCH  38  39
ATOM     39  C   UNK d   0     -36.494  19.106  -3.225  0.00  0.00     0.143 C 
ATOM     40  O   UNK d   0     -35.325  18.909  -2.851  0.00  0.00    -0.650 OA
BRANCH  39  41
ATOM     41  O   UNK d   0     -36.946  18.429  -4.358  0.00  0.00    -0.776 OA
ATOM     42  H   UNK d   0     -36.837  18.909  -5.257  0.00  0.00     0.167 HD
ENDBRANCH  39  41
ENDBRANCH  38  39
ENDBRANCH  31  38
BRANCH  27  43
ATOM     43  C   UNK d   0     -37.701  18.487   0.138  0.00  0.00     0.052 C 
BRANCH  43  44
ATOM     44  C   UNK d   0     -36.774  17.360  -0.180  0.00  0.00     0.115 C 
BRANCH  44  45
ATOM     45  C   UNK d   0     -35.675  17.419   0.819  0.00  0.00     0.139 C 
ATOM     46  O   UNK d   0     -34.547  17.814   0.434  0.00  0.00    -0.650 OA
BRANCH  45  47
ATOM     47  O   UNK d   0     -35.846  17.065   2.139  0.00  0.00    -0.776 OA
ATOM     48  H   UNK d   0     -35.427  17.595   2.920  0.00  0.00     0.167 HD
ENDBRANCH  45  47
ENDBRANCH  44  45
ENDBRANCH  43  44
ENDBRANCH  27  43
BRANCH  24  49
ATOM     49  C   UNK d   0     -41.745  16.176   3.131  0.00  0.00     0.052 C 
BRANCH  49  50
ATOM     50  C   UNK d   0     -40.711  16.920   3.936  0.00  0.00     0.115 C 
BRANCH  50  51
ATOM     51  C   UNK d   0     -39.337  16.444   3.855  0.00  0.00     0.139 C 
ATOM     52  O   UNK d   0     -38.380  17.191   3.541  0.00  0.00    -0.650 OA
BRANCH  51  53
ATOM     53  O   UNK d   0     -39.053  15.115   4.128  0.00  0.00    -0.776 OA
ATOM     54  H   UNK d   0     -39.557  14.665   4.872  0.00  0.00     0.167 HD
ENDBRANCH  51  53
ENDBRANCH  50  51
ENDBRANCH  49  50
ENDBRANCH  24  49
BRANCH  21  55
ATOM     55  C   UNK d   0     -44.584  17.370   3.379  0.00  0.00     0.151 C 
BRANCH  55  56
ATOM     56  C   UNK d   0     -44.270  18.157   4.582  0.00  0.00     0.143 C 
ATOM     57  O   UNK d   0     -43.860  19.333   4.531  0.00  0.00    -0.650 OA
BRANCH  56  58
ATOM     58  O   UNK d   0     -44.444  17.544   5.821  0.00  0.00    -0.776 OA
ATOM     59  H   UNK d   0     -43.923  17.983   6.602  0.00  0.00     0.167 HD
ENDBRANCH  56  58
ENDBRANCH  55  56
ENDBRANCH  21  55
BRANCH  18  60
ATOM     60  C   UNK d   0     -47.533  19.130  -0.746  0.00  0.00     0.151 C 
BRANCH  60  61
ATOM     61  C   UNK d   0     -47.449  17.740  -1.219  0.00  0.00     0.143 C 
ATOM     62  O   UNK d   0     -46.508  17.214  -1.813  0.00  0.00    -0.650 OA
BRANCH  61  63
ATOM     63  O   UNK d   0     -48.586  16.942  -0.947  0.00  0.00    -0.776 OA
ATOM     64  H   UNK d   0     -49.014  16.941  -0.039  0.00  0.00     0.167 HD
ENDBRANCH  61  63
ENDBRANCH  60  61
ENDBRANCH  18  60
BRANCH  14  65
ATOM     65  C   UNK d   0     -47.262  20.733  -3.308  0.00  0.00     0.052 C 
BRANCH  65  66
ATOM     66  C   UNK d   0     -47.173  19.943  -4.566  0.00  0.00     0.115 C 
BRANCH  66  67
ATOM     67  C   UNK d   0     -47.827  18.668  -4.653  0.00  0.00     0.139 C 
ATOM     68  O   UNK d   0     -49.112  18.637  -4.678  0.00  0.00    -0.650 OA
BRANCH  67  69
ATOM     69  O   UNK d   0     -47.233  17.407  -4.714  0.00  0.00    -0.776 OA
ATOM     70  H   UNK d   0     -46.670  17.218  -5.556  0.00  0.00     0.167 HD
ENDBRANCH  67  69
ENDBRANCH  66  67
ENDBRANCH  65  66
ENDBRANCH  14  65
ENDBRANCH   6   7
ENDBRANCH   5   6
ENDBRANCH   2   5
TORSDOF 28
ENDMDL
MODEL 6
REMARK VINA RESULT:      -6.7     20.579     23.115
REMARK  28 active torsions:
REMARK  status: ('A' for Active; 'I' for Inactive)
REMARK    1  A    between atoms: C_2  and  O_3 
REMARK    2  A    between atoms: C_2  and  C_4 
REMARK    3  A    between atoms: C_4  and  C_5 
REMARK    4  A    between atoms: C_5  and  C_6 
REMARK    5  A    between atoms: C_7  and  C_8 
REMARK    6  A    between atoms: C_8  and  C_9 
REMARK    7  A    between atoms: C_9  and  O_11 
REMARK    8  A    between atoms: C_28  and  C_29 
REMARK    9  A    between atoms: C_29  and  C_30 
REMARK   10  A    between atoms: C_30  and  O_32 
REMARK   11  A    between atoms: C_33  and  C_34 
REMARK   12  A    between atoms: C_34  and  C_35 
REMARK   13  A    between atoms: C_35  and  C_36 
REMARK   14  A    between atoms: C_36  and  O_38 
REMARK   15  A    between atoms: C_39  and  C_40 
REMARK   16  A    between atoms: C_40  and  C_41 
REMARK   17  A    between atoms: C_41  and  C_42 
REMARK   18  A    between atoms: C_42  and  O_44 
REMARK   19  A    between atoms: C_45  and  C_46 
REMARK   20  A    between atoms: C_46  and  C_47 
REMARK   21  A    between atoms: C_47  and  O_49 
REMARK   22  A    between atoms: C_50  and  C_51 
REMARK   23  A    between atoms: C_51  and  C_52 
REMARK   24  A    between atoms: C_52  and  O_54 
REMARK   25  A    between atoms: C_55  and  C_56 
REMARK   26  A    between atoms: C_56  and  C_57 
REMARK   27  A    between atoms: C_57  and  C_58 
REMARK   28  A    between atoms: C_58  and  O_60 
ROOT
ATOM      1  O   UNK d   0     -35.457  14.677   4.184  0.00  0.00    -0.650 OA
ATOM      2  C   UNK d   0     -35.177  15.875   3.955  0.00  0.00     0.139 C 
ENDROOT
BRANCH   2   3
ATOM      3  O   UNK d   0     -34.065  16.430   4.540  0.00  0.00    -0.776 OA
ATOM      4  H   UNK d   0     -33.124  16.169   4.237  0.00  0.00     0.167 HD
ENDBRANCH   2   3
BRANCH   2   5
ATOM      5  C   UNK d   0     -36.045  16.687   3.055  0.00  0.00     0.115 C 
BRANCH   5   6
ATOM      6  C   UNK d   0     -37.226  17.221   3.819  0.00  0.00     0.052 C 
BRANCH   6   7
ATOM      7  C   UNK d   0     -38.449  17.396   2.951  0.00  0.00    -0.020 A 
ATOM      8  C   UNK d   0     -39.673  17.016   3.210  0.00  0.00    -0.011 A 
ATOM      9  C   UNK d   0     -40.505  17.391   2.079  0.00  0.00     0.067 A 
ATOM     10  C   UNK d   0     -41.865  17.293   1.745  0.00  0.00     0.062 C 
ATOM     11  N   UNK d   0     -39.703  17.990   1.174  0.00  0.00    -0.248 NA
ATOM     12  C   UNK d   0     -42.536  17.967   0.719  0.00  0.00     0.041 A 
ATOM     13  N   UNK d   0     -42.184  18.215  -0.557  0.00  0.00    -0.355 N 
ATOM     14  C   UNK d   0     -43.778  18.566   0.997  0.00  0.00    -0.022 A 
ATOM     15  C   UNK d   0     -43.167  18.963  -1.093  0.00  0.00     0.042 A 
ATOM     16  H   UNK d   0     -41.268  17.852  -1.074  0.00  0.00     0.166 HD
ATOM     17  C   UNK d   0     -43.305  19.495  -2.390  0.00  0.00     0.062 C 
ATOM     18  C   UNK d   0     -44.183  19.204  -0.149  0.00  0.00    -0.013 A 
ATOM     19  C   UNK d   0     -42.370  20.136  -3.164  0.00  0.00     0.067 A 
ATOM     20  N   UNK d   0     -41.104  20.093  -2.742  0.00  0.00    -0.248 NA
ATOM     21  C   UNK d   0     -42.386  20.913  -4.392  0.00  0.00    -0.011 A 
ATOM     22  C   UNK d   0     -40.290  20.786  -3.604  0.00  0.00     0.066 A 
ATOM     23  C   UNK d   0     -38.936  20.790  -3.305  0.00  0.00     0.062 C 
ATOM     24  C   UNK d   0     -41.166  21.294  -4.642  0.00  0.00    -0.020 A 
ATOM     25  C   UNK d   0     -38.280  20.096  -2.276  0.00  0.00     0.041 A 
ATOM     26  N   UNK d   0     -38.623  19.863  -1.004  0.00  0.00    -0.355 N 
ATOM     27  C   UNK d   0     -37.036  19.491  -2.557  0.00  0.00    -0.022 A 
ATOM     28  C   UNK d   0     -37.640  19.124  -0.464  0.00  0.00     0.042 A 
ATOM     29  H   UNK d   0     -39.538  20.237  -0.483  0.00  0.00     0.166 HD
ATOM     30  C   UNK d   0     -37.486  18.596   0.827  0.00  0.00     0.062 C 
ATOM     31  C   UNK d   0     -36.624  18.873  -1.417  0.00  0.00    -0.013 A 
ATOM     32  C   UNK d   0     -38.454  18.025   1.639  0.00  0.00     0.066 A 
BRANCH   8  33
ATOM     33  C   UNK d   0     -40.147  16.323   4.423  0.00  0.00     0.151 C 
BRANCH  33  34
ATOM     34  C   UNK d   0     -40.145  14.856   4.280  0.00  0.00     0.143 C 
ATOM     35  O   UNK d   0     -39.118  14.197   4.496  0.00  0.00    -0.650 OA
BRANCH  34  36
ATOM     36  O   UNK d   0     -41.300  14.213   3.900  0.00  0.00    -0.776 OA
ATOM     37  H   UNK d   0     -41.278  13.412   3.255  0.00  0.00     0.167 HD
ENDBRANCH  34  36
ENDBRANCH  33  34
ENDBRANCH   8  33
BRANCH  31  38
ATOM     38  C   UNK d   0     -35.350  18.080  -1.242  0.00  0.00     0.151 C 
BRANCH  38  39
ATOM     39  C   UNK d   0     -34.333  18.806  -0.511  0.00  0.00     0.143 C 
ATOM     40  O   UNK d   0     -34.009  19.971  -0.801  0.00  0.00    -0.650 OA
BRANCH  39  41
ATOM     41  O   UNK d   0     -33.685  18.188   0.558  0.00  0.00    -0.776 OA
ATOM     42  H   UNK d   0     -32.673  18.333   0.630  0.00  0.00     0.167 HD
ENDBRANCH  39  41
ENDBRANCH  38  39
ENDBRANCH  31  38
BRANCH  27  43
ATOM     43  C   UNK d   0     -36.243  19.481  -3.840  0.00  0.00     0.052 C 
BRANCH  43  44
ATOM     44  C   UNK d   0     -35.597  20.794  -4.145  0.00  0.00     0.115 C 
BRANCH  44  45
ATOM     45  C   UNK d   0     -34.139  20.611  -3.923  0.00  0.00     0.139 C 
ATOM     46  O   UNK d   0     -33.443  21.631  -3.692  0.00  0.00    -0.650 OA
BRANCH  45  47
ATOM     47  O   UNK d   0     -33.527  19.377  -3.954  0.00  0.00    -0.776 OA
ATOM     48  H   UNK d   0     -32.819  19.120  -4.661  0.00  0.00     0.167 HD
ENDBRANCH  45  47
ENDBRANCH  44  45
ENDBRANCH  43  44
ENDBRANCH  27  43
BRANCH  24  49
ATOM     49  C   UNK d   0     -40.722  22.071  -5.811  0.00  0.00     0.052 C 
BRANCH  49  50
ATOM     50  C   UNK d   0     -39.824  21.235  -6.687  0.00  0.00     0.115 C 
BRANCH  50  51
ATOM     51  C   UNK d   0     -40.469  20.355  -7.652  0.00  0.00     0.139 C 
ATOM     52  O   UNK d   0     -39.883  19.374  -8.169  0.00  0.00    -0.650 OA
BRANCH  51  53
ATOM     53  O   UNK d   0     -41.781  20.594  -8.029  0.00  0.00    -0.776 OA
ATOM     54  H   UNK d   0     -42.501  20.497  -7.335  0.00  0.00     0.167 HD
ENDBRANCH  51  53
ENDBRANCH  50  51
ENDBRANCH  49  50
ENDBRANCH  24  49
BRANCH  21  55
ATOM     55  C   UNK d   0     -43.617  21.190  -5.189  0.00  0.00     0.151 C 
BRANCH  55  56
ATOM     56  C   UNK d   0     -44.477  22.194  -4.545  0.00  0.00     0.143 C 
ATOM     57  O   UNK d   0     -44.249  23.418  -4.608  0.00  0.00    -0.650 OA
BRANCH  56  58
ATOM     58  O   UNK d   0     -45.589  21.739  -3.838  0.00  0.00    -0.776 OA
ATOM     59  H   UNK d   0     -45.729  22.182  -2.912  0.00  0.00     0.167 HD
ENDBRANCH  56  58
ENDBRANCH  55  56
ENDBRANCH  21  55
BRANCH  18  60
ATOM     60  C   UNK d   0     -45.464  19.987  -0.295  0.00  0.00     0.151 C 
BRANCH  60  61
ATOM     61  C   UNK d   0     -46.403  19.099  -0.998  0.00  0.00     0.143 C 
ATOM     62  O   UNK d   0     -46.779  17.983  -0.638  0.00  0.00    -0.650 OA
BRANCH  61  63
ATOM     63  O   UNK d   0     -46.913  19.606  -2.217  0.00  0.00    -0.776 OA
ATOM     64  H   UNK d   0     -46.301  19.975  -2.922  0.00  0.00     0.167 HD
ENDBRANCH  61  63
ENDBRANCH  60  61
ENDBRANCH  18  60
BRANCH  14  65
ATOM     65  C   UNK d   0     -44.647  18.500   2.220  0.00  0.00     0.052 C 
BRANCH  65  66
ATOM     66  C   UNK d   0     -44.005  19.095   3.423  0.00  0.00     0.115 C 
BRANCH  66  67
ATOM     67  C   UNK d   0     -44.467  18.728   4.732  0.00  0.00     0.139 C 
ATOM     68  O   UNK d   0     -44.922  19.650   5.504  0.00  0.00    -0.650 OA
BRANCH  67  69
ATOM     69  O   UNK d   0     -44.491  17.456   5.303  0.00  0.00    -0.776 OA
ATOM     70  H   UNK d   0     -44.840  17.405   6.271  0.00  0.00     0.167 HD
ENDBRANCH  67  69
ENDBRANCH  66  67
ENDBRANCH  65  66
ENDBRANCH  14  65
ENDBRANCH   6   7
ENDBRANCH   5   6
ENDBRANCH   2   5
TORSDOF 28
ENDMDL
MODEL 7
REMARK VINA RESULT:      -6.6     19.289     22.217
REMARK  28 active torsions:
REMARK  status: ('A' for Active; 'I' for Inactive)
REMARK    1  A    between atoms: C_2  and  O_3 
REMARK    2  A    between atoms: C_2  and  C_4 
REMARK    3  A    between atoms: C_4  and  C_5 
REMARK    4  A    between atoms: C_5  and  C_6 
REMARK    5  A    between atoms: C_7  and  C_8 
REMARK    6  A    between atoms: C_8  and  C_9 
REMARK    7  A    between atoms: C_9  and  O_11 
REMARK    8  A    between atoms: C_28  and  C_29 
REMARK    9  A    between atoms: C_29  and  C_30 
REMARK   10  A    between atoms: C_30  and  O_32 
REMARK   11  A    between atoms: C_33  and  C_34 
REMARK   12  A    between atoms: C_34  and  C_35 
REMARK   13  A    between atoms: C_35  and  C_36 
REMARK   14  A    between atoms: C_36  and  O_38 
REMARK   15  A    between atoms: C_39  and  C_40 
REMARK   16  A    between atoms: C_40  and  C_41 
REMARK   17  A    between atoms: C_41  and  C_42 
REMARK   18  A    between atoms: C_42  and  O_44 
REMARK   19  A    between atoms: C_45  and  C_46 
REMARK   20  A    between atoms: C_46  and  C_47 
REMARK   21  A    between atoms: C_47  and  O_49 
REMARK   22  A    between atoms: C_50  and  C_51 
REMARK   23  A    between atoms: C_51  and  C_52 
REMARK   24  A    between atoms: C_52  and  O_54 
REMARK   25  A    between atoms: C_55  and  C_56 
REMARK   26  A    between atoms: C_56  and  C_57 
REMARK   27  A    between atoms: C_57  and  C_58 
REMARK   28  A    between atoms: C_58  and  O_60 
ROOT
ATOM      1  O   UNK d   0     -44.552  23.245  -4.167  0.00  0.00    -0.650 OA
ATOM      2  C   UNK d   0     -43.969  22.345  -4.811  0.00  0.00     0.139 C 
ENDROOT
BRANCH   2   3
ATOM      3  O   UNK d   0     -44.586  21.128  -4.979  0.00  0.00    -0.776 OA
ATOM      4  H   UNK d   0     -44.222  20.438  -5.639  0.00  0.00     0.167 HD
ENDBRANCH   2   3
BRANCH   2   5
ATOM      5  C   UNK d   0     -42.618  22.593  -5.389  0.00  0.00     0.115 C 
BRANCH   5   6
ATOM      6  C   UNK d   0     -42.104  21.348  -6.059  0.00  0.00     0.052 C 
BRANCH   6   7
ATOM      7  C   UNK d   0     -40.856  20.808  -5.402  0.00  0.00    -0.020 A 
ATOM      8  C   UNK d   0     -39.661  20.703  -5.924  0.00  0.00    -0.011 A 
ATOM      9  C   UNK d   0     -38.787  20.119  -4.920  0.00  0.00     0.067 A 
ATOM     10  C   UNK d   0     -37.428  19.775  -4.836  0.00  0.00     0.062 C 
ATOM     11  N   UNK d   0     -39.534  19.895  -3.819  0.00  0.00    -0.248 NA
ATOM     12  C   UNK d   0     -36.699  19.477  -3.680  0.00  0.00     0.041 A 
ATOM     13  N   UNK d   0     -37.011  18.731  -2.603  0.00  0.00    -0.355 N 
ATOM     14  C   UNK d   0     -35.431  20.060  -3.506  0.00  0.00    -0.022 A 
ATOM     15  C   UNK d   0     -35.977  18.831  -1.748  0.00  0.00     0.042 A 
ATOM     16  H   UNK d   0     -37.936  18.129  -2.460  0.00  0.00     0.166 HD
ATOM     17  C   UNK d   0     -35.783  18.253  -0.477  0.00  0.00     0.062 C 
ATOM     18  C   UNK d   0     -34.967  19.657  -2.279  0.00  0.00    -0.013 A 
ATOM     19  C   UNK d   0     -36.663  18.156   0.570  0.00  0.00     0.067 A 
ATOM     20  N   UNK d   0     -37.938  18.465   0.318  0.00  0.00    -0.248 NA
ATOM     21  C   UNK d   0     -36.578  17.799   1.976  0.00  0.00    -0.011 A 
ATOM     22  C   UNK d   0     -38.693  18.336   1.459  0.00  0.00     0.066 A 
ATOM     23  C   UNK d   0     -40.050  18.591   1.331  0.00  0.00     0.062 C 
ATOM     24  C   UNK d   0     -37.769  17.911   2.492  0.00  0.00    -0.020 A 
ATOM     25  C   UNK d   0     -40.765  18.877   0.158  0.00  0.00     0.041 A 
ATOM     26  N   UNK d   0     -40.462  19.630  -0.906  0.00  0.00    -0.355 N 
ATOM     27  C   UNK d   0     -42.037  18.288  -0.018  0.00  0.00    -0.022 A 
ATOM     28  C   UNK d   0     -41.496  19.539  -1.757  0.00  0.00     0.042 A 
ATOM     29  H   UNK d   0     -39.537  20.243  -1.044  0.00  0.00     0.166 HD
ATOM     30  C   UNK d   0     -41.706  20.116  -3.019  0.00  0.00     0.062 C 
ATOM     31  C   UNK d   0     -42.506  18.701  -1.227  0.00  0.00    -0.013 A 
ATOM     32  C   UNK d   0     -40.789  20.288  -4.044  0.00  0.00     0.066 A 
BRANCH   8  33
ATOM     33  C   UNK d   0     -39.252  21.094  -7.285  0.00  0.00     0.151 C 
BRANCH  33  34
ATOM     34  C   UNK d   0     -39.715  20.147  -8.315  0.00  0.00     0.143 C 
ATOM     35  O   UNK d   0     -39.653  20.434  -9.519  0.00  0.00    -0.650 OA
BRANCH  34  36
ATOM     36  O   UNK d   0     -40.225  18.928  -7.931  0.00  0.00    -0.776 OA
ATOM     37  H   UNK d   0     -41.096  18.861  -7.386  0.00  0.00     0.167 HD
ENDBRANCH  34  36
ENDBRANCH  33  34
ENDBRANCH   8  33
BRANCH  31  38
ATOM     38  C   UNK d   0     -43.827  18.314  -1.850  0.00  0.00     0.151 C 
BRANCH  38  39
ATOM     39  C   UNK d   0     -44.797  19.388  -1.822  0.00  0.00     0.143 C 
ATOM     40  O   UNK d   0     -44.880  20.185  -0.870  0.00  0.00    -0.650 OA
BRANCH  39  41
ATOM     41  O   UNK d   0     -45.675  19.549  -2.893  0.00  0.00    -0.776 OA
ATOM     42  H   UNK d   0     -46.144  18.704  -3.236  0.00  0.00     0.167 HD
ENDBRANCH  39  41
ENDBRANCH  38  39
ENDBRANCH  31  38
BRANCH  27  43
ATOM     43  C   UNK d   0     -42.803  17.371   0.901  0.00  0.00     0.052 C 
BRANCH  43  44
ATOM     44  C   UNK d   0     -43.815  18.084   1.738  0.00  0.00     0.115 C 
BRANCH  44  45
ATOM     45  C   UNK d   0     -43.357  17.970   3.147  0.00  0.00     0.139 C 
ATOM     46  O   UNK d   0     -42.675  18.910   3.625  0.00  0.00    -0.650 OA
BRANCH  45  47
ATOM     47  O   UNK d   0     -43.655  16.886   3.944  0.00  0.00    -0.776 OA
ATOM     48  H   UNK d   0     -43.732  16.951   4.972  0.00  0.00     0.167 HD
ENDBRANCH  45  47
ENDBRANCH  44  45
ENDBRANCH  43  44
ENDBRANCH  27  43
BRANCH  24  49
ATOM     49  C   UNK d   0     -38.144  17.608   3.883  0.00  0.00     0.052 C 
BRANCH  49  50
ATOM     50  C   UNK d   0     -38.757  16.234   3.975  0.00  0.00     0.115 C 
BRANCH  50  51
ATOM     51  C   UNK d   0     -40.209  16.158   4.062  0.00  0.00     0.139 C 
ATOM     52  O   UNK d   0     -40.902  15.509   3.244  0.00  0.00    -0.650 OA
BRANCH  51  53
ATOM     53  O   UNK d   0     -40.870  16.824   5.082  0.00  0.00    -0.776 OA
ATOM     54  H   UNK d   0     -41.863  16.691   5.171  0.00  0.00     0.167 HD
ENDBRANCH  51  53
ENDBRANCH  50  51
ENDBRANCH  49  50
ENDBRANCH  24  49
BRANCH  21  55
ATOM     55  C   UNK d   0     -35.318  17.380   2.657  0.00  0.00     0.151 C 
BRANCH  55  56
ATOM     56  C   UNK d   0     -35.137  15.920   2.631  0.00  0.00     0.143 C 
ATOM     57  O   UNK d   0     -34.777  15.303   1.610  0.00  0.00    -0.650 OA
BRANCH  56  58
ATOM     58  O   UNK d   0     -35.382  15.215   3.808  0.00  0.00    -0.776 OA
ATOM     59  H   UNK d   0     -35.183  15.738   4.680  0.00  0.00     0.167 HD
ENDBRANCH  56  58
ENDBRANCH  55  56
ENDBRANCH  21  55
BRANCH  18  60
ATOM     60  C   UNK d   0     -33.640  20.056  -1.682  0.00  0.00     0.151 C 
BRANCH  60  61
ATOM     61  C   UNK d   0     -33.943  21.087  -0.678  0.00  0.00     0.143 C 
ATOM     62  O   UNK d   0     -34.319  22.240  -0.888  0.00  0.00    -0.650 OA
BRANCH  61  63
ATOM     63  O   UNK d   0     -33.776  20.683   0.669  0.00  0.00    -0.776 OA
ATOM     64  H   UNK d   0     -32.990  20.124   0.949  0.00  0.00     0.167 HD
ENDBRANCH  61  63
ENDBRANCH  60  61
ENDBRANCH  18  60
BRANCH  14  65
ATOM     65  C   UNK d   0     -34.591  20.879  -4.444  0.00  0.00     0.052 C 
BRANCH  65  66
ATOM     66  C   UNK d   0     -34.900  22.333  -4.382  0.00  0.00     0.115 C 
BRANCH  66  67
ATOM     67  C   UNK d   0     -33.867  23.266  -4.029  0.00  0.00     0.139 C 
ATOM     68  O   UNK d   0     -34.025  24.503  -4.341  0.00  0.00    -0.650 OA
BRANCH  67  69
ATOM     69  O   UNK d   0     -32.667  23.001  -3.369  0.00  0.00    -0.776 OA
ATOM     70  H   UNK d   0     -32.336  23.738  -2.730  0.00  0.00     0.167 HD
ENDBRANCH  67  69
ENDBRANCH  66  67
ENDBRANCH  65  66
ENDBRANCH  14  65
ENDBRANCH   6   7
ENDBRANCH   5   6
ENDBRANCH   2   5
TORSDOF 28
ENDMDL
MODEL 8
REMARK VINA RESULT:      -6.6     20.634     23.841
REMARK  28 active torsions:
REMARK  status: ('A' for Active; 'I' for Inactive)
REMARK    1  A    between atoms: C_2  and  O_3 
REMARK    2  A    between atoms: C_2  and  C_4 
REMARK    3  A    between atoms: C_4  and  C_5 
REMARK    4  A    between atoms: C_5  and  C_6 
REMARK    5  A    between atoms: C_7  and  C_8 
REMARK    6  A    between atoms: C_8  and  C_9 
REMARK    7  A    between atoms: C_9  and  O_11 
REMARK    8  A    between atoms: C_28  and  C_29 
REMARK    9  A    between atoms: C_29  and  C_30 
REMARK   10  A    between atoms: C_30  and  O_32 
REMARK   11  A    between atoms: C_33  and  C_34 
REMARK   12  A    between atoms: C_34  and  C_35 
REMARK   13  A    between atoms: C_35  and  C_36 
REMARK   14  A    between atoms: C_36  and  O_38 
REMARK   15  A    between atoms: C_39  and  C_40 
REMARK   16  A    between atoms: C_40  and  C_41 
REMARK   17  A    between atoms: C_41  and  C_42 
REMARK   18  A    between atoms: C_42  and  O_44 
REMARK   19  A    between atoms: C_45  and  C_46 
REMARK   20  A    between atoms: C_46  and  C_47 
REMARK   21  A    between atoms: C_47  and  O_49 
REMARK   22  A    between atoms: C_50  and  C_51 
REMARK   23  A    between atoms: C_51  and  C_52 
REMARK   24  A    between atoms: C_52  and  O_54 
REMARK   25  A    between atoms: C_55  and  C_56 
REMARK   26  A    between atoms: C_56  and  C_57 
REMARK   27  A    between atoms: C_57  and  C_58 
REMARK   28  A    between atoms: C_58  and  O_60 
ROOT
ATOM      1  O   UNK d   0     -40.316  12.414   4.639  0.00  0.00    -0.650 OA
ATOM      2  C   UNK d   0     -39.682  13.440   4.308  0.00  0.00     0.139 C 
ENDROOT
BRANCH   2   3
ATOM      3  O   UNK d   0     -38.340  13.523   4.592  0.00  0.00    -0.776 OA
ATOM      4  H   UNK d   0     -37.649  13.024   4.028  0.00  0.00     0.167 HD
ENDBRANCH   2   3
BRANCH   2   5
ATOM      5  C   UNK d   0     -40.379  14.559   3.614  0.00  0.00     0.115 C 
BRANCH   5   6
ATOM      6  C   UNK d   0     -40.008  15.873   4.248  0.00  0.00     0.052 C 
BRANCH   6   7
ATOM      7  C   UNK d   0     -39.504  16.881   3.243  0.00  0.00    -0.020 A 
ATOM      8  C   UNK d   0     -38.317  17.430   3.190  0.00  0.00    -0.011 A 
ATOM      9  C   UNK d   0     -38.300  18.342   2.058  0.00  0.00     0.067 A 
ATOM     10  C   UNK d   0     -37.359  19.194   1.459  0.00  0.00     0.062 C 
ATOM     11  N   UNK d   0     -39.519  18.290   1.482  0.00  0.00    -0.248 NA
ATOM     12  C   UNK d   0     -37.440  19.792   0.197  0.00  0.00     0.041 A 
ATOM     13  N   UNK d   0     -38.467  20.390  -0.436  0.00  0.00    -0.355 N 
ATOM     14  C   UNK d   0     -36.313  19.761  -0.645  0.00  0.00    -0.022 A 
ATOM     15  C   UNK d   0     -38.023  20.732  -1.661  0.00  0.00     0.042 A 
ATOM     16  H   UNK d   0     -39.479  20.585  -0.019  0.00  0.00     0.166 HD
ATOM     17  C   UNK d   0     -38.683  21.381  -2.723  0.00  0.00     0.062 C 
ATOM     18  C   UNK d   0     -36.677  20.353  -1.828  0.00  0.00    -0.013 A 
ATOM     19  C   UNK d   0     -39.941  21.158  -3.222  0.00  0.00     0.067 A 
ATOM     20  N   UNK d   0     -40.743  20.365  -2.506  0.00  0.00    -0.248 NA
ATOM     21  C   UNK d   0     -40.684  21.564  -4.403  0.00  0.00    -0.011 A 
ATOM     22  C   UNK d   0     -41.957  20.223  -3.134  0.00  0.00     0.066 A 
ATOM     23  C   UNK d   0     -42.904  19.452  -2.477  0.00  0.00     0.062 C 
ATOM     24  C   UNK d   0     -41.861  21.011  -4.347  0.00  0.00    -0.020 A 
ATOM     25  C   UNK d   0     -42.807  18.871  -1.203  0.00  0.00     0.041 A 
ATOM     26  N   UNK d   0     -41.791  18.263  -0.580  0.00  0.00    -0.355 N 
ATOM     27  C   UNK d   0     -43.938  18.907  -0.358  0.00  0.00    -0.022 A 
ATOM     28  C   UNK d   0     -42.234  17.913   0.638  0.00  0.00     0.042 A 
ATOM     29  H   UNK d   0     -40.777  18.059  -1.004  0.00  0.00     0.166 HD
ATOM     30  C   UNK d   0     -41.591  17.260   1.701  0.00  0.00     0.062 C 
ATOM     31  C   UNK d   0     -43.583  18.304   0.810  0.00  0.00    -0.013 A 
ATOM     32  C   UNK d   0     -40.290  17.429   2.148  0.00  0.00     0.066 A 
BRANCH   8  33
ATOM     33  C   UNK d   0     -37.188  17.186   4.105  0.00  0.00     0.151 C 
BRANCH  33  34
ATOM     34  C   UNK d   0     -36.206  16.231   3.560  0.00  0.00     0.143 C 
ATOM     35  O   UNK d   0     -36.136  15.073   3.994  0.00  0.00    -0.650 OA
BRANCH  34  36
ATOM     36  O   UNK d   0     -35.357  16.636   2.556  0.00  0.00    -0.776 OA
ATOM     37  H   UNK d   0     -35.678  16.706   1.580  0.00  0.00     0.167 HD
ENDBRANCH  34  36
ENDBRANCH  33  34
ENDBRANCH   8  33
BRANCH  31  38
ATOM     38  C   UNK d   0     -44.466  18.120   2.022  0.00  0.00     0.151 C 
BRANCH  38  39
ATOM     39  C   UNK d   0     -44.520  19.298   2.862  0.00  0.00     0.143 C 
ATOM     40  O   UNK d   0     -45.593  19.775   3.271  0.00  0.00    -0.650 OA
BRANCH  39  41
ATOM     41  O   UNK d   0     -43.334  19.930   3.233  0.00  0.00    -0.776 OA
ATOM     42  H   UNK d   0     -43.333  20.418   4.134  0.00  0.00     0.167 HD
ENDBRANCH  39  41
ENDBRANCH  38  39
ENDBRANCH  31  38
BRANCH  27  43
ATOM     43  C   UNK d   0     -45.309  19.478  -0.615  0.00  0.00     0.052 C 
BRANCH  43  44
ATOM     44  C   UNK d   0     -46.189  18.568  -1.409  0.00  0.00     0.115 C 
BRANCH  44  45
ATOM     45  C   UNK d   0     -46.974  19.431  -2.328  0.00  0.00     0.139 C 
ATOM     46  O   UNK d   0     -47.330  18.950  -3.433  0.00  0.00    -0.650 OA
BRANCH  45  47
ATOM     47  O   UNK d   0     -47.329  20.726  -2.017  0.00  0.00    -0.776 OA
ATOM     48  H   UNK d   0     -46.842  21.549  -2.406  0.00  0.00     0.167 HD
ENDBRANCH  45  47
ENDBRANCH  44  45
ENDBRANCH  43  44
ENDBRANCH  27  43
BRANCH  24  49
ATOM     49  C   UNK d   0     -42.950  21.186  -5.324  0.00  0.00     0.052 C 
BRANCH  49  50
ATOM     50  C   UNK d   0     -43.966  22.171  -4.805  0.00  0.00     0.115 C 
BRANCH  50  51
ATOM     51  C   UNK d   0     -45.359  21.744  -4.791  0.00  0.00     0.139 C 
ATOM     52  O   UNK d   0     -46.254  22.375  -4.180  0.00  0.00    -0.650 OA
BRANCH  51  53
ATOM     53  O   UNK d   0     -45.731  20.596  -5.473  0.00  0.00    -0.776 OA
ATOM     54  H   UNK d   0     -46.117  20.695  -6.396  0.00  0.00     0.167 HD
ENDBRANCH  51  53
ENDBRANCH  50  51
ENDBRANCH  49  50
ENDBRANCH  24  49
BRANCH  21  55
ATOM     55  C   UNK d   0     -40.142  22.467  -5.461  0.00  0.00     0.151 C 
BRANCH  55  56
ATOM     56  C   UNK d   0     -39.161  21.784  -6.319  0.00  0.00     0.143 C 
ATOM     57  O   UNK d   0     -39.492  21.001  -7.230  0.00  0.00    -0.650 OA
BRANCH  56  58
ATOM     58  O   UNK d   0     -37.810  22.036  -6.088  0.00  0.00    -0.776 OA
ATOM     59  H   UNK d   0     -37.618  22.791  -5.405  0.00  0.00     0.167 HD
ENDBRANCH  56  58
ENDBRANCH  55  56
ENDBRANCH  21  55
BRANCH  18  60
ATOM     60  C   UNK d   0     -35.772  20.526  -3.023  0.00  0.00     0.151 C 
BRANCH  60  61
ATOM     61  C   UNK d   0     -36.096  19.422  -3.938  0.00  0.00     0.143 C 
ATOM     62  O   UNK d   0     -36.917  19.435  -4.856  0.00  0.00    -0.650 OA
BRANCH  61  63
ATOM     63  O   UNK d   0     -35.372  18.225  -3.720  0.00  0.00    -0.776 OA
ATOM     64  H   UNK d   0     -35.269  17.843  -2.796  0.00  0.00     0.167 HD
ENDBRANCH  61  63
ENDBRANCH  60  61
ENDBRANCH  18  60
BRANCH  14  65
ATOM     65  C   UNK d   0     -34.905  19.307  -0.382  0.00  0.00     0.052 C 
BRANCH  65  66
ATOM     66  C   UNK d   0     -34.072  20.348   0.277  0.00  0.00     0.115 C 
BRANCH  66  67
ATOM     67  C   UNK d   0     -33.584  20.130   1.610  0.00  0.00     0.139 C 
ATOM     68  O   UNK d   0     -32.993  21.100   2.213  0.00  0.00    -0.650 OA
BRANCH  67  69
ATOM     69  O   UNK d   0     -33.666  18.963   2.369  0.00  0.00    -0.776 OA
ATOM     70  H   UNK d   0     -33.556  18.081   1.847  0.00  0.00     0.167 HD
ENDBRANCH  67  69
ENDBRANCH  66  67
ENDBRANCH  65  66
ENDBRANCH  14  65
ENDBRANCH   6   7
ENDBRANCH   5   6
ENDBRANCH   2   5
TORSDOF 28
ENDMDL
MODEL 9
REMARK VINA RESULT:      -6.5     20.787     23.620
REMARK  28 active torsions:
REMARK  status: ('A' for Active; 'I' for Inactive)
REMARK    1  A    between atoms: C_2  and  O_3 
REMARK    2  A    between atoms: C_2  and  C_4 
REMARK    3  A    between atoms: C_4  and  C_5 
REMARK    4  A    between atoms: C_5  and  C_6 
REMARK    5  A    between atoms: C_7  and  C_8 
REMARK    6  A    between atoms: C_8  and  C_9 
REMARK    7  A    between atoms: C_9  and  O_11 
REMARK    8  A    between atoms: C_28  and  C_29 
REMARK    9  A    between atoms: C_29  and  C_30 
REMARK   10  A    between atoms: C_30  and  O_32 
REMARK   11  A    between atoms: C_33  and  C_34 
REMARK   12  A    between atoms: C_34  and  C_35 
REMARK   13  A    between atoms: C_35  and  C_36 
REMARK   14  A    between atoms: C_36  and  O_38 
REMARK   15  A    between atoms: C_39  and  C_40 
REMARK   16  A    between atoms: C_40  and  C_41 
REMARK   17  A    between atoms: C_41  and  C_42 
REMARK   18  A    between atoms: C_42  and  O_44 
REMARK   19  A    between atoms: C_45  and  C_46 
REMARK   20  A    between atoms: C_46  and  C_47 
REMARK   21  A    between atoms: C_47  and  O_49 
REMARK   22  A    between atoms: C_50  and  C_51 
REMARK   23  A    between atoms: C_51  and  C_52 
REMARK   24  A    between atoms: C_52  and  O_54 
REMARK   25  A    between atoms: C_55  and  C_56 
REMARK   26  A    between atoms: C_56  and  C_57 
REMARK   27  A    between atoms: C_57  and  C_58 
REMARK   28  A    between atoms: C_58  and  O_60 
ROOT
ATOM      1  O   UNK d   0     -46.849  21.466  -5.155  0.00  0.00    -0.650 OA
ATOM      2  C   UNK d   0     -45.633  21.248  -4.961  0.00  0.00     0.139 C 
ENDROOT
BRANCH   2   3
ATOM      3  O   UNK d   0     -44.841  20.868  -6.018  0.00  0.00    -0.776 OA
ATOM      4  H   UNK d   0     -43.846  20.673  -5.888  0.00  0.00     0.167 HD
ENDBRANCH   2   3
BRANCH   2   5
ATOM      5  C   UNK d   0     -45.053  21.399  -3.597  0.00  0.00     0.115 C 
BRANCH   5   6
ATOM      6  C   UNK d   0     -45.366  20.185  -2.764  0.00  0.00     0.052 C 
BRANCH   6   7
ATOM      7  C   UNK d   0     -44.369  19.971  -1.651  0.00  0.00    -0.020 A 
ATOM      8  C   UNK d   0     -44.597  19.977  -0.363  0.00  0.00    -0.011 A 
ATOM      9  C   UNK d   0     -43.334  19.735   0.315  0.00  0.00     0.067 A 
ATOM     10  C   UNK d   0     -42.908  19.603   1.645  0.00  0.00     0.062 C 
ATOM     11  N   UNK d   0     -42.389  19.599  -0.639  0.00  0.00    -0.248 NA
ATOM     12  C   UNK d   0     -41.686  19.092   2.097  0.00  0.00     0.041 A 
ATOM     13  N   UNK d   0     -40.429  19.279   1.654  0.00  0.00    -0.355 N 
ATOM     14  C   UNK d   0     -41.686  18.171   3.160  0.00  0.00    -0.022 A 
ATOM     15  C   UNK d   0     -39.631  18.496   2.404  0.00  0.00     0.042 A 
ATOM     16  H   UNK d   0     -40.109  19.967   0.840  0.00  0.00     0.166 HD
ATOM     17  C   UNK d   0     -38.235  18.310   2.365  0.00  0.00     0.062 C 
ATOM     18  C   UNK d   0     -40.384  17.785   3.359  0.00  0.00    -0.013 A 
ATOM     19  C   UNK d   0     -37.419  18.131   1.278  0.00  0.00     0.067 A 
ATOM     20  N   UNK d   0     -37.956  18.350   0.075  0.00  0.00    -0.248 NA
ATOM     21  C   UNK d   0     -36.039  17.726   1.062  0.00  0.00    -0.011 A 
ATOM     22  C   UNK d   0     -37.029  18.117  -0.911  0.00  0.00     0.066 A 
ATOM     23  C   UNK d   0     -37.446  18.345  -2.214  0.00  0.00     0.062 C 
ATOM     24  C   UNK d   0     -35.819  17.716  -0.221  0.00  0.00    -0.020 A 
ATOM     25  C   UNK d   0     -38.673  18.871  -2.646  0.00  0.00     0.041 A 
ATOM     26  N   UNK d   0     -39.925  18.673  -2.216  0.00  0.00    -0.355 N 
ATOM     27  C   UNK d   0     -38.672  19.799  -3.711  0.00  0.00    -0.022 A 
ATOM     28  C   UNK d   0     -40.723  19.447  -2.968  0.00  0.00     0.042 A 
ATOM     29  H   UNK d   0     -40.246  17.974  -1.405  0.00  0.00     0.166 HD
ATOM     30  C   UNK d   0     -42.114  19.634  -2.947  0.00  0.00     0.062 C 
ATOM     31  C   UNK d   0     -39.965  20.169  -3.921  0.00  0.00    -0.013 A 
ATOM     32  C   UNK d   0     -42.947  19.730  -1.843  0.00  0.00     0.066 A 
BRANCH   8  33
ATOM     33  C   UNK d   0     -45.894  20.194   0.305  0.00  0.00     0.151 C 
BRANCH  33  34
ATOM     34  C   UNK d   0     -46.466  18.953   0.857  0.00  0.00     0.143 C 
ATOM     35  O   UNK d   0     -46.344  18.675   2.059  0.00  0.00    -0.650 OA
BRANCH  34  36
ATOM     36  O   UNK d   0     -47.144  18.093   0.024  0.00  0.00    -0.776 OA
ATOM     37  H   UNK d   0     -48.155  18.195  -0.140  0.00  0.00     0.167 HD
ENDBRANCH  34  36
ENDBRANCH  33  34
ENDBRANCH   8  33
BRANCH  31  38
ATOM     38  C   UNK d   0     -40.453  21.157  -4.954  0.00  0.00     0.151 C 
BRANCH  38  39
ATOM     39  C   UNK d   0     -40.797  20.530  -6.213  0.00  0.00     0.143 C 
ATOM     40  O   UNK d   0     -40.032  19.741  -6.794  0.00  0.00    -0.650 OA
BRANCH  39  41
ATOM     41  O   UNK d   0     -42.027  20.812  -6.806  0.00  0.00    -0.776 OA
ATOM     42  H   UNK d   0     -42.662  21.424  -6.283  0.00  0.00     0.167 HD
ENDBRANCH  39  41
ENDBRANCH  38  39
ENDBRANCH  31  38
BRANCH  27  43
ATOM     43  C   UNK d   0     -37.514  20.331  -4.517  0.00  0.00     0.052 C 
BRANCH  43  44
ATOM     44  C   UNK d   0     -36.818  21.480  -3.864  0.00  0.00     0.115 C 
BRANCH  44  45
ATOM     45  C   UNK d   0     -36.625  22.513  -4.915  0.00  0.00     0.139 C 
ATOM     46  O   UNK d   0     -35.454  22.757  -5.298  0.00  0.00    -0.650 OA
BRANCH  45  47
ATOM     47  O   UNK d   0     -37.673  23.203  -5.486  0.00  0.00    -0.776 OA
ATOM     48  H   UNK d   0     -38.122  22.912  -6.369  0.00  0.00     0.167 HD
ENDBRANCH  45  47
ENDBRANCH  44  45
ENDBRANCH  43  44
ENDBRANCH  27  43
BRANCH  24  49
ATOM     49  C   UNK d   0     -34.540  17.401  -0.880  0.00  0.00     0.052 C 
BRANCH  49  50
ATOM     50  C   UNK d   0     -33.955  18.640  -1.508  0.00  0.00     0.115 C 
BRANCH  50  51
ATOM     51  C   UNK d   0     -33.981  18.724  -2.962  0.00  0.00     0.139 C 
ATOM     52  O   UNK d   0     -33.582  19.735  -3.588  0.00  0.00    -0.650 OA
BRANCH  51  53
ATOM     53  O   UNK d   0     -34.465  17.657  -3.703  0.00  0.00    -0.776 OA
ATOM     54  H   UNK d   0     -33.966  17.390  -4.534  0.00  0.00     0.167 HD
ENDBRANCH  51  53
ENDBRANCH  50  51
ENDBRANCH  49  50
ENDBRANCH  24  49
BRANCH  21  55
ATOM     55  C   UNK d   0     -35.084  17.396   2.161  0.00  0.00     0.151 C 
BRANCH  55  56
ATOM     56  C   UNK d   0     -35.147  15.976   2.539  0.00  0.00     0.143 C 
ATOM     57  O   UNK d   0     -34.407  15.110   2.033  0.00  0.00    -0.650 OA
BRANCH  56  58
ATOM     58  O   UNK d   0     -36.081  15.602   3.504  0.00  0.00    -0.776 OA
ATOM     59  H   UNK d   0     -37.067  15.805   3.259  0.00  0.00     0.167 HD
ENDBRANCH  56  58
ENDBRANCH  55  56
ENDBRANCH  21  55
BRANCH  18  60
ATOM     60  C   UNK d   0     -39.924  16.797   4.402  0.00  0.00     0.151 C 
BRANCH  60  61
ATOM     61  C   UNK d   0     -40.443  15.488   3.975  0.00  0.00     0.143 C 
ATOM     62  O   UNK d   0     -40.683  15.126   2.823  0.00  0.00    -0.650 OA
BRANCH  61  63
ATOM     63  O   UNK d   0     -40.683  14.565   5.020  0.00  0.00    -0.776 OA
ATOM     64  H   UNK d   0     -40.274  13.647   5.006  0.00  0.00     0.167 HD
ENDBRANCH  61  63
ENDBRANCH  60  61
ENDBRANCH  18  60
BRANCH  14  65
ATOM     65  C   UNK d   0     -42.798  17.708   4.058  0.00  0.00     0.052 C 
BRANCH  65  66
ATOM     66  C   UNK d   0     -42.985  18.579   5.249  0.00  0.00     0.115 C 
BRANCH  66  67
ATOM     67  C   UNK d   0     -44.307  18.813   5.759  0.00  0.00     0.139 C 
ATOM     68  O   UNK d   0     -44.455  18.981   7.025  0.00  0.00    -0.650 OA
BRANCH  67  69
ATOM     69  O   UNK d   0     -45.499  18.887   5.039  0.00  0.00    -0.776 OA
ATOM     70  H   UNK d   0     -46.226  18.208   5.307  0.00  0.00     0.167 HD
ENDBRANCH  67  69
ENDBRANCH  66  67
ENDBRANCH  65  66
ENDBRANCH  14  65
ENDBRANCH   6   7
ENDBRANCH   5   6
ENDBRANCH   2   5
TORSDOF 28
ENDMDL
MODEL 10
REMARK VINA RESULT:      -6.5     21.045     23.128
REMARK  28 active torsions:
REMARK  status: ('A' for Active; 'I' for Inactive)
REMARK    1  A    between atoms: C_2  and  O_3 
REMARK    2  A    between atoms: C_2  and  C_4 
REMARK    3  A    between atoms: C_4  and  C_5 
REMARK    4  A    between atoms: C_5  and  C_6 
REMARK    5  A    between atoms: C_7  and  C_8 
REMARK    6  A    between atoms: C_8  and  C_9 
REMARK    7  A    between atoms: C_9  and  O_11 
REMARK    8  A    between atoms: C_28  and  C_29 
REMARK    9  A    between atoms: C_29  and  C_30 
REMARK   10  A    between atoms: C_30  and  O_32 
REMARK   11  A    between atoms: C_33  and  C_34 
REMARK   12  A    between atoms: C_34  and  C_35 
REMARK   13  A    between atoms: C_35  and  C_36 
REMARK   14  A    between atoms: C_36  and  O_38 
REMARK   15  A    between atoms: C_39  and  C_40 
REMARK   16  A    between atoms: C_40  and  C_41 
REMARK   17  A    between atoms: C_41  and  C_42 
REMARK   18  A    between atoms: C_42  and  O_44 
REMARK   19  A    between atoms: C_45  and  C_46 
REMARK   20  A    between atoms: C_46  and  C_47 
REMARK   21  A    between atoms: C_47  and  O_49 
REMARK   22  A    between atoms: C_50  and  C_51 
REMARK   23  A    between atoms: C_51  and  C_52 
REMARK   24  A    between atoms: C_52  and  O_54 
REMARK   25  A    between atoms: C_55  and  C_56 
REMARK   26  A    between atoms: C_56  and  C_57 
REMARK   27  A    between atoms: C_57  and  C_58 
REMARK   28  A    between atoms: C_58  and  O_60 
ROOT
ATOM      1  O   UNK d   0     -44.075  19.630   6.327  0.00  0.00    -0.650 OA
ATOM      2  C   UNK d   0     -44.420  18.877   5.389  0.00  0.00     0.139 C 
ENDROOT
BRANCH   2   3
ATOM      3  O   UNK d   0     -44.466  17.520   5.596  0.00  0.00    -0.776 OA
ATOM      4  H   UNK d   0     -45.263  17.085   6.066  0.00  0.00     0.167 HD
ENDBRANCH   2   3
BRANCH   2   5
ATOM      5  C   UNK d   0     -44.774  19.453   4.060  0.00  0.00     0.115 C 
BRANCH   5   6
ATOM      6  C   UNK d   0     -45.073  18.349   3.082  0.00  0.00     0.052 C 
BRANCH   6   7
ATOM      7  C   UNK d   0     -44.219  18.429   1.838  0.00  0.00    -0.020 A 
ATOM      8  C   UNK d   0     -44.620  18.609   0.606  0.00  0.00    -0.011 A 
ATOM      9  C   UNK d   0     -43.444  18.607  -0.249  0.00  0.00     0.067 A 
ATOM     10  C   UNK d   0     -43.188  18.767  -1.620  0.00  0.00     0.062 C 
ATOM     11  N   UNK d   0     -42.371  18.413   0.547  0.00  0.00    -0.248 NA
ATOM     12  C   UNK d   0     -41.952  19.012  -2.228  0.00  0.00     0.041 A 
ATOM     13  N   UNK d   0     -40.735  18.482  -2.006  0.00  0.00    -0.355 N 
ATOM     14  C   UNK d   0     -41.867  20.009  -3.217  0.00  0.00    -0.022 A 
ATOM     15  C   UNK d   0     -39.877  19.122  -2.823  0.00  0.00     0.042 A 
ATOM     16  H   UNK d   0     -40.489  17.658  -1.300  0.00  0.00     0.166 HD
ATOM     17  C   UNK d   0     -38.488  18.960  -2.998  0.00  0.00     0.062 C 
ATOM     18  C   UNK d   0     -40.550  20.087  -3.598  0.00  0.00    -0.013 A 
ATOM     19  C   UNK d   0     -37.509  18.825  -2.046  0.00  0.00     0.067 A 
ATOM     20  N   UNK d   0     -37.912  18.621  -0.789  0.00  0.00    -0.248 NA
ATOM     21  C   UNK d   0     -36.056  18.861  -2.030  0.00  0.00    -0.011 A 
ATOM     22  C   UNK d   0     -36.828  18.522   0.048  0.00  0.00     0.066 A 
ATOM     23  C   UNK d   0     -37.102  18.270   1.384  0.00  0.00     0.062 C 
ATOM     24  C   UNK d   0     -35.664  18.687  -0.801  0.00  0.00    -0.020 A 
ATOM     25  C   UNK d   0     -38.350  18.014   1.973  0.00  0.00     0.041 A 
ATOM     26  N   UNK d   0     -39.558  18.551   1.763  0.00  0.00    -0.355 N 
ATOM     27  C   UNK d   0     -38.436  17.010   2.962  0.00  0.00    -0.022 A 
ATOM     28  C   UNK d   0     -40.413  17.920   2.583  0.00  0.00     0.042 A 
ATOM     29  H   UNK d   0     -39.800  19.386   1.061  0.00  0.00     0.166 HD
ATOM     30  C   UNK d   0     -41.795  18.078   2.773  0.00  0.00     0.062 C 
ATOM     31  C   UNK d   0     -39.738  16.944   3.353  0.00  0.00    -0.013 A 
ATOM     32  C   UNK d   0     -42.770  18.299   1.814  0.00  0.00     0.066 A 
BRANCH   8  33
ATOM     33  C   UNK d   0     -46.009  18.781   0.143  0.00  0.00     0.151 C 
BRANCH  33  34
ATOM     34  C   UNK d   0     -46.250  20.104  -0.461  0.00  0.00     0.143 C 
ATOM     35  O   UNK d   0     -46.612  20.208  -1.642  0.00  0.00    -0.650 OA
BRANCH  34  36
ATOM     36  O   UNK d   0     -46.068  21.236   0.298  0.00  0.00    -0.776 OA
ATOM     37  H   UNK d   0     -45.167  21.434   0.755  0.00  0.00     0.167 HD
ENDBRANCH  34  36
ENDBRANCH  33  34
ENDBRANCH   8  33
BRANCH  31  38
ATOM     38  C   UNK d   0     -40.312  16.002   4.386  0.00  0.00     0.151 C 
BRANCH  38  39
ATOM     39  C   UNK d   0     -40.700  14.725   3.827  0.00  0.00     0.143 C 
ATOM     40  O   UNK d   0     -41.750  14.575   3.177  0.00  0.00    -0.650 OA
BRANCH  39  41
ATOM     41  O   UNK d   0     -39.878  13.615   4.016  0.00  0.00    -0.776 OA
ATOM     42  H   UNK d   0     -39.815  13.243   4.969  0.00  0.00     0.167 HD
ENDBRANCH  39  41
ENDBRANCH  38  39
ENDBRANCH  31  38
BRANCH  27  43
ATOM     43  C   UNK d   0     -37.350  16.135   3.537  0.00  0.00     0.052 C 
BRANCH  43  44
ATOM     44  C   UNK d   0     -36.291  16.904   4.257  0.00  0.00     0.115 C 
BRANCH  44  45
ATOM     45  C   UNK d   0     -35.028  16.135   4.101  0.00  0.00     0.139 C 
ATOM     46  O   UNK d   0     -35.110  14.909   3.842  0.00  0.00    -0.650 OA
BRANCH  45  47
ATOM     47  O   UNK d   0     -33.783  16.712   4.223  0.00  0.00    -0.776 OA
ATOM     48  H   UNK d   0     -33.598  17.522   4.837  0.00  0.00     0.167 HD
ENDBRANCH  45  47
ENDBRANCH  44  45
ENDBRANCH  43  44
ENDBRANCH  27  43
BRANCH  24  49
ATOM     49  C   UNK d   0     -34.268  18.615  -0.337  0.00  0.00     0.052 C 
BRANCH  49  50
ATOM     50  C   UNK d   0     -34.157  17.698   0.854  0.00  0.00     0.115 C 
BRANCH  50  51
ATOM     51  C   UNK d   0     -33.984  16.277   0.585  0.00  0.00     0.139 C 
ATOM     52  O   UNK d   0     -34.915  15.549   0.167  0.00  0.00    -0.650 OA
BRANCH  51  53
ATOM     53  O   UNK d   0     -32.748  15.684   0.795  0.00  0.00    -0.776 OA
ATOM     54  H   UNK d   0     -32.723  14.771   1.214  0.00  0.00     0.167 HD
ENDBRANCH  51  53
ENDBRANCH  50  51
ENDBRANCH  49  50
ENDBRANCH  24  49
BRANCH  21  55
ATOM     55  C   UNK d   0     -35.212  19.061  -3.245  0.00  0.00     0.151 C 
BRANCH  55  56
ATOM     56  C   UNK d   0     -35.319  20.430  -3.772  0.00  0.00     0.143 C 
ATOM     57  O   UNK d   0     -35.334  21.437  -3.037  0.00  0.00    -0.650 OA
BRANCH  56  58
ATOM     58  O   UNK d   0     -35.407  20.588  -5.154  0.00  0.00    -0.776 OA
ATOM     59  H   UNK d   0     -34.812  19.945  -5.705  0.00  0.00     0.167 HD
ENDBRANCH  56  58
ENDBRANCH  55  56
ENDBRANCH  21  55
BRANCH  18  60
ATOM     60  C   UNK d   0     -40.005  21.036  -4.636  0.00  0.00     0.151 C 
BRANCH  60  61
ATOM     61  C   UNK d   0     -40.079  20.319  -5.918  0.00  0.00     0.143 C 
ATOM     62  O   UNK d   0     -41.036  20.279  -6.692  0.00  0.00    -0.650 OA
BRANCH  61  63
ATOM     63  O   UNK d   0     -38.911  19.605  -6.277  0.00  0.00    -0.776 OA
ATOM     64  H   UNK d   0     -38.956  18.638  -6.546  0.00  0.00     0.167 HD
ENDBRANCH  61  63
ENDBRANCH  60  61
ENDBRANCH  18  60
BRANCH  14  65
ATOM     65  C   UNK d   0     -42.939  20.815  -3.892  0.00  0.00     0.052 C 
BRANCH  65  66
ATOM     66  C   UNK d   0     -43.070  22.189  -3.337  0.00  0.00     0.115 C 
BRANCH  66  67
ATOM     67  C   UNK d   0     -43.949  22.427  -2.227  0.00  0.00     0.139 C 
ATOM     68  O   UNK d   0     -43.498  22.244  -1.037  0.00  0.00    -0.650 OA
BRANCH  67  69
ATOM     69  O   UNK d   0     -45.278  22.847  -2.266  0.00  0.00    -0.776 OA
ATOM     70  H   UNK d   0     -45.622  23.324  -1.420  0.00  0.00     0.167 HD
ENDBRANCH  67  69
ENDBRANCH  66  67
ENDBRANCH  65  66
ENDBRANCH  14  65
ENDBRANCH   6   7
ENDBRANCH   5   6
ENDBRANCH   2   5
TORSDOF 28
ENDMDL
MODEL 11
REMARK VINA RESULT:      -6.5     19.863     22.313
REMARK  28 active torsions:
REMARK  status: ('A' for Active; 'I' for Inactive)
REMARK    1  A    between atoms: C_2  and  O_3 
REMARK    2  A    between atoms: C_2  and  C_4 
REMARK    3  A    between atoms: C_4  and  C_5 
REMARK    4  A    between atoms: C_5  and  C_6 
REMARK    5  A    between atoms: C_7  and  C_8 
REMARK    6  A    between atoms: C_8  and  C_9 
REMARK    7  A    between atoms: C_9  and  O_11 
REMARK    8  A    between atoms: C_28  and  C_29 
REMARK    9  A    between atoms: C_29  and  C_30 
REMARK   10  A    between atoms: C_30  and  O_32 
REMARK   11  A    between atoms: C_33  and  C_34 
REMARK   12  A    between atoms: C_34  and  C_35 
REMARK   13  A    between atoms: C_35  and  C_36 
REMARK   14  A    between atoms: C_36  and  O_38 
REMARK   15  A    between atoms: C_39  and  C_40 
REMARK   16  A    between atoms: C_40  and  C_41 
REMARK   17  A    between atoms: C_41  and  C_42 
REMARK   18  A    between atoms: C_42  and  O_44 
REMARK   19  A    between atoms: C_45  and  C_46 
REMARK   20  A    between atoms: C_46  and  C_47 
REMARK   21  A    between atoms: C_47  and  O_49 
REMARK   22  A    between atoms: C_50  and  C_51 
REMARK   23  A    between atoms: C_51  and  C_52 
REMARK   24  A    between atoms: C_52  and  O_54 
REMARK   25  A    between atoms: C_55  and  C_56 
REMARK   26  A    between atoms: C_56  and  C_57 
REMARK   27  A    between atoms: C_57  and  C_58 
REMARK   28  A    between atoms: C_58  and  O_60 
ROOT
ATOM      1  O   UNK d   0     -41.474  19.342   6.782  0.00  0.00    -0.650 OA
ATOM      2  C   UNK d   0     -41.163  18.277   6.204  0.00  0.00     0.139 C 
ENDROOT
BRANCH   2   3
ATOM      3  O   UNK d   0     -41.840  17.122   6.511  0.00  0.00    -0.776 OA
ATOM      4  H   UNK d   0     -42.668  16.839   5.983  0.00  0.00     0.167 HD
ENDBRANCH   2   3
BRANCH   2   5
ATOM      5  C   UNK d   0     -40.067  18.267   5.193  0.00  0.00     0.115 C 
BRANCH   5   6
ATOM      6  C   UNK d   0     -40.187  17.054   4.313  0.00  0.00     0.052 C 
BRANCH   6   7
ATOM      7  C   UNK d   0     -40.540  17.403   2.886  0.00  0.00    -0.020 A 
ATOM      8  C   UNK d   0     -41.697  17.260   2.293  0.00  0.00    -0.011 A 
ATOM      9  C   UNK d   0     -41.554  17.723   0.922  0.00  0.00     0.067 A 
ATOM     10  C   UNK d   0     -42.393  17.854  -0.195  0.00  0.00     0.062 C 
ATOM     11  N   UNK d   0     -40.275  18.125   0.767  0.00  0.00    -0.248 NA
ATOM     12  C   UNK d   0     -42.143  18.587  -1.361  0.00  0.00     0.041 A 
ATOM     13  N   UNK d   0     -41.032  18.706  -2.112  0.00  0.00    -0.355 N 
ATOM     14  C   UNK d   0     -43.159  19.411  -1.877  0.00  0.00    -0.022 A 
ATOM     15  C   UNK d   0     -41.315  19.591  -3.087  0.00  0.00     0.042 A 
ATOM     16  H   UNK d   0     -40.074  18.160  -1.968  0.00  0.00     0.166 HD
ATOM     17  C   UNK d   0     -40.514  20.076  -4.140  0.00  0.00     0.062 C 
ATOM     18  C   UNK d   0     -42.639  20.055  -2.972  0.00  0.00    -0.013 A 
ATOM     19  C   UNK d   0     -39.210  20.501  -4.107  0.00  0.00     0.067 A 
ATOM     20  N   UNK d   0     -38.521  20.252  -2.990  0.00  0.00    -0.248 NA
ATOM     21  C   UNK d   0     -38.319  21.208  -5.011  0.00  0.00    -0.011 A 
ATOM     22  C   UNK d   0     -37.244  20.746  -3.098  0.00  0.00     0.066 A 
ATOM     23  C   UNK d   0     -36.404  20.523  -2.018  0.00  0.00     0.062 C 
ATOM     24  C   UNK d   0     -37.171  21.352  -4.413  0.00  0.00    -0.020 A 
ATOM     25  C   UNK d   0     -36.669  19.773  -0.861  0.00  0.00     0.041 A 
ATOM     26  N   UNK d   0     -37.769  19.667  -0.106  0.00  0.00    -0.355 N 
ATOM     27  C   UNK d   0     -35.651  18.942  -0.347  0.00  0.00    -0.022 A 
ATOM     28  C   UNK d   0     -37.487  18.791   0.872  0.00  0.00     0.042 A 
ATOM     29  H   UNK d   0     -38.728  20.223  -0.246  0.00  0.00     0.166 HD
ATOM     30  C   UNK d   0     -38.271  18.306   1.931  0.00  0.00     0.062 C 
ATOM     31  C   UNK d   0     -36.160  18.317   0.750  0.00  0.00    -0.013 A 
ATOM     32  C   UNK d   0     -39.612  17.958   1.912  0.00  0.00     0.066 A 
BRANCH   8  33
ATOM     33  C   UNK d   0     -42.935  16.723   2.885  0.00  0.00     0.151 C 
BRANCH  33  34
ATOM     34  C   UNK d   0     -43.677  17.729   3.667  0.00  0.00     0.143 C 
ATOM     35  O   UNK d   0     -43.727  18.911   3.298  0.00  0.00    -0.650 OA
BRANCH  34  36
ATOM     36  O   UNK d   0     -44.320  17.348   4.822  0.00  0.00    -0.776 OA
ATOM     37  H   UNK d   0     -43.870  17.450   5.742  0.00  0.00     0.167 HD
ENDBRANCH  34  36
ENDBRANCH  33  34
ENDBRANCH   8  33
BRANCH  31  38
ATOM     38  C   UNK d   0     -35.436  17.318   1.622  0.00  0.00     0.151 C 
BRANCH  38  39
ATOM     39  C   UNK d   0     -34.413  17.928   2.445  0.00  0.00     0.143 C 
ATOM     40  O   UNK d   0     -34.230  19.158   2.476  0.00  0.00    -0.650 OA
BRANCH  39  41
ATOM     41  O   UNK d   0     -33.597  17.121   3.237  0.00  0.00    -0.776 OA
ATOM     42  H   UNK d   0     -34.057  16.594   3.986  0.00  0.00     0.167 HD
ENDBRANCH  39  41
ENDBRANCH  38  39
ENDBRANCH  31  38
BRANCH  27  43
ATOM     43  C   UNK d   0     -34.244  18.729  -0.847  0.00  0.00     0.052 C 
BRANCH  43  44
ATOM     44  C   UNK d   0     -34.133  17.621  -1.843  0.00  0.00     0.115 C 
BRANCH  44  45
ATOM     45  C   UNK d   0     -34.338  18.232  -3.182  0.00  0.00     0.139 C 
ATOM     46  O   UNK d   0     -33.535  19.122  -3.556  0.00  0.00    -0.650 OA
BRANCH  45  47
ATOM     47  O   UNK d   0     -35.363  17.858  -4.024  0.00  0.00    -0.776 OA
ATOM     48  H   UNK d   0     -36.311  18.264  -3.968  0.00  0.00     0.167 HD
ENDBRANCH  45  47
ENDBRANCH  44  45
ENDBRANCH  43  44
ENDBRANCH  27  43
BRANCH  24  49
ATOM     49  C   UNK d   0     -35.967  21.980  -4.984  0.00  0.00     0.052 C 
BRANCH  49  50
ATOM     50  C   UNK d   0     -35.976  23.464  -4.722  0.00  0.00     0.115 C 
BRANCH  50  51
ATOM     51  C   UNK d   0     -35.673  24.339  -5.847  0.00  0.00     0.139 C 
ATOM     52  O   UNK d   0     -34.765  25.202  -5.807  0.00  0.00    -0.650 OA
BRANCH  51  53
ATOM     53  O   UNK d   0     -36.409  24.233  -7.017  0.00  0.00    -0.776 OA
ATOM     54  H   UNK d   0     -37.249  23.681  -7.002  0.00  0.00     0.167 HD
ENDBRANCH  51  53
ENDBRANCH  50  51
ENDBRANCH  49  50
ENDBRANCH  24  49
BRANCH  21  55
ATOM     55  C   UNK d   0     -38.705  21.662  -6.380  0.00  0.00     0.151 C 
BRANCH  55  56
ATOM     56  C   UNK d   0     -39.648  22.790  -6.341  0.00  0.00     0.143 C 
ATOM     57  O   UNK d   0     -40.576  22.923  -7.163  0.00  0.00    -0.650 OA
BRANCH  56  58
ATOM     58  O   UNK d   0     -39.483  23.740  -5.335  0.00  0.00    -0.776 OA
ATOM     59  H   UNK d   0     -39.828  24.688  -5.569  0.00  0.00     0.167 HD
ENDBRANCH  56  58
ENDBRANCH  55  56
ENDBRANCH  21  55
BRANCH  18  60
ATOM     60  C   UNK d   0     -43.387  21.047  -3.828  0.00  0.00     0.151 C 
BRANCH  60  61
ATOM     61  C   UNK d   0     -42.966  22.378  -3.366  0.00  0.00     0.143 C 
ATOM     62  O   UNK d   0     -42.124  23.112  -3.885  0.00  0.00    -0.650 OA
BRANCH  61  63
ATOM     63  O   UNK d   0     -43.613  22.843  -2.196  0.00  0.00    -0.776 OA
ATOM     64  H   UNK d   0     -43.090  23.249  -1.440  0.00  0.00     0.167 HD
ENDBRANCH  61  63
ENDBRANCH  60  61
ENDBRANCH  18  60
BRANCH  14  65
ATOM     65  C   UNK d   0     -44.600  19.561  -1.476  0.00  0.00     0.052 C 
BRANCH  65  66
ATOM     66  C   UNK d   0     -45.344  18.273  -1.492  0.00  0.00     0.115 C 
BRANCH  66  67
ATOM     67  C   UNK d   0     -46.379  18.061  -2.465  0.00  0.00     0.139 C 
ATOM     68  O   UNK d   0     -47.460  18.750  -2.370  0.00  0.00    -0.650 OA
BRANCH  67  69
ATOM     69  O   UNK d   0     -46.370  17.174  -3.540  0.00  0.00    -0.776 OA
ATOM     70  H   UNK d   0     -45.516  17.178  -4.117  0.00  0.00     0.167 HD
ENDBRANCH  67  69
ENDBRANCH  66  67
ENDBRANCH  65  66
ENDBRANCH  14  65
ENDBRANCH   6   7
ENDBRANCH   5   6
ENDBRANCH   2   5
TORSDOF 28
ENDMDL
MODEL 12
REMARK VINA RESULT:      -6.4     19.897     22.637
REMARK  28 active torsions:
REMARK  status: ('A' for Active; 'I' for Inactive)
REMARK    1  A    between atoms: C_2  and  O_3 
REMARK    2  A    between atoms: C_2  and  C_4 
REMARK    3  A    between atoms: C_4  and  C_5 
REMARK    4  A    between atoms: C_5  and  C_6 
REMARK    5  A    between atoms: C_7  and  C_8 
REMARK    6  A    between atoms: C_8  and  C_9 
REMARK    7  A    between atoms: C_9  and  O_11 
REMARK    8  A    between atoms: C_28  and  C_29 
REMARK    9  A    between atoms: C_29  and  C_30 
REMARK   10  A    between atoms: C_30  and  O_32 
REMARK   11  A    between atoms: C_33  and  C_34 
REMARK   12  A    between atoms: C_34  and  C_35 
REMARK   13  A    between atoms: C_35  and  C_36 
REMARK   14  A    between atoms: C_36  and  O_38 
REMARK   15  A    between atoms: C_39  and  C_40 
REMARK   16  A    between atoms: C_40  and  C_41 
REMARK   17  A    between atoms: C_41  and  C_42 
REMARK   18  A    between atoms: C_42  and  O_44 
REMARK   19  A    between atoms: C_45  and  C_46 
REMARK   20  A    between atoms: C_46  and  C_47 
REMARK   21  A    between atoms: C_47  and  O_49 
REMARK   22  A    between atoms: C_50  and  C_51 
REMARK   23  A    between atoms: C_51  and  C_52 
REMARK   24  A    between atoms: C_52  and  O_54 
REMARK   25  A    between atoms: C_55  and  C_56 
REMARK   26  A    between atoms: C_56  and  C_57 
REMARK   27  A    between atoms: C_57  and  C_58 
REMARK   28  A    between atoms: C_58  and  O_60 
ROOT
ATOM      1  O   UNK d   0     -34.070  14.149   0.992  0.00  0.00    -0.650 OA
ATOM      2  C   UNK d   0     -34.023  15.399   0.974  0.00  0.00     0.139 C 
ENDROOT
BRANCH   2   3
ATOM      3  O   UNK d   0     -33.030  16.045   1.669  0.00  0.00    -0.776 OA
ATOM      4  H   UNK d   0     -32.334  16.618   1.186  0.00  0.00     0.167 HD
ENDBRANCH   2   3
BRANCH   2   5
ATOM      5  C   UNK d   0     -35.036  16.175   0.204  0.00  0.00     0.115 C 
BRANCH   5   6
ATOM      6  C   UNK d   0     -35.276  17.507   0.862  0.00  0.00     0.052 C 
BRANCH   6   7
ATOM      7  C   UNK d   0     -36.072  18.449  -0.009  0.00  0.00    -0.020 A 
ATOM      8  C   UNK d   0     -35.614  19.301  -0.890  0.00  0.00    -0.011 A 
ATOM      9  C   UNK d   0     -36.751  19.994  -1.473  0.00  0.00     0.067 A 
ATOM     10  C   UNK d   0     -36.943  20.978  -2.455  0.00  0.00     0.062 C 
ATOM     11  N   UNK d   0     -37.863  19.505  -0.884  0.00  0.00    -0.248 NA
ATOM     12  C   UNK d   0     -38.144  21.324  -3.084  0.00  0.00     0.041 A 
ATOM     13  N   UNK d   0     -39.385  21.496  -2.591  0.00  0.00    -0.355 N 
ATOM     14  C   UNK d   0     -38.157  21.489  -4.481  0.00  0.00    -0.022 A 
ATOM     15  C   UNK d   0     -40.187  21.758  -3.641  0.00  0.00     0.042 A 
ATOM     16  H   UNK d   0     -39.685  21.453  -1.521  0.00  0.00     0.166 HD
ATOM     17  C   UNK d   0     -41.571  22.017  -3.690  0.00  0.00     0.062 C 
ATOM     18  C   UNK d   0     -39.453  21.761  -4.843  0.00  0.00    -0.013 A 
ATOM     19  C   UNK d   0     -42.594  21.367  -3.047  0.00  0.00     0.067 A 
ATOM     20  N   UNK d   0     -42.252  20.498  -2.092  0.00  0.00    -0.248 NA
ATOM     21  C   UNK d   0     -44.044  21.355  -3.137  0.00  0.00    -0.011 A 
ATOM     22  C   UNK d   0     -43.374  19.918  -1.552  0.00  0.00     0.066 A 
ATOM     23  C   UNK d   0     -43.165  19.017  -0.518  0.00  0.00     0.062 C 
ATOM     24  C   UNK d   0     -44.495  20.502  -2.263  0.00  0.00    -0.020 A 
ATOM     25  C   UNK d   0     -41.952  18.692   0.108  0.00  0.00     0.041 A 
ATOM     26  N   UNK d   0     -40.721  18.507  -0.383  0.00  0.00    -0.355 N 
ATOM     27  C   UNK d   0     -41.938  18.532   1.511  0.00  0.00    -0.022 A 
ATOM     28  C   UNK d   0     -39.921  18.237   0.660  0.00  0.00     0.042 A 
ATOM     29  H   UNK d   0     -40.424  18.540  -1.460  0.00  0.00     0.166 HD
ATOM     30  C   UNK d   0     -38.544  17.968   0.722  0.00  0.00     0.062 C 
ATOM     31  C   UNK d   0     -40.657  18.244   1.869  0.00  0.00    -0.013 A 
ATOM     32  C   UNK d   0     -37.522  18.572   0.006  0.00  0.00     0.066 A 
BRANCH   8  33
ATOM     33  C   UNK d   0     -34.201  19.538  -1.241  0.00  0.00     0.151 C 
BRANCH  33  34
ATOM     34  C   UNK d   0     -33.925  19.320  -2.672  0.00  0.00     0.143 C 
ATOM     35  O   UNK d   0     -33.572  20.257  -3.402  0.00  0.00    -0.650 OA
BRANCH  34  36
ATOM     36  O   UNK d   0     -34.063  18.057  -3.202  0.00  0.00    -0.776 OA
ATOM     37  H   UNK d   0     -34.848  17.822  -3.824  0.00  0.00     0.167 HD
ENDBRANCH  34  36
ENDBRANCH  33  34
ENDBRANCH   8  33
BRANCH  31  38
ATOM     38  C   UNK d   0     -40.156  18.004   3.274  0.00  0.00     0.151 C 
BRANCH  38  39
ATOM     39  C   UNK d   0     -40.601  16.739   3.819  0.00  0.00     0.143 C 
ATOM     40  O   UNK d   0     -40.515  15.673   3.184  0.00  0.00    -0.650 OA
BRANCH  39  41
ATOM     41  O   UNK d   0     -41.147  16.699   5.102  0.00  0.00    -0.776 OA
ATOM     42  H   UNK d   0     -41.441  17.593   5.507  0.00  0.00     0.167 HD
ENDBRANCH  39  41
ENDBRANCH  38  39
ENDBRANCH  31  38
BRANCH  27  43
ATOM     43  C   UNK d   0     -43.073  18.637   2.499  0.00  0.00     0.052 C 
BRANCH  43  44
ATOM     44  C   UNK d   0     -43.787  17.343   2.719  0.00  0.00     0.115 C 
BRANCH  44  45
ATOM     45  C   UNK d   0     -44.536  17.483   3.995  0.00  0.00     0.139 C 
ATOM     46  O   UNK d   0     -45.774  17.686   3.936  0.00  0.00    -0.650 OA
BRANCH  45  47
ATOM     47  O   UNK d   0     -43.931  17.394   5.230  0.00  0.00    -0.776 OA
ATOM     48  H   UNK d   0     -43.678  16.493   5.666  0.00  0.00     0.167 HD
ENDBRANCH  45  47
ENDBRANCH  44  45
ENDBRANCH  43  44
ENDBRANCH  27  43
BRANCH  24  49
ATOM     49  C   UNK d   0     -45.911  20.203  -1.990  0.00  0.00     0.052 C 
BRANCH  49  50
ATOM     50  C   UNK d   0     -46.279  18.852  -2.547  0.00  0.00     0.115 C 
BRANCH  50  51
ATOM     51  C   UNK d   0     -46.780  17.859  -1.606  0.00  0.00     0.139 C 
ATOM     52  O   UNK d   0     -46.325  17.739  -0.444  0.00  0.00    -0.650 OA
BRANCH  51  53
ATOM     53  O   UNK d   0     -47.798  17.001  -1.991  0.00  0.00    -0.776 OA
ATOM     54  H   UNK d   0     -48.481  17.338  -2.647  0.00  0.00     0.167 HD
ENDBRANCH  51  53
ENDBRANCH  50  51
ENDBRANCH  49  50
ENDBRANCH  24  49
BRANCH  21  55
ATOM     55  C   UNK d   0     -44.829  22.201  -4.084  0.00  0.00     0.151 C 
BRANCH  55  56
ATOM     56  C   UNK d   0     -44.875  21.620  -5.434  0.00  0.00     0.143 C 
ATOM     57  O   UNK d   0     -44.147  22.018  -6.365  0.00  0.00    -0.650 OA
BRANCH  56  58
ATOM     58  O   UNK d   0     -45.775  20.581  -5.664  0.00  0.00    -0.776 OA
ATOM     59  H   UNK d   0     -45.980  20.394  -6.662  0.00  0.00     0.167 HD
ENDBRANCH  56  58
ENDBRANCH  55  56
ENDBRANCH  21  55
BRANCH  18  60
ATOM     60  C   UNK d   0     -39.925  22.001  -6.256  0.00  0.00     0.151 C 
BRANCH  60  61
ATOM     61  C   UNK d   0     -40.373  20.693  -6.759  0.00  0.00     0.143 C 
ATOM     62  O   UNK d   0     -39.663  19.741  -7.086  0.00  0.00    -0.650 OA
BRANCH  61  63
ATOM     63  O   UNK d   0     -41.776  20.539  -6.869  0.00  0.00    -0.776 OA
ATOM     64  H   UNK d   0     -42.186  20.084  -7.665  0.00  0.00     0.167 HD
ENDBRANCH  61  63
ENDBRANCH  60  61
ENDBRANCH  18  60
BRANCH  14  65
ATOM     65  C   UNK d   0     -37.033  21.506  -5.478  0.00  0.00     0.052 C 
BRANCH  65  66
ATOM     66  C   UNK d   0     -36.471  22.865  -5.698  0.00  0.00     0.115 C 
BRANCH  66  67
ATOM     67  C   UNK d   0     -35.542  23.413  -4.751  0.00  0.00     0.139 C 
ATOM     68  O   UNK d   0     -35.726  24.616  -4.335  0.00  0.00    -0.650 OA
BRANCH  67  69
ATOM     69  O   UNK d   0     -34.421  22.793  -4.199  0.00  0.00    -0.776 OA
ATOM     70  H   UNK d   0     -34.258  22.972  -3.198  0.00  0.00     0.167 HD
ENDBRANCH  67  69
ENDBRANCH  66  67
ENDBRANCH  65  66
ENDBRANCH  14  65
ENDBRANCH   6   7
ENDBRANCH   5   6
ENDBRANCH   2   5
TORSDOF 28
ENDMDL
MODEL 13
REMARK VINA RESULT:      -6.4     20.015     23.260
REMARK  28 active torsions:
REMARK  status: ('A' for Active; 'I' for Inactive)
REMARK    1  A    between atoms: C_2  and  O_3 
REMARK    2  A    between atoms: C_2  and  C_4 
REMARK    3  A    between atoms: C_4  and  C_5 
REMARK    4  A    between atoms: C_5  and  C_6 
REMARK    5  A    between atoms: C_7  and  C_8 
REMARK    6  A    between atoms: C_8  and  C_9 
REMARK    7  A    between atoms: C_9  and  O_11 
REMARK    8  A    between atoms: C_28  and  C_29 
REMARK    9  A    between atoms: C_29  and  C_30 
REMARK   10  A    between atoms: C_30  and  O_32 
REMARK   11  A    between atoms: C_33  and  C_34 
REMARK   12  A    between atoms: C_34  and  C_35 
REMARK   13  A    between atoms: C_35  and  C_36 
REMARK   14  A    between atoms: C_36  and  O_38 
REMARK   15  A    between atoms: C_39  and  C_40 
REMARK   16  A    between atoms: C_40  and  C_41 
REMARK   17  A    between atoms: C_41  and  C_42 
REMARK   18  A    between atoms: C_42  and  O_44 
REMARK   19  A    between atoms: C_45  and  C_46 
REMARK   20  A    between atoms: C_46  and  C_47 
REMARK   21  A    between atoms: C_47  and  O_49 
REMARK   22  A    between atoms: C_50  and  C_51 
REMARK   23  A    between atoms: C_51  and  C_52 
REMARK   24  A    between atoms: C_52  and  O_54 
REMARK   25  A    between atoms: C_55  and  C_56 
REMARK   26  A    between atoms: C_56  and  C_57 
REMARK   27  A    between atoms: C_57  and  C_58 
REMARK   28  A    between atoms: C_58  and  O_60 
ROOT
ATOM      1  O   UNK d   0     -38.875  13.150   4.356  0.00  0.00    -0.650 OA
ATOM      2  C   UNK d   0     -39.948  13.741   4.612  0.00  0.00     0.139 C 
ENDROOT
BRANCH   2   3
ATOM      3  O   UNK d   0     -40.690  13.347   5.700  0.00  0.00    -0.776 OA
ATOM      4  H   UNK d   0     -40.356  12.616   6.330  0.00  0.00     0.167 HD
ENDBRANCH   2   3
BRANCH   2   5
ATOM      5  C   UNK d   0     -40.412  14.859   3.744  0.00  0.00     0.115 C 
BRANCH   5   6
ATOM      6  C   UNK d   0     -39.957  16.177   4.309  0.00  0.00     0.052 C 
BRANCH   6   7
ATOM      7  C   UNK d   0     -39.248  17.034   3.288  0.00  0.00    -0.020 A 
ATOM      8  C   UNK d   0     -38.011  17.460   3.325  0.00  0.00    -0.011 A 
ATOM      9  C   UNK d   0     -37.779  18.256   2.131  0.00  0.00     0.067 A 
ATOM     10  C   UNK d   0     -36.696  18.955   1.575  0.00  0.00     0.062 C 
ATOM     11  N   UNK d   0     -38.930  18.267   1.427  0.00  0.00    -0.248 NA
ATOM     12  C   UNK d   0     -36.581  19.437   0.267  0.00  0.00     0.041 A 
ATOM     13  N   UNK d   0     -37.468  20.068  -0.527  0.00  0.00    -0.355 N 
ATOM     14  C   UNK d   0     -35.382  19.219  -0.436  0.00  0.00    -0.022 A 
ATOM     15  C   UNK d   0     -36.865  20.250  -1.717  0.00  0.00     0.042 A 
ATOM     16  H   UNK d   0     -38.492  20.396  -0.245  0.00  0.00     0.166 HD
ATOM     17  C   UNK d   0     -37.338  20.856  -2.897  0.00  0.00     0.062 C 
ATOM     18  C   UNK d   0     -35.556  19.730  -1.698  0.00  0.00    -0.013 A 
ATOM     19  C   UNK d   0     -38.553  20.708  -3.515  0.00  0.00     0.067 A 
ATOM     20  N   UNK d   0     -39.505  20.067  -2.832  0.00  0.00    -0.248 NA
ATOM     21  C   UNK d   0     -39.122  21.071  -4.803  0.00  0.00    -0.011 A 
ATOM     22  C   UNK d   0     -40.654  19.983  -3.580  0.00  0.00     0.066 A 
ATOM     23  C   UNK d   0     -41.741  19.370  -2.974  0.00  0.00     0.062 C 
ATOM     24  C   UNK d   0     -40.350  20.640  -4.836  0.00  0.00    -0.020 A 
ATOM     25  C   UNK d   0     -41.840  18.904  -1.654  0.00  0.00     0.041 A 
ATOM     26  N   UNK d   0     -40.964  18.263  -0.871  0.00  0.00    -0.355 N 
ATOM     27  C   UNK d   0     -43.042  19.127  -0.948  0.00  0.00    -0.022 A 
ATOM     28  C   UNK d   0     -41.566  18.073   0.314  0.00  0.00     0.042 A 
ATOM     29  H   UNK d   0     -39.938  17.925  -1.159  0.00  0.00     0.166 HD
ATOM     30  C   UNK d   0     -41.111  17.464   1.494  0.00  0.00     0.062 C 
ATOM     31  C   UNK d   0     -42.877  18.605   0.298  0.00  0.00    -0.013 A 
ATOM     32  C   UNK d   0     -39.853  17.549   2.069  0.00  0.00     0.066 A 
BRANCH   8  33
ATOM     33  C   UNK d   0     -37.015  17.196   4.380  0.00  0.00     0.151 C 
BRANCH  33  34
ATOM     34  C   UNK d   0     -35.934  16.300   3.934  0.00  0.00     0.143 C 
ATOM     35  O   UNK d   0     -36.061  15.069   3.994  0.00  0.00    -0.650 OA
BRANCH  34  36
ATOM     36  O   UNK d   0     -34.767  16.841   3.444  0.00  0.00    -0.776 OA
ATOM     37  H   UNK d   0     -33.995  16.242   3.120  0.00  0.00     0.167 HD
ENDBRANCH  34  36
ENDBRANCH  33  34
ENDBRANCH   8  33
BRANCH  31  38
ATOM     38  C   UNK d   0     -43.897  18.621   1.413  0.00  0.00     0.151 C 
BRANCH  38  39
ATOM     39  C   UNK d   0     -43.655  19.669   2.381  0.00  0.00     0.143 C 
ATOM     40  O   UNK d   0     -43.475  19.431   3.589  0.00  0.00    -0.650 OA
BRANCH  39  41
ATOM     41  O   UNK d   0     -43.618  20.998   1.959  0.00  0.00    -0.776 OA
ATOM     42  H   UNK d   0     -43.295  21.169   1.002  0.00  0.00     0.167 HD
ENDBRANCH  39  41
ENDBRANCH  38  39
ENDBRANCH  31  38
BRANCH  27  43
ATOM     43  C   UNK d   0     -44.312  19.800  -1.406  0.00  0.00     0.052 C 
BRANCH  43  44
ATOM     44  C   UNK d   0     -45.297  18.853  -2.011  0.00  0.00     0.115 C 
BRANCH  44  45
ATOM     45  C   UNK d   0     -46.221  19.673  -2.837  0.00  0.00     0.139 C 
ATOM     46  O   UNK d   0     -47.391  19.852  -2.416  0.00  0.00    -0.650 OA
BRANCH  45  47
ATOM     47  O   UNK d   0     -45.846  20.245  -4.034  0.00  0.00    -0.776 OA
ATOM     48  H   UNK d   0     -45.674  19.692  -4.889  0.00  0.00     0.167 HD
ENDBRANCH  45  47
ENDBRANCH  44  45
ENDBRANCH  43  44
ENDBRANCH  27  43
BRANCH  24  49
ATOM     49  C   UNK d   0     -41.306  20.826  -5.941  0.00  0.00     0.052 C 
BRANCH  49  50
ATOM     50  C   UNK d   0     -42.373  21.816  -5.550  0.00  0.00     0.115 C 
BRANCH  50  51
ATOM     51  C   UNK d   0     -43.523  21.939  -6.436  0.00  0.00     0.139 C 
ATOM     52  O   UNK d   0     -43.721  22.950  -7.150  0.00  0.00    -0.650 OA
BRANCH  51  53
ATOM     53  O   UNK d   0     -44.448  20.909  -6.506  0.00  0.00    -0.776 OA
ATOM     54  H   UNK d   0     -45.382  21.129  -6.804  0.00  0.00     0.167 HD
ENDBRANCH  51  53
ENDBRANCH  50  51
ENDBRANCH  49  50
ENDBRANCH  24  49
BRANCH  21  55
ATOM     55  C   UNK d   0     -38.380  21.815  -5.863  0.00  0.00     0.151 C 
BRANCH  55  56
ATOM     56  C   UNK d   0     -38.668  23.257  -5.830  0.00  0.00     0.143 C 
ATOM     57  O   UNK d   0     -38.569  23.941  -4.793  0.00  0.00    -0.650 OA
BRANCH  56  58
ATOM     58  O   UNK d   0     -39.068  23.867  -7.018  0.00  0.00    -0.776 OA
ATOM     59  H   UNK d   0     -40.039  24.227  -7.018  0.00  0.00     0.167 HD
ENDBRANCH  56  58
ENDBRANCH  55  56
ENDBRANCH  21  55
BRANCH  18  60
ATOM     60  C   UNK d   0     -34.517  19.703  -2.792  0.00  0.00     0.151 C 
BRANCH  60  61
ATOM     61  C   UNK d   0     -33.878  21.028  -2.774  0.00  0.00     0.143 C 
ATOM     62  O   UNK d   0     -33.155  21.491  -1.892  0.00  0.00    -0.650 OA
BRANCH  61  63
ATOM     63  O   UNK d   0     -34.137  21.837  -3.906  0.00  0.00    -0.776 OA
ATOM     64  H   UNK d   0     -35.073  21.961  -4.251  0.00  0.00     0.167 HD
ENDBRANCH  61  63
ENDBRANCH  60  61
ENDBRANCH  18  60
BRANCH  14  65
ATOM     65  C   UNK d   0     -34.065  18.660   0.021  0.00  0.00     0.052 C 
BRANCH  65  66
ATOM     66  C   UNK d   0     -33.849  17.253  -0.412  0.00  0.00     0.115 C 
BRANCH  66  67
ATOM     67  C   UNK d   0     -34.839  16.257  -0.115  0.00  0.00     0.139 C 
ATOM     68  O   UNK d   0     -34.692  15.542   0.943  0.00  0.00    -0.650 OA
BRANCH  67  69
ATOM     69  O   UNK d   0     -35.984  15.946  -0.849  0.00  0.00    -0.776 OA
ATOM     70  H   UNK d   0     -36.620  15.260  -0.417  0.00  0.00     0.167 HD
ENDBRANCH  67  69
ENDBRANCH  66  67
ENDBRANCH  65  66
ENDBRANCH  14  65
ENDBRANCH   6   7
ENDBRANCH   5   6
ENDBRANCH   2   5
TORSDOF 28
ENDMDL
MODEL 14
REMARK VINA RESULT:      -6.4     19.838     22.231
REMARK  28 active torsions:
REMARK  status: ('A' for Active; 'I' for Inactive)
REMARK    1  A    between atoms: C_2  and  O_3 
REMARK    2  A    between atoms: C_2  and  C_4 
REMARK    3  A    between atoms: C_4  and  C_5 
REMARK    4  A    between atoms: C_5  and  C_6 
REMARK    5  A    between atoms: C_7  and  C_8 
REMARK    6  A    between atoms: C_8  and  C_9 
REMARK    7  A    between atoms: C_9  and  O_11 
REMARK    8  A    between atoms: C_28  and  C_29 
REMARK    9  A    between atoms: C_29  and  C_30 
REMARK   10  A    between atoms: C_30  and  O_32 
REMARK   11  A    between atoms: C_33  and  C_34 
REMARK   12  A    between atoms: C_34  and  C_35 
REMARK   13  A    between atoms: C_35  and  C_36 
REMARK   14  A    between atoms: C_36  and  O_38 
REMARK   15  A    between atoms: C_39  and  C_40 
REMARK   16  A    between atoms: C_40  and  C_41 
REMARK   17  A    between atoms: C_41  and  C_42 
REMARK   18  A    between atoms: C_42  and  O_44 
REMARK   19  A    between atoms: C_45  and  C_46 
REMARK   20  A    between atoms: C_46  and  C_47 
REMARK   21  A    between atoms: C_47  and  O_49 
REMARK   22  A    between atoms: C_50  and  C_51 
REMARK   23  A    between atoms: C_51  and  C_52 
REMARK   24  A    between atoms: C_52  and  O_54 
REMARK   25  A    between atoms: C_55  and  C_56 
REMARK   26  A    between atoms: C_56  and  C_57 
REMARK   27  A    between atoms: C_57  and  C_58 
REMARK   28  A    between atoms: C_58  and  O_60 
ROOT
ATOM      1  O   UNK d   0     -41.332  19.822  -9.335  0.00  0.00    -0.650 OA
ATOM      2  C   UNK d   0     -40.620  20.471  -8.537  0.00  0.00     0.139 C 
ENDROOT
BRANCH   2   3
ATOM      3  O   UNK d   0     -40.447  21.820  -8.732  0.00  0.00    -0.776 OA
ATOM      4  H   UNK d   0     -39.729  22.173  -9.368  0.00  0.00     0.167 HD
ENDBRANCH   2   3
BRANCH   2   5
ATOM      5  C   UNK d   0     -39.968  19.783  -7.387  0.00  0.00     0.115 C 
BRANCH   5   6
ATOM      6  C   UNK d   0     -39.226  20.781  -6.540  0.00  0.00     0.052 C 
BRANCH   6   7
ATOM      7  C   UNK d   0     -39.749  20.845  -5.125  0.00  0.00    -0.020 A 
ATOM      8  C   UNK d   0     -40.836  21.438  -4.702  0.00  0.00    -0.011 A 
ATOM      9  C   UNK d   0     -40.921  21.239  -3.265  0.00  0.00     0.067 A 
ATOM     10  C   UNK d   0     -41.820  21.588  -2.245  0.00  0.00     0.062 C 
ATOM     11  N   UNK d   0     -39.840  20.520  -2.895  0.00  0.00    -0.248 NA
ATOM     12  C   UNK d   0     -41.876  21.065  -0.949  0.00  0.00     0.041 A 
ATOM     13  N   UNK d   0     -40.901  20.779  -0.066  0.00  0.00    -0.355 N 
ATOM     14  C   UNK d   0     -43.125  20.697  -0.417  0.00  0.00    -0.022 A 
ATOM     15  C   UNK d   0     -41.498  20.231   1.009  0.00  0.00     0.042 A 
ATOM     16  H   UNK d   0     -39.814  20.978  -0.192  0.00  0.00     0.166 HD
ATOM     17  C   UNK d   0     -40.948  19.755   2.216  0.00  0.00     0.062 C 
ATOM     18  C   UNK d   0     -42.893  20.163   0.826  0.00  0.00    -0.013 A 
ATOM     19  C   UNK d   0     -39.841  18.968   2.408  0.00  0.00     0.067 A 
ATOM     20  N   UNK d   0     -39.047  18.774   1.352  0.00  0.00    -0.248 NA
ATOM     21  C   UNK d   0     -39.265  18.228   3.518  0.00  0.00    -0.011 A 
ATOM     22  C   UNK d   0     -37.995  17.959   1.690  0.00  0.00     0.066 A 
ATOM     23  C   UNK d   0     -37.067  17.703   0.691  0.00  0.00     0.062 C 
ATOM     24  C   UNK d   0     -38.187  17.636   3.090  0.00  0.00    -0.020 A 
ATOM     25  C   UNK d   0     -37.022  18.249  -0.601  0.00  0.00     0.041 A 
ATOM     26  N   UNK d   0     -37.990  18.519  -1.485  0.00  0.00    -0.355 N 
ATOM     27  C   UNK d   0     -35.768  18.622  -1.132  0.00  0.00    -0.022 A 
ATOM     28  C   UNK d   0     -37.396  19.057  -2.562  0.00  0.00     0.042 A 
ATOM     29  H   UNK d   0     -39.081  18.308  -1.361  0.00  0.00     0.166 HD
ATOM     30  C   UNK d   0     -37.930  19.527  -3.772  0.00  0.00     0.062 C 
ATOM     31  C   UNK d   0     -35.996  19.136  -2.372  0.00  0.00    -0.013 A 
ATOM     32  C   UNK d   0     -39.096  20.250  -3.969  0.00  0.00     0.066 A 
BRANCH   8  33
ATOM     33  C   UNK d   0     -41.812  22.184  -5.518  0.00  0.00     0.151 C 
BRANCH  33  34
ATOM     34  C   UNK d   0     -41.430  23.594  -5.715  0.00  0.00     0.143 C 
ATOM     35  O   UNK d   0     -41.019  23.995  -6.814  0.00  0.00    -0.650 OA
BRANCH  34  36
ATOM     36  O   UNK d   0     -41.532  24.475  -4.663  0.00  0.00    -0.776 OA
ATOM     37  H   UNK d   0     -40.704  24.760  -4.123  0.00  0.00     0.167 HD
ENDBRANCH  34  36
ENDBRANCH  33  34
ENDBRANCH   8  33
BRANCH  31  38
ATOM     38  C   UNK d   0     -34.950  19.681  -3.317  0.00  0.00     0.151 C 
BRANCH  38  39
ATOM     39  C   UNK d   0     -34.913  21.127  -3.340  0.00  0.00     0.143 C 
ATOM     40  O   UNK d   0     -34.515  21.768  -4.329  0.00  0.00    -0.650 OA
BRANCH  39  41
ATOM     41  O   UNK d   0     -35.337  21.842  -2.220  0.00  0.00    -0.776 OA
ATOM     42  H   UNK d   0     -36.344  21.854  -2.034  0.00  0.00     0.167 HD
ENDBRANCH  39  41
ENDBRANCH  38  39
ENDBRANCH  31  38
BRANCH  27  43
ATOM     43  C   UNK d   0     -34.395  18.509  -0.519  0.00  0.00     0.052 C 
BRANCH  43  44
ATOM     44  C   UNK d   0     -33.937  19.769   0.142  0.00  0.00     0.115 C 
BRANCH  44  45
ATOM     45  C   UNK d   0     -34.248  19.627   1.588  0.00  0.00     0.139 C 
ATOM     46  O   UNK d   0     -35.248  20.237   2.041  0.00  0.00    -0.650 OA
BRANCH  45  47
ATOM     47  O   UNK d   0     -33.491  18.855   2.442  0.00  0.00    -0.776 OA
ATOM     48  H   UNK d   0     -32.704  18.269   2.120  0.00  0.00     0.167 HD
ENDBRANCH  45  47
ENDBRANCH  44  45
ENDBRANCH  43  44
ENDBRANCH  27  43
BRANCH  24  49
ATOM     49  C   UNK d   0     -37.272  16.811   3.897  0.00  0.00     0.052 C 
BRANCH  49  50
ATOM     50  C   UNK d   0     -35.949  16.653   3.191  0.00  0.00     0.115 C 
BRANCH  50  51
ATOM     51  C   UNK d   0     -34.885  15.974   3.918  0.00  0.00     0.139 C 
ATOM     52  O   UNK d   0     -34.021  16.591   4.585  0.00  0.00    -0.650 OA
BRANCH  51  53
ATOM     53  O   UNK d   0     -34.804  14.590   3.883  0.00  0.00    -0.776 OA
ATOM     54  H   UNK d   0     -34.741  14.096   4.756  0.00  0.00     0.167 HD
ENDBRANCH  51  53
ENDBRANCH  50  51
ENDBRANCH  49  50
ENDBRANCH  24  49
BRANCH  21  55
ATOM     55  C   UNK d   0     -39.849  18.193   4.891  0.00  0.00     0.151 C 
BRANCH  55  56
ATOM     56  C   UNK d   0     -41.170  17.545   4.912  0.00  0.00     0.143 C 
ATOM     57  O   UNK d   0     -42.150  18.030   5.510  0.00  0.00    -0.650 OA
BRANCH  56  58
ATOM     58  O   UNK d   0     -41.312  16.338   4.229  0.00  0.00    -0.776 OA
ATOM     59  H   UNK d   0     -40.504  16.076   3.635  0.00  0.00     0.167 HD
ENDBRANCH  56  58
ENDBRANCH  55  56
ENDBRANCH  21  55
BRANCH  18  60
ATOM     60  C   UNK d   0     -43.959  19.628   1.750  0.00  0.00     0.151 C 
BRANCH  60  61
ATOM     61  C   UNK d   0     -43.731  18.177   1.832  0.00  0.00     0.143 C 
ATOM     62  O   UNK d   0     -43.330  17.437   0.934  0.00  0.00    -0.650 OA
BRANCH  61  63
ATOM     63  O   UNK d   0     -44.011  17.594   3.091  0.00  0.00    -0.776 OA
ATOM     64  H   UNK d   0     -43.309  17.547   3.809  0.00  0.00     0.167 HD
ENDBRANCH  61  63
ENDBRANCH  60  61
ENDBRANCH  18  60
BRANCH  14  65
ATOM     65  C   UNK d   0     -44.516  20.899  -0.948  0.00  0.00     0.052 C 
BRANCH  65  66
ATOM     66  C   UNK d   0     -44.857  19.967  -2.056  0.00  0.00     0.115 C 
BRANCH  66  67
ATOM     67  C   UNK d   0     -44.655  18.555  -1.885  0.00  0.00     0.139 C 
ATOM     68  O   UNK d   0     -45.621  17.850  -1.413  0.00  0.00    -0.650 OA
BRANCH  67  69
ATOM     69  O   UNK d   0     -43.508  17.817  -2.173  0.00  0.00    -0.776 OA
ATOM     70  H   UNK d   0     -43.664  16.836  -2.448  0.00  0.00     0.167 HD
ENDBRANCH  67  69
ENDBRANCH  66  67
ENDBRANCH  65  66
ENDBRANCH  14  65
ENDBRANCH   6   7
ENDBRANCH   5   6
ENDBRANCH   2   5
TORSDOF 28
ENDMDL
MODEL 15
REMARK VINA RESULT:      -6.3     20.281     22.965
REMARK  28 active torsions:
REMARK  status: ('A' for Active; 'I' for Inactive)
REMARK    1  A    between atoms: C_2  and  O_3 
REMARK    2  A    between atoms: C_2  and  C_4 
REMARK    3  A    between atoms: C_4  and  C_5 
REMARK    4  A    between atoms: C_5  and  C_6 
REMARK    5  A    between atoms: C_7  and  C_8 
REMARK    6  A    between atoms: C_8  and  C_9 
REMARK    7  A    between atoms: C_9  and  O_11 
REMARK    8  A    between atoms: C_28  and  C_29 
REMARK    9  A    between atoms: C_29  and  C_30 
REMARK   10  A    between atoms: C_30  and  O_32 
REMARK   11  A    between atoms: C_33  and  C_34 
REMARK   12  A    between atoms: C_34  and  C_35 
REMARK   13  A    between atoms: C_35  and  C_36 
REMARK   14  A    between atoms: C_36  and  O_38 
REMARK   15  A    between atoms: C_39  and  C_40 
REMARK   16  A    between atoms: C_40  and  C_41 
REMARK   17  A    between atoms: C_41  and  C_42 
REMARK   18  A    between atoms: C_42  and  O_44 
REMARK   19  A    between atoms: C_45  and  C_46 
REMARK   20  A    between atoms: C_46  and  C_47 
REMARK   21  A    between atoms: C_47  and  O_49 
REMARK   22  A    between atoms: C_50  and  C_51 
REMARK   23  A    between atoms: C_51  and  C_52 
REMARK   24  A    between atoms: C_52  and  O_54 
REMARK   25  A    between atoms: C_55  and  C_56 
REMARK   26  A    between atoms: C_56  and  C_57 
REMARK   27  A    between atoms: C_57  and  C_58 
REMARK   28  A    between atoms: C_58  and  O_60 
ROOT
ATOM      1  O   UNK d   0     -34.325  14.319   3.644  0.00  0.00    -0.650 OA
ATOM      2  C   UNK d   0     -33.874  15.296   3.006  0.00  0.00     0.139 C 
ENDROOT
BRANCH   2   3
ATOM      3  O   UNK d   0     -32.638  15.801   3.331  0.00  0.00    -0.776 OA
ATOM      4  H   UNK d   0     -31.836  15.673   2.711  0.00  0.00     0.167 HD
ENDBRANCH   2   3
BRANCH   2   5
ATOM      5  C   UNK d   0     -34.673  15.903   1.904  0.00  0.00     0.115 C 
BRANCH   5   6
ATOM      6  C   UNK d   0     -35.357  17.153   2.389  0.00  0.00     0.052 C 
BRANCH   6   7
ATOM      7  C   UNK d   0     -36.002  17.934   1.269  0.00  0.00    -0.020 A 
ATOM      8  C   UNK d   0     -35.408  18.546   0.277  0.00  0.00    -0.011 A 
ATOM      9  C   UNK d   0     -36.436  19.166  -0.543  0.00  0.00     0.067 A 
ATOM     10  C   UNK d   0     -36.469  19.926  -1.723  0.00  0.00     0.062 C 
ATOM     11  N   UNK d   0     -37.627  18.885   0.027  0.00  0.00    -0.248 NA
ATOM     12  C   UNK d   0     -37.584  20.203  -2.521  0.00  0.00     0.041 A 
ATOM     13  N   UNK d   0     -38.842  20.553  -2.195  0.00  0.00    -0.355 N 
ATOM     14  C   UNK d   0     -37.473  20.064  -3.917  0.00  0.00    -0.022 A 
ATOM     15  C   UNK d   0     -39.535  20.632  -3.347  0.00  0.00     0.042 A 
ATOM     16  H   UNK d   0     -39.229  20.760  -1.173  0.00  0.00     0.166 HD
ATOM     17  C   UNK d   0     -40.885  20.960  -3.581  0.00  0.00     0.062 C 
ATOM     18  C   UNK d   0     -38.710  20.331  -4.448  0.00  0.00    -0.013 A 
ATOM     19  C   UNK d   0     -42.005  20.527  -2.916  0.00  0.00     0.067 A 
ATOM     20  N   UNK d   0     -41.812  19.865  -1.773  0.00  0.00    -0.248 NA
ATOM     21  C   UNK d   0     -43.440  20.586  -3.139  0.00  0.00    -0.011 A 
ATOM     22  C   UNK d   0     -43.016  19.484  -1.233  0.00  0.00     0.066 A 
ATOM     23  C   UNK d   0     -42.963  18.816  -0.019  0.00  0.00     0.062 C 
ATOM     24  C   UNK d   0     -44.025  19.970  -2.153  0.00  0.00    -0.020 A 
ATOM     25  C   UNK d   0     -41.834  18.559   0.774  0.00  0.00     0.041 A 
ATOM     26  N   UNK d   0     -40.587  18.197   0.451  0.00  0.00    -0.355 N 
ATOM     27  C   UNK d   0     -41.945  18.704   2.174  0.00  0.00    -0.022 A 
ATOM     28  C   UNK d   0     -39.896  18.109   1.599  0.00  0.00     0.042 A 
ATOM     29  H   UNK d   0     -40.203  17.979  -0.576  0.00  0.00     0.166 HD
ATOM     30  C   UNK d   0     -38.555  17.775   1.846  0.00  0.00     0.062 C 
ATOM     31  C   UNK d   0     -40.723  18.421   2.704  0.00  0.00    -0.013 A 
ATOM     32  C   UNK d   0     -37.434  18.146   1.120  0.00  0.00     0.066 A 
BRANCH   8  33
ATOM     33  C   UNK d   0     -33.958  18.614   0.020  0.00  0.00     0.151 C 
BRANCH  33  34
ATOM     34  C   UNK d   0     -33.377  19.923   0.371  0.00  0.00     0.143 C 
ATOM     35  O   UNK d   0     -33.210  20.797  -0.492  0.00  0.00    -0.650 OA
BRANCH  34  36
ATOM     36  O   UNK d   0     -33.014  20.173   1.674  0.00  0.00    -0.776 OA
ATOM     37  H   UNK d   0     -32.289  19.614   2.144  0.00  0.00     0.167 HD
ENDBRANCH  34  36
ENDBRANCH  33  34
ENDBRANCH   8  33
BRANCH  31  38
ATOM     38  C   UNK d   0     -40.357  18.458   4.169  0.00  0.00     0.151 C 
BRANCH  38  39
ATOM     39  C   UNK d   0     -40.943  17.369   4.922  0.00  0.00     0.143 C 
ATOM     40  O   UNK d   0     -41.440  17.531   6.050  0.00  0.00    -0.650 OA
BRANCH  39  41
ATOM     41  O   UNK d   0     -40.958  16.086   4.374  0.00  0.00    -0.776 OA
ATOM     42  H   UNK d   0     -40.081  15.556   4.415  0.00  0.00     0.167 HD
ENDBRANCH  39  41
ENDBRANCH  38  39
ENDBRANCH  31  38
BRANCH  27  43
ATOM     43  C   UNK d   0     -43.143  19.089   3.006  0.00  0.00     0.052 C 
BRANCH  43  44
ATOM     44  C   UNK d   0     -44.069  17.947   3.272  0.00  0.00     0.115 C 
BRANCH  44  45
ATOM     45  C   UNK d   0     -44.698  18.210   4.592  0.00  0.00     0.139 C 
ATOM     46  O   UNK d   0     -45.527  19.151   4.676  0.00  0.00    -0.650 OA
BRANCH  45  47
ATOM     47  O   UNK d   0     -44.415  17.466   5.717  0.00  0.00    -0.776 OA
ATOM     48  H   UNK d   0     -44.932  16.607   5.965  0.00  0.00     0.167 HD
ENDBRANCH  45  47
ENDBRANCH  44  45
ENDBRANCH  43  44
ENDBRANCH  27  43
BRANCH  24  49
ATOM     49  C   UNK d   0     -45.478  19.826  -1.960  0.00  0.00     0.052 C 
BRANCH  49  50
ATOM     50  C   UNK d   0     -45.879  18.376  -2.060  0.00  0.00     0.115 C 
BRANCH  50  51
ATOM     51  C   UNK d   0     -46.753  17.855  -1.017  0.00  0.00     0.139 C 
ATOM     52  O   UNK d   0     -47.708  17.079  -1.261  0.00  0.00    -0.650 OA
BRANCH  51  53
ATOM     53  O   UNK d   0     -46.540  18.219   0.303  0.00  0.00    -0.776 OA
ATOM     54  H   UNK d   0     -46.848  19.128   0.601  0.00  0.00     0.167 HD
ENDBRANCH  51  53
ENDBRANCH  50  51
ENDBRANCH  49  50
ENDBRANCH  24  49
BRANCH  21  55
ATOM     55  C   UNK d   0     -44.076  21.255  -4.312  0.00  0.00     0.151 C 
BRANCH  55  56
ATOM     56  C   UNK d   0     -43.754  22.689  -4.371  0.00  0.00     0.143 C 
ATOM     57  O   UNK d   0     -44.158  23.507  -3.521  0.00  0.00    -0.650 OA
BRANCH  56  58
ATOM     58  O   UNK d   0     -42.961  23.134  -5.428  0.00  0.00    -0.776 OA
ATOM     59  H   UNK d   0     -43.373  23.900  -5.990  0.00  0.00     0.167 HD
ENDBRANCH  56  58
ENDBRANCH  55  56
ENDBRANCH  21  55
BRANCH  18  60
ATOM     60  C   UNK d   0     -39.046  20.290  -5.918  0.00  0.00     0.151 C 
BRANCH  60  61
ATOM     61  C   UNK d   0     -39.235  21.690  -6.329  0.00  0.00     0.143 C 
ATOM     62  O   UNK d   0     -40.283  22.220  -6.699  0.00  0.00    -0.650 OA
BRANCH  61  63
ATOM     63  O   UNK d   0     -38.070  22.493  -6.284  0.00  0.00    -0.776 OA
ATOM     64  H   UNK d   0     -38.085  23.446  -6.602  0.00  0.00     0.167 HD
ENDBRANCH  61  63
ENDBRANCH  60  61
ENDBRANCH  18  60
BRANCH  14  65
ATOM     65  C   UNK d   0     -36.275  19.796  -4.784  0.00  0.00     0.052 C 
BRANCH  65  66
ATOM     66  C   UNK d   0     -35.321  20.936  -4.825  0.00  0.00     0.115 C 
BRANCH  66  67
ATOM     67  C   UNK d   0     -34.150  20.915  -3.994  0.00  0.00     0.139 C 
ATOM     68  O   UNK d   0     -33.512  19.806  -3.861  0.00  0.00    -0.650 OA
BRANCH  67  69
ATOM     69  O   UNK d   0     -33.590  21.974  -3.281  0.00  0.00    -0.776 OA
ATOM     70  H   UNK d   0     -33.837  22.918  -3.613  0.00  0.00     0.167 HD
ENDBRANCH  67  69
ENDBRANCH  66  67
ENDBRANCH  65  66
ENDBRANCH  14  65
ENDBRANCH   6   7
ENDBRANCH   5   6
ENDBRANCH   2   5
TORSDOF 28
ENDMDL
MODEL 16
REMARK VINA RESULT:      -6.3     19.632     22.642
REMARK  28 active torsions:
REMARK  status: ('A' for Active; 'I' for Inactive)
REMARK    1  A    between atoms: C_2  and  O_3 
REMARK    2  A    between atoms: C_2  and  C_4 
REMARK    3  A    between atoms: C_4  and  C_5 
REMARK    4  A    between atoms: C_5  and  C_6 
REMARK    5  A    between atoms: C_7  and  C_8 
REMARK    6  A    between atoms: C_8  and  C_9 
REMARK    7  A    between atoms: C_9  and  O_11 
REMARK    8  A    between atoms: C_28  and  C_29 
REMARK    9  A    between atoms: C_29  and  C_30 
REMARK   10  A    between atoms: C_30  and  O_32 
REMARK   11  A    between atoms: C_33  and  C_34 
REMARK   12  A    between atoms: C_34  and  C_35 
REMARK   13  A    between atoms: C_35  and  C_36 
REMARK   14  A    between atoms: C_36  and  O_38 
REMARK   15  A    between atoms: C_39  and  C_40 
REMARK   16  A    between atoms: C_40  and  C_41 
REMARK   17  A    between atoms: C_41  and  C_42 
REMARK   18  A    between atoms: C_42  and  O_44 
REMARK   19  A    between atoms: C_45  and  C_46 
REMARK   20  A    between atoms: C_46  and  C_47 
REMARK   21  A    between atoms: C_47  and  O_49 
REMARK   22  A    between atoms: C_50  and  C_51 
REMARK   23  A    between atoms: C_51  and  C_52 
REMARK   24  A    between atoms: C_52  and  O_54 
REMARK   25  A    between atoms: C_55  and  C_56 
REMARK   26  A    between atoms: C_56  and  C_57 
REMARK   27  A    between atoms: C_57  and  C_58 
REMARK   28  A    between atoms: C_58  and  O_60 
ROOT
ATOM      1  O   UNK d   0     -44.266  25.320  -7.144  0.00  0.00    -0.650 OA
ATOM      2  C   UNK d   0     -43.750  24.187  -7.023  0.00  0.00     0.139 C 
ENDROOT
BRANCH   2   3
ATOM      3  O   UNK d   0     -43.619  23.385  -8.132  0.00  0.00    -0.776 OA
ATOM      4  H   UNK d   0     -43.868  22.395  -8.099  0.00  0.00     0.167 HD
ENDBRANCH   2   3
BRANCH   2   5
ATOM      5  C   UNK d   0     -43.285  23.714  -5.689  0.00  0.00     0.115 C 
BRANCH   5   6
ATOM      6  C   UNK d   0     -43.475  22.226  -5.571  0.00  0.00     0.052 C 
BRANCH   6   7
ATOM      7  C   UNK d   0     -42.234  21.519  -5.080  0.00  0.00    -0.020 A 
ATOM      8  C   UNK d   0     -41.141  21.266  -5.753  0.00  0.00    -0.011 A 
ATOM      9  C   UNK d   0     -40.228  20.560  -4.869  0.00  0.00     0.067 A 
ATOM     10  C   UNK d   0     -38.927  20.041  -4.962  0.00  0.00     0.062 C 
ATOM     11  N   UNK d   0     -40.850  20.420  -3.680  0.00  0.00    -0.248 NA
ATOM     12  C   UNK d   0     -38.100  19.634  -3.909  0.00  0.00     0.041 A 
ATOM     13  N   UNK d   0     -38.365  18.921  -2.798  0.00  0.00    -0.355 N 
ATOM     14  C   UNK d   0     -36.754  20.044  -3.904  0.00  0.00    -0.022 A 
ATOM     15  C   UNK d   0     -37.224  18.874  -2.085  0.00  0.00     0.042 A 
ATOM     16  H   UNK d   0     -39.334  18.443  -2.533  0.00  0.00     0.166 HD
ATOM     17  C   UNK d   0     -36.945  18.258  -0.848  0.00  0.00     0.062 C 
ATOM     18  C   UNK d   0     -36.192  19.568  -2.746  0.00  0.00    -0.013 A 
ATOM     19  C   UNK d   0     -37.688  18.263   0.305  0.00  0.00     0.067 A 
ATOM     20  N   UNK d   0     -38.933  18.738   0.220  0.00  0.00    -0.248 NA
ATOM     21  C   UNK d   0     -37.469  17.879   1.689  0.00  0.00    -0.011 A 
ATOM     22  C   UNK d   0     -39.544  18.694   1.449  0.00  0.00     0.066 A 
ATOM     23  C   UNK d   0     -40.862  19.126   1.498  0.00  0.00     0.062 C 
ATOM     24  C   UNK d   0     -38.558  18.138   2.355  0.00  0.00    -0.020 A 
ATOM     25  C   UNK d   0     -41.679  19.518   0.427  0.00  0.00     0.041 A 
ATOM     26  N   UNK d   0     -41.419  20.240  -0.670  0.00  0.00    -0.355 N 
ATOM     27  C   UNK d   0     -43.028  19.102   0.420  0.00  0.00    -0.022 A 
ATOM     28  C   UNK d   0     -42.558  20.295  -1.379  0.00  0.00     0.042 A 
ATOM     29  H   UNK d   0     -40.448  20.728  -0.929  0.00  0.00     0.166 HD
ATOM     30  C   UNK d   0     -42.852  20.912  -2.605  0.00  0.00     0.062 C 
ATOM     31  C   UNK d   0     -43.592  19.589  -0.719  0.00  0.00    -0.013 A 
ATOM     32  C   UNK d   0     -42.061  20.977  -3.741  0.00  0.00     0.066 A 
BRANCH   8  33
ATOM     33  C   UNK d   0     -40.864  21.620  -7.157  0.00  0.00     0.151 C 
BRANCH  33  34
ATOM     34  C   UNK d   0     -41.269  20.563  -8.102  0.00  0.00     0.143 C 
ATOM     35  O   UNK d   0     -40.490  19.650  -8.408  0.00  0.00    -0.650 OA
BRANCH  34  36
ATOM     36  O   UNK d   0     -42.530  20.596  -8.651  0.00  0.00    -0.776 OA
ATOM     37  H   UNK d   0     -43.331  20.158  -8.177  0.00  0.00     0.167 HD
ENDBRANCH  34  36
ENDBRANCH  33  34
ENDBRANCH   8  33
BRANCH  31  38
ATOM     38  C   UNK d   0     -45.021  19.387  -1.164  0.00  0.00     0.151 C 
BRANCH  38  39
ATOM     39  C   UNK d   0     -45.226  18.123  -1.840  0.00  0.00     0.143 C 
ATOM     40  O   UNK d   0     -46.300  17.501  -1.777  0.00  0.00    -0.650 OA
BRANCH  39  41
ATOM     41  O   UNK d   0     -44.189  17.573  -2.594  0.00  0.00    -0.776 OA
ATOM     42  H   UNK d   0     -43.991  18.014  -3.497  0.00  0.00     0.167 HD
ENDBRANCH  39  41
ENDBRANCH  38  39
ENDBRANCH  31  38
BRANCH  27  43
ATOM     43  C   UNK d   0     -43.783  18.281   1.435  0.00  0.00     0.052 C 
BRANCH  43  44
ATOM     44  C   UNK d   0     -44.377  19.100   2.535  0.00  0.00     0.115 C 
BRANCH  44  45
ATOM     45  C   UNK d   0     -43.806  18.582   3.805  0.00  0.00     0.139 C 
ATOM     46  O   UNK d   0     -42.949  19.283   4.398  0.00  0.00    -0.650 OA
BRANCH  45  47
ATOM     47  O   UNK d   0     -44.180  17.376   4.356  0.00  0.00    -0.776 OA
ATOM     48  H   UNK d   0     -44.737  17.305   5.224  0.00  0.00     0.167 HD
ENDBRANCH  45  47
ENDBRANCH  44  45
ENDBRANCH  43  44
ENDBRANCH  27  43
BRANCH  24  49
ATOM     49  C   UNK d   0     -38.787  17.868   3.785  0.00  0.00     0.052 C 
BRANCH  49  50
ATOM     50  C   UNK d   0     -39.379  16.495   3.971  0.00  0.00     0.115 C 
BRANCH  50  51
ATOM     51  C   UNK d   0     -40.819  16.415   4.178  0.00  0.00     0.139 C 
ATOM     52  O   UNK d   0     -41.606  15.988   3.301  0.00  0.00    -0.650 OA
BRANCH  51  53
ATOM     53  O   UNK d   0     -41.362  16.824   5.387  0.00  0.00    -0.776 OA
ATOM     54  H   UNK d   0     -41.115  17.734   5.735  0.00  0.00     0.167 HD
ENDBRANCH  51  53
ENDBRANCH  50  51
ENDBRANCH  49  50
ENDBRANCH  24  49
BRANCH  21  55
ATOM     55  C   UNK d   0     -36.197  17.290   2.202  0.00  0.00     0.151 C 
BRANCH  55  56
ATOM     56  C   UNK d   0     -35.030  18.117   1.862  0.00  0.00     0.143 C 
ATOM     57  O   UNK d   0     -34.073  17.689   1.187  0.00  0.00    -0.650 OA
BRANCH  56  58
ATOM     58  O   UNK d   0     -35.010  19.433   2.322  0.00  0.00    -0.776 OA
ATOM     59  H   UNK d   0     -34.268  19.642   3.014  0.00  0.00     0.167 HD
ENDBRANCH  56  58
ENDBRANCH  55  56
ENDBRANCH  21  55
BRANCH  18  60
ATOM     60  C   UNK d   0     -34.759  19.783  -2.328  0.00  0.00     0.151 C 
BRANCH  60  61
ATOM     61  C   UNK d   0     -34.027  18.584  -2.763  0.00  0.00     0.143 C 
ATOM     62  O   UNK d   0     -33.956  17.504  -2.176  0.00  0.00    -0.650 OA
BRANCH  61  63
ATOM     63  O   UNK d   0     -33.339  18.711  -3.994  0.00  0.00    -0.776 OA
ATOM     64  H   UNK d   0     -32.889  17.920  -4.421  0.00  0.00     0.167 HD
ENDBRANCH  61  63
ENDBRANCH  60  61
ENDBRANCH  18  60
BRANCH  14  65
ATOM     65  C   UNK d   0     -35.943  20.760  -4.946  0.00  0.00     0.052 C 
BRANCH  65  66
ATOM     66  C   UNK d   0     -35.945  22.237  -4.771  0.00  0.00     0.115 C 
BRANCH  66  67
ATOM     67  C   UNK d   0     -36.528  23.073  -5.783  0.00  0.00     0.139 C 
ATOM     68  O   UNK d   0     -35.755  23.841  -6.465  0.00  0.00    -0.650 OA
BRANCH  67  69
ATOM     69  O   UNK d   0     -37.873  23.168  -6.141  0.00  0.00    -0.776 OA
ATOM     70  H   UNK d   0     -38.067  23.184  -7.153  0.00  0.00     0.167 HD
ENDBRANCH  67  69
ENDBRANCH  66  67
ENDBRANCH  65  66
ENDBRANCH  14  65
ENDBRANCH   6   7
ENDBRANCH   5   6
ENDBRANCH   2   5
TORSDOF 28
ENDMDL
MODEL 17
REMARK VINA RESULT:      -6.2     21.635     25.137
REMARK  28 active torsions:
REMARK  status: ('A' for Active; 'I' for Inactive)
REMARK    1  A    between atoms: C_2  and  O_3 
REMARK    2  A    between atoms: C_2  and  C_4 
REMARK    3  A    between atoms: C_4  and  C_5 
REMARK    4  A    between atoms: C_5  and  C_6 
REMARK    5  A    between atoms: C_7  and  C_8 
REMARK    6  A    between atoms: C_8  and  C_9 
REMARK    7  A    between atoms: C_9  and  O_11 
REMARK    8  A    between atoms: C_28  and  C_29 
REMARK    9  A    between atoms: C_29  and  C_30 
REMARK   10  A    between atoms: C_30  and  O_32 
REMARK   11  A    between atoms: C_33  and  C_34 
REMARK   12  A    between atoms: C_34  and  C_35 
REMARK   13  A    between atoms: C_35  and  C_36 
REMARK   14  A    between atoms: C_36  and  O_38 
REMARK   15  A    between atoms: C_39  and  C_40 
REMARK   16  A    between atoms: C_40  and  C_41 
REMARK   17  A    between atoms: C_41  and  C_42 
REMARK   18  A    between atoms: C_42  and  O_44 
REMARK   19  A    between atoms: C_45  and  C_46 
REMARK   20  A    between atoms: C_46  and  C_47 
REMARK   21  A    between atoms: C_47  and  O_49 
REMARK   22  A    between atoms: C_50  and  C_51 
REMARK   23  A    between atoms: C_51  and  C_52 
REMARK   24  A    between atoms: C_52  and  O_54 
REMARK   25  A    between atoms: C_55  and  C_56 
REMARK   26  A    between atoms: C_56  and  C_57 
REMARK   27  A    between atoms: C_57  and  C_58 
REMARK   28  A    between atoms: C_58  and  O_60 
ROOT
ATOM      1  O   UNK d   0     -43.427  22.988  -9.040  0.00  0.00    -0.650 OA
ATOM      2  C   UNK d   0     -43.892  21.974  -8.473  0.00  0.00     0.139 C 
ENDROOT
BRANCH   2   3
ATOM      3  O   UNK d   0     -43.709  20.739  -9.046  0.00  0.00    -0.776 OA
ATOM      4  H   UNK d   0     -44.471  20.264  -9.534  0.00  0.00     0.167 HD
ENDBRANCH   2   3
BRANCH   2   5
ATOM      5  C   UNK d   0     -44.639  22.110  -7.191  0.00  0.00     0.115 C 
BRANCH   5   6
ATOM      6  C   UNK d   0     -43.787  22.812  -6.168  0.00  0.00     0.052 C 
BRANCH   6   7
ATOM      7  C   UNK d   0     -43.042  21.850  -5.273  0.00  0.00    -0.020 A 
ATOM      8  C   UNK d   0     -41.819  21.408  -5.418  0.00  0.00    -0.011 A 
ATOM      9  C   UNK d   0     -41.541  20.498  -4.320  0.00  0.00     0.067 A 
ATOM     10  C   UNK d   0     -40.446  19.731  -3.893  0.00  0.00     0.062 C 
ATOM     11  N   UNK d   0     -42.653  20.439  -3.557  0.00  0.00    -0.248 NA
ATOM     12  C   UNK d   0     -40.272  19.124  -2.644  0.00  0.00     0.041 A 
ATOM     13  N   UNK d   0     -41.129  18.435  -1.866  0.00  0.00    -0.355 N 
ATOM     14  C   UNK d   0     -39.033  19.254  -1.991  0.00  0.00    -0.022 A 
ATOM     15  C   UNK d   0     -40.467  18.131  -0.734  0.00  0.00     0.042 A 
ATOM     16  H   UNK d   0     -42.174  18.153  -2.121  0.00  0.00     0.166 HD
ATOM     17  C   UNK d   0     -40.890  17.422   0.409  0.00  0.00     0.062 C 
ATOM     18  C   UNK d   0     -39.150  18.628  -0.775  0.00  0.00    -0.013 A 
ATOM     19  C   UNK d   0     -42.067  17.531   1.104  0.00  0.00     0.067 A 
ATOM     20  N   UNK d   0     -43.039  18.250   0.538  0.00  0.00    -0.248 NA
ATOM     21  C   UNK d   0     -42.574  17.056   2.381  0.00  0.00    -0.011 A 
ATOM     22  C   UNK d   0     -44.145  18.282   1.353  0.00  0.00     0.066 A 
ATOM     23  C   UNK d   0     -45.249  18.967   0.868  0.00  0.00     0.062 C 
ATOM     24  C   UNK d   0     -43.788  17.502   2.522  0.00  0.00    -0.020 A 
ATOM     25  C   UNK d   0     -45.408  19.559  -0.395  0.00  0.00     0.041 A 
ATOM     26  N   UNK d   0     -44.561  20.257  -1.161  0.00  0.00    -0.355 N 
ATOM     27  C   UNK d   0     -46.650  19.425  -1.051  0.00  0.00    -0.022 A 
ATOM     28  C   UNK d   0     -45.221  20.569  -2.287  0.00  0.00     0.042 A 
ATOM     29  H   UNK d   0     -43.514  20.549  -0.899  0.00  0.00     0.166 HD
ATOM     30  C   UNK d   0     -44.816  21.281  -3.427  0.00  0.00     0.062 C 
ATOM     31  C   UNK d   0     -46.541  20.061  -2.249  0.00  0.00    -0.013 A 
ATOM     32  C   UNK d   0     -43.593  21.230  -4.077  0.00  0.00     0.066 A 
BRANCH   8  33
ATOM     33  C   UNK d   0     -40.875  21.755  -6.497  0.00  0.00     0.151 C 
BRANCH  33  34
ATOM     34  C   UNK d   0     -40.368  20.570  -7.214  0.00  0.00     0.143 C 
ATOM     35  O   UNK d   0     -39.217  20.154  -7.020  0.00  0.00    -0.650 OA
BRANCH  34  36
ATOM     36  O   UNK d   0     -41.186  19.922  -8.110  0.00  0.00    -0.776 OA
ATOM     37  H   UNK d   0     -40.810  19.508  -8.974  0.00  0.00     0.167 HD
ENDBRANCH  34  36
ENDBRANCH  33  34
ENDBRANCH   8  33
BRANCH  31  38
ATOM     38  C   UNK d   0     -47.619  20.169  -3.303  0.00  0.00     0.151 C 
BRANCH  38  39
ATOM     39  C   UNK d   0     -47.390  19.293  -4.432  0.00  0.00     0.143 C 
ATOM     40  O   UNK d   0     -47.447  19.694  -5.608  0.00  0.00    -0.650 OA
BRANCH  39  41
ATOM     41  O   UNK d   0     -47.093  17.949  -4.209  0.00  0.00    -0.776 OA
ATOM     42  H   UNK d   0     -47.830  17.271  -4.425  0.00  0.00     0.167 HD
ENDBRANCH  39  41
ENDBRANCH  38  39
ENDBRANCH  31  38
BRANCH  27  43
ATOM     43  C   UNK d   0     -47.908  18.732  -0.589  0.00  0.00     0.052 C 
BRANCH  43  44
ATOM     44  C   UNK d   0     -47.929  17.272  -0.905  0.00  0.00     0.115 C 
BRANCH  44  45
ATOM     45  C   UNK d   0     -49.289  16.968  -1.421  0.00  0.00     0.139 C 
ATOM     46  O   UNK d   0     -49.499  17.108  -2.652  0.00  0.00    -0.650 OA
BRANCH  45  47
ATOM     47  O   UNK d   0     -50.317  16.538  -0.611  0.00  0.00    -0.776 OA
ATOM     48  H   UNK d   0     -50.999  15.820  -0.904  0.00  0.00     0.167 HD
ENDBRANCH  45  47
ENDBRANCH  44  45
ENDBRANCH  43  44
ENDBRANCH  27  43
BRANCH  24  49
ATOM     49  C   UNK d   0     -44.688  17.227   3.656  0.00  0.00     0.052 C 
BRANCH  49  50
ATOM     50  C   UNK d   0     -44.468  18.233   4.756  0.00  0.00     0.115 C 
BRANCH  50  51
ATOM     51  C   UNK d   0     -45.196  19.491   4.663  0.00  0.00     0.139 C 
ATOM     52  O   UNK d   0     -44.691  20.531   4.177  0.00  0.00    -0.650 OA
BRANCH  51  53
ATOM     53  O   UNK d   0     -46.501  19.564   5.125  0.00  0.00    -0.776 OA
ATOM     54  H   UNK d   0     -47.095  18.763   5.002  0.00  0.00     0.167 HD
ENDBRANCH  51  53
ENDBRANCH  50  51
ENDBRANCH  49  50
ENDBRANCH  24  49
BRANCH  21  55
ATOM     55  C   UNK d   0     -41.793  16.202   3.324  0.00  0.00     0.151 C 
BRANCH  55  56
ATOM     56  C   UNK d   0     -40.719  16.955   3.990  0.00  0.00     0.143 C 
ATOM     57  O   UNK d   0     -39.523  16.869   3.649  0.00  0.00    -0.650 OA
BRANCH  56  58
ATOM     58  O   UNK d   0     -41.074  17.795   5.044  0.00  0.00    -0.776 OA
ATOM     59  H   UNK d   0     -41.416  18.731   4.760  0.00  0.00     0.167 HD
ENDBRANCH  56  58
ENDBRANCH  55  56
ENDBRANCH  21  55
BRANCH  18  60
ATOM     60  C   UNK d   0     -38.054  18.532   0.257  0.00  0.00     0.151 C 
BRANCH  60  61
ATOM     61  C   UNK d   0     -38.256  19.671   1.166  0.00  0.00     0.143 C 
ATOM     62  O   UNK d   0     -38.125  20.866   0.899  0.00  0.00    -0.650 OA
BRANCH  61  63
ATOM     63  O   UNK d   0     -38.641  19.329   2.485  0.00  0.00    -0.776 OA
ATOM     64  H   UNK d   0     -39.316  18.604   2.656  0.00  0.00     0.167 HD
ENDBRANCH  61  63
ENDBRANCH  60  61
ENDBRANCH  18  60
BRANCH  14  65
ATOM     65  C   UNK d   0     -37.730  19.832  -2.465  0.00  0.00     0.052 C 
BRANCH  65  66
ATOM     66  C   UNK d   0     -37.039  18.971  -3.462  0.00  0.00     0.115 C 
BRANCH  66  67
ATOM     67  C   UNK d   0     -35.605  18.925  -3.491  0.00  0.00     0.139 C 
ATOM     68  O   UNK d   0     -34.955  20.034  -3.499  0.00  0.00    -0.650 OA
BRANCH  67  69
ATOM     69  O   UNK d   0     -34.787  17.795  -3.512  0.00  0.00    -0.776 OA
ATOM     70  H   UNK d   0     -35.112  17.018  -4.106  0.00  0.00     0.167 HD
ENDBRANCH  67  69
ENDBRANCH  66  67
ENDBRANCH  65  66
ENDBRANCH  14  65
ENDBRANCH   6   7
ENDBRANCH   5   6
ENDBRANCH   2   5
TORSDOF 28
ENDMDL
MODEL 18
REMARK VINA RESULT:      -6.2     20.829     23.118
REMARK  28 active torsions:
REMARK  status: ('A' for Active; 'I' for Inactive)
REMARK    1  A    between atoms: C_2  and  O_3 
REMARK    2  A    between atoms: C_2  and  C_4 
REMARK    3  A    between atoms: C_4  and  C_5 
REMARK    4  A    between atoms: C_5  and  C_6 
REMARK    5  A    between atoms: C_7  and  C_8 
REMARK    6  A    between atoms: C_8  and  C_9 
REMARK    7  A    between atoms: C_9  and  O_11 
REMARK    8  A    between atoms: C_28  and  C_29 
REMARK    9  A    between atoms: C_29  and  C_30 
REMARK   10  A    between atoms: C_30  and  O_32 
REMARK   11  A    between atoms: C_33  and  C_34 
REMARK   12  A    between atoms: C_34  and  C_35 
REMARK   13  A    between atoms: C_35  and  C_36 
REMARK   14  A    between atoms: C_36  and  O_38 
REMARK   15  A    between atoms: C_39  and  C_40 
REMARK   16  A    between atoms: C_40  and  C_41 
REMARK   17  A    between atoms: C_41  and  C_42 
REMARK   18  A    between atoms: C_42  and  O_44 
REMARK   19  A    between atoms: C_45  and  C_46 
REMARK   20  A    between atoms: C_46  and  C_47 
REMARK   21  A    between atoms: C_47  and  O_49 
REMARK   22  A    between atoms: C_50  and  C_51 
REMARK   23  A    between atoms: C_51  and  C_52 
REMARK   24  A    between atoms: C_52  and  O_54 
REMARK   25  A    between atoms: C_55  and  C_56 
REMARK   26  A    between atoms: C_56  and  C_57 
REMARK   27  A    between atoms: C_57  and  C_58 
REMARK   28  A    between atoms: C_58  and  O_60 
ROOT
ATOM      1  O   UNK d   0     -33.600  19.632  -2.303  0.00  0.00    -0.650 OA
ATOM      2  C   UNK d   0     -34.332  19.204  -3.223  0.00  0.00     0.139 C 
ENDROOT
BRANCH   2   3
ATOM      3  O   UNK d   0     -34.460  17.849  -3.406  0.00  0.00    -0.776 OA
ATOM      4  H   UNK d   0     -34.042  17.384  -4.216  0.00  0.00     0.167 HD
ENDBRANCH   2   3
BRANCH   2   5
ATOM      5  C   UNK d   0     -35.056  20.160  -4.109  0.00  0.00     0.115 C 
BRANCH   5   6
ATOM      6  C   UNK d   0     -36.360  19.560  -4.561  0.00  0.00     0.052 C 
BRANCH   6   7
ATOM      7  C   UNK d   0     -37.544  20.100  -3.795  0.00  0.00    -0.020 A 
ATOM      8  C   UNK d   0     -38.391  21.020  -4.180  0.00  0.00    -0.011 A 
ATOM      9  C   UNK d   0     -39.354  21.215  -3.108  0.00  0.00     0.067 A 
ATOM     10  C   UNK d   0     -40.490  22.012  -2.901  0.00  0.00     0.062 C 
ATOM     11  N   UNK d   0     -39.014  20.376  -2.107  0.00  0.00    -0.248 NA
ATOM     12  C   UNK d   0     -41.461  21.860  -1.905  0.00  0.00     0.041 A 
ATOM     13  N   UNK d   0     -41.348  21.582  -0.592  0.00  0.00    -0.355 N 
ATOM     14  C   UNK d   0     -42.819  21.945  -2.261  0.00  0.00    -0.022 A 
ATOM     15  C   UNK d   0     -42.601  21.479  -0.108  0.00  0.00     0.042 A 
ATOM     16  H   UNK d   0     -40.403  21.479  -0.016  0.00  0.00     0.166 HD
ATOM     17  C   UNK d   0     -43.055  21.204   1.198  0.00  0.00     0.062 C 
ATOM     18  C   UNK d   0     -43.550  21.700  -1.124  0.00  0.00    -0.013 A 
ATOM     19  C   UNK d   0     -42.616  20.251   2.081  0.00  0.00     0.067 A 
ATOM     20  N   UNK d   0     -41.484  19.615   1.770  0.00  0.00    -0.248 NA
ATOM     21  C   UNK d   0     -43.086  19.698   3.340  0.00  0.00    -0.011 A 
ATOM     22  C   UNK d   0     -41.180  18.685   2.734  0.00  0.00     0.066 A 
ATOM     23  C   UNK d   0     -40.002  17.974   2.555  0.00  0.00     0.062 C 
ATOM     24  C   UNK d   0     -42.243  18.780   3.715  0.00  0.00    -0.020 A 
ATOM     25  C   UNK d   0     -39.034  18.151   1.555  0.00  0.00     0.041 A 
ATOM     26  N   UNK d   0     -39.146  18.413   0.247  0.00  0.00    -0.355 N 
ATOM     27  C   UNK d   0     -37.671  18.070   1.914  0.00  0.00    -0.022 A 
ATOM     28  C   UNK d   0     -37.899  18.507  -0.240  0.00  0.00     0.042 A 
ATOM     29  H   UNK d   0     -40.097  18.505  -0.333  0.00  0.00     0.166 HD
ATOM     30  C   UNK d   0     -37.432  18.770  -1.537  0.00  0.00     0.062 C 
ATOM     31  C   UNK d   0     -36.946  18.295   0.784  0.00  0.00    -0.013 A 
ATOM     32  C   UNK d   0     -37.934  19.676  -2.458  0.00  0.00     0.066 A 
BRANCH   8  33
ATOM     33  C   UNK d   0     -38.385  21.748  -5.462  0.00  0.00     0.151 C 
BRANCH  33  34
ATOM     34  C   UNK d   0     -39.476  21.328  -6.361  0.00  0.00     0.143 C 
ATOM     35  O   UNK d   0     -39.850  20.147  -6.400  0.00  0.00    -0.650 OA
BRANCH  34  36
ATOM     36  O   UNK d   0     -40.084  22.262  -7.167  0.00  0.00    -0.776 OA
ATOM     37  H   UNK d   0     -41.045  22.128  -7.510  0.00  0.00     0.167 HD
ENDBRANCH  34  36
ENDBRANCH  33  34
ENDBRANCH   8  33
BRANCH  31  38
ATOM     38  C   UNK d   0     -35.438  18.321   0.683  0.00  0.00     0.151 C 
BRANCH  38  39
ATOM     39  C   UNK d   0     -34.897  17.131   0.061  0.00  0.00     0.143 C 
ATOM     40  O   UNK d   0     -35.504  16.046   0.059  0.00  0.00    -0.650 OA
BRANCH  39  41
ATOM     41  O   UNK d   0     -33.651  17.189  -0.562  0.00  0.00    -0.776 OA
ATOM     42  H   UNK d   0     -33.636  17.050  -1.578  0.00  0.00     0.167 HD
ENDBRANCH  39  41
ENDBRANCH  38  39
ENDBRANCH  31  38
BRANCH  27  43
ATOM     43  C   UNK d   0     -37.049  17.792   3.259  0.00  0.00     0.052 C 
BRANCH  43  44
ATOM     44  C   UNK d   0     -36.915  16.334   3.558  0.00  0.00     0.115 C 
BRANCH  44  45
ATOM     45  C   UNK d   0     -35.462  16.066   3.721  0.00  0.00     0.139 C 
ATOM     46  O   UNK d   0     -34.878  16.558   4.718  0.00  0.00    -0.650 OA
BRANCH  45  47
ATOM     47  O   UNK d   0     -34.740  15.300   2.832  0.00  0.00    -0.776 OA
ATOM     48  H   UNK d   0     -33.725  15.420   2.685  0.00  0.00     0.167 HD
ENDBRANCH  45  47
ENDBRANCH  44  45
ENDBRANCH  43  44
ENDBRANCH  27  43
BRANCH  24  49
ATOM     49  C   UNK d   0     -42.315  17.990   4.956  0.00  0.00     0.052 C 
BRANCH  49  50
ATOM     50  C   UNK d   0     -41.685  18.748   6.097  0.00  0.00     0.115 C 
BRANCH  50  51
ATOM     51  C   UNK d   0     -42.538  19.066   7.234  0.00  0.00     0.139 C 
ATOM     52  O   UNK d   0     -42.081  19.472   8.329  0.00  0.00    -0.650 OA
BRANCH  51  53
ATOM     53  O   UNK d   0     -43.912  18.920   7.124  0.00  0.00    -0.776 OA
ATOM     54  H   UNK d   0     -44.495  19.694   7.388  0.00  0.00     0.167 HD
ENDBRANCH  51  53
ENDBRANCH  50  51
ENDBRANCH  49  50
ENDBRANCH  24  49
BRANCH  21  55
ATOM     55  C   UNK d   0     -44.325  20.149   4.039  0.00  0.00     0.151 C 
BRANCH  55  56
ATOM     56  C   UNK d   0     -45.506  19.379   3.620  0.00  0.00     0.143 C 
ATOM     57  O   UNK d   0     -45.923  18.386   4.250  0.00  0.00    -0.650 OA
BRANCH  56  58
ATOM     58  O   UNK d   0     -46.175  19.791   2.469  0.00  0.00    -0.776 OA
ATOM     59  H   UNK d   0     -46.745  20.649   2.579  0.00  0.00     0.167 HD
ENDBRANCH  56  58
ENDBRANCH  55  56
ENDBRANCH  21  55
BRANCH  18  60
ATOM     60  C   UNK d   0     -45.057  21.684  -1.052  0.00  0.00     0.151 C 
BRANCH  60  61
ATOM     61  C   UNK d   0     -45.454  20.278  -1.222  0.00  0.00     0.143 C 
ATOM     62  O   UNK d   0     -44.986  19.466  -2.021  0.00  0.00    -0.650 OA
BRANCH  61  63
ATOM     63  O   UNK d   0     -46.488  19.836  -0.362  0.00  0.00    -0.776 OA
ATOM     64  H   UNK d   0     -47.165  19.161  -0.670  0.00  0.00     0.167 HD
ENDBRANCH  61  63
ENDBRANCH  60  61
ENDBRANCH  18  60
BRANCH  14  65
ATOM     65  C   UNK d   0     -43.472  22.332  -3.557  0.00  0.00     0.052 C 
BRANCH  65  66
ATOM     66  C   UNK d   0     -43.317  21.300  -4.617  0.00  0.00     0.115 C 
BRANCH  66  67
ATOM     67  C   UNK d   0     -43.362  21.686  -5.999  0.00  0.00     0.139 C 
ATOM     68  O   UNK d   0     -42.781  22.778  -6.350  0.00  0.00    -0.650 OA
BRANCH  67  69
ATOM     69  O   UNK d   0     -43.975  21.012  -7.055  0.00  0.00    -0.776 OA
ATOM     70  H   UNK d   0     -43.342  20.649  -7.782  0.00  0.00     0.167 HD
ENDBRANCH  67  69
ENDBRANCH  66  67
ENDBRANCH  65  66
ENDBRANCH  14  65
ENDBRANCH   6   7
ENDBRANCH   5   6
ENDBRANCH   2   5
TORSDOF 28
ENDMDL
MODEL 19
REMARK VINA RESULT:      -6.2     20.552     23.257
REMARK  28 active torsions:
REMARK  status: ('A' for Active; 'I' for Inactive)
REMARK    1  A    between atoms: C_2  and  O_3 
REMARK    2  A    between atoms: C_2  and  C_4 
REMARK    3  A    between atoms: C_4  and  C_5 
REMARK    4  A    between atoms: C_5  and  C_6 
REMARK    5  A    between atoms: C_7  and  C_8 
REMARK    6  A    between atoms: C_8  and  C_9 
REMARK    7  A    between atoms: C_9  and  O_11 
REMARK    8  A    between atoms: C_28  and  C_29 
REMARK    9  A    between atoms: C_29  and  C_30 
REMARK   10  A    between atoms: C_30  and  O_32 
REMARK   11  A    between atoms: C_33  and  C_34 
REMARK   12  A    between atoms: C_34  and  C_35 
REMARK   13  A    between atoms: C_35  and  C_36 
REMARK   14  A    between atoms: C_36  and  O_38 
REMARK   15  A    between atoms: C_39  and  C_40 
REMARK   16  A    between atoms: C_40  and  C_41 
REMARK   17  A    between atoms: C_41  and  C_42 
REMARK   18  A    between atoms: C_42  and  O_44 
REMARK   19  A    between atoms: C_45  and  C_46 
REMARK   20  A    between atoms: C_46  and  C_47 
REMARK   21  A    between atoms: C_47  and  O_49 
REMARK   22  A    between atoms: C_50  and  C_51 
REMARK   23  A    between atoms: C_51  and  C_52 
REMARK   24  A    between atoms: C_52  and  O_54 
REMARK   25  A    between atoms: C_55  and  C_56 
REMARK   26  A    between atoms: C_56  and  C_57 
REMARK   27  A    between atoms: C_57  and  C_58 
REMARK   28  A    between atoms: C_58  and  O_60 
ROOT
ATOM      1  O   UNK d   0     -34.741  15.369   0.494  0.00  0.00    -0.650 OA
ATOM      2  C   UNK d   0     -35.341  16.461   0.606  0.00  0.00     0.139 C 
ENDROOT
BRANCH   2   3
ATOM      3  O   UNK d   0     -35.580  16.973   1.859  0.00  0.00    -0.776 OA
ATOM      4  H   UNK d   0     -35.257  17.908   2.116  0.00  0.00     0.167 HD
ENDBRANCH   2   3
BRANCH   2   5
ATOM      5  C   UNK d   0     -35.792  17.194  -0.610  0.00  0.00     0.115 C 
BRANCH   5   6
ATOM      6  C   UNK d   0     -35.907  18.665  -0.314  0.00  0.00     0.052 C 
BRANCH   6   7
ATOM      7  C   UNK d   0     -37.032  19.325  -1.075  0.00  0.00    -0.020 A 
ATOM      8  C   UNK d   0     -36.937  20.132  -2.101  0.00  0.00    -0.011 A 
ATOM      9  C   UNK d   0     -38.283  20.520  -2.488  0.00  0.00     0.067 A 
ATOM     10  C   UNK d   0     -38.858  21.320  -3.488  0.00  0.00     0.062 C 
ATOM     11  N   UNK d   0     -39.136  19.907  -1.641  0.00  0.00    -0.248 NA
ATOM     12  C   UNK d   0     -40.201  21.353  -3.879  0.00  0.00     0.041 A 
ATOM     13  N   UNK d   0     -41.335  21.348  -3.153  0.00  0.00    -0.355 N 
ATOM     14  C   UNK d   0     -40.512  21.337  -5.251  0.00  0.00    -0.022 A 
ATOM     15  C   UNK d   0     -42.357  21.321  -4.029  0.00  0.00     0.042 A 
ATOM     16  H   UNK d   0     -41.412  21.383  -2.044  0.00  0.00     0.166 HD
ATOM     17  C   UNK d   0     -43.749  21.306  -3.809  0.00  0.00     0.062 C 
ATOM     18  C   UNK d   0     -41.880  21.313  -5.354  0.00  0.00    -0.013 A 
ATOM     19  C   UNK d   0     -44.473  20.561  -2.914  0.00  0.00     0.067 A 
ATOM     20  N   UNK d   0     -43.783  19.897  -1.982  0.00  0.00    -0.248 NA
ATOM     21  C   UNK d   0     -45.879  20.265  -2.697  0.00  0.00    -0.011 A 
ATOM     22  C   UNK d   0     -44.636  19.188  -1.173  0.00  0.00     0.066 A 
ATOM     23  C   UNK d   0     -44.053  18.479  -0.133  0.00  0.00     0.062 C 
ATOM     24  C   UNK d   0     -45.968  19.458  -1.679  0.00  0.00    -0.020 A 
ATOM     25  C   UNK d   0     -42.702  18.469   0.250  0.00  0.00     0.041 A 
ATOM     26  N   UNK d   0     -41.575  18.459  -0.471  0.00  0.00    -0.355 N 
ATOM     27  C   UNK d   0     -42.392  18.490   1.627  0.00  0.00    -0.022 A 
ATOM     28  C   UNK d   0     -40.554  18.477   0.401  0.00  0.00     0.042 A 
ATOM     29  H   UNK d   0     -41.499  18.413  -1.585  0.00  0.00     0.166 HD
ATOM     30  C   UNK d   0     -39.166  18.482   0.196  0.00  0.00     0.062 C 
ATOM     31  C   UNK d   0     -41.035  18.496   1.732  0.00  0.00    -0.013 A 
ATOM     32  C   UNK d   0     -38.446  19.173  -0.767  0.00  0.00     0.066 A 
BRANCH   8  33
ATOM     33  C   UNK d   0     -35.697  20.584  -2.759  0.00  0.00     0.151 C 
BRANCH  33  34
ATOM     34  C   UNK d   0     -35.321  19.742  -3.908  0.00  0.00     0.143 C 
ATOM     35  O   UNK d   0     -36.063  18.830  -4.299  0.00  0.00    -0.650 OA
BRANCH  34  36
ATOM     36  O   UNK d   0     -34.128  19.974  -4.553  0.00  0.00    -0.776 OA
ATOM     37  H   UNK d   0     -33.932  19.564  -5.477  0.00  0.00     0.167 HD
ENDBRANCH  34  36
ENDBRANCH  33  34
ENDBRANCH   8  33
BRANCH  31  38
ATOM     38  C   UNK d   0     -40.239  18.531   3.016  0.00  0.00     0.151 C 
BRANCH  38  39
ATOM     39  C   UNK d   0     -39.633  17.256   3.335  0.00  0.00     0.143 C 
ATOM     40  O   UNK d   0     -40.306  16.228   3.527  0.00  0.00    -0.650 OA
BRANCH  39  41
ATOM     41  O   UNK d   0     -38.245  17.162   3.434  0.00  0.00    -0.776 OA
ATOM     42  H   UNK d   0     -37.853  17.098   4.379  0.00  0.00     0.167 HD
ENDBRANCH  39  41
ENDBRANCH  38  39
ENDBRANCH  31  38
BRANCH  27  43
ATOM     43  C   UNK d   0     -43.317  18.502   2.819  0.00  0.00     0.052 C 
BRANCH  43  44
ATOM     44  C   UNK d   0     -43.693  17.134   3.289  0.00  0.00     0.115 C 
BRANCH  44  45
ATOM     45  C   UNK d   0     -44.799  17.310   4.265  0.00  0.00     0.139 C 
ATOM     46  O   UNK d   0     -45.973  17.381   3.823  0.00  0.00    -0.650 OA
BRANCH  45  47
ATOM     47  O   UNK d   0     -44.590  17.392   5.625  0.00  0.00    -0.776 OA
ATOM     48  H   UNK d   0     -45.273  17.048   6.319  0.00  0.00     0.167 HD
ENDBRANCH  45  47
ENDBRANCH  44  45
ENDBRANCH  43  44
ENDBRANCH  27  43
BRANCH  24  49
ATOM     49  C   UNK d   0     -47.213  18.934  -1.092  0.00  0.00     0.052 C 
BRANCH  49  50
ATOM     50  C   UNK d   0     -47.300  17.442  -1.290  0.00  0.00     0.115 C 
BRANCH  50  51
ATOM     51  C   UNK d   0     -47.644  16.968  -2.624  0.00  0.00     0.139 C 
ATOM     52  O   UNK d   0     -48.780  16.523  -2.911  0.00  0.00    -0.650 OA
BRANCH  51  53
ATOM     53  O   UNK d   0     -46.691  16.998  -3.630  0.00  0.00    -0.776 OA
ATOM     54  H   UNK d   0     -46.284  16.129  -3.926  0.00  0.00     0.167 HD
ENDBRANCH  51  53
ENDBRANCH  50  51
ENDBRANCH  49  50
ENDBRANCH  24  49
BRANCH  21  55
ATOM     55  C   UNK d   0     -46.988  20.823  -3.526  0.00  0.00     0.151 C 
BRANCH  55  56
ATOM     56  C   UNK d   0     -46.853  20.457  -4.944  0.00  0.00     0.143 C 
ATOM     57  O   UNK d   0     -46.575  21.287  -5.832  0.00  0.00    -0.650 OA
BRANCH  56  58
ATOM     58  O   UNK d   0     -47.049  19.121  -5.291  0.00  0.00    -0.776 OA
ATOM     59  H   UNK d   0     -47.281  18.959  -6.288  0.00  0.00     0.167 HD
ENDBRANCH  56  58
ENDBRANCH  55  56
ENDBRANCH  21  55
BRANCH  18  60
ATOM     60  C   UNK d   0     -42.649  21.281  -6.652  0.00  0.00     0.151 C 
BRANCH  60  61
ATOM     61  C   UNK d   0     -43.008  22.678  -6.943  0.00  0.00     0.143 C 
ATOM     62  O   UNK d   0     -42.239  23.600  -7.214  0.00  0.00    -0.650 OA
BRANCH  61  63
ATOM     63  O   UNK d   0     -44.393  22.965  -6.900  0.00  0.00    -0.776 OA
ATOM     64  H   UNK d   0     -44.750  23.716  -6.336  0.00  0.00     0.167 HD
ENDBRANCH  61  63
ENDBRANCH  60  61
ENDBRANCH  18  60
BRANCH  14  65
ATOM     65  C   UNK d   0     -39.624  21.440  -6.458  0.00  0.00     0.052 C 
BRANCH  65  66
ATOM     66  C   UNK d   0     -39.514  20.162  -7.211  0.00  0.00     0.115 C 
BRANCH  66  67
ATOM     67  C   UNK d   0     -40.098  20.053  -8.518  0.00  0.00     0.139 C 
ATOM     68  O   UNK d   0     -39.493  20.607  -9.509  0.00  0.00    -0.650 OA
BRANCH  67  69
ATOM     69  O   UNK d   0     -41.279  19.403  -8.874  0.00  0.00    -0.776 OA
ATOM     70  H   UNK d   0     -41.481  19.360  -9.883  0.00  0.00     0.167 HD
ENDBRANCH  67  69
ENDBRANCH  66  67
ENDBRANCH  65  66
ENDBRANCH  14  65
ENDBRANCH   6   7
ENDBRANCH   5   6
ENDBRANCH   2   5
TORSDOF 28
ENDMDL
MODEL 20
REMARK VINA RESULT:      -6.2     19.010     21.631
REMARK  28 active torsions:
REMARK  status: ('A' for Active; 'I' for Inactive)
REMARK    1  A    between atoms: C_2  and  O_3 
REMARK    2  A    between atoms: C_2  and  C_4 
REMARK    3  A    between atoms: C_4  and  C_5 
REMARK    4  A    between atoms: C_5  and  C_6 
REMARK    5  A    between atoms: C_7  and  C_8 
REMARK    6  A    between atoms: C_8  and  C_9 
REMARK    7  A    between atoms: C_9  and  O_11 
REMARK    8  A    between atoms: C_28  and  C_29 
REMARK    9  A    between atoms: C_29  and  C_30 
REMARK   10  A    between atoms: C_30  and  O_32 
REMARK   11  A    between atoms: C_33  and  C_34 
REMARK   12  A    between atoms: C_34  and  C_35 
REMARK   13  A    between atoms: C_35  and  C_36 
REMARK   14  A    between atoms: C_36  and  O_38 
REMARK   15  A    between atoms: C_39  and  C_40 
REMARK   16  A    between atoms: C_40  and  C_41 
REMARK   17  A    between atoms: C_41  and  C_42 
REMARK   18  A    between atoms: C_42  and  O_44 
REMARK   19  A    between atoms: C_45  and  C_46 
REMARK   20  A    between atoms: C_46  and  C_47 
REMARK   21  A    between atoms: C_47  and  O_49 
REMARK   22  A    between atoms: C_50  and  C_51 
REMARK   23  A    between atoms: C_51  and  C_52 
REMARK   24  A    between atoms: C_52  and  O_54 
REMARK   25  A    between atoms: C_55  and  C_56 
REMARK   26  A    between atoms: C_56  and  C_57 
REMARK   27  A    between atoms: C_57  and  C_58 
REMARK   28  A    between atoms: C_58  and  O_60 
ROOT
ATOM      1  O   UNK d   0     -34.688  18.277   1.444  0.00  0.00    -0.650 OA
ATOM      2  C   UNK d   0     -34.263  17.922   0.322  0.00  0.00     0.139 C 
ENDROOT
BRANCH   2   3
ATOM      3  O   UNK d   0     -34.089  16.585   0.059  0.00  0.00    -0.776 OA
ATOM      4  H   UNK d   0     -33.375  16.040   0.546  0.00  0.00     0.167 HD
ENDBRANCH   2   3
BRANCH   2   5
ATOM      5  C   UNK d   0     -33.948  18.945  -0.716  0.00  0.00     0.115 C 
BRANCH   5   6
ATOM      6  C   UNK d   0     -34.430  18.480  -2.063  0.00  0.00     0.052 C 
BRANCH   6   7
ATOM      7  C   UNK d   0     -35.583  19.306  -2.584  0.00  0.00    -0.020 A 
ATOM      8  C   UNK d   0     -35.535  20.290  -3.444  0.00  0.00    -0.011 A 
ATOM      9  C   UNK d   0     -36.889  20.783  -3.632  0.00  0.00     0.067 A 
ATOM     10  C   UNK d   0     -37.507  21.776  -4.409  0.00  0.00     0.062 C 
ATOM     11  N   UNK d   0     -37.697  20.045  -2.842  0.00  0.00    -0.248 NA
ATOM     12  C   UNK d   0     -38.874  21.922  -4.666  0.00  0.00     0.041 A 
ATOM     13  N   UNK d   0     -39.945  21.811  -3.857  0.00  0.00    -0.355 N 
ATOM     14  C   UNK d   0     -39.296  22.177  -5.983  0.00  0.00    -0.022 A 
ATOM     15  C   UNK d   0     -41.035  21.981  -4.629  0.00  0.00     0.042 A 
ATOM     16  H   UNK d   0     -39.930  21.635  -2.758  0.00  0.00     0.166 HD
ATOM     17  C   UNK d   0     -42.403  21.965  -4.293  0.00  0.00     0.062 C 
ATOM     18  C   UNK d   0     -40.668  22.212  -5.968  0.00  0.00    -0.013 A 
ATOM     19  C   UNK d   0     -43.085  21.083  -3.494  0.00  0.00     0.067 A 
ATOM     20  N   UNK d   0     -42.352  20.234  -2.768  0.00  0.00    -0.248 NA
ATOM     21  C   UNK d   0     -44.481  20.791  -3.213  0.00  0.00    -0.011 A 
ATOM     22  C   UNK d   0     -43.168  19.408  -2.034  0.00  0.00     0.066 A 
ATOM     23  C   UNK d   0     -42.534  18.497  -1.202  0.00  0.00     0.062 C 
ATOM     24  C   UNK d   0     -44.523  19.807  -2.361  0.00  0.00    -0.020 A 
ATOM     25  C   UNK d   0     -41.159  18.375  -0.948  0.00  0.00     0.041 A 
ATOM     26  N   UNK d   0     -40.096  18.471  -1.755  0.00  0.00    -0.355 N 
ATOM     27  C   UNK d   0     -40.737  18.124   0.376  0.00  0.00    -0.022 A 
ATOM     28  C   UNK d   0     -39.008  18.293  -0.989  0.00  0.00     0.042 A 
ATOM     29  H   UNK d   0     -40.113  18.637  -2.860  0.00  0.00     0.166 HD
ATOM     30  C   UNK d   0     -37.642  18.297  -1.311  0.00  0.00     0.062 C 
ATOM     31  C   UNK d   0     -39.377  18.071   0.359  0.00  0.00    -0.013 A 
ATOM     32  C   UNK d   0     -36.972  19.138  -2.186  0.00  0.00     0.066 A 
BRANCH   8  33
ATOM     33  C   UNK d   0     -34.333  20.825  -4.112  0.00  0.00     0.151 C 
BRANCH  33  34
ATOM     34  C   UNK d   0     -33.832  22.059  -3.481  0.00  0.00     0.143 C 
ATOM     35  O   UNK d   0     -33.109  22.012  -2.476  0.00  0.00    -0.650 OA
BRANCH  34  36
ATOM     36  O   UNK d   0     -34.173  23.279  -4.018  0.00  0.00    -0.776 OA
ATOM     37  H   UNK d   0     -35.057  23.743  -3.770  0.00  0.00     0.167 HD
ENDBRANCH  34  36
ENDBRANCH  33  34
ENDBRANCH   8  33
BRANCH  31  38
ATOM     38  C   UNK d   0     -38.480  17.836   1.552  0.00  0.00     0.151 C 
BRANCH  38  39
ATOM     39  C   UNK d   0     -38.043  19.067   2.176  0.00  0.00     0.143 C 
ATOM     40  O   UNK d   0     -38.566  20.166   1.919  0.00  0.00    -0.650 OA
BRANCH  39  41
ATOM     41  O   UNK d   0     -36.999  19.035   3.100  0.00  0.00    -0.776 OA
ATOM     42  H   UNK d   0     -36.509  18.142   3.212  0.00  0.00     0.167 HD
ENDBRANCH  39  41
ENDBRANCH  38  39
ENDBRANCH  31  38
BRANCH  27  43
ATOM     43  C   UNK d   0     -41.561  17.934   1.625  0.00  0.00     0.052 C 
BRANCH  43  44
ATOM     44  C   UNK d   0     -41.983  16.518   1.845  0.00  0.00     0.115 C 
BRANCH  44  45
ATOM     45  C   UNK d   0     -41.474  16.127   3.186  0.00  0.00     0.139 C 
ATOM     46  O   UNK d   0     -40.692  15.147   3.259  0.00  0.00    -0.650 OA
BRANCH  45  47
ATOM     47  O   UNK d   0     -41.820  16.796   4.340  0.00  0.00    -0.776 OA
ATOM     48  H   UNK d   0     -41.708  17.816   4.452  0.00  0.00     0.167 HD
ENDBRANCH  45  47
ENDBRANCH  44  45
ENDBRANCH  43  44
ENDBRANCH  27  43
BRANCH  24  49
ATOM     49  C   UNK d   0     -45.738  19.217  -1.775  0.00  0.00     0.052 C 
BRANCH  49  50
ATOM     50  C   UNK d   0     -46.011  17.866  -2.384  0.00  0.00     0.115 C 
BRANCH  50  51
ATOM     51  C   UNK d   0     -47.389  17.569  -2.752  0.00  0.00     0.139 C 
ATOM     52  O   UNK d   0     -47.828  16.398  -2.839  0.00  0.00    -0.650 OA
BRANCH  51  53
ATOM     53  O   UNK d   0     -48.266  18.607  -3.025  0.00  0.00    -0.776 OA
ATOM     54  H   UNK d   0     -47.891  19.536  -3.109  0.00  0.00     0.167 HD
ENDBRANCH  51  53
ENDBRANCH  50  51
ENDBRANCH  49  50
ENDBRANCH  24  49
BRANCH  21  55
ATOM     55  C   UNK d   0     -45.627  21.529  -3.821  0.00  0.00     0.151 C 
BRANCH  55  56
ATOM     56  C   UNK d   0     -46.122  20.871  -5.040  0.00  0.00     0.143 C 
ATOM     57  O   UNK d   0     -47.241  20.325  -5.105  0.00  0.00    -0.650 OA
BRANCH  56  58
ATOM     58  O   UNK d   0     -45.291  20.868  -6.159  0.00  0.00    -0.776 OA
ATOM     59  H   UNK d   0     -44.298  20.646  -5.965  0.00  0.00     0.167 HD
ENDBRANCH  56  58
ENDBRANCH  55  56
ENDBRANCH  21  55
BRANCH  18  60
ATOM     60  C   UNK d   0     -41.540  22.452  -7.176  0.00  0.00     0.151 C 
BRANCH  60  61
ATOM     61  C   UNK d   0     -41.854  21.121  -7.717  0.00  0.00     0.143 C 
ATOM     62  O   UNK d   0     -41.057  20.225  -7.996  0.00  0.00    -0.650 OA
BRANCH  61  63
ATOM     63  O   UNK d   0     -43.231  20.867  -7.929  0.00  0.00    -0.776 OA
ATOM     64  H   UNK d   0     -43.720  21.278  -8.705  0.00  0.00     0.167 HD
ENDBRANCH  61  63
ENDBRANCH  60  61
ENDBRANCH  18  60
BRANCH  14  65
ATOM     65  C   UNK d   0     -38.505  22.484  -7.224  0.00  0.00     0.052 C 
BRANCH  65  66
ATOM     66  C   UNK d   0     -38.144  23.922  -7.342  0.00  0.00     0.115 C 
BRANCH  66  67
ATOM     67  C   UNK d   0     -36.794  24.340  -7.088  0.00  0.00     0.139 C 
ATOM     68  O   UNK d   0     -36.471  25.559  -7.339  0.00  0.00    -0.650 OA
BRANCH  67  69
ATOM     69  O   UNK d   0     -35.743  23.572  -6.587  0.00  0.00    -0.776 OA
ATOM     70  H   UNK d   0     -34.863  24.078  -6.410  0.00  0.00     0.167 HD
ENDBRANCH  67  69
ENDBRANCH  66  67
ENDBRANCH  65  66
ENDBRANCH  14  65
ENDBRANCH   6   7
ENDBRANCH   5   6
ENDBRANCH   2   5
TORSDOF 28
ENDMDL
