MODEL 1
REMARK VINA RESULT:      -8.5      0.000      0.000
REMARK  16 active torsions:
REMARK  status: ('A' for Active; 'I' for Inactive)
REMARK    1  A    between atoms: C_6  and  C_7 
REMARK    2  A    between atoms: C_7  and  C_8 
REMARK    3  A    between atoms: C_8  and  C_9 
REMARK    4  A    between atoms: C_9  and  O_11 
REMARK    5  A    between atoms: C_16  and  C_17 
REMARK    6  A    between atoms: C_17  and  C_18 
REMARK    7  A    between atoms: C_18  and  C_19 
REMARK    8  A    between atoms: C_19  and  O_21 
REMARK    9  A    between atoms: C_28  and  C_29 
REMARK   10  A    between atoms: C_29  and  C_30 
REMARK   11  A    between atoms: C_30  and  C_31 
REMARK   12  A    between atoms: C_31  and  O_33 
REMARK   13  A    between atoms: C_42  and  C_43 
REMARK   14  A    between atoms: C_43  and  C_44 
REMARK   15  A    between atoms: C_44  and  C_45 
REMARK   16  A    between atoms: C_45  and  O_47 
ROOT
HETATM    1  C   UNK     0     -29.317  -5.436  15.417  0.00  0.00     0.051 C 
HETATM    2  C   UNK     0     -29.088  -4.175  14.608  0.00  0.00    -0.031 A 
HETATM    3  C   UNK     0     -28.003  -3.818  13.823  0.00  0.00     0.021 A 
HETATM    4  N   UNK     0     -28.216  -2.583  13.311  0.00  0.00    -0.361 N 
HETATM    5  C   UNK     0     -29.417  -2.148  13.745  0.00  0.00     0.022 A 
HETATM    6  C   UNK     0     -29.989  -3.119  14.561  0.00  0.00    -0.027 A 
HETATM    7  C   UNK     0     -30.159  -0.896  13.397  0.00  0.00     0.115 C 
HETATM    8  C   UNK     0     -30.151  -0.483  11.936  0.00  0.00     0.021 A 
HETATM    9  N   UNK     0     -30.177  -1.265  10.845  0.00  0.00    -0.361 N 
HETATM   10  C   UNK     0     -30.062  -0.473   9.758  0.00  0.00     0.022 A 
HETATM   11  C   UNK     0     -29.969   0.857  10.159  0.00  0.00    -0.027 A 
HETATM   12  C   UNK     0     -30.024   0.858  11.530  0.00  0.00    -0.031 A 
HETATM   13  C   UNK     0     -29.964   2.089  12.406  0.00  0.00     0.051 C 
HETATM   14  C   UNK     0     -29.981  -0.939   8.308  0.00  0.00     0.115 C 
HETATM   15  C   UNK     0     -28.787  -1.833   8.013  0.00  0.00     0.021 A 
HETATM   16  N   UNK     0     -28.478  -3.008   8.594  0.00  0.00    -0.361 N 
HETATM   17  C   UNK     0     -27.314  -3.444   8.108  0.00  0.00     0.022 A 
HETATM   18  C   UNK     0     -26.847  -2.514   7.158  0.00  0.00    -0.027 A 
HETATM   19  C   UNK     0     -27.779  -1.510   7.108  0.00  0.00    -0.031 A 
HETATM   20  C   UNK     0     -27.682  -0.314   6.178  0.00  0.00     0.051 C 
HETATM   21  C   UNK     0     -26.502  -4.664   8.479  0.00  0.00     0.115 C 
HETATM   22  C   UNK     0     -26.536  -5.112   9.921  0.00  0.00     0.022 A 
HETATM   23  N   UNK     0     -26.516  -4.356  11.026  0.00  0.00    -0.361 N 
HETATM   24  C   UNK     0     -26.710  -5.158  12.092  0.00  0.00     0.021 A 
HETATM   25  C   UNK     0     -26.848  -6.465  11.664  0.00  0.00    -0.031 A 
HETATM   26  C   UNK     0     -27.043  -7.722  12.486  0.00  0.00     0.051 C 
HETATM   27  C   UNK     0     -26.740  -6.461  10.278  0.00  0.00    -0.027 A 
HETATM   28  C   UNK     0     -26.857  -4.751  13.548  0.00  0.00     0.115 C 
HETATM   29  H   UNK     0     -27.499  -2.010  12.678  0.00  0.00     0.165 HD
HETATM   30  H   UNK     0     -30.326  -2.372  10.837  0.00  0.00     0.165 HD
HETATM   31  H   UNK     0     -29.118  -3.565   9.327  0.00  0.00     0.165 HD
HETATM   32  H   UNK     0     -26.320  -3.253  11.067  0.00  0.00     0.165 HD
ENDROOT
BRANCH   6  33
HETATM   33  C   UNK     0     -31.307  -3.118  15.293  0.00  0.00     0.051 C 
BRANCH  33  34
HETATM   34  C   UNK     0     -32.457  -3.254  14.323  0.00  0.00     0.114 C 
BRANCH  34  35
HETATM   35  C   UNK     0     -32.773  -4.707  14.208  0.00  0.00     0.139 C 
HETATM   36  O   UNK     0     -32.598  -5.478  15.196  0.00  0.00    -0.650 OA
BRANCH  35  37
HETATM   37  O   UNK     0     -33.267  -5.276  13.040  0.00  0.00    -0.776 OA
HETATM   38  H   UNK     0     -34.114  -4.949  12.603  0.00  0.00     0.167 HD
ENDBRANCH  35  37
ENDBRANCH  34  35
ENDBRANCH  33  34
ENDBRANCH   6  33
BRANCH  27  39
HETATM   39  C   UNK     0     -26.768  -7.703   9.459  0.00  0.00     0.051 C 
BRANCH  39  40
HETATM   40  C   UNK     0     -25.493  -8.295   9.054  0.00  0.00     0.114 C 
BRANCH  40  41
HETATM   41  C   UNK     0     -24.842  -7.946   7.811  0.00  0.00     0.139 C 
HETATM   42  O   UNK     0     -23.639  -8.144   7.591  0.00  0.00    -0.650 OA
BRANCH  41  43
HETATM   43  O   UNK     0     -25.608  -7.341   6.775  0.00  0.00    -0.776 OA
HETATM   44  H   UNK     0     -25.621  -7.861   5.906  0.00  0.00     0.167 HD
ENDBRANCH  41  43
ENDBRANCH  40  41
ENDBRANCH  39  40
ENDBRANCH  27  39
BRANCH  11  45
HETATM   45  C   UNK     0     -29.835   2.090   9.307  0.00  0.00     0.051 C 
BRANCH  45  46
HETATM   46  C   UNK     0     -31.080   2.469   8.590  0.00  0.00     0.114 C 
BRANCH  46  47
HETATM   47  C   UNK     0     -31.919   3.248   9.546  0.00  0.00     0.139 C 
HETATM   48  O   UNK     0     -32.989   2.755   9.931  0.00  0.00    -0.650 OA
BRANCH  47  49
HETATM   49  O   UNK     0     -31.518   4.483   9.989  0.00  0.00    -0.776 OA
HETATM   50  H   UNK     0     -32.056   5.335   9.788  0.00  0.00     0.167 HD
ENDBRANCH  47  49
ENDBRANCH  46  47
ENDBRANCH  45  46
ENDBRANCH  11  45
BRANCH  18  51
HETATM   51  C   UNK     0     -25.591  -2.587   6.329  0.00  0.00     0.051 C 
BRANCH  51  52
HETATM   52  C   UNK     0     -24.465  -2.071   7.213  0.00  0.00     0.114 C 
BRANCH  52  53
HETATM   53  C   UNK     0     -23.423  -3.094   7.429  0.00  0.00     0.139 C 
HETATM   54  O   UNK     0     -23.224  -3.547   8.568  0.00  0.00    -0.650 OA
BRANCH  53  55
HETATM   55  O   UNK     0     -22.675  -3.536   6.366  0.00  0.00    -0.776 OA
HETATM   56  H   UNK     0     -21.970  -4.235   6.398  0.00  0.00     0.167 HD
ENDBRANCH  53  55
ENDBRANCH  52  53
ENDBRANCH  51  52
ENDBRANCH  18  51
TORSDOF 16
ENDMDL
MODEL 2
REMARK VINA RESULT:      -8.4      3.046      9.910
REMARK  16 active torsions:
REMARK  status: ('A' for Active; 'I' for Inactive)
REMARK    1  A    between atoms: C_6  and  C_7 
REMARK    2  A    between atoms: C_7  and  C_8 
REMARK    3  A    between atoms: C_8  and  C_9 
REMARK    4  A    between atoms: C_9  and  O_11 
REMARK    5  A    between atoms: C_16  and  C_17 
REMARK    6  A    between atoms: C_17  and  C_18 
REMARK    7  A    between atoms: C_18  and  C_19 
REMARK    8  A    between atoms: C_19  and  O_21 
REMARK    9  A    between atoms: C_28  and  C_29 
REMARK   10  A    between atoms: C_29  and  C_30 
REMARK   11  A    between atoms: C_30  and  C_31 
REMARK   12  A    between atoms: C_31  and  O_33 
REMARK   13  A    between atoms: C_42  and  C_43 
REMARK   14  A    between atoms: C_43  and  C_44 
REMARK   15  A    between atoms: C_44  and  C_45 
REMARK   16  A    between atoms: C_45  and  O_47 
ROOT
HETATM    1  C   UNK     0     -25.917  -1.366   3.771  0.00  0.00     0.051 C 
HETATM    2  C   UNK     0     -25.554  -2.204   4.980  0.00  0.00    -0.031 A 
HETATM    3  C   UNK     0     -25.434  -1.826   6.308  0.00  0.00     0.021 A 
HETATM    4  N   UNK     0     -25.058  -2.901   7.040  0.00  0.00    -0.361 N 
HETATM    5  C   UNK     0     -24.944  -3.958   6.209  0.00  0.00     0.022 A 
HETATM    6  C   UNK     0     -25.244  -3.556   4.912  0.00  0.00    -0.027 A 
HETATM    7  C   UNK     0     -24.648  -5.390   6.526  0.00  0.00     0.115 C 
HETATM    8  C   UNK     0     -25.348  -5.979   7.738  0.00  0.00     0.021 A 
HETATM    9  N   UNK     0     -26.586  -5.730   8.191  0.00  0.00    -0.361 N 
HETATM   10  C   UNK     0     -26.753  -6.405   9.348  0.00  0.00     0.022 A 
HETATM   11  C   UNK     0     -25.594  -7.117   9.643  0.00  0.00    -0.027 A 
HETATM   12  C   UNK     0     -24.705  -6.853   8.632  0.00  0.00    -0.031 A 
HETATM   13  C   UNK     0     -23.306  -7.419   8.529  0.00  0.00     0.051 C 
HETATM   14  C   UNK     0     -27.987  -6.365  10.245  0.00  0.00     0.115 C 
HETATM   15  C   UNK     0     -28.307  -4.983  10.790  0.00  0.00     0.021 A 
HETATM   16  N   UNK     0     -28.563  -3.863  10.088  0.00  0.00    -0.361 N 
HETATM   17  C   UNK     0     -28.727  -2.843  10.934  0.00  0.00     0.022 A 
HETATM   18  C   UNK     0     -28.580  -3.324  12.251  0.00  0.00    -0.027 A 
HETATM   19  C   UNK     0     -28.319  -4.665  12.147  0.00  0.00    -0.031 A 
HETATM   20  C   UNK     0     -28.128  -5.583  13.340  0.00  0.00     0.051 C 
HETATM   21  C   UNK     0     -28.961  -1.376  10.654  0.00  0.00     0.115 C 
HETATM   22  C   UNK     0     -28.306  -0.787   9.427  0.00  0.00     0.022 A 
HETATM   23  N   UNK     0     -27.076  -1.020   8.950  0.00  0.00    -0.361 N 
HETATM   24  C   UNK     0     -26.960  -0.400   7.759  0.00  0.00     0.021 A 
HETATM   25  C   UNK     0     -28.139   0.258   7.467  0.00  0.00    -0.031 A 
HETATM   26  C   UNK     0     -28.478   1.121   6.269  0.00  0.00     0.051 C 
HETATM   27  C   UNK     0     -29.016   0.025   8.520  0.00  0.00    -0.027 A 
HETATM   28  C   UNK     0     -25.786  -0.449   6.796  0.00  0.00     0.115 C 
HETATM   29  H   UNK     0     -24.838  -2.897   8.133  0.00  0.00     0.165 HD
HETATM   30  H   UNK     0     -27.363  -5.117   7.672  0.00  0.00     0.165 HD
HETATM   31  H   UNK     0     -28.678  -3.798   8.975  0.00  0.00     0.165 HD
HETATM   32  H   UNK     0     -26.263  -1.591   9.470  0.00  0.00     0.165 HD
ENDROOT
BRANCH   6  33
HETATM   33  C   UNK     0     -25.256  -4.348   3.629  0.00  0.00     0.051 C 
BRANCH  33  34
HETATM   34  C   UNK     0     -26.606  -4.989   3.409  0.00  0.00     0.114 C 
BRANCH  34  35
HETATM   35  C   UNK     0     -26.795  -5.137   1.937  0.00  0.00     0.139 C 
HETATM   36  O   UNK     0     -26.351  -4.255   1.146  0.00  0.00    -0.650 OA
BRANCH  35  37
HETATM   37  O   UNK     0     -27.450  -6.224   1.372  0.00  0.00    -0.776 OA
HETATM   38  H   UNK     0     -27.734  -6.234   0.406  0.00  0.00     0.167 HD
ENDBRANCH  35  37
ENDBRANCH  34  35
ENDBRANCH  33  34
ENDBRANCH   6  33
BRANCH  27  39
HETATM   39  C   UNK     0     -30.372   0.634   8.596  0.00  0.00     0.051 C 
BRANCH  39  40
HETATM   40  C   UNK     0     -30.543   1.849   9.393  0.00  0.00     0.114 C 
BRANCH  40  41
HETATM   41  C   UNK     0     -31.786   2.587   9.416  0.00  0.00     0.139 C 
HETATM   42  O   UNK     0     -31.929   3.702   8.896  0.00  0.00    -0.650 OA
BRANCH  41  43
HETATM   43  O   UNK     0     -32.916   2.016  10.067  0.00  0.00    -0.776 OA
HETATM   44  H   UNK     0     -33.571   2.693  10.439  0.00  0.00     0.167 HD
ENDBRANCH  41  43
ENDBRANCH  40  41
ENDBRANCH  39  40
ENDBRANCH  27  39
BRANCH  11  45
HETATM   45  C   UNK     0     -25.314  -8.016  10.817  0.00  0.00     0.051 C 
BRANCH  45  46
HETATM   46  C   UNK     0     -25.227  -7.304  12.118  0.00  0.00     0.114 C 
BRANCH  46  47
HETATM   47  C   UNK     0     -24.935  -8.327  13.163  0.00  0.00     0.139 C 
HETATM   48  O   UNK     0     -24.014  -8.110  13.962  0.00  0.00    -0.650 OA
BRANCH  47  49
HETATM   49  O   UNK     0     -25.669  -9.484  13.238  0.00  0.00    -0.776 OA
HETATM   50  H   UNK     0     -26.335  -9.658  13.999  0.00  0.00     0.167 HD
ENDBRANCH  47  49
ENDBRANCH  46  47
ENDBRANCH  45  46
ENDBRANCH  11  45
BRANCH  18  51
HETATM   51  C   UNK     0     -28.704  -2.551  13.538  0.00  0.00     0.051 C 
BRANCH  51  52
HETATM   52  C   UNK     0     -27.331  -1.955  13.811  0.00  0.00     0.114 C 
BRANCH  52  53
HETATM   53  C   UNK     0     -26.746  -2.471  15.063  0.00  0.00     0.139 C 
HETATM   54  O   UNK     0     -25.936  -3.411  15.030  0.00  0.00    -0.650 OA
BRANCH  53  55
HETATM   55  O   UNK     0     -27.106  -1.909  16.264  0.00  0.00    -0.776 OA
HETATM   56  H   UNK     0     -27.877  -1.302  16.417  0.00  0.00     0.167 HD
ENDBRANCH  53  55
ENDBRANCH  52  53
ENDBRANCH  51  52
ENDBRANCH  18  51
TORSDOF 16
ENDMDL
MODEL 3
REMARK VINA RESULT:      -8.1      3.130      3.840
REMARK  16 active torsions:
REMARK  status: ('A' for Active; 'I' for Inactive)
REMARK    1  A    between atoms: C_6  and  C_7 
REMARK    2  A    between atoms: C_7  and  C_8 
REMARK    3  A    between atoms: C_8  and  C_9 
REMARK    4  A    between atoms: C_9  and  O_11 
REMARK    5  A    between atoms: C_16  and  C_17 
REMARK    6  A    between atoms: C_17  and  C_18 
REMARK    7  A    between atoms: C_18  and  C_19 
REMARK    8  A    between atoms: C_19  and  O_21 
REMARK    9  A    between atoms: C_28  and  C_29 
REMARK   10  A    between atoms: C_29  and  C_30 
REMARK   11  A    between atoms: C_30  and  C_31 
REMARK   12  A    between atoms: C_31  and  O_33 
REMARK   13  A    between atoms: C_42  and  C_43 
REMARK   14  A    between atoms: C_43  and  C_44 
REMARK   15  A    between atoms: C_44  and  C_45 
REMARK   16  A    between atoms: C_45  and  O_47 
ROOT
HETATM    1  C   UNK     0     -25.045  -1.915  17.436  0.00  0.00     0.051 C 
HETATM    2  C   UNK     0     -25.495  -1.268  16.142  0.00  0.00    -0.031 A 
HETATM    3  C   UNK     0     -24.913  -1.318  14.885  0.00  0.00     0.021 A 
HETATM    4  N   UNK     0     -25.644  -0.562  14.031  0.00  0.00    -0.361 N 
HETATM    5  C   UNK     0     -26.683  -0.039  14.714  0.00  0.00     0.022 A 
HETATM    6  C   UNK     0     -26.619  -0.458  16.038  0.00  0.00    -0.027 A 
HETATM    7  C   UNK     0     -27.829   0.786  14.218  0.00  0.00     0.115 C 
HETATM    8  C   UNK     0     -28.461   0.356  12.906  0.00  0.00     0.021 A 
HETATM    9  N   UNK     0     -28.645  -0.887  12.434  0.00  0.00    -0.361 N 
HETATM   10  C   UNK     0     -29.158  -0.791  11.189  0.00  0.00     0.022 A 
HETATM   11  C   UNK     0     -29.319   0.551  10.854  0.00  0.00    -0.027 A 
HETATM   12  C   UNK     0     -28.882   1.279  11.932  0.00  0.00    -0.031 A 
HETATM   13  C   UNK     0     -28.874   2.788  12.022  0.00  0.00     0.051 C 
HETATM   14  C   UNK     0     -29.467  -1.953  10.249  0.00  0.00     0.115 C 
HETATM   15  C   UNK     0     -28.251  -2.789   9.884  0.00  0.00     0.021 A 
HETATM   16  N   UNK     0     -27.430  -3.452  10.720  0.00  0.00    -0.361 N 
HETATM   17  C   UNK     0     -26.441  -4.006  10.014  0.00  0.00     0.022 A 
HETATM   18  C   UNK     0     -26.633  -3.698   8.653  0.00  0.00    -0.027 A 
HETATM   19  C   UNK     0     -27.771  -2.936   8.585  0.00  0.00    -0.031 A 
HETATM   20  C   UNK     0     -28.362  -2.417   7.287  0.00  0.00     0.051 C 
HETATM   21  C   UNK     0     -25.234  -4.787  10.481  0.00  0.00     0.115 C 
HETATM   22  C   UNK     0     -24.621  -4.399  11.806  0.00  0.00     0.022 A 
HETATM   23  N   UNK     0     -24.430  -3.170  12.304  0.00  0.00    -0.361 N 
HETATM   24  C   UNK     0     -23.991  -3.291  13.573  0.00  0.00     0.021 A 
HETATM   25  C   UNK     0     -23.887  -4.630  13.897  0.00  0.00    -0.031 A 
HETATM   26  C   UNK     0     -23.403  -5.265  15.184  0.00  0.00     0.051 C 
HETATM   27  C   UNK     0     -24.285  -5.359  12.782  0.00  0.00    -0.027 A 
HETATM   28  C   UNK     0     -23.723  -2.180  14.574  0.00  0.00     0.115 C 
HETATM   29  H   UNK     0     -25.398  -0.371  12.960  0.00  0.00     0.165 HD
HETATM   30  H   UNK     0     -28.459  -1.835  12.996  0.00  0.00     0.165 HD
HETATM   31  H   UNK     0     -27.575  -3.571  11.825  0.00  0.00     0.165 HD
HETATM   32  H   UNK     0     -24.562  -2.205  11.749  0.00  0.00     0.165 HD
ENDROOT
BRANCH   6  33
HETATM   33  C   UNK     0     -27.531  -0.150  17.199  0.00  0.00     0.051 C 
BRANCH  33  34
HETATM   34  C   UNK     0     -28.681  -1.127  17.249  0.00  0.00     0.114 C 
BRANCH  34  35
HETATM   35  C   UNK     0     -28.878  -1.511  18.677  0.00  0.00     0.139 C 
HETATM   36  O   UNK     0     -28.016  -2.221  19.270  0.00  0.00    -0.650 OA
BRANCH  35  37
HETATM   37  O   UNK     0     -29.990  -1.117  19.412  0.00  0.00    -0.776 OA
HETATM   38  H   UNK     0     -30.369  -0.186  19.351  0.00  0.00     0.167 HD
ENDBRANCH  35  37
ENDBRANCH  34  35
ENDBRANCH  33  34
ENDBRANCH   6  33
BRANCH  27  39
HETATM   39  C   UNK     0     -24.240  -6.845  12.727  0.00  0.00     0.051 C 
BRANCH  39  40
HETATM   40  C   UNK     0     -25.492  -7.584  12.884  0.00  0.00     0.114 C 
BRANCH  40  41
HETATM   41  C   UNK     0     -26.218  -8.120  11.755  0.00  0.00     0.139 C 
HETATM   42  O   UNK     0     -27.201  -7.562  11.248  0.00  0.00    -0.650 OA
BRANCH  41  43
HETATM   43  O   UNK     0     -25.795  -9.352  11.182  0.00  0.00    -0.776 OA
HETATM   44  H   UNK     0     -24.878  -9.322  10.753  0.00  0.00     0.167 HD
ENDBRANCH  41  43
ENDBRANCH  40  41
ENDBRANCH  39  40
ENDBRANCH  27  39
BRANCH  11  45
HETATM   45  C   UNK     0     -29.861   1.145   9.582  0.00  0.00     0.051 C 
BRANCH  45  46
HETATM   46  C   UNK     0     -29.042   0.852   8.379  0.00  0.00     0.114 C 
BRANCH  46  47
HETATM   47  C   UNK     0     -27.871   1.774   8.405  0.00  0.00     0.139 C 
HETATM   48  O   UNK     0     -26.743   1.306   8.197  0.00  0.00    -0.650 OA
BRANCH  47  49
HETATM   49  O   UNK     0     -28.037   3.113   8.656  0.00  0.00    -0.776 OA
HETATM   50  H   UNK     0     -28.962   3.526   8.824  0.00  0.00     0.167 HD
ENDBRANCH  47  49
ENDBRANCH  46  47
ENDBRANCH  45  46
ENDBRANCH  11  45
BRANCH  18  51
HETATM   51  C   UNK     0     -25.791  -4.124   7.479  0.00  0.00     0.051 C 
BRANCH  51  52
HETATM   52  C   UNK     0     -24.894  -2.941   7.146  0.00  0.00     0.114 C 
BRANCH  52  53
HETATM   53  C   UNK     0     -23.464  -3.294   7.231  0.00  0.00     0.139 C 
HETATM   54  O   UNK     0     -22.871  -3.730   6.231  0.00  0.00    -0.650 OA
BRANCH  53  55
HETATM   55  O   UNK     0     -22.795  -3.140   8.421  0.00  0.00    -0.776 OA
HETATM   56  H   UNK     0     -22.274  -3.841   8.892  0.00  0.00     0.167 HD
ENDBRANCH  53  55
ENDBRANCH  52  53
ENDBRANCH  51  52
ENDBRANCH  18  51
TORSDOF 16
ENDMDL
MODEL 4
REMARK VINA RESULT:      -8.1      2.207      7.205
REMARK  16 active torsions:
REMARK  status: ('A' for Active; 'I' for Inactive)
REMARK    1  A    between atoms: C_6  and  C_7 
REMARK    2  A    between atoms: C_7  and  C_8 
REMARK    3  A    between atoms: C_8  and  C_9 
REMARK    4  A    between atoms: C_9  and  O_11 
REMARK    5  A    between atoms: C_16  and  C_17 
REMARK    6  A    between atoms: C_17  and  C_18 
REMARK    7  A    between atoms: C_18  and  C_19 
REMARK    8  A    between atoms: C_19  and  O_21 
REMARK    9  A    between atoms: C_28  and  C_29 
REMARK   10  A    between atoms: C_29  and  C_30 
REMARK   11  A    between atoms: C_30  and  C_31 
REMARK   12  A    between atoms: C_31  and  O_33 
REMARK   13  A    between atoms: C_42  and  C_43 
REMARK   14  A    between atoms: C_43  and  C_44 
REMARK   15  A    between atoms: C_44  and  C_45 
REMARK   16  A    between atoms: C_45  and  O_47 
ROOT
HETATM    1  C   UNK     0     -24.644  -3.834   6.495  0.00  0.00     0.051 C 
HETATM    2  C   UNK     0     -25.882  -3.220   7.116  0.00  0.00    -0.031 A 
HETATM    3  C   UNK     0     -26.858  -3.813   7.902  0.00  0.00     0.021 A 
HETATM    4  N   UNK     0     -27.799  -2.888   8.208  0.00  0.00    -0.361 N 
HETATM    5  C   UNK     0     -27.439  -1.718   7.642  0.00  0.00     0.022 A 
HETATM    6  C   UNK     0     -26.246  -1.891   6.949  0.00  0.00    -0.027 A 
HETATM    7  C   UNK     0     -28.081  -0.370   7.752  0.00  0.00     0.115 C 
HETATM    8  C   UNK     0     -28.559   0.047   9.132  0.00  0.00     0.021 A 
HETATM    9  N   UNK     0     -28.002  -0.216  10.325  0.00  0.00    -0.361 N 
HETATM   10  C   UNK     0     -28.816   0.271  11.284  0.00  0.00     0.022 A 
HETATM   11  C   UNK     0     -29.924   0.872  10.694  0.00  0.00    -0.027 A 
HETATM   12  C   UNK     0     -29.768   0.735   9.338  0.00  0.00    -0.031 A 
HETATM   13  C   UNK     0     -30.733   1.245   8.291  0.00  0.00     0.051 C 
HETATM   14  C   UNK     0     -28.611   0.143  12.791  0.00  0.00     0.115 C 
HETATM   15  C   UNK     0     -28.576  -1.293  13.288  0.00  0.00     0.021 A 
HETATM   16  N   UNK     0     -27.733  -2.273  12.912  0.00  0.00    -0.361 N 
HETATM   17  C   UNK     0     -28.075  -3.407  13.527  0.00  0.00     0.022 A 
HETATM   18  C   UNK     0     -29.189  -3.152  14.351  0.00  0.00    -0.027 A 
HETATM   19  C   UNK     0     -29.492  -1.825  14.194  0.00  0.00    -0.031 A 
HETATM   20  C   UNK     0     -30.614  -1.122  14.936  0.00  0.00     0.051 C 
HETATM   21  C   UNK     0     -27.497  -4.797  13.393  0.00  0.00     0.115 C 
HETATM   22  C   UNK     0     -26.977  -5.210  12.036  0.00  0.00     0.022 A 
HETATM   23  N   UNK     0     -27.509  -4.958  10.833  0.00  0.00    -0.361 N 
HETATM   24  C   UNK     0     -26.643  -5.383   9.890  0.00  0.00     0.021 A 
HETATM   25  C   UNK     0     -25.532  -5.930  10.502  0.00  0.00    -0.031 A 
HETATM   26  C   UNK     0     -24.315  -6.572   9.869  0.00  0.00     0.051 C 
HETATM   27  C   UNK     0     -25.722  -5.831  11.875  0.00  0.00    -0.027 A 
HETATM   28  C   UNK     0     -26.762  -5.233   8.383  0.00  0.00     0.115 C 
HETATM   29  H   UNK     0     -28.731  -3.079   8.789  0.00  0.00     0.165 HD
HETATM   30  H   UNK     0     -27.009  -0.701  10.491  0.00  0.00     0.165 HD
HETATM   31  H   UNK     0     -26.848  -2.151  12.234  0.00  0.00     0.165 HD
HETATM   32  H   UNK     0     -28.521  -4.518  10.637  0.00  0.00     0.165 HD
ENDROOT
BRANCH   6  33
HETATM   33  C   UNK     0     -25.437  -0.902   6.148  0.00  0.00     0.051 C 
BRANCH  33  34
HETATM   34  C   UNK     0     -25.706  -1.063   4.670  0.00  0.00     0.114 C 
BRANCH  34  35
HETATM   35  C   UNK     0     -25.788   0.304   4.080  0.00  0.00     0.139 C 
HETATM   36  O   UNK     0     -24.732   0.938   3.790  0.00  0.00    -0.650 OA
BRANCH  35  37
HETATM   37  O   UNK     0     -26.998   0.936   3.820  0.00  0.00    -0.776 OA
HETATM   38  H   UNK     0     -27.720   1.016   4.519  0.00  0.00     0.167 HD
ENDBRANCH  35  37
ENDBRANCH  34  35
ENDBRANCH  33  34
ENDBRANCH   6  33
BRANCH  27  39
HETATM   39  C   UNK     0     -24.761  -6.382  12.869  0.00  0.00     0.051 C 
BRANCH  39  40
HETATM   40  C   UNK     0     -24.817  -7.813  13.169  0.00  0.00     0.114 C 
BRANCH  40  41
HETATM   41  C   UNK     0     -25.924  -8.644  12.754  0.00  0.00     0.139 C 
HETATM   42  O   UNK     0     -26.943  -8.817  13.437  0.00  0.00    -0.650 OA
BRANCH  41  43
HETATM   43  O   UNK     0     -25.857  -9.308  11.496  0.00  0.00    -0.776 OA
HETATM   44  H   UNK     0     -26.078 -10.296  11.531  0.00  0.00     0.167 HD
ENDBRANCH  41  43
ENDBRANCH  40  41
ENDBRANCH  39  40
ENDBRANCH  27  39
BRANCH  11  45
HETATM   45  C   UNK     0     -31.090   1.556  11.357  0.00  0.00     0.051 C 
BRANCH  45  46
HETATM   46  C   UNK     0     -30.795   2.930  11.835  0.00  0.00     0.114 C 
BRANCH  46  47
HETATM   47  C   UNK     0     -31.276   3.875  10.787  0.00  0.00     0.139 C 
HETATM   48  O   UNK     0     -30.454   4.335   9.982  0.00  0.00    -0.650 OA
BRANCH  47  49
HETATM   49  O   UNK     0     -32.599   4.231  10.716  0.00  0.00    -0.776 OA
HETATM   50  H   UNK     0     -33.322   3.577  10.393  0.00  0.00     0.167 HD
ENDBRANCH  47  49
ENDBRANCH  46  47
ENDBRANCH  45  46
ENDBRANCH  11  45
BRANCH  18  51
HETATM   51  C   UNK     0     -29.911  -4.116  15.256  0.00  0.00     0.051 C 
BRANCH  51  52
HETATM   52  C   UNK     0     -31.059  -4.689  14.438  0.00  0.00     0.114 C 
BRANCH  52  53
HETATM   53  C   UNK     0     -32.371  -4.376  15.037  0.00  0.00     0.139 C 
HETATM   54  O   UNK     0     -33.363  -4.213  14.309  0.00  0.00    -0.650 OA
BRANCH  53  55
HETATM   55  O   UNK     0     -32.485  -4.263  16.401  0.00  0.00    -0.776 OA
HETATM   56  H   UNK     0     -33.013  -4.859  16.995  0.00  0.00     0.167 HD
ENDBRANCH  53  55
ENDBRANCH  52  53
ENDBRANCH  51  52
ENDBRANCH  18  51
TORSDOF 16
ENDMDL
MODEL 5
REMARK VINA RESULT:      -8.1      2.139      7.362
REMARK  16 active torsions:
REMARK  status: ('A' for Active; 'I' for Inactive)
REMARK    1  A    between atoms: C_6  and  C_7 
REMARK    2  A    between atoms: C_7  and  C_8 
REMARK    3  A    between atoms: C_8  and  C_9 
REMARK    4  A    between atoms: C_9  and  O_11 
REMARK    5  A    between atoms: C_16  and  C_17 
REMARK    6  A    between atoms: C_17  and  C_18 
REMARK    7  A    between atoms: C_18  and  C_19 
REMARK    8  A    between atoms: C_19  and  O_21 
REMARK    9  A    between atoms: C_28  and  C_29 
REMARK   10  A    between atoms: C_29  and  C_30 
REMARK   11  A    between atoms: C_30  and  C_31 
REMARK   12  A    between atoms: C_31  and  O_33 
REMARK   13  A    between atoms: C_42  and  C_43 
REMARK   14  A    between atoms: C_43  and  C_44 
REMARK   15  A    between atoms: C_44  and  C_45 
REMARK   16  A    between atoms: C_45  and  O_47 
ROOT
HETATM    1  C   UNK     0     -30.133   1.972  12.551  0.00  0.00     0.051 C 
HETATM    2  C   UNK     0     -29.034   1.350  11.713  0.00  0.00    -0.031 A 
HETATM    3  C   UNK     0     -27.969   0.555  12.108  0.00  0.00     0.021 A 
HETATM    4  N   UNK     0     -27.219   0.252  11.023  0.00  0.00    -0.361 N 
HETATM    5  C   UNK     0     -27.787   0.828   9.943  0.00  0.00     0.022 A 
HETATM    6  C   UNK     0     -28.923   1.526  10.340  0.00  0.00    -0.027 A 
HETATM    7  C   UNK     0     -27.408   0.726   8.499  0.00  0.00     0.115 C 
HETATM    8  C   UNK     0     -27.025  -0.653   7.991  0.00  0.00     0.021 A 
HETATM    9  N   UNK     0     -27.530  -1.845   8.345  0.00  0.00    -0.361 N 
HETATM   10  C   UNK     0     -26.826  -2.805   7.709  0.00  0.00     0.022 A 
HETATM   11  C   UNK     0     -25.846  -2.215   6.916  0.00  0.00    -0.027 A 
HETATM   12  C   UNK     0     -25.966  -0.859   7.089  0.00  0.00    -0.031 A 
HETATM   13  C   UNK     0     -25.107   0.187   6.415  0.00  0.00     0.051 C 
HETATM   14  C   UNK     0     -27.013  -4.312   7.863  0.00  0.00     0.115 C 
HETATM   15  C   UNK     0     -26.782  -4.819   9.277  0.00  0.00     0.021 A 
HETATM   16  N   UNK     0     -27.426  -4.446  10.399  0.00  0.00    -0.361 N 
HETATM   17  C   UNK     0     -26.882  -5.072  11.445  0.00  0.00     0.022 A 
HETATM   18  C   UNK     0     -25.840  -5.899  10.982  0.00  0.00    -0.027 A 
HETATM   19  C   UNK     0     -25.788  -5.733   9.623  0.00  0.00    -0.031 A 
HETATM   20  C   UNK     0     -24.822  -6.475   8.718  0.00  0.00     0.051 C 
HETATM   21  C   UNK     0     -27.191  -4.946  12.920  0.00  0.00     0.115 C 
HETATM   22  C   UNK     0     -27.616  -3.590  13.431  0.00  0.00     0.022 A 
HETATM   23  N   UNK     0     -27.133  -2.387  13.093  0.00  0.00    -0.361 N 
HETATM   24  C   UNK     0     -27.899  -1.444  13.678  0.00  0.00     0.021 A 
HETATM   25  C   UNK     0     -28.893  -2.054  14.419  0.00  0.00    -0.031 A 
HETATM   26  C   UNK     0     -29.965  -1.421  15.280  0.00  0.00     0.051 C 
HETATM   27  C   UNK     0     -28.732  -3.428  14.276  0.00  0.00    -0.027 A 
HETATM   28  C   UNK     0     -27.802   0.064  13.518  0.00  0.00     0.115 C 
HETATM   29  H   UNK     0     -26.271  -0.335  11.032  0.00  0.00     0.165 HD
HETATM   30  H   UNK     0     -28.416  -2.010   9.006  0.00  0.00     0.165 HD
HETATM   31  H   UNK     0     -28.314  -3.764  10.449  0.00  0.00     0.165 HD
HETATM   32  H   UNK     0     -26.220  -2.192  12.473  0.00  0.00     0.165 HD
ENDROOT
BRANCH   6  33
HETATM   33  C   UNK     0     -29.897   2.338   9.524  0.00  0.00     0.051 C 
BRANCH  33  34
HETATM   34  C   UNK     0     -30.581   1.474   8.491  0.00  0.00     0.114 C 
BRANCH  34  35
HETATM   35  C   UNK     0     -31.107   0.269   9.195  0.00  0.00     0.139 C 
HETATM   36  O   UNK     0     -32.073   0.375  10.004  0.00  0.00    -0.650 OA
BRANCH  35  37
HETATM   37  O   UNK     0     -30.579  -1.002   9.001  0.00  0.00    -0.776 OA
HETATM   38  H   UNK     0     -30.911  -1.613   8.272  0.00  0.00     0.167 HD
ENDBRANCH  35  37
ENDBRANCH  34  35
ENDBRANCH  33  34
ENDBRANCH   6  33
BRANCH  27  39
HETATM   39  C   UNK     0     -29.579  -4.421  14.990  0.00  0.00     0.051 C 
BRANCH  39  40
HETATM   40  C   UNK     0     -30.828  -4.849  14.360  0.00  0.00     0.114 C 
BRANCH  40  41
HETATM   41  C   UNK     0     -32.114  -4.326  14.766  0.00  0.00     0.139 C 
HETATM   42  O   UNK     0     -32.706  -4.688  15.792  0.00  0.00    -0.650 OA
BRANCH  41  43
HETATM   43  O   UNK     0     -32.748  -3.344  13.954  0.00  0.00    -0.776 OA
HETATM   44  H   UNK     0     -33.054  -2.519  14.456  0.00  0.00     0.167 HD
ENDBRANCH  41  43
ENDBRANCH  40  41
ENDBRANCH  39  40
ENDBRANCH  27  39
BRANCH  11  45
HETATM   45  C   UNK     0     -24.832  -2.878   6.023  0.00  0.00     0.051 C 
BRANCH  45  46
HETATM   46  C   UNK     0     -23.702  -3.508   6.752  0.00  0.00     0.114 C 
BRANCH  46  47
HETATM   47  C   UNK     0     -23.206  -4.634   5.910  0.00  0.00     0.139 C 
HETATM   48  O   UNK     0     -22.423  -5.451   6.415  0.00  0.00    -0.650 OA
BRANCH  47  49
HETATM   49  O   UNK     0     -23.607  -4.765   4.605  0.00  0.00    -0.776 OA
HETATM   50  H   UNK     0     -24.171  -5.561   4.284  0.00  0.00     0.167 HD
ENDBRANCH  47  49
ENDBRANCH  46  47
ENDBRANCH  45  46
ENDBRANCH  11  45
BRANCH  18  51
HETATM   51  C   UNK     0     -24.956  -6.814  11.789  0.00  0.00     0.051 C 
BRANCH  51  52
HETATM   52  C   UNK     0     -25.482  -8.224  11.562  0.00  0.00     0.114 C 
BRANCH  52  53
HETATM   53  C   UNK     0     -25.858  -8.881  12.829  0.00  0.00     0.139 C 
HETATM   54  O   UNK     0     -27.027  -8.813  13.241  0.00  0.00    -0.650 OA
BRANCH  53  55
HETATM   55  O   UNK     0     -24.907  -9.563  13.548  0.00  0.00    -0.776 OA
HETATM   56  H   UNK     0     -25.083 -10.238  14.255  0.00  0.00     0.167 HD
ENDBRANCH  53  55
ENDBRANCH  52  53
ENDBRANCH  51  52
ENDBRANCH  18  51
TORSDOF 16
ENDMDL
MODEL 6
REMARK VINA RESULT:      -8.1      1.330      1.686
REMARK  16 active torsions:
REMARK  status: ('A' for Active; 'I' for Inactive)
REMARK    1  A    between atoms: C_6  and  C_7 
REMARK    2  A    between atoms: C_7  and  C_8 
REMARK    3  A    between atoms: C_8  and  C_9 
REMARK    4  A    between atoms: C_9  and  O_11 
REMARK    5  A    between atoms: C_16  and  C_17 
REMARK    6  A    between atoms: C_17  and  C_18 
REMARK    7  A    between atoms: C_18  and  C_19 
REMARK    8  A    between atoms: C_19  and  O_21 
REMARK    9  A    between atoms: C_28  and  C_29 
REMARK   10  A    between atoms: C_29  and  C_30 
REMARK   11  A    between atoms: C_30  and  C_31 
REMARK   12  A    between atoms: C_31  and  O_33 
REMARK   13  A    between atoms: C_42  and  C_43 
REMARK   14  A    between atoms: C_43  and  C_44 
REMARK   15  A    between atoms: C_44  and  C_45 
REMARK   16  A    between atoms: C_45  and  O_47 
ROOT
HETATM    1  C   UNK     0     -29.287  -5.483  15.419  0.00  0.00     0.051 C 
HETATM    2  C   UNK     0     -29.135  -4.159  14.697  0.00  0.00    -0.031 A 
HETATM    3  C   UNK     0     -28.100  -3.708  13.894  0.00  0.00     0.021 A 
HETATM    4  N   UNK     0     -28.376  -2.447  13.485  0.00  0.00    -0.361 N 
HETATM    5  C   UNK     0     -29.569  -2.088  14.002  0.00  0.00     0.022 A 
HETATM    6  C   UNK     0     -30.071  -3.135  14.768  0.00  0.00    -0.027 A 
HETATM    7  C   UNK     0     -30.366  -0.841  13.780  0.00  0.00     0.115 C 
HETATM    8  C   UNK     0     -30.438  -0.322  12.355  0.00  0.00     0.021 A 
HETATM    9  N   UNK     0     -30.489  -1.023  11.212  0.00  0.00    -0.361 N 
HETATM   10  C   UNK     0     -30.449  -0.151  10.182  0.00  0.00     0.022 A 
HETATM   11  C   UNK     0     -30.380   1.149  10.676  0.00  0.00    -0.027 A 
HETATM   12  C   UNK     0     -30.373   1.048  12.044  0.00  0.00    -0.031 A 
HETATM   13  C   UNK     0     -30.312   2.213  13.006  0.00  0.00     0.051 C 
HETATM   14  C   UNK     0     -30.421  -0.507   8.699  0.00  0.00     0.115 C 
HETATM   15  C   UNK     0     -29.214  -1.335   8.288  0.00  0.00     0.021 A 
HETATM   16  N   UNK     0     -28.841  -2.537   8.765  0.00  0.00    -0.361 N 
HETATM   17  C   UNK     0     -27.687  -2.896   8.197  0.00  0.00     0.022 A 
HETATM   18  C   UNK     0     -27.294  -1.883   7.300  0.00  0.00    -0.027 A 
HETATM   19  C   UNK     0     -28.259  -0.912   7.365  0.00  0.00    -0.031 A 
HETATM   20  C   UNK     0     -28.243   0.351   6.524  0.00  0.00     0.051 C 
HETATM   21  C   UNK     0     -26.820  -4.110   8.441  0.00  0.00     0.115 C 
HETATM   22  C   UNK     0     -26.774  -4.663   9.846  0.00  0.00     0.022 A 
HETATM   23  N   UNK     0     -26.727  -3.989  11.003  0.00  0.00    -0.361 N 
HETATM   24  C   UNK     0     -26.846  -4.873  12.014  0.00  0.00     0.021 A 
HETATM   25  C   UNK     0     -26.962  -6.149  11.496  0.00  0.00    -0.031 A 
HETATM   26  C   UNK     0     -27.079  -7.468  12.230  0.00  0.00     0.051 C 
HETATM   27  C   UNK     0     -26.919  -6.040  10.111  0.00  0.00    -0.027 A 
HETATM   28  C   UNK     0     -26.939  -4.577  13.501  0.00  0.00     0.115 C 
HETATM   29  H   UNK     0     -27.707  -1.805  12.866  0.00  0.00     0.165 HD
HETATM   30  H   UNK     0     -30.603  -2.132  11.128  0.00  0.00     0.165 HD
HETATM   31  H   UNK     0     -29.428  -3.169   9.482  0.00  0.00     0.165 HD
HETATM   32  H   UNK     0     -26.565  -2.885  11.117  0.00  0.00     0.165 HD
ENDROOT
BRANCH   6  33
HETATM   33  C   UNK     0     -31.354  -3.233  15.554  0.00  0.00     0.051 C 
BRANCH  33  34
HETATM   34  C   UNK     0     -32.336  -4.148  14.863  0.00  0.00     0.114 C 
BRANCH  34  35
HETATM   35  C   UNK     0     -32.914  -3.395  13.712  0.00  0.00     0.139 C 
HETATM   36  O   UNK     0     -32.596  -3.701  12.526  0.00  0.00    -0.650 OA
BRANCH  35  37
HETATM   37  O   UNK     0     -33.810  -2.347  13.878  0.00  0.00    -0.776 OA
HETATM   38  H   UNK     0     -34.694  -2.318  13.396  0.00  0.00     0.167 HD
ENDBRANCH  35  37
ENDBRANCH  34  35
ENDBRANCH  33  34
ENDBRANCH   6  33
BRANCH  27  39
HETATM   39  C   UNK     0     -26.944  -7.220   9.204  0.00  0.00     0.051 C 
BRANCH  39  40
HETATM   40  C   UNK     0     -25.685  -7.914   8.932  0.00  0.00     0.114 C 
BRANCH  40  41
HETATM   41  C   UNK     0     -24.860  -7.592   7.789  0.00  0.00     0.139 C 
HETATM   42  O   UNK     0     -23.693  -7.986   7.657  0.00  0.00    -0.650 OA
BRANCH  41  43
HETATM   43  O   UNK     0     -25.402  -6.781   6.752  0.00  0.00    -0.776 OA
HETATM   44  H   UNK     0     -25.003  -5.852   6.695  0.00  0.00     0.167 HD
ENDBRANCH  41  43
ENDBRANCH  40  41
ENDBRANCH  39  40
ENDBRANCH  27  39
BRANCH  11  45
HETATM   45  C   UNK     0     -30.325   2.445   9.913  0.00  0.00     0.051 C 
BRANCH  45  46
HETATM   46  C   UNK     0     -28.965   3.032   9.813  0.00  0.00     0.114 C 
BRANCH  46  47
HETATM   47  C   UNK     0     -29.067   4.457  10.239  0.00  0.00     0.139 C 
HETATM   48  O   UNK     0     -28.023   5.081  10.475  0.00  0.00    -0.650 OA
BRANCH  47  49
HETATM   49  O   UNK     0     -30.290   5.066  10.369  0.00  0.00    -0.776 OA
HETATM   50  H   UNK     0     -30.600   5.483  11.255  0.00  0.00     0.167 HD
ENDBRANCH  47  49
ENDBRANCH  46  47
ENDBRANCH  45  46
ENDBRANCH  11  45
BRANCH  18  51
HETATM   51  C   UNK     0     -26.076  -1.852   6.414  0.00  0.00     0.051 C 
BRANCH  51  52
HETATM   52  C   UNK     0     -26.503  -2.450   5.082  0.00  0.00     0.114 C 
BRANCH  52  53
HETATM   53  C   UNK     0     -25.778  -3.699   4.782  0.00  0.00     0.139 C 
HETATM   54  O   UNK     0     -26.344  -4.795   4.920  0.00  0.00    -0.650 OA
BRANCH  53  55
HETATM   55  O   UNK     0     -24.474  -3.642   4.354  0.00  0.00    -0.776 OA
HETATM   56  H   UNK     0     -23.980  -4.366   3.887  0.00  0.00     0.167 HD
ENDBRANCH  53  55
ENDBRANCH  52  53
ENDBRANCH  51  52
ENDBRANCH  18  51
TORSDOF 16
ENDMDL
MODEL 7
REMARK VINA RESULT:      -8.0      2.785      7.553
REMARK  16 active torsions:
REMARK  status: ('A' for Active; 'I' for Inactive)
REMARK    1  A    between atoms: C_6  and  C_7 
REMARK    2  A    between atoms: C_7  and  C_8 
REMARK    3  A    between atoms: C_8  and  C_9 
REMARK    4  A    between atoms: C_9  and  O_11 
REMARK    5  A    between atoms: C_16  and  C_17 
REMARK    6  A    between atoms: C_17  and  C_18 
REMARK    7  A    between atoms: C_18  and  C_19 
REMARK    8  A    between atoms: C_19  and  O_21 
REMARK    9  A    between atoms: C_28  and  C_29 
REMARK   10  A    between atoms: C_29  and  C_30 
REMARK   11  A    between atoms: C_30  and  C_31 
REMARK   12  A    between atoms: C_31  and  O_33 
REMARK   13  A    between atoms: C_42  and  C_43 
REMARK   14  A    between atoms: C_43  and  C_44 
REMARK   15  A    between atoms: C_44  and  C_45 
REMARK   16  A    between atoms: C_45  and  O_47 
ROOT
HETATM    1  C   UNK     0     -25.109  -8.137  10.834  0.00  0.00     0.051 C 
HETATM    2  C   UNK     0     -25.636  -7.315   9.675  0.00  0.00    -0.031 A 
HETATM    3  C   UNK     0     -26.868  -6.701   9.520  0.00  0.00     0.021 A 
HETATM    4  N   UNK     0     -26.913  -6.100   8.308  0.00  0.00    -0.361 N 
HETATM    5  C   UNK     0     -25.732  -6.311   7.690  0.00  0.00     0.022 A 
HETATM    6  C   UNK     0     -24.911  -7.070   8.516  0.00  0.00    -0.027 A 
HETATM    7  C   UNK     0     -25.237  -5.785   6.379  0.00  0.00     0.115 C 
HETATM    8  C   UNK     0     -25.529  -4.326   6.075  0.00  0.00     0.021 A 
HETATM    9  N   UNK     0     -25.562  -3.286   6.923  0.00  0.00    -0.361 N 
HETATM   10  C   UNK     0     -25.954  -2.195   6.232  0.00  0.00     0.022 A 
HETATM   11  C   UNK     0     -26.171  -2.539   4.901  0.00  0.00    -0.027 A 
HETATM   12  C   UNK     0     -25.904  -3.881   4.795  0.00  0.00    -0.031 A 
HETATM   13  C   UNK     0     -26.001  -4.693   3.524  0.00  0.00     0.051 C 
HETATM   14  C   UNK     0     -26.192  -0.801   6.807  0.00  0.00     0.115 C 
HETATM   15  C   UNK     0     -27.279  -0.750   7.869  0.00  0.00     0.021 A 
HETATM   16  N   UNK     0     -27.326  -1.430   9.029  0.00  0.00    -0.361 N 
HETATM   17  C   UNK     0     -28.478  -1.162   9.648  0.00  0.00     0.022 A 
HETATM   18  C   UNK     0     -29.213  -0.257   8.857  0.00  0.00    -0.027 A 
HETATM   19  C   UNK     0     -28.450  -0.006   7.746  0.00  0.00    -0.031 A 
HETATM   20  C   UNK     0     -28.857   0.953   6.642  0.00  0.00     0.051 C 
HETATM   21  C   UNK     0     -29.043  -1.721  10.934  0.00  0.00     0.115 C 
HETATM   22  C   UNK     0     -28.723  -3.158  11.271  0.00  0.00     0.022 A 
HETATM   23  N   UNK     0     -28.679  -4.213  10.447  0.00  0.00    -0.361 N 
HETATM   24  C   UNK     0     -28.211  -5.272  11.139  0.00  0.00     0.021 A 
HETATM   25  C   UNK     0     -27.958  -4.891  12.443  0.00  0.00    -0.031 A 
HETATM   26  C   UNK     0     -27.464  -5.732  13.602  0.00  0.00     0.051 C 
HETATM   27  C   UNK     0     -28.278  -3.543  12.552  0.00  0.00    -0.027 A 
HETATM   28  C   UNK     0     -27.900  -6.662  10.613  0.00  0.00     0.115 C 
HETATM   29  H   UNK     0     -27.792  -5.565   7.880  0.00  0.00     0.165 HD
HETATM   30  H   UNK     0     -25.261  -3.309   7.999  0.00  0.00     0.165 HD
HETATM   31  H   UNK     0     -26.509  -2.076   9.445  0.00  0.00     0.165 HD
HETATM   32  H   UNK     0     -29.019  -4.231   9.379  0.00  0.00     0.165 HD
ENDROOT
BRANCH   6  33
HETATM   33  C   UNK     0     -23.508  -7.576   8.290  0.00  0.00     0.051 C 
BRANCH  33  34
HETATM   34  C   UNK     0     -22.569  -6.432   7.991  0.00  0.00     0.114 C 
BRANCH  34  35
HETATM   35  C   UNK     0     -22.662  -5.469   9.126  0.00  0.00     0.139 C 
HETATM   36  O   UNK     0     -22.294  -5.814  10.286  0.00  0.00    -0.650 OA
BRANCH  35  37
HETATM   37  O   UNK     0     -23.144  -4.175   8.972  0.00  0.00    -0.776 OA
HETATM   38  H   UNK     0     -22.935  -3.445   9.633  0.00  0.00     0.167 HD
ENDBRANCH  35  37
ENDBRANCH  34  35
ENDBRANCH  33  34
ENDBRANCH   6  33
BRANCH  27  39
HETATM   39  C   UNK     0     -28.203  -2.793  13.835  0.00  0.00     0.051 C 
BRANCH  39  40
HETATM   40  C   UNK     0     -26.964  -2.085  14.153  0.00  0.00     0.114 C 
BRANCH  40  41
HETATM   41  C   UNK     0     -25.815  -2.109  13.275  0.00  0.00     0.139 C 
HETATM   42  O   UNK     0     -25.653  -1.313  12.340  0.00  0.00    -0.650 OA
BRANCH  41  43
HETATM   43  O   UNK     0     -24.808  -3.093  13.482  0.00  0.00    -0.776 OA
HETATM   44  H   UNK     0     -24.193  -3.236  12.690  0.00  0.00     0.167 HD
ENDBRANCH  41  43
ENDBRANCH  40  41
ENDBRANCH  39  40
ENDBRANCH  27  39
BRANCH  11  45
HETATM   45  C   UNK     0     -26.607  -1.660   3.760  0.00  0.00     0.051 C 
BRANCH  45  46
HETATM   46  C   UNK     0     -25.485  -1.030   3.017  0.00  0.00     0.114 C 
BRANCH  46  47
HETATM   47  C   UNK     0     -25.477   0.417   3.375  0.00  0.00     0.139 C 
HETATM   48  O   UNK     0     -24.391   1.013   3.408  0.00  0.00    -0.650 OA
BRANCH  47  49
HETATM   49  O   UNK     0     -26.645   1.076   3.663  0.00  0.00    -0.776 OA
HETATM   50  H   UNK     0     -26.995   1.172   4.624  0.00  0.00     0.167 HD
ENDBRANCH  47  49
ENDBRANCH  46  47
ENDBRANCH  45  46
ENDBRANCH  11  45
BRANCH  18  51
HETATM   51  C   UNK     0     -30.559   0.352   9.154  0.00  0.00     0.051 C 
BRANCH  51  52
HETATM   52  C   UNK     0     -30.304   1.499  10.120  0.00  0.00     0.114 C 
BRANCH  52  53
HETATM   53  C   UNK     0     -30.281   2.804   9.432  0.00  0.00     0.139 C 
HETATM   54  O   UNK     0     -29.199   3.371   9.211  0.00  0.00    -0.650 OA
BRANCH  53  55
HETATM   55  O   UNK     0     -31.462   3.386   9.041  0.00  0.00    -0.776 OA
HETATM   56  H   UNK     0     -31.764   3.522   8.105  0.00  0.00     0.167 HD
ENDBRANCH  53  55
ENDBRANCH  52  53
ENDBRANCH  51  52
ENDBRANCH  18  51
TORSDOF 16
ENDMDL
MODEL 8
REMARK VINA RESULT:      -8.0      2.381      7.746
REMARK  16 active torsions:
REMARK  status: ('A' for Active; 'I' for Inactive)
REMARK    1  A    between atoms: C_6  and  C_7 
REMARK    2  A    between atoms: C_7  and  C_8 
REMARK    3  A    between atoms: C_8  and  C_9 
REMARK    4  A    between atoms: C_9  and  O_11 
REMARK    5  A    between atoms: C_16  and  C_17 
REMARK    6  A    between atoms: C_17  and  C_18 
REMARK    7  A    between atoms: C_18  and  C_19 
REMARK    8  A    between atoms: C_19  and  O_21 
REMARK    9  A    between atoms: C_28  and  C_29 
REMARK   10  A    between atoms: C_29  and  C_30 
REMARK   11  A    between atoms: C_30  and  C_31 
REMARK   12  A    between atoms: C_31  and  O_33 
REMARK   13  A    between atoms: C_42  and  C_43 
REMARK   14  A    between atoms: C_43  and  C_44 
REMARK   15  A    between atoms: C_44  and  C_45 
REMARK   16  A    between atoms: C_45  and  O_47 
ROOT
HETATM    1  C   UNK     0     -25.186  -8.168  10.826  0.00  0.00     0.051 C 
HETATM    2  C   UNK     0     -25.706  -7.320   9.683  0.00  0.00    -0.031 A 
HETATM    3  C   UNK     0     -26.930  -6.684   9.545  0.00  0.00     0.021 A 
HETATM    4  N   UNK     0     -26.972  -6.064   8.342  0.00  0.00    -0.361 N 
HETATM    5  C   UNK     0     -25.798  -6.284   7.714  0.00  0.00     0.022 A 
HETATM    6  C   UNK     0     -24.984  -7.069   8.523  0.00  0.00    -0.027 A 
HETATM    7  C   UNK     0     -25.302  -5.746   6.408  0.00  0.00     0.115 C 
HETATM    8  C   UNK     0     -25.572  -4.278   6.129  0.00  0.00     0.021 A 
HETATM    9  N   UNK     0     -25.584  -3.251   6.992  0.00  0.00    -0.361 N 
HETATM   10  C   UNK     0     -25.963  -2.143   6.320  0.00  0.00     0.022 A 
HETATM   11  C   UNK     0     -26.192  -2.464   4.986  0.00  0.00    -0.027 A 
HETATM   12  C   UNK     0     -25.948  -3.807   4.858  0.00  0.00    -0.031 A 
HETATM   13  C   UNK     0     -26.065  -4.599   3.575  0.00  0.00     0.051 C 
HETATM   14  C   UNK     0     -26.175  -0.755   6.918  0.00  0.00     0.115 C 
HETATM   15  C   UNK     0     -27.255  -0.703   7.987  0.00  0.00     0.021 A 
HETATM   16  N   UNK     0     -27.306  -1.400   9.137  0.00  0.00    -0.361 N 
HETATM   17  C   UNK     0     -28.450  -1.123   9.767  0.00  0.00     0.022 A 
HETATM   18  C   UNK     0     -29.175  -0.194   8.994  0.00  0.00    -0.027 A 
HETATM   19  C   UNK     0     -28.415   0.062   7.882  0.00  0.00    -0.031 A 
HETATM   20  C   UNK     0     -28.813   1.044   6.796  0.00  0.00     0.051 C 
HETATM   21  C   UNK     0     -29.017  -1.692  11.048  0.00  0.00     0.115 C 
HETATM   22  C   UNK     0     -28.718  -3.140  11.360  0.00  0.00     0.022 A 
HETATM   23  N   UNK     0     -28.695  -4.183  10.520  0.00  0.00    -0.361 N 
HETATM   24  C   UNK     0     -28.240  -5.259  11.193  0.00  0.00     0.021 A 
HETATM   25  C   UNK     0     -27.974  -4.903  12.501  0.00  0.00    -0.031 A 
HETATM   26  C   UNK     0     -27.486  -5.769  13.644  0.00  0.00     0.051 C 
HETATM   27  C   UNK     0     -28.272  -3.551  12.632  0.00  0.00    -0.027 A 
HETATM   28  C   UNK     0     -27.954  -6.646  10.644  0.00  0.00     0.115 C 
HETATM   29  H   UNK     0     -27.845  -5.509   7.928  0.00  0.00     0.165 HD
HETATM   30  H   UNK     0     -25.277  -3.295   8.066  0.00  0.00     0.165 HD
HETATM   31  H   UNK     0     -26.497  -2.065   9.538  0.00  0.00     0.165 HD
HETATM   32  H   UNK     0     -29.041  -4.179   9.454  0.00  0.00     0.165 HD
ENDROOT
BRANCH   6  33
HETATM   33  C   UNK     0     -23.591  -7.594   8.281  0.00  0.00     0.051 C 
BRANCH  33  34
HETATM   34  C   UNK     0     -22.651  -6.468   7.921  0.00  0.00     0.114 C 
BRANCH  34  35
HETATM   35  C   UNK     0     -22.698  -5.474   9.032  0.00  0.00     0.139 C 
HETATM   36  O   UNK     0     -23.050  -4.280   8.804  0.00  0.00    -0.650 OA
BRANCH  35  37
HETATM   37  O   UNK     0     -22.368  -5.799  10.342  0.00  0.00    -0.776 OA
HETATM   38  H   UNK     0     -22.867  -6.504  10.860  0.00  0.00     0.167 HD
ENDBRANCH  35  37
ENDBRANCH  34  35
ENDBRANCH  33  34
ENDBRANCH   6  33
BRANCH  27  39
HETATM   39  C   UNK     0     -28.177  -2.823  13.926  0.00  0.00     0.051 C 
BRANCH  39  40
HETATM   40  C   UNK     0     -29.381  -2.713  14.751  0.00  0.00     0.114 C 
BRANCH  40  41
HETATM   41  C   UNK     0     -30.172  -3.867  15.115  0.00  0.00     0.139 C 
HETATM   42  O   UNK     0     -31.162  -4.246  14.474  0.00  0.00    -0.650 OA
BRANCH  41  43
HETATM   43  O   UNK     0     -29.810  -4.617  16.269  0.00  0.00    -0.776 OA
HETATM   44  H   UNK     0     -30.576  -5.124  16.697  0.00  0.00     0.167 HD
ENDBRANCH  41  43
ENDBRANCH  40  41
ENDBRANCH  39  40
ENDBRANCH  27  39
BRANCH  11  45
HETATM   45  C   UNK     0     -26.621  -1.561   3.860  0.00  0.00     0.051 C 
BRANCH  45  46
HETATM   46  C   UNK     0     -25.494  -0.916   3.138  0.00  0.00     0.114 C 
BRANCH  46  47
HETATM   47  C   UNK     0     -25.533   0.538   3.467  0.00  0.00     0.139 C 
HETATM   48  O   UNK     0     -24.479   1.186   3.409  0.00  0.00    -0.650 OA
BRANCH  47  49
HETATM   49  O   UNK     0     -26.708   1.146   3.828  0.00  0.00    -0.776 OA
HETATM   50  H   UNK     0     -27.605   0.645   3.824  0.00  0.00     0.167 HD
ENDBRANCH  47  49
ENDBRANCH  46  47
ENDBRANCH  45  46
ENDBRANCH  11  45
BRANCH  18  51
HETATM   51  C   UNK     0     -30.509   0.431   9.308  0.00  0.00     0.051 C 
BRANCH  51  52
HETATM   52  C   UNK     0     -30.216   1.652  10.167  0.00  0.00     0.114 C 
BRANCH  52  53
HETATM   53  C   UNK     0     -30.441   2.910   9.430  0.00  0.00     0.139 C 
HETATM   54  O   UNK     0     -29.540   3.762   9.364  0.00  0.00    -0.650 OA
BRANCH  53  55
HETATM   55  O   UNK     0     -31.652   3.133   8.822  0.00  0.00    -0.776 OA
HETATM   56  H   UNK     0     -31.793   3.585   7.949  0.00  0.00     0.167 HD
ENDBRANCH  53  55
ENDBRANCH  52  53
ENDBRANCH  51  52
ENDBRANCH  18  51
TORSDOF 16
ENDMDL
MODEL 9
REMARK VINA RESULT:      -8.0      2.755      7.700
REMARK  16 active torsions:
REMARK  status: ('A' for Active; 'I' for Inactive)
REMARK    1  A    between atoms: C_6  and  C_7 
REMARK    2  A    between atoms: C_7  and  C_8 
REMARK    3  A    between atoms: C_8  and  C_9 
REMARK    4  A    between atoms: C_9  and  O_11 
REMARK    5  A    between atoms: C_16  and  C_17 
REMARK    6  A    between atoms: C_17  and  C_18 
REMARK    7  A    between atoms: C_18  and  C_19 
REMARK    8  A    between atoms: C_19  and  O_21 
REMARK    9  A    between atoms: C_28  and  C_29 
REMARK   10  A    between atoms: C_29  and  C_30 
REMARK   11  A    between atoms: C_30  and  C_31 
REMARK   12  A    between atoms: C_31  and  O_33 
REMARK   13  A    between atoms: C_42  and  C_43 
REMARK   14  A    between atoms: C_43  and  C_44 
REMARK   15  A    between atoms: C_44  and  C_45 
REMARK   16  A    between atoms: C_45  and  O_47 
ROOT
HETATM    1  C   UNK     0     -24.806  -7.239  12.294  0.00  0.00     0.051 C 
HETATM    2  C   UNK     0     -25.128  -6.555  10.980  0.00  0.00    -0.031 A 
HETATM    3  C   UNK     0     -26.352  -6.138  10.482  0.00  0.00     0.021 A 
HETATM    4  N   UNK     0     -26.168  -5.604   9.252  0.00  0.00    -0.361 N 
HETATM    5  C   UNK     0     -24.853  -5.664   8.958  0.00  0.00     0.022 A 
HETATM    6  C   UNK     0     -24.173  -6.256  10.017  0.00  0.00    -0.027 A 
HETATM    7  C   UNK     0     -24.117  -5.127   7.770  0.00  0.00     0.115 C 
HETATM    8  C   UNK     0     -24.515  -3.743   7.290  0.00  0.00     0.021 A 
HETATM    9  N   UNK     0     -24.899  -2.683   8.019  0.00  0.00    -0.361 N 
HETATM   10  C   UNK     0     -25.245  -1.693   7.170  0.00  0.00     0.022 A 
HETATM   11  C   UNK     0     -25.071  -2.123   5.858  0.00  0.00    -0.027 A 
HETATM   12  C   UNK     0     -24.611  -3.414   5.926  0.00  0.00    -0.031 A 
HETATM   13  C   UNK     0     -24.275  -4.286   4.738  0.00  0.00     0.051 C 
HETATM   14  C   UNK     0     -25.803  -0.327   7.558  0.00  0.00     0.115 C 
HETATM   15  C   UNK     0     -27.120  -0.391   8.315  0.00  0.00     0.021 A 
HETATM   16  N   UNK     0     -27.367  -1.020   9.480  0.00  0.00    -0.361 N 
HETATM   17  C   UNK     0     -28.663  -0.899   9.776  0.00  0.00     0.022 A 
HETATM   18  C   UNK     0     -29.288  -0.148   8.761  0.00  0.00    -0.027 A 
HETATM   19  C   UNK     0     -28.310   0.165   7.853  0.00  0.00    -0.031 A 
HETATM   20  C   UNK     0     -28.550   1.004   6.611  0.00  0.00     0.051 C 
HETATM   21  C   UNK     0     -29.455  -1.479  10.926  0.00  0.00     0.115 C 
HETATM   22  C   UNK     0     -29.042  -2.837  11.443  0.00  0.00     0.022 A 
HETATM   23  N   UNK     0     -28.652  -3.909  10.740  0.00  0.00    -0.361 N 
HETATM   24  C   UNK     0     -28.237  -4.855  11.607  0.00  0.00     0.021 A 
HETATM   25  C   UNK     0     -28.374  -4.385  12.899  0.00  0.00    -0.031 A 
HETATM   26  C   UNK     0     -28.081  -5.092  14.206  0.00  0.00     0.051 C 
HETATM   27  C   UNK     0     -28.888  -3.096  12.820  0.00  0.00    -0.027 A 
HETATM   28  C   UNK     0     -27.621  -6.205  11.284  0.00  0.00     0.115 C 
HETATM   29  H   UNK     0     -26.975  -5.224   8.582  0.00  0.00     0.165 HD
HETATM   30  H   UNK     0     -24.878  -2.614   9.135  0.00  0.00     0.165 HD
HETATM   31  H   UNK     0     -26.603  -1.518  10.131  0.00  0.00     0.165 HD
HETATM   32  H   UNK     0     -28.706  -4.024   9.626  0.00  0.00     0.165 HD
ENDROOT
BRANCH   6  33
HETATM   33  C   UNK     0     -22.705  -6.557  10.180  0.00  0.00     0.051 C 
BRANCH  33  34
HETATM   34  C   UNK     0     -22.024  -5.481  10.992  0.00  0.00     0.114 C 
BRANCH  34  35
HETATM   35  C   UNK     0     -21.090  -6.158  11.937  0.00  0.00     0.139 C 
HETATM   36  O   UNK     0     -21.458  -6.420  13.119  0.00  0.00    -0.650 OA
BRANCH  35  37
HETATM   37  O   UNK     0     -19.800  -6.530  11.577  0.00  0.00    -0.776 OA
HETATM   38  H   UNK     0     -19.603  -7.412  11.133  0.00  0.00     0.167 HD
ENDBRANCH  35  37
ENDBRANCH  34  35
ENDBRANCH  33  34
ENDBRANCH   6  33
BRANCH  27  39
HETATM   39  C   UNK     0     -29.239  -2.288  14.019  0.00  0.00     0.051 C 
BRANCH  39  40
HETATM   40  C   UNK     0     -30.648  -2.184  14.397  0.00  0.00     0.114 C 
BRANCH  40  41
HETATM   41  C   UNK     0     -31.628  -3.169  13.999  0.00  0.00     0.139 C 
HETATM   42  O   UNK     0     -31.699  -4.301  14.495  0.00  0.00    -0.650 OA
BRANCH  41  43
HETATM   43  O   UNK     0     -32.569  -2.836  12.983  0.00  0.00    -0.776 OA
HETATM   44  H   UNK     0     -33.479  -3.266  13.098  0.00  0.00     0.167 HD
ENDBRANCH  41  43
ENDBRANCH  40  41
ENDBRANCH  39  40
ENDBRANCH  27  39
BRANCH  11  45
HETATM   45  C   UNK     0     -25.318  -1.369   4.579  0.00  0.00     0.051 C 
BRANCH  45  46
HETATM   46  C   UNK     0     -26.727  -1.414   4.111  0.00  0.00     0.114 C 
BRANCH  46  47
HETATM   47  C   UNK     0     -26.919  -0.267   3.177  0.00  0.00     0.139 C 
HETATM   48  O   UNK     0     -27.295  -0.503   2.020  0.00  0.00    -0.650 OA
BRANCH  47  49
HETATM   49  O   UNK     0     -26.683   1.020   3.587  0.00  0.00    -0.776 OA
HETATM   50  H   UNK     0     -25.740   1.354   3.822  0.00  0.00     0.167 HD
ENDBRANCH  47  49
ENDBRANCH  46  47
ENDBRANCH  45  46
ENDBRANCH  11  45
BRANCH  18  51
HETATM   51  C   UNK     0     -30.734   0.266   8.672  0.00  0.00     0.051 C 
BRANCH  51  52
HETATM   52  C   UNK     0     -30.937   1.333   9.738  0.00  0.00     0.114 C 
BRANCH  52  53
HETATM   53  C   UNK     0     -30.853   2.695   9.175  0.00  0.00     0.139 C 
HETATM   54  O   UNK     0     -31.870   3.244   8.721  0.00  0.00    -0.650 OA
BRANCH  53  55
HETATM   55  O   UNK     0     -29.645   3.348   9.154  0.00  0.00    -0.776 OA
HETATM   56  H   UNK     0     -29.145   3.625   8.343  0.00  0.00     0.167 HD
ENDBRANCH  53  55
ENDBRANCH  52  53
ENDBRANCH  51  52
ENDBRANCH  18  51
TORSDOF 16
ENDMDL
MODEL 10
REMARK VINA RESULT:      -7.9      3.240      4.349
REMARK  16 active torsions:
REMARK  status: ('A' for Active; 'I' for Inactive)
REMARK    1  A    between atoms: C_6  and  C_7 
REMARK    2  A    between atoms: C_7  and  C_8 
REMARK    3  A    between atoms: C_8  and  C_9 
REMARK    4  A    between atoms: C_9  and  O_11 
REMARK    5  A    between atoms: C_16  and  C_17 
REMARK    6  A    between atoms: C_17  and  C_18 
REMARK    7  A    between atoms: C_18  and  C_19 
REMARK    8  A    between atoms: C_19  and  O_21 
REMARK    9  A    between atoms: C_28  and  C_29 
REMARK   10  A    between atoms: C_29  and  C_30 
REMARK   11  A    between atoms: C_30  and  C_31 
REMARK   12  A    between atoms: C_31  and  O_33 
REMARK   13  A    between atoms: C_42  and  C_43 
REMARK   14  A    between atoms: C_43  and  C_44 
REMARK   15  A    between atoms: C_44  and  C_45 
REMARK   16  A    between atoms: C_45  and  O_47 
ROOT
HETATM    1  C   UNK     0     -25.076  -2.065  17.534  0.00  0.00     0.051 C 
HETATM    2  C   UNK     0     -25.437  -1.563  16.151  0.00  0.00    -0.031 A 
HETATM    3  C   UNK     0     -24.740  -1.689  14.960  0.00  0.00     0.021 A 
HETATM    4  N   UNK     0     -25.427  -1.057  13.978  0.00  0.00    -0.361 N 
HETATM    5  C   UNK     0     -26.550  -0.539  14.516  0.00  0.00     0.022 A 
HETATM    6  C   UNK     0     -26.587  -0.834  15.875  0.00  0.00    -0.027 A 
HETATM    7  C   UNK     0     -27.687   0.169  13.848  0.00  0.00     0.115 C 
HETATM    8  C   UNK     0     -28.172  -0.413  12.531  0.00  0.00     0.021 A 
HETATM    9  N   UNK     0     -28.247  -1.701  12.163  0.00  0.00    -0.361 N 
HETATM   10  C   UNK     0     -28.648  -1.747  10.875  0.00  0.00     0.022 A 
HETATM   11  C   UNK     0     -28.846  -0.452  10.403  0.00  0.00    -0.027 A 
HETATM   12  C   UNK     0     -28.548   0.393  11.442  0.00  0.00    -0.031 A 
HETATM   13  C   UNK     0     -28.627   1.902  11.390  0.00  0.00     0.051 C 
HETATM   14  C   UNK     0     -28.808  -3.004  10.025  0.00  0.00     0.115 C 
HETATM   15  C   UNK     0     -27.522  -3.795   9.847  0.00  0.00     0.021 A 
HETATM   16  N   UNK     0     -26.748  -4.331  10.809  0.00  0.00    -0.361 N 
HETATM   17  C   UNK     0     -25.672  -4.886  10.248  0.00  0.00     0.022 A 
HETATM   18  C   UNK     0     -25.753  -4.711   8.852  0.00  0.00    -0.027 A 
HETATM   19  C   UNK     0     -26.917  -4.028   8.614  0.00  0.00    -0.031 A 
HETATM   20  C   UNK     0     -27.412  -3.662   7.227  0.00  0.00     0.051 C 
HETATM   21  C   UNK     0     -24.473  -5.548  10.889  0.00  0.00     0.115 C 
HETATM   22  C   UNK     0     -24.007  -5.008  12.220  0.00  0.00     0.022 A 
HETATM   23  N   UNK     0     -23.926  -3.731  12.616  0.00  0.00    -0.361 N 
HETATM   24  C   UNK     0     -23.600  -3.712  13.924  0.00  0.00     0.021 A 
HETATM   25  C   UNK     0     -23.458  -5.009  14.380  0.00  0.00    -0.031 A 
HETATM   26  C   UNK     0     -23.062  -5.497  15.758  0.00  0.00     0.051 C 
HETATM   27  C   UNK     0     -23.713  -5.856  13.307  0.00  0.00    -0.027 A 
HETATM   28  C   UNK     0     -23.484  -2.503  14.836  0.00  0.00     0.115 C 
HETATM   29  H   UNK     0     -25.093  -0.948  12.920  0.00  0.00     0.165 HD
HETATM   30  H   UNK     0     -28.065  -2.583  12.825  0.00  0.00     0.165 HD
HETATM   31  H   UNK     0     -26.989  -4.361  11.904  0.00  0.00     0.165 HD
HETATM   32  H   UNK     0     -24.056  -2.829  11.963  0.00  0.00     0.165 HD
ENDROOT
BRANCH   6  33
HETATM   33  C   UNK     0     -27.617  -0.479  16.917  0.00  0.00     0.051 C 
BRANCH  33  34
HETATM   34  C   UNK     0     -28.698  -1.532  16.981  0.00  0.00     0.114 C 
BRANCH  34  35
HETATM   35  C   UNK     0     -29.120  -1.653  18.406  0.00  0.00     0.139 C 
HETATM   36  O   UNK     0     -28.776  -2.661  19.089  0.00  0.00    -0.650 OA
BRANCH  35  37
HETATM   37  O   UNK     0     -29.890  -0.688  19.044  0.00  0.00    -0.776 OA
HETATM   38  H   UNK     0     -30.892  -0.651  18.942  0.00  0.00     0.167 HD
ENDBRANCH  35  37
ENDBRANCH  34  35
ENDBRANCH  33  34
ENDBRANCH   6  33
BRANCH  27  39
HETATM   39  C   UNK     0     -23.586  -7.336  13.396  0.00  0.00     0.051 C 
BRANCH  39  40
HETATM   40  C   UNK     0     -24.802  -8.127  13.582  0.00  0.00     0.114 C 
BRANCH  40  41
HETATM   41  C   UNK     0     -25.897  -8.091  12.639  0.00  0.00     0.139 C 
HETATM   42  O   UNK     0     -26.014  -8.886  11.696  0.00  0.00    -0.650 OA
BRANCH  41  43
HETATM   43  O   UNK     0     -26.904  -7.095  12.786  0.00  0.00    -0.776 OA
HETATM   44  H   UNK     0     -27.254  -6.721  11.912  0.00  0.00     0.167 HD
ENDBRANCH  41  43
ENDBRANCH  40  41
ENDBRANCH  39  40
ENDBRANCH  27  39
BRANCH  11  45
HETATM   45  C   UNK     0     -29.298  -0.006   9.039  0.00  0.00     0.051 C 
BRANCH  45  46
HETATM   46  C   UNK     0     -28.322  -0.287   7.955  0.00  0.00     0.114 C 
BRANCH  46  47
HETATM   47  C   UNK     0     -27.487   0.936   7.786  0.00  0.00     0.139 C 
HETATM   48  O   UNK     0     -26.280   0.800   7.541  0.00  0.00    -0.650 OA
BRANCH  47  49
HETATM   49  O   UNK     0     -28.040   2.187   7.900  0.00  0.00    -0.776 OA
HETATM   50  H   UNK     0     -27.596   2.931   8.452  0.00  0.00     0.167 HD
ENDBRANCH  47  49
ENDBRANCH  46  47
ENDBRANCH  45  46
ENDBRANCH  11  45
BRANCH  18  51
HETATM   51  C   UNK     0     -24.785  -5.188   7.801  0.00  0.00     0.051 C 
BRANCH  51  52
HETATM   52  C   UNK     0     -25.325  -6.518   7.296  0.00  0.00     0.114 C 
BRANCH  52  53
HETATM   53  C   UNK     0     -24.620  -7.664   7.904  0.00  0.00     0.139 C 
HETATM   54  O   UNK     0     -23.482  -7.971   7.514  0.00  0.00    -0.650 OA
BRANCH  53  55
HETATM   55  O   UNK     0     -25.231  -8.387   8.899  0.00  0.00    -0.776 OA
HETATM   56  H   UNK     0     -26.175  -8.695   8.902  0.00  0.00     0.167 HD
ENDBRANCH  53  55
ENDBRANCH  52  53
ENDBRANCH  51  52
ENDBRANCH  18  51
TORSDOF 16
ENDMDL
MODEL 11
REMARK VINA RESULT:      -7.8      2.192      7.215
REMARK  16 active torsions:
REMARK  status: ('A' for Active; 'I' for Inactive)
REMARK    1  A    between atoms: C_6  and  C_7 
REMARK    2  A    between atoms: C_7  and  C_8 
REMARK    3  A    between atoms: C_8  and  C_9 
REMARK    4  A    between atoms: C_9  and  O_11 
REMARK    5  A    between atoms: C_16  and  C_17 
REMARK    6  A    between atoms: C_17  and  C_18 
REMARK    7  A    between atoms: C_18  and  C_19 
REMARK    8  A    between atoms: C_19  and  O_21 
REMARK    9  A    between atoms: C_28  and  C_29 
REMARK   10  A    between atoms: C_29  and  C_30 
REMARK   11  A    between atoms: C_30  and  C_31 
REMARK   12  A    between atoms: C_31  and  O_33 
REMARK   13  A    between atoms: C_42  and  C_43 
REMARK   14  A    between atoms: C_43  and  C_44 
REMARK   15  A    between atoms: C_44  and  C_45 
REMARK   16  A    between atoms: C_45  and  O_47 
ROOT
HETATM    1  C   UNK     0     -24.768  -4.626   6.742  0.00  0.00     0.051 C 
HETATM    2  C   UNK     0     -25.887  -3.831   7.383  0.00  0.00    -0.031 A 
HETATM    3  C   UNK     0     -26.944  -4.271   8.163  0.00  0.00     0.021 A 
HETATM    4  N   UNK     0     -27.721  -3.212   8.493  0.00  0.00    -0.361 N 
HETATM    5  C   UNK     0     -27.177  -2.105   7.948  0.00  0.00     0.022 A 
HETATM    6  C   UNK     0     -26.030  -2.456   7.244  0.00  0.00    -0.027 A 
HETATM    7  C   UNK     0     -27.590  -0.673   8.088  0.00  0.00     0.115 C 
HETATM    8  C   UNK     0     -27.989  -0.212   9.479  0.00  0.00     0.021 A 
HETATM    9  N   UNK     0     -27.478  -0.586  10.662  0.00  0.00    -0.361 N 
HETATM   10  C   UNK     0     -28.200   0.008  11.636  0.00  0.00     0.022 A 
HETATM   11  C   UNK     0     -29.196   0.794  11.065  0.00  0.00    -0.027 A 
HETATM   12  C   UNK     0     -29.069   0.660   9.705  0.00  0.00    -0.031 A 
HETATM   13  C   UNK     0     -29.941   1.341   8.675  0.00  0.00     0.051 C 
HETATM   14  C   UNK     0     -28.014  -0.182  13.139  0.00  0.00     0.115 C 
HETATM   15  C   UNK     0     -28.212  -1.615  13.608  0.00  0.00     0.021 A 
HETATM   16  N   UNK     0     -27.541  -2.711  13.207  0.00  0.00    -0.361 N 
HETATM   17  C   UNK     0     -28.061  -3.786  13.802  0.00  0.00     0.022 A 
HETATM   18  C   UNK     0     -29.117  -3.370  14.638  0.00  0.00    -0.027 A 
HETATM   19  C   UNK     0     -29.200  -2.008  14.508  0.00  0.00    -0.031 A 
HETATM   20  C   UNK     0     -30.189  -1.146  15.271  0.00  0.00     0.051 C 
HETATM   21  C   UNK     0     -27.718  -5.249  13.638  0.00  0.00     0.115 C 
HETATM   22  C   UNK     0     -27.277  -5.713  12.270  0.00  0.00     0.022 A 
HETATM   23  N   UNK     0     -27.765  -5.354  11.075  0.00  0.00    -0.361 N 
HETATM   24  C   UNK     0     -26.983  -5.896  10.119  0.00  0.00     0.021 A 
HETATM   25  C   UNK     0     -25.974  -6.629  10.713  0.00  0.00    -0.031 A 
HETATM   26  C   UNK     0     -24.880  -7.448  10.060  0.00  0.00     0.051 C 
HETATM   27  C   UNK     0     -26.141  -6.528  12.089  0.00  0.00    -0.027 A 
HETATM   28  C   UNK     0     -27.080  -5.698   8.616  0.00  0.00     0.115 C 
HETATM   29  H   UNK     0     -28.670  -3.260   9.076  0.00  0.00     0.165 HD
HETATM   30  H   UNK     0     -26.577  -1.230  10.812  0.00  0.00     0.165 HD
HETATM   31  H   UNK     0     -26.650  -2.721  12.526  0.00  0.00     0.165 HD
HETATM   32  H   UNK     0     -28.692  -4.751  10.894  0.00  0.00     0.165 HD
ENDROOT
BRANCH   6  33
HETATM   33  C   UNK     0     -25.073  -1.596   6.457  0.00  0.00     0.051 C 
BRANCH  33  34
HETATM   34  C   UNK     0     -25.529  -1.463   5.023  0.00  0.00     0.114 C 
BRANCH  34  35
HETATM   35  C   UNK     0     -25.795  -0.017   4.772  0.00  0.00     0.139 C 
HETATM   36  O   UNK     0     -24.885   0.726   4.302  0.00  0.00    -0.650 OA
BRANCH  35  37
HETATM   37  O   UNK     0     -27.025   0.574   5.032  0.00  0.00    -0.776 OA
HETATM   38  H   UNK     0     -27.816   0.042   5.357  0.00  0.00     0.167 HD
ENDBRANCH  35  37
ENDBRANCH  34  35
ENDBRANCH  33  34
ENDBRANCH   6  33
BRANCH  27  39
HETATM   39  C   UNK     0     -25.280  -7.248  13.066  0.00  0.00     0.051 C 
BRANCH  39  40
HETATM   40  C   UNK     0     -23.997  -6.649  13.434  0.00  0.00     0.114 C 
BRANCH  40  41
HETATM   41  C   UNK     0     -23.775  -5.221  13.399  0.00  0.00     0.139 C 
HETATM   42  O   UNK     0     -24.296  -4.429  14.196  0.00  0.00    -0.650 OA
BRANCH  41  43
HETATM   43  O   UNK     0     -22.915  -4.680  12.402  0.00  0.00    -0.776 OA
HETATM   44  H   UNK     0     -22.508  -3.783  12.642  0.00  0.00     0.167 HD
ENDBRANCH  41  43
ENDBRANCH  40  41
ENDBRANCH  39  40
ENDBRANCH  27  39
BRANCH  11  45
HETATM   45  C   UNK     0     -30.233   1.644  11.748  0.00  0.00     0.051 C 
BRANCH  45  46
HETATM   46  C   UNK     0     -31.504   0.933  12.041  0.00  0.00     0.114 C 
BRANCH  46  47
HETATM   47  C   UNK     0     -32.599   1.694  11.375  0.00  0.00     0.139 C 
HETATM   48  O   UNK     0     -32.949   2.778  11.863  0.00  0.00    -0.650 OA
BRANCH  47  49
HETATM   49  O   UNK     0     -33.210   1.206  10.248  0.00  0.00    -0.776 OA
HETATM   50  H   UNK     0     -33.626   0.268  10.216  0.00  0.00     0.167 HD
ENDBRANCH  47  49
ENDBRANCH  46  47
ENDBRANCH  45  46
ENDBRANCH  11  45
BRANCH  18  51
HETATM   51  C   UNK     0     -29.984  -4.221  15.529  0.00  0.00     0.051 C 
BRANCH  51  52
HETATM   52  C   UNK     0     -31.134  -4.711  14.661  0.00  0.00     0.114 C 
BRANCH  52  53
HETATM   53  C   UNK     0     -32.425  -4.135  15.082  0.00  0.00     0.139 C 
HETATM   54  O   UNK     0     -32.955  -3.237  14.407  0.00  0.00    -0.650 OA
BRANCH  53  55
HETATM   55  O   UNK     0     -33.033  -4.593  16.225  0.00  0.00    -0.776 OA
HETATM   56  H   UNK     0     -32.625  -4.631  17.129  0.00  0.00     0.167 HD
ENDBRANCH  53  55
ENDBRANCH  52  53
ENDBRANCH  51  52
ENDBRANCH  18  51
TORSDOF 16
ENDMDL
MODEL 12
REMARK VINA RESULT:      -7.8     22.986     26.641
REMARK  16 active torsions:
REMARK  status: ('A' for Active; 'I' for Inactive)
REMARK    1  A    between atoms: C_6  and  C_7 
REMARK    2  A    between atoms: C_7  and  C_8 
REMARK    3  A    between atoms: C_8  and  C_9 
REMARK    4  A    between atoms: C_9  and  O_11 
REMARK    5  A    between atoms: C_16  and  C_17 
REMARK    6  A    between atoms: C_17  and  C_18 
REMARK    7  A    between atoms: C_18  and  C_19 
REMARK    8  A    between atoms: C_19  and  O_21 
REMARK    9  A    between atoms: C_28  and  C_29 
REMARK   10  A    between atoms: C_29  and  C_30 
REMARK   11  A    between atoms: C_30  and  C_31 
REMARK   12  A    between atoms: C_31  and  O_33 
REMARK   13  A    between atoms: C_42  and  C_43 
REMARK   14  A    between atoms: C_43  and  C_44 
REMARK   15  A    between atoms: C_44  and  C_45 
REMARK   16  A    between atoms: C_45  and  O_47 
ROOT
HETATM    1  C   UNK     0     -11.603   2.143  -2.560  0.00  0.00     0.051 C 
HETATM    2  C   UNK     0     -10.889   0.815  -2.417  0.00  0.00    -0.031 A 
HETATM    3  C   UNK     0     -11.053  -0.355  -3.142  0.00  0.00     0.021 A 
HETATM    4  N   UNK     0     -10.222  -1.302  -2.646  0.00  0.00    -0.361 N 
HETATM    5  C   UNK     0      -9.526  -0.759  -1.626  0.00  0.00     0.022 A 
HETATM    6  C   UNK     0      -9.920   0.563  -1.454  0.00  0.00    -0.027 A 
HETATM    7  C   UNK     0      -8.421  -1.350  -0.807  0.00  0.00     0.115 C 
HETATM    8  C   UNK     0      -7.368  -2.147  -1.557  0.00  0.00     0.021 A 
HETATM    9  N   UNK     0      -6.868  -1.927  -2.782  0.00  0.00    -0.361 N 
HETATM   10  C   UNK     0      -6.026  -2.939  -3.079  0.00  0.00     0.022 A 
HETATM   11  C   UNK     0      -5.975  -3.831  -2.012  0.00  0.00    -0.027 A 
HETATM   12  C   UNK     0      -6.818  -3.338  -1.049  0.00  0.00    -0.031 A 
HETATM   13  C   UNK     0      -7.079  -3.978   0.295  0.00  0.00     0.051 C 
HETATM   14  C   UNK     0      -5.279  -3.133  -4.396  0.00  0.00     0.115 C 
HETATM   15  C   UNK     0      -6.190  -3.289  -5.603  0.00  0.00     0.021 A 
HETATM   16  N   UNK     0      -7.115  -2.420  -6.052  0.00  0.00    -0.361 N 
HETATM   17  C   UNK     0      -7.752  -2.957  -7.095  0.00  0.00     0.022 A 
HETATM   18  C   UNK     0      -7.210  -4.233  -7.344  0.00  0.00    -0.027 A 
HETATM   19  C   UNK     0      -6.231  -4.428  -6.404  0.00  0.00    -0.031 A 
HETATM   20  C   UNK     0      -5.364  -5.672  -6.335  0.00  0.00     0.051 C 
HETATM   21  C   UNK     0      -8.913  -2.424  -7.904  0.00  0.00     0.115 C 
HETATM   22  C   UNK     0      -9.945  -1.592  -7.179  0.00  0.00     0.022 A 
HETATM   23  N   UNK     0     -10.458  -1.785  -5.958  0.00  0.00    -0.361 N 
HETATM   24  C   UNK     0     -11.234  -0.726  -5.651  0.00  0.00     0.021 A 
HETATM   25  C   UNK     0     -11.228   0.167  -6.706  0.00  0.00    -0.031 A 
HETATM   26  C   UNK     0     -11.974   1.477  -6.850  0.00  0.00     0.051 C 
HETATM   27  C   UNK     0     -10.410  -0.365  -7.696  0.00  0.00    -0.027 A 
HETATM   28  C   UNK     0     -11.952  -0.447  -4.343  0.00  0.00     0.115 C 
HETATM   29  H   UNK     0     -10.162  -2.359  -2.994  0.00  0.00     0.165 HD
HETATM   30  H   UNK     0      -7.069  -1.031  -3.420  0.00  0.00     0.165 HD
HETATM   31  H   UNK     0      -7.291  -1.386  -5.655  0.00  0.00     0.165 HD
HETATM   32  H   UNK     0     -10.312  -2.693  -5.317  0.00  0.00     0.165 HD
ENDROOT
BRANCH   6  33
HETATM   33  C   UNK     0      -9.454   1.592  -0.455  0.00  0.00     0.051 C 
BRANCH  33  34
HETATM   34  C   UNK     0      -8.671   2.687  -1.140  0.00  0.00     0.114 C 
BRANCH  34  35
HETATM   35  C   UNK     0      -7.497   2.049  -1.802  0.00  0.00     0.139 C 
HETATM   36  O   UNK     0      -6.565   1.553  -1.105  0.00  0.00    -0.650 OA
BRANCH  35  37
HETATM   37  O   UNK     0      -7.370   1.965  -3.183  0.00  0.00    -0.776 OA
HETATM   38  H   UNK     0      -8.148   2.128  -3.802  0.00  0.00     0.167 HD
ENDBRANCH  35  37
ENDBRANCH  34  35
ENDBRANCH  33  34
ENDBRANCH   6  33
BRANCH  27  39
HETATM   39  C   UNK     0     -10.213   0.284  -9.021  0.00  0.00     0.051 C 
BRANCH  39  40
HETATM   40  C   UNK     0      -8.917   0.898  -9.307  0.00  0.00     0.114 C 
BRANCH  40  41
HETATM   41  C   UNK     0      -8.567   1.382 -10.624  0.00  0.00     0.139 C 
HETATM   42  O   UNK     0      -8.309   0.637 -11.579  0.00  0.00    -0.650 OA
BRANCH  41  43
HETATM   43  O   UNK     0      -8.512   2.786 -10.852  0.00  0.00    -0.776 OA
HETATM   44  H   UNK     0      -8.510   3.348 -10.009  0.00  0.00     0.167 HD
ENDBRANCH  41  43
ENDBRANCH  40  41
ENDBRANCH  39  40
ENDBRANCH  27  39
BRANCH  11  45
HETATM   45  C   UNK     0      -5.172  -5.097  -1.881  0.00  0.00     0.051 C 
BRANCH  45  46
HETATM   46  C   UNK     0      -3.893  -4.930  -1.144  0.00  0.00     0.114 C 
BRANCH  46  47
HETATM   47  C   UNK     0      -3.205  -6.253  -1.150  0.00  0.00     0.139 C 
HETATM   48  O   UNK     0      -2.844  -6.728  -2.236  0.00  0.00    -0.650 OA
BRANCH  47  49
HETATM   49  O   UNK     0      -2.976  -6.931   0.020  0.00  0.00    -0.776 OA
HETATM   50  H   UNK     0      -2.996  -6.464   0.934  0.00  0.00     0.167 HD
ENDBRANCH  47  49
ENDBRANCH  46  47
ENDBRANCH  45  46
ENDBRANCH  11  45
BRANCH  18  51
HETATM   51  C   UNK     0      -7.588  -5.204  -8.431  0.00  0.00     0.051 C 
BRANCH  51  52
HETATM   52  C   UNK     0      -6.906  -4.712  -9.699  0.00  0.00     0.114 C 
BRANCH  52  53
HETATM   53  C   UNK     0      -7.781  -4.841 -10.880  0.00  0.00     0.139 C 
HETATM   54  O   UNK     0      -7.542  -5.705 -11.739  0.00  0.00    -0.650 OA
BRANCH  53  55
HETATM   55  O   UNK     0      -8.857  -4.000 -11.024  0.00  0.00    -0.776 OA
HETATM   56  H   UNK     0      -8.857  -3.019 -10.867  0.00  0.00     0.167 HD
ENDBRANCH  53  55
ENDBRANCH  52  53
ENDBRANCH  51  52
ENDBRANCH  18  51
TORSDOF 16
ENDMDL
MODEL 13
REMARK VINA RESULT:      -7.7     23.048     27.028
REMARK  16 active torsions:
REMARK  status: ('A' for Active; 'I' for Inactive)
REMARK    1  A    between atoms: C_6  and  C_7 
REMARK    2  A    between atoms: C_7  and  C_8 
REMARK    3  A    between atoms: C_8  and  C_9 
REMARK    4  A    between atoms: C_9  and  O_11 
REMARK    5  A    between atoms: C_16  and  C_17 
REMARK    6  A    between atoms: C_17  and  C_18 
REMARK    7  A    between atoms: C_18  and  C_19 
REMARK    8  A    between atoms: C_19  and  O_21 
REMARK    9  A    between atoms: C_28  and  C_29 
REMARK   10  A    between atoms: C_29  and  C_30 
REMARK   11  A    between atoms: C_30  and  C_31 
REMARK   12  A    between atoms: C_31  and  O_33 
REMARK   13  A    between atoms: C_42  and  C_43 
REMARK   14  A    between atoms: C_43  and  C_44 
REMARK   15  A    between atoms: C_44  and  C_45 
REMARK   16  A    between atoms: C_45  and  O_47 
ROOT
HETATM    1  C   UNK     0      -8.021  10.854   1.850  0.00  0.00     0.051 C 
HETATM    2  C   UNK     0      -8.316  12.329   1.668  0.00  0.00    -0.031 A 
HETATM    3  C   UNK     0      -9.232  12.946   0.831  0.00  0.00     0.021 A 
HETATM    4  N   UNK     0      -9.128  14.289   0.976  0.00  0.00    -0.361 N 
HETATM    5  C   UNK     0      -8.171  14.540   1.893  0.00  0.00     0.022 A 
HETATM    6  C   UNK     0      -7.640  13.336   2.344  0.00  0.00    -0.027 A 
HETATM    7  C   UNK     0      -7.735  15.846   2.480  0.00  0.00     0.115 C 
HETATM    8  C   UNK     0      -8.833  16.828   2.849  0.00  0.00     0.021 A 
HETATM    9  N   UNK     0     -10.054  16.571   3.342  0.00  0.00    -0.361 N 
HETATM   10  C   UNK     0     -10.725  17.738   3.431  0.00  0.00     0.022 A 
HETATM   11  C   UNK     0      -9.910  18.778   2.993  0.00  0.00    -0.027 A 
HETATM   12  C   UNK     0      -8.716  18.212   2.625  0.00  0.00    -0.031 A 
HETATM   13  C   UNK     0      -7.520  18.965   2.089  0.00  0.00     0.051 C 
HETATM   14  C   UNK     0     -12.173  17.914   3.880  0.00  0.00     0.115 C 
HETATM   15  C   UNK     0     -13.182  17.187   3.006  0.00  0.00     0.021 A 
HETATM   16  N   UNK     0     -13.238  15.868   2.740  0.00  0.00    -0.361 N 
HETATM   17  C   UNK     0     -14.227  15.638   1.874  0.00  0.00     0.022 A 
HETATM   18  C   UNK     0     -14.851  16.864   1.568  0.00  0.00    -0.027 A 
HETATM   19  C   UNK     0     -14.188  17.826   2.284  0.00  0.00    -0.031 A 
HETATM   20  C   UNK     0     -14.564  19.296   2.273  0.00  0.00     0.051 C 
HETATM   21  C   UNK     0     -14.656  14.350   1.209  0.00  0.00     0.115 C 
HETATM   22  C   UNK     0     -13.579  13.344   0.876  0.00  0.00     0.022 A 
HETATM   23  N   UNK     0     -12.353  13.573   0.388  0.00  0.00    -0.361 N 
HETATM   24  C   UNK     0     -11.676  12.407   0.381  0.00  0.00     0.021 A 
HETATM   25  C   UNK     0     -12.490  11.401   0.866  0.00  0.00    -0.031 A 
HETATM   26  C   UNK     0     -12.195   9.923   1.012  0.00  0.00     0.051 C 
HETATM   27  C   UNK     0     -13.713  11.977   1.189  0.00  0.00    -0.027 A 
HETATM   28  C   UNK     0     -10.223  12.178   0.003  0.00  0.00     0.115 C 
HETATM   29  H   UNK     0      -9.704  15.050   0.400  0.00  0.00     0.165 HD
HETATM   30  H   UNK     0     -10.429  15.571   3.674  0.00  0.00     0.165 HD
HETATM   31  H   UNK     0     -12.598  15.077   3.210  0.00  0.00     0.165 HD
HETATM   32  H   UNK     0     -11.967  14.553   0.004  0.00  0.00     0.165 HD
ENDROOT
BRANCH   6  33
HETATM   33  C   UNK     0      -6.552  13.074   3.355  0.00  0.00     0.051 C 
BRANCH  33  34
HETATM   34  C   UNK     0      -5.190  13.140   2.704  0.00  0.00     0.114 C 
BRANCH  34  35
HETATM   35  C   UNK     0      -4.393  11.990   3.219  0.00  0.00     0.139 C 
HETATM   36  O   UNK     0      -3.549  12.164   4.145  0.00  0.00    -0.650 OA
BRANCH  35  37
HETATM   37  O   UNK     0      -4.534  10.699   2.723  0.00  0.00    -0.776 OA
HETATM   38  H   UNK     0      -3.743  10.151   2.427  0.00  0.00     0.167 HD
ENDBRANCH  35  37
ENDBRANCH  34  35
ENDBRANCH  33  34
ENDBRANCH   6  33
BRANCH  27  39
HETATM   39  C   UNK     0     -14.876  11.188   1.679  0.00  0.00     0.051 C 
BRANCH  39  40
HETATM   40  C   UNK     0     -14.973  10.911   3.112  0.00  0.00     0.114 C 
BRANCH  40  41
HETATM   41  C   UNK     0     -16.152  11.239   3.882  0.00  0.00     0.139 C 
HETATM   42  O   UNK     0     -17.297  11.248   3.408  0.00  0.00    -0.650 OA
BRANCH  41  43
HETATM   43  O   UNK     0     -16.008  11.571   5.259  0.00  0.00    -0.776 OA
HETATM   44  H   UNK     0     -16.563  12.364   5.559  0.00  0.00     0.167 HD
ENDBRANCH  41  43
ENDBRANCH  40  41
ENDBRANCH  39  40
ENDBRANCH  27  39
BRANCH  11  45
HETATM   45  C   UNK     0     -10.219  20.249   2.918  0.00  0.00     0.051 C 
BRANCH  45  46
HETATM   46  C   UNK     0     -11.011  20.642   1.724  0.00  0.00     0.114 C 
BRANCH  46  47
HETATM   47  C   UNK     0     -11.933  21.735   2.146  0.00  0.00     0.139 C 
HETATM   48  O   UNK     0     -12.188  21.863   3.352  0.00  0.00    -0.650 OA
BRANCH  47  49
HETATM   49  O   UNK     0     -12.489  22.582   1.221  0.00  0.00    -0.776 OA
HETATM   50  H   UNK     0     -12.240  23.577   1.173  0.00  0.00     0.167 HD
ENDBRANCH  47  49
ENDBRANCH  46  47
ENDBRANCH  45  46
ENDBRANCH  11  45
BRANCH  18  51
HETATM   51  C   UNK     0     -16.029  17.102   0.659  0.00  0.00     0.051 C 
BRANCH  51  52
HETATM   52  C   UNK     0     -15.453  17.365  -0.725  0.00  0.00     0.114 C 
BRANCH  52  53
HETATM   53  C   UNK     0     -16.162  16.601  -1.769  0.00  0.00     0.139 C 
HETATM   54  O   UNK     0     -17.053  17.146  -2.441  0.00  0.00    -0.650 OA
BRANCH  53  55
HETATM   55  O   UNK     0     -15.833  15.286  -1.991  0.00  0.00    -0.776 OA
HETATM   56  H   UNK     0     -16.397  14.498  -1.774  0.00  0.00     0.167 HD
ENDBRANCH  53  55
ENDBRANCH  52  53
ENDBRANCH  51  52
ENDBRANCH  18  51
TORSDOF 16
ENDMDL
MODEL 14
REMARK VINA RESULT:      -7.7      3.024      7.554
REMARK  16 active torsions:
REMARK  status: ('A' for Active; 'I' for Inactive)
REMARK    1  A    between atoms: C_6  and  C_7 
REMARK    2  A    between atoms: C_7  and  C_8 
REMARK    3  A    between atoms: C_8  and  C_9 
REMARK    4  A    between atoms: C_9  and  O_11 
REMARK    5  A    between atoms: C_16  and  C_17 
REMARK    6  A    between atoms: C_17  and  C_18 
REMARK    7  A    between atoms: C_18  and  C_19 
REMARK    8  A    between atoms: C_19  and  O_21 
REMARK    9  A    between atoms: C_28  and  C_29 
REMARK   10  A    between atoms: C_29  and  C_30 
REMARK   11  A    between atoms: C_30  and  C_31 
REMARK   12  A    between atoms: C_31  and  O_33 
REMARK   13  A    between atoms: C_42  and  C_43 
REMARK   14  A    between atoms: C_43  and  C_44 
REMARK   15  A    between atoms: C_44  and  C_45 
REMARK   16  A    between atoms: C_45  and  O_47 
ROOT
HETATM    1  C   UNK     0     -24.833  -3.067   4.421  0.00  0.00     0.051 C 
HETATM    2  C   UNK     0     -25.883  -2.659   5.434  0.00  0.00    -0.031 A 
HETATM    3  C   UNK     0     -26.453  -3.399   6.458  0.00  0.00     0.021 A 
HETATM    4  N   UNK     0     -27.374  -2.637   7.095  0.00  0.00    -0.361 N 
HETATM    5  C   UNK     0     -27.396  -1.424   6.505  0.00  0.00     0.022 A 
HETATM    6  C   UNK     0     -26.478  -1.404   5.461  0.00  0.00    -0.027 A 
HETATM    7  C   UNK     0     -28.164  -0.196   6.883  0.00  0.00     0.115 C 
HETATM    8  C   UNK     0     -28.229   0.139   8.363  0.00  0.00     0.021 A 
HETATM    9  N   UNK     0     -27.285  -0.033   9.301  0.00  0.00    -0.361 N 
HETATM   10  C   UNK     0     -27.811   0.318  10.494  0.00  0.00     0.022 A 
HETATM   11  C   UNK     0     -29.127   0.735  10.318  0.00  0.00    -0.027 A 
HETATM   12  C   UNK     0     -29.397   0.625   8.978  0.00  0.00    -0.031 A 
HETATM   13  C   UNK     0     -30.712   0.975   8.319  0.00  0.00     0.051 C 
HETATM   14  C   UNK     0     -27.115   0.223  11.849  0.00  0.00     0.115 C 
HETATM   15  C   UNK     0     -26.706  -1.190  12.234  0.00  0.00     0.021 A 
HETATM   16  N   UNK     0     -25.891  -2.022  11.559  0.00  0.00    -0.361 N 
HETATM   17  C   UNK     0     -25.842  -3.196  12.191  0.00  0.00     0.022 A 
HETATM   18  C   UNK     0     -26.657  -3.123  13.338  0.00  0.00    -0.027 A 
HETATM   19  C   UNK     0     -27.191  -1.861  13.354  0.00  0.00    -0.031 A 
HETATM   20  C   UNK     0     -28.107  -1.346  14.450  0.00  0.00     0.051 C 
HETATM   21  C   UNK     0     -25.135  -4.477  11.809  0.00  0.00     0.115 C 
HETATM   22  C   UNK     0     -25.024  -4.800  10.337  0.00  0.00     0.022 A 
HETATM   23  N   UNK     0     -25.946  -4.636   9.380  0.00  0.00    -0.361 N 
HETATM   24  C   UNK     0     -25.376  -4.917   8.191  0.00  0.00     0.021 A 
HETATM   25  C   UNK     0     -24.058  -5.280   8.388  0.00  0.00    -0.031 A 
HETATM   26  C   UNK     0     -23.027  -5.720   7.369  0.00  0.00     0.051 C 
HETATM   27  C   UNK     0     -23.809  -5.213   9.754  0.00  0.00    -0.027 A 
HETATM   28  C   UNK     0     -25.995  -4.786   6.810  0.00  0.00     0.115 C 
HETATM   29  H   UNK     0     -28.029  -2.974   7.931  0.00  0.00     0.165 HD
HETATM   30  H   UNK     0     -26.230  -0.353   9.118  0.00  0.00     0.165 HD
HETATM   31  H   UNK     0     -25.301  -1.760  10.642  0.00  0.00     0.165 HD
HETATM   32  H   UNK     0     -27.022  -4.362   9.539  0.00  0.00     0.165 HD
ENDROOT
BRANCH   6  33
HETATM   33  C   UNK     0     -26.129  -0.298   4.497  0.00  0.00     0.051 C 
BRANCH  33  34
HETATM   34  C   UNK     0     -26.963  -0.398   3.242  0.00  0.00     0.114 C 
BRANCH  34  35
HETATM   35  C   UNK     0     -26.085  -0.042   2.092  0.00  0.00     0.139 C 
HETATM   36  O   UNK     0     -24.866  -0.384   2.090  0.00  0.00    -0.650 OA
BRANCH  35  37
HETATM   37  O   UNK     0     -26.546   0.665   0.988  0.00  0.00    -0.776 OA
HETATM   38  H   UNK     0     -27.528   0.771   0.793  0.00  0.00     0.167 HD
ENDBRANCH  35  37
ENDBRANCH  34  35
ENDBRANCH  33  34
ENDBRANCH   6  33
BRANCH  27  39
HETATM   39  C   UNK     0     -22.508  -5.605  10.361  0.00  0.00     0.051 C 
BRANCH  39  40
HETATM   40  C   UNK     0     -22.460  -5.849  11.803  0.00  0.00     0.114 C 
BRANCH  40  41
HETATM   41  C   UNK     0     -21.262  -5.633  12.582  0.00  0.00     0.139 C 
HETATM   42  O   UNK     0     -20.385  -6.493  12.740  0.00  0.00    -0.650 OA
BRANCH  41  43
HETATM   43  O   UNK     0     -21.064  -4.369  13.207  0.00  0.00    -0.776 OA
HETATM   44  H   UNK     0     -20.260  -4.328  13.823  0.00  0.00     0.167 HD
ENDBRANCH  41  43
ENDBRANCH  40  41
ENDBRANCH  39  40
ENDBRANCH  27  39
BRANCH  11  45
HETATM   45  C   UNK     0     -30.107   1.223  11.351  0.00  0.00     0.051 C 
BRANCH  45  46
HETATM   46  C   UNK     0     -31.347   0.410  11.443  0.00  0.00     0.114 C 
BRANCH  46  47
HETATM   47  C   UNK     0     -31.058  -0.734  12.353  0.00  0.00     0.139 C 
HETATM   48  O   UNK     0     -31.380  -0.639  13.546  0.00  0.00    -0.650 OA
BRANCH  47  49
HETATM   49  O   UNK     0     -30.447  -1.869  11.883  0.00  0.00    -0.776 OA
HETATM   50  H   UNK     0     -30.052  -1.924  10.937  0.00  0.00     0.167 HD
ENDBRANCH  47  49
ENDBRANCH  46  47
ENDBRANCH  45  46
ENDBRANCH  11  45
BRANCH  18  51
HETATM   51  C   UNK     0     -26.896  -4.191  14.374  0.00  0.00     0.051 C 
BRANCH  51  52
HETATM   52  C   UNK     0     -28.025  -5.059  13.839  0.00  0.00     0.114 C 
BRANCH  52  53
HETATM   53  C   UNK     0     -29.305  -4.773  14.515  0.00  0.00     0.139 C 
HETATM   54  O   UNK     0     -29.482  -5.134  15.689  0.00  0.00    -0.650 OA
BRANCH  53  55
HETATM   55  O   UNK     0     -30.298  -4.110  13.836  0.00  0.00    -0.776 OA
HETATM   56  H   UNK     0     -30.241  -3.189  13.470  0.00  0.00     0.167 HD
ENDBRANCH  53  55
ENDBRANCH  52  53
ENDBRANCH  51  52
ENDBRANCH  18  51
TORSDOF 16
ENDMDL
MODEL 15
REMARK VINA RESULT:      -7.7      3.226      8.420
REMARK  16 active torsions:
REMARK  status: ('A' for Active; 'I' for Inactive)
REMARK    1  A    between atoms: C_6  and  C_7 
REMARK    2  A    between atoms: C_7  and  C_8 
REMARK    3  A    between atoms: C_8  and  C_9 
REMARK    4  A    between atoms: C_9  and  O_11 
REMARK    5  A    between atoms: C_16  and  C_17 
REMARK    6  A    between atoms: C_17  and  C_18 
REMARK    7  A    between atoms: C_18  and  C_19 
REMARK    8  A    between atoms: C_19  and  O_21 
REMARK    9  A    between atoms: C_28  and  C_29 
REMARK   10  A    between atoms: C_29  and  C_30 
REMARK   11  A    between atoms: C_30  and  C_31 
REMARK   12  A    between atoms: C_31  and  O_33 
REMARK   13  A    between atoms: C_42  and  C_43 
REMARK   14  A    between atoms: C_43  and  C_44 
REMARK   15  A    between atoms: C_44  and  C_45 
REMARK   16  A    between atoms: C_45  and  O_47 
ROOT
HETATM    1  C   UNK     0     -23.414  -4.492  15.359  0.00  0.00     0.051 C 
HETATM    2  C   UNK     0     -23.785  -4.780  13.919  0.00  0.00    -0.031 A 
HETATM    3  C   UNK     0     -25.029  -4.754  13.309  0.00  0.00     0.021 A 
HETATM    4  N   UNK     0     -24.892  -5.111  12.010  0.00  0.00    -0.361 N 
HETATM    5  C   UNK     0     -23.585  -5.355  11.776  0.00  0.00     0.022 A 
HETATM    6  C   UNK     0     -22.865  -5.160  12.950  0.00  0.00    -0.027 A 
HETATM    7  C   UNK     0     -22.894  -5.690  10.492  0.00  0.00     0.115 C 
HETATM    8  C   UNK     0     -23.323  -4.908   9.263  0.00  0.00     0.021 A 
HETATM    9  N   UNK     0     -23.697  -3.621   9.179  0.00  0.00    -0.361 N 
HETATM   10  C   UNK     0     -24.083  -3.379   7.908  0.00  0.00     0.022 A 
HETATM   11  C   UNK     0     -23.945  -4.538   7.151  0.00  0.00    -0.027 A 
HETATM   12  C   UNK     0     -23.467  -5.505   7.998  0.00  0.00    -0.031 A 
HETATM   13  C   UNK     0     -23.157  -6.933   7.609  0.00  0.00     0.051 C 
HETATM   14  C   UNK     0     -24.645  -2.065   7.372  0.00  0.00     0.115 C 
HETATM   15  C   UNK     0     -25.936  -1.628   8.044  0.00  0.00     0.021 A 
HETATM   16  N   UNK     0     -26.139  -1.385   9.353  0.00  0.00    -0.361 N 
HETATM   17  C   UNK     0     -27.426  -1.092   9.550  0.00  0.00     0.022 A 
HETATM   18  C   UNK     0     -28.092  -1.137   8.309  0.00  0.00    -0.027 A 
HETATM   19  C   UNK     0     -27.147  -1.472   7.374  0.00  0.00    -0.031 A 
HETATM   20  C   UNK     0     -27.436  -1.594   5.889  0.00  0.00     0.051 C 
HETATM   21  C   UNK     0     -28.174  -0.815  10.834  0.00  0.00     0.115 C 
HETATM   22  C   UNK     0     -27.729  -1.553  12.074  0.00  0.00     0.022 A 
HETATM   23  N   UNK     0     -27.347  -2.832  12.186  0.00  0.00    -0.361 N 
HETATM   24  C   UNK     0     -26.894  -3.031  13.441  0.00  0.00     0.021 A 
HETATM   25  C   UNK     0     -26.996  -1.853  14.157  0.00  0.00    -0.031 A 
HETATM   26  C   UNK     0     -26.653  -1.587  15.608  0.00  0.00     0.051 C 
HETATM   27  C   UNK     0     -27.528  -0.893  13.303  0.00  0.00    -0.027 A 
HETATM   28  C   UNK     0     -26.272  -4.291  14.016  0.00  0.00     0.115 C 
HETATM   29  H   UNK     0     -25.723  -5.227  11.277  0.00  0.00     0.165 HD
HETATM   30  H   UNK     0     -23.643  -2.868  10.003  0.00  0.00     0.165 HD
HETATM   31  H   UNK     0     -25.348  -1.373  10.148  0.00  0.00     0.165 HD
HETATM   32  H   UNK     0     -27.435  -3.619  11.393  0.00  0.00     0.165 HD
ENDROOT
BRANCH   6  33
HETATM   33  C   UNK     0     -21.389  -5.308  13.218  0.00  0.00     0.051 C 
BRANCH  33  34
HETATM   34  C   UNK     0     -20.978  -6.760  13.167  0.00  0.00     0.114 C 
BRANCH  34  35
HETATM   35  C   UNK     0     -19.489  -6.801  13.104  0.00  0.00     0.139 C 
HETATM   36  O   UNK     0     -18.905  -7.685  12.412  0.00  0.00    -0.650 OA
BRANCH  35  37
HETATM   37  O   UNK     0     -18.685  -5.894  13.783  0.00  0.00    -0.776 OA
HETATM   38  H   UNK     0     -18.139  -6.159  14.587  0.00  0.00     0.167 HD
ENDBRANCH  35  37
ENDBRANCH  34  35
ENDBRANCH  33  34
ENDBRANCH   6  33
BRANCH  27  39
HETATM   39  C   UNK     0     -27.851   0.492  13.742  0.00  0.00     0.051 C 
BRANCH  39  40
HETATM   40  C   UNK     0     -29.232   0.798  14.113  0.00  0.00     0.114 C 
BRANCH  40  41
HETATM   41  C   UNK     0     -30.290   0.894  13.132  0.00  0.00     0.139 C 
HETATM   42  O   UNK     0     -31.240   0.101  13.071  0.00  0.00    -0.650 OA
BRANCH  41  43
HETATM   43  O   UNK     0     -30.253   1.949  12.177  0.00  0.00    -0.776 OA
HETATM   44  H   UNK     0     -31.135   2.433  12.054  0.00  0.00     0.167 HD
ENDBRANCH  41  43
ENDBRANCH  40  41
ENDBRANCH  39  40
ENDBRANCH  27  39
BRANCH  11  45
HETATM   45  C   UNK     0     -24.241  -4.750   5.690  0.00  0.00     0.051 C 
BRANCH  45  46
HETATM   46  C   UNK     0     -25.640  -5.163   5.409  0.00  0.00     0.114 C 
BRANCH  46  47
HETATM   47  C   UNK     0     -26.065  -4.462   4.164  0.00  0.00     0.139 C 
HETATM   48  O   UNK     0     -25.234  -3.769   3.561  0.00  0.00    -0.650 OA
BRANCH  47  49
HETATM   49  O   UNK     0     -27.350  -4.578   3.696  0.00  0.00    -0.776 OA
HETATM   50  H   UNK     0     -27.890  -5.446   3.797  0.00  0.00     0.167 HD
ENDBRANCH  47  49
ENDBRANCH  46  47
ENDBRANCH  45  46
ENDBRANCH  11  45
BRANCH  18  51
HETATM   51  C   UNK     0     -29.545  -0.855   8.026  0.00  0.00     0.051 C 
BRANCH  51  52
HETATM   52  C   UNK     0     -29.655   0.649   7.824  0.00  0.00     0.114 C 
BRANCH  52  53
HETATM   53  C   UNK     0     -30.485   1.284   8.866  0.00  0.00     0.139 C 
HETATM   54  O   UNK     0     -31.308   0.607   9.503  0.00  0.00    -0.650 OA
BRANCH  53  55
HETATM   55  O   UNK     0     -30.344   2.626   9.123  0.00  0.00    -0.776 OA
HETATM   56  H   UNK     0     -30.898   3.163   9.748  0.00  0.00     0.167 HD
ENDBRANCH  53  55
ENDBRANCH  52  53
ENDBRANCH  51  52
ENDBRANCH  18  51
TORSDOF 16
ENDMDL
MODEL 16
REMARK VINA RESULT:      -7.6     33.428     38.571
REMARK  16 active torsions:
REMARK  status: ('A' for Active; 'I' for Inactive)
REMARK    1  A    between atoms: C_6  and  C_7 
REMARK    2  A    between atoms: C_7  and  C_8 
REMARK    3  A    between atoms: C_8  and  C_9 
REMARK    4  A    between atoms: C_9  and  O_11 
REMARK    5  A    between atoms: C_16  and  C_17 
REMARK    6  A    between atoms: C_17  and  C_18 
REMARK    7  A    between atoms: C_18  and  C_19 
REMARK    8  A    between atoms: C_19  and  O_21 
REMARK    9  A    between atoms: C_28  and  C_29 
REMARK   10  A    between atoms: C_29  and  C_30 
REMARK   11  A    between atoms: C_30  and  C_31 
REMARK   12  A    between atoms: C_31  and  O_33 
REMARK   13  A    between atoms: C_42  and  C_43 
REMARK   14  A    between atoms: C_43  and  C_44 
REMARK   15  A    between atoms: C_44  and  C_45 
REMARK   16  A    between atoms: C_45  and  O_47 
ROOT
HETATM    1  C   UNK     0       7.989   2.898  -1.024  0.00  0.00     0.051 C 
HETATM    2  C   UNK     0       8.276   3.586   0.295  0.00  0.00    -0.031 A 
HETATM    3  C   UNK     0       7.483   3.683   1.428  0.00  0.00     0.021 A 
HETATM    4  N   UNK     0       8.134   4.420   2.360  0.00  0.00    -0.361 N 
HETATM    5  C   UNK     0       9.327   4.787   1.849  0.00  0.00     0.022 A 
HETATM    6  C   UNK     0       9.448   4.284   0.558  0.00  0.00    -0.027 A 
HETATM    7  C   UNK     0      10.455   5.525   2.500  0.00  0.00     0.115 C 
HETATM    8  C   UNK     0      10.797   5.127   3.925  0.00  0.00     0.021 A 
HETATM    9  N   UNK     0      10.757   3.909   4.486  0.00  0.00    -0.361 N 
HETATM   10  C   UNK     0      11.054   4.040   5.796  0.00  0.00     0.022 A 
HETATM   11  C   UNK     0      11.302   5.379   6.085  0.00  0.00    -0.027 A 
HETATM   12  C   UNK     0      11.142   6.069   4.911  0.00  0.00    -0.031 A 
HETATM   13  C   UNK     0      11.318   7.562   4.743  0.00  0.00     0.051 C 
HETATM   14  C   UNK     0      11.064   2.922   6.834  0.00  0.00     0.115 C 
HETATM   15  C   UNK     0       9.718   2.239   7.016  0.00  0.00     0.021 A 
HETATM   16  N   UNK     0       8.985   1.605   6.082  0.00  0.00    -0.361 N 
HETATM   17  C   UNK     0       7.834   1.203   6.625  0.00  0.00     0.022 A 
HETATM   18  C   UNK     0       7.820   1.586   7.981  0.00  0.00    -0.027 A 
HETATM   19  C   UNK     0       9.006   2.232   8.214  0.00  0.00    -0.031 A 
HETATM   20  C   UNK     0       9.417   2.780   9.569  0.00  0.00     0.051 C 
HETATM   21  C   UNK     0       6.647   0.517   5.989  0.00  0.00     0.115 C 
HETATM   22  C   UNK     0       6.321   0.870   4.557  0.00  0.00     0.022 A 
HETATM   23  N   UNK     0       6.357   2.074   3.971  0.00  0.00    -0.361 N 
HETATM   24  C   UNK     0       6.134   1.909   2.651  0.00  0.00     0.021 A 
HETATM   25  C   UNK     0       5.940   0.568   2.383  0.00  0.00    -0.031 A 
HETATM   26  C   UNK     0       5.619  -0.104   1.064  0.00  0.00     0.051 C 
HETATM   27  C   UNK     0       6.054  -0.117   3.588  0.00  0.00    -0.027 A 
HETATM   28  C   UNK     0       6.169   2.968   1.563  0.00  0.00     0.115 C 
HETATM   29  H   UNK     0       7.728   4.709   3.357  0.00  0.00     0.165 HD
HETATM   30  H   UNK     0      10.567   2.947   3.949  0.00  0.00     0.165 HD
HETATM   31  H   UNK     0       9.307   1.394   5.029  0.00  0.00     0.165 HD
HETATM   32  H   UNK     0       6.497   3.058   4.490  0.00  0.00     0.165 HD
ENDROOT
BRANCH   6  33
HETATM   33  C   UNK     0      10.576   4.418  -0.434  0.00  0.00     0.051 C 
BRANCH  33  34
HETATM   34  C   UNK     0      10.208   5.381  -1.537  0.00  0.00     0.114 C 
BRANCH  34  35
HETATM   35  C   UNK     0      10.156   6.746  -0.938  0.00  0.00     0.139 C 
HETATM   36  O   UNK     0      11.202   7.271  -0.458  0.00  0.00    -0.650 OA
BRANCH  35  37
HETATM   37  O   UNK     0       8.987   7.495  -0.881  0.00  0.00    -0.776 OA
HETATM   38  H   UNK     0       8.964   8.422  -0.487  0.00  0.00     0.167 HD
ENDBRANCH  35  37
ENDBRANCH  34  35
ENDBRANCH  33  34
ENDBRANCH   6  33
BRANCH  27  39
HETATM   39  C   UNK     0       5.835  -1.584   3.710  0.00  0.00     0.051 C 
BRANCH  39  40
HETATM   40  C   UNK     0       4.558  -2.053   4.247  0.00  0.00     0.114 C 
BRANCH  40  41
HETATM   41  C   UNK     0       4.262  -2.029   5.662  0.00  0.00     0.139 C 
HETATM   42  O   UNK     0       3.293  -1.431   6.148  0.00  0.00    -0.650 OA
BRANCH  41  43
HETATM   43  O   UNK     0       5.121  -2.726   6.559  0.00  0.00    -0.776 OA
HETATM   44  H   UNK     0       6.013  -2.995   6.162  0.00  0.00     0.167 HD
ENDBRANCH  41  43
ENDBRANCH  40  41
ENDBRANCH  39  40
ENDBRANCH  27  39
BRANCH  11  45
HETATM   45  C   UNK     0      11.678   6.004   7.401  0.00  0.00     0.051 C 
BRANCH  45  46
HETATM   46  C   UNK     0      10.517   6.375   8.249  0.00  0.00     0.114 C 
BRANCH  46  47
HETATM   47  C   UNK     0      10.943   7.519   9.106  0.00  0.00     0.139 C 
HETATM   48  O   UNK     0      10.423   8.627   8.916  0.00  0.00    -0.650 OA
BRANCH  47  49
HETATM   49  O   UNK     0      11.892   7.350  10.082  0.00  0.00    -0.776 OA
HETATM   50  H   UNK     0      12.356   6.448  10.241  0.00  0.00     0.167 HD
ENDBRANCH  47  49
ENDBRANCH  46  47
ENDBRANCH  45  46
ENDBRANCH  11  45
BRANCH  18  51
HETATM   51  C   UNK     0       6.744   1.330   9.005  0.00  0.00     0.051 C 
BRANCH  51  52
HETATM   52  C   UNK     0       6.685  -0.179   9.192  0.00  0.00     0.114 C 
BRANCH  52  53
HETATM   53  C   UNK     0       7.655  -0.646  10.202  0.00  0.00     0.139 C 
HETATM   54  O   UNK     0       8.815  -0.930   9.864  0.00  0.00    -0.650 OA
BRANCH  53  55
HETATM   55  O   UNK     0       7.265  -0.767  11.514  0.00  0.00    -0.776 OA
HETATM   56  H   UNK     0       7.703  -0.338  12.295  0.00  0.00     0.167 HD
ENDBRANCH  53  55
ENDBRANCH  52  53
ENDBRANCH  51  52
ENDBRANCH  18  51
TORSDOF 16
ENDMDL
MODEL 17
REMARK VINA RESULT:      -7.6     18.499     21.903
REMARK  16 active torsions:
REMARK  status: ('A' for Active; 'I' for Inactive)
REMARK    1  A    between atoms: C_6  and  C_7 
REMARK    2  A    between atoms: C_7  and  C_8 
REMARK    3  A    between atoms: C_8  and  C_9 
REMARK    4  A    between atoms: C_9  and  O_11 
REMARK    5  A    between atoms: C_16  and  C_17 
REMARK    6  A    between atoms: C_17  and  C_18 
REMARK    7  A    between atoms: C_18  and  C_19 
REMARK    8  A    between atoms: C_19  and  O_21 
REMARK    9  A    between atoms: C_28  and  C_29 
REMARK   10  A    between atoms: C_29  and  C_30 
REMARK   11  A    between atoms: C_30  and  C_31 
REMARK   12  A    between atoms: C_31  and  O_33 
REMARK   13  A    between atoms: C_42  and  C_43 
REMARK   14  A    between atoms: C_43  and  C_44 
REMARK   15  A    between atoms: C_44  and  C_45 
REMARK   16  A    between atoms: C_45  and  O_47 
ROOT
HETATM    1  C   UNK     0     -19.533   8.275   1.589  0.00  0.00     0.051 C 
HETATM    2  C   UNK     0     -19.522   9.755   1.913  0.00  0.00    -0.031 A 
HETATM    3  C   UNK     0     -18.587  10.493   2.623  0.00  0.00     0.021 A 
HETATM    4  N   UNK     0     -19.002  11.780   2.693  0.00  0.00    -0.361 N 
HETATM    5  C   UNK     0     -20.176  11.881   2.036  0.00  0.00     0.022 A 
HETATM    6  C   UNK     0     -20.532  10.631   1.538  0.00  0.00    -0.027 A 
HETATM    7  C   UNK     0     -21.001  13.094   1.740  0.00  0.00     0.115 C 
HETATM    8  C   UNK     0     -20.250  14.337   1.296  0.00  0.00     0.021 A 
HETATM    9  N   UNK     0     -19.150  14.421   0.533  0.00  0.00    -0.361 N 
HETATM   10  C   UNK     0     -18.779  15.718   0.474  0.00  0.00     0.022 A 
HETATM   11  C   UNK     0     -19.670  16.491   1.211  0.00  0.00    -0.027 A 
HETATM   12  C   UNK     0     -20.600  15.628   1.732  0.00  0.00    -0.031 A 
HETATM   13  C   UNK     0     -21.771  16.025   2.603  0.00  0.00     0.051 C 
HETATM   14  C   UNK     0     -17.545  16.271  -0.233  0.00  0.00     0.115 C 
HETATM   15  C   UNK     0     -16.231  15.726   0.305  0.00  0.00     0.021 A 
HETATM   16  N   UNK     0     -15.838  14.440   0.365  0.00  0.00    -0.361 N 
HETATM   17  C   UNK     0     -14.650  14.372   0.969  0.00  0.00     0.022 A 
HETATM   18  C   UNK     0     -14.245  15.678   1.310  0.00  0.00    -0.027 A 
HETATM   19  C   UNK     0     -15.243  16.517   0.888  0.00  0.00    -0.031 A 
HETATM   20  C   UNK     0     -15.192  18.027   1.029  0.00  0.00     0.051 C 
HETATM   21  C   UNK     0     -13.818  13.167   1.344  0.00  0.00     0.115 C 
HETATM   22  C   UNK     0     -14.552  11.910   1.745  0.00  0.00     0.022 A 
HETATM   23  N   UNK     0     -15.653  11.796   2.501  0.00  0.00    -0.361 N 
HETATM   24  C   UNK     0     -16.048  10.508   2.482  0.00  0.00     0.021 A 
HETATM   25  C   UNK     0     -15.176   9.771   1.704  0.00  0.00    -0.031 A 
HETATM   26  C   UNK     0     -15.179   8.284   1.415  0.00  0.00     0.051 C 
HETATM   27  C   UNK     0     -14.210  10.647   1.222  0.00  0.00    -0.027 A 
HETATM   28  C   UNK     0     -17.293   9.908   3.114  0.00  0.00     0.115 C 
HETATM   29  H   UNK     0     -18.482  12.601   3.240  0.00  0.00     0.165 HD
HETATM   30  H   UNK     0     -18.661  13.574  -0.006  0.00  0.00     0.165 HD
HETATM   31  H   UNK     0     -16.389  13.566  -0.071  0.00  0.00     0.165 HD
HETATM   32  H   UNK     0     -16.136  12.618   3.090  0.00  0.00     0.165 HD
ENDROOT
BRANCH   6  33
HETATM   33  C   UNK     0     -21.744  10.212   0.745  0.00  0.00     0.051 C 
BRANCH  33  34
HETATM   34  C   UNK     0     -22.690   9.404   1.601  0.00  0.00     0.114 C 
BRANCH  34  35
HETATM   35  C   UNK     0     -23.193   8.275   0.767  0.00  0.00     0.139 C 
HETATM   36  O   UNK     0     -23.519   7.178   1.308  0.00  0.00    -0.650 OA
BRANCH  35  37
HETATM   37  O   UNK     0     -23.330   8.366  -0.613  0.00  0.00    -0.776 OA
HETATM   38  H   UNK     0     -22.572   8.664  -1.207  0.00  0.00     0.167 HD
ENDBRANCH  35  37
ENDBRANCH  34  35
ENDBRANCH  33  34
ENDBRANCH   6  33
BRANCH  27  39
HETATM   39  C   UNK     0     -13.052  10.203   0.398  0.00  0.00     0.051 C 
BRANCH  39  40
HETATM   40  C   UNK     0     -11.863   9.701   1.086  0.00  0.00     0.114 C 
BRANCH  40  41
HETATM   41  C   UNK     0     -11.270   8.422   0.766  0.00  0.00     0.139 C 
HETATM   42  O   UNK     0     -10.554   8.229  -0.226  0.00  0.00    -0.650 OA
BRANCH  41  43
HETATM   43  O   UNK     0     -11.512   7.314   1.627  0.00  0.00    -0.776 OA
HETATM   44  H   UNK     0     -12.219   6.670   1.293  0.00  0.00     0.167 HD
ENDBRANCH  41  43
ENDBRANCH  40  41
ENDBRANCH  39  40
ENDBRANCH  27  39
BRANCH  11  45
HETATM   45  C   UNK     0     -19.669  17.981   1.428  0.00  0.00     0.051 C 
BRANCH  45  46
HETATM   46  C   UNK     0     -18.824  18.427   2.565  0.00  0.00     0.114 C 
BRANCH  46  47
HETATM   47  C   UNK     0     -19.587  19.478   3.297  0.00  0.00     0.139 C 
HETATM   48  O   UNK     0     -19.115  20.622   3.352  0.00  0.00    -0.650 OA
BRANCH  47  49
HETATM   49  O   UNK     0     -20.785  19.187   3.898  0.00  0.00    -0.776 OA
HETATM   50  H   UNK     0     -21.010  18.244   4.237  0.00  0.00     0.167 HD
ENDBRANCH  47  49
ENDBRANCH  46  47
ENDBRANCH  45  46
ENDBRANCH  11  45
BRANCH  18  51
HETATM   51  C   UNK     0     -12.966  16.105   1.983  0.00  0.00     0.051 C 
BRANCH  51  52
HETATM   52  C   UNK     0     -13.347  16.524   3.395  0.00  0.00     0.114 C 
BRANCH  52  53
HETATM   53  C   UNK     0     -12.443  17.565   3.922  0.00  0.00     0.139 C 
HETATM   54  O   UNK     0     -12.287  18.626   3.298  0.00  0.00    -0.650 OA
BRANCH  53  55
HETATM   55  O   UNK     0     -11.776  17.351   5.104  0.00  0.00    -0.776 OA
HETATM   56  H   UNK     0     -11.512  16.468   5.474  0.00  0.00     0.167 HD
ENDBRANCH  53  55
ENDBRANCH  52  53
ENDBRANCH  51  52
ENDBRANCH  18  51
TORSDOF 16
ENDMDL
MODEL 18
REMARK VINA RESULT:      -7.5      3.117      4.029
REMARK  16 active torsions:
REMARK  status: ('A' for Active; 'I' for Inactive)
REMARK    1  A    between atoms: C_6  and  C_7 
REMARK    2  A    between atoms: C_7  and  C_8 
REMARK    3  A    between atoms: C_8  and  C_9 
REMARK    4  A    between atoms: C_9  and  O_11 
REMARK    5  A    between atoms: C_16  and  C_17 
REMARK    6  A    between atoms: C_17  and  C_18 
REMARK    7  A    between atoms: C_18  and  C_19 
REMARK    8  A    between atoms: C_19  and  O_21 
REMARK    9  A    between atoms: C_28  and  C_29 
REMARK   10  A    between atoms: C_29  and  C_30 
REMARK   11  A    between atoms: C_30  and  C_31 
REMARK   12  A    between atoms: C_31  and  O_33 
REMARK   13  A    between atoms: C_42  and  C_43 
REMARK   14  A    between atoms: C_43  and  C_44 
REMARK   15  A    between atoms: C_44  and  C_45 
REMARK   16  A    between atoms: C_45  and  O_47 
ROOT
HETATM    1  C   UNK     0     -26.246  -1.155  17.444  0.00  0.00     0.051 C 
HETATM    2  C   UNK     0     -26.578  -0.665  16.049  0.00  0.00    -0.031 A 
HETATM    3  C   UNK     0     -25.799  -0.680  14.903  0.00  0.00     0.021 A 
HETATM    4  N   UNK     0     -26.493  -0.109  13.890  0.00  0.00    -0.361 N 
HETATM    5  C   UNK     0     -27.700   0.262  14.364  0.00  0.00     0.022 A 
HETATM    6  C   UNK     0     -27.786  -0.068  15.712  0.00  0.00    -0.027 A 
HETATM    7  C   UNK     0     -28.869   0.849  13.636  0.00  0.00     0.115 C 
HETATM    8  C   UNK     0     -29.200   0.247  12.281  0.00  0.00     0.021 A 
HETATM    9  N   UNK     0     -29.100  -1.032  11.888  0.00  0.00    -0.361 N 
HETATM   10  C   UNK     0     -29.412  -1.093  10.576  0.00  0.00     0.022 A 
HETATM   11  C   UNK     0     -29.732   0.181  10.114  0.00  0.00    -0.027 A 
HETATM   12  C   UNK     0     -29.600   1.030  11.183  0.00  0.00    -0.031 A 
HETATM   13  C   UNK     0     -29.852   2.520  11.152  0.00  0.00     0.051 C 
HETATM   14  C   UNK     0     -29.371  -2.339   9.696  0.00  0.00     0.115 C 
HETATM   15  C   UNK     0     -27.993  -2.971   9.588  0.00  0.00     0.021 A 
HETATM   16  N   UNK     0     -27.222  -3.436  10.589  0.00  0.00    -0.361 N 
HETATM   17  C   UNK     0     -26.055  -3.848  10.089  0.00  0.00     0.022 A 
HETATM   18  C   UNK     0     -26.070  -3.651   8.694  0.00  0.00    -0.027 A 
HETATM   19  C   UNK     0     -27.289  -3.102   8.393  0.00  0.00    -0.031 A 
HETATM   20  C   UNK     0     -27.737  -2.763   6.983  0.00  0.00     0.051 C 
HETATM   21  C   UNK     0     -24.829  -4.383  10.794  0.00  0.00     0.115 C 
HETATM   22  C   UNK     0     -24.513  -3.824  12.162  0.00  0.00     0.022 A 
HETATM   23  N   UNK     0     -24.607  -2.556  12.583  0.00  0.00    -0.361 N 
HETATM   24  C   UNK     0     -24.367  -2.532  13.909  0.00  0.00     0.021 A 
HETATM   25  C   UNK     0     -24.102  -3.813  14.351  0.00  0.00    -0.031 A 
HETATM   26  C   UNK     0     -23.738  -4.285  15.744  0.00  0.00     0.051 C 
HETATM   27  C   UNK     0     -24.189  -4.658  13.251  0.00  0.00    -0.027 A 
HETATM   28  C   UNK     0     -24.450  -1.339  14.847  0.00  0.00     0.115 C 
HETATM   29  H   UNK     0     -26.110   0.064  12.858  0.00  0.00     0.165 HD
HETATM   30  H   UNK     0     -28.857  -1.902  12.545  0.00  0.00     0.165 HD
HETATM   31  H   UNK     0     -27.525  -3.520  11.665  0.00  0.00     0.165 HD
HETATM   32  H   UNK     0     -24.801  -1.660  11.939  0.00  0.00     0.165 HD
ENDROOT
BRANCH   6  33
HETATM   33  C   UNK     0     -28.913   0.140  16.692  0.00  0.00     0.051 C 
BRANCH  33  34
HETATM   34  C   UNK     0     -29.891  -1.010  16.634  0.00  0.00     0.114 C 
BRANCH  34  35
HETATM   35  C   UNK     0     -29.729  -1.798  17.889  0.00  0.00     0.139 C 
HETATM   36  O   UNK     0     -29.707  -3.063  17.849  0.00  0.00    -0.650 OA
BRANCH  35  37
HETATM   37  O   UNK     0     -29.593  -1.201  19.137  0.00  0.00    -0.776 OA
HETATM   38  H   UNK     0     -29.382  -0.222  19.241  0.00  0.00     0.167 HD
ENDBRANCH  35  37
ENDBRANCH  34  35
ENDBRANCH  33  34
ENDBRANCH   6  33
BRANCH  27  39
HETATM   39  C   UNK     0     -23.895  -6.116  13.323  0.00  0.00     0.051 C 
BRANCH  39  40
HETATM   40  C   UNK     0     -22.506  -6.551  13.178  0.00  0.00     0.114 C 
BRANCH  40  41
HETATM   41  C   UNK     0     -21.527  -5.776  12.449  0.00  0.00     0.139 C 
HETATM   42  O   UNK     0     -21.423  -5.794  11.215  0.00  0.00    -0.650 OA
BRANCH  41  43
HETATM   43  O   UNK     0     -20.627  -4.944  13.173  0.00  0.00    -0.776 OA
HETATM   44  H   UNK     0     -20.128  -5.414  13.918  0.00  0.00     0.167 HD
ENDBRANCH  41  43
ENDBRANCH  40  41
ENDBRANCH  39  40
ENDBRANCH  27  39
BRANCH  11  45
HETATM   45  C   UNK     0     -30.148   0.604   8.731  0.00  0.00     0.051 C 
BRANCH  45  46
HETATM   46  C   UNK     0     -29.124   0.352   7.686  0.00  0.00     0.114 C 
BRANCH  46  47
HETATM   47  C   UNK     0     -27.926   1.168   8.036  0.00  0.00     0.139 C 
HETATM   48  O   UNK     0     -26.860   0.583   8.276  0.00  0.00    -0.650 OA
BRANCH  47  49
HETATM   49  O   UNK     0     -28.000   2.537   8.093  0.00  0.00    -0.776 OA
HETATM   50  H   UNK     0     -27.739   3.062   8.935  0.00  0.00     0.167 HD
ENDBRANCH  47  49
ENDBRANCH  46  47
ENDBRANCH  45  46
ENDBRANCH  11  45
BRANCH  18  51
HETATM   51  C   UNK     0     -24.989  -3.987   7.699  0.00  0.00     0.051 C 
BRANCH  51  52
HETATM   52  C   UNK     0     -25.133  -5.472   7.398  0.00  0.00     0.114 C 
BRANCH  52  53
HETATM   53  C   UNK     0     -23.898  -6.217   7.707  0.00  0.00     0.139 C 
HETATM   54  O   UNK     0     -22.863  -5.605   8.016  0.00  0.00    -0.650 OA
BRANCH  53  55
HETATM   55  O   UNK     0     -23.899  -7.590   7.646  0.00  0.00    -0.776 OA
HETATM   56  H   UNK     0     -23.204  -8.192   8.020  0.00  0.00     0.167 HD
ENDBRANCH  53  55
ENDBRANCH  52  53
ENDBRANCH  51  52
ENDBRANCH  18  51
TORSDOF 16
ENDMDL
MODEL 19
REMARK VINA RESULT:      -7.5      1.777      7.396
REMARK  16 active torsions:
REMARK  status: ('A' for Active; 'I' for Inactive)
REMARK    1  A    between atoms: C_6  and  C_7 
REMARK    2  A    between atoms: C_7  and  C_8 
REMARK    3  A    between atoms: C_8  and  C_9 
REMARK    4  A    between atoms: C_9  and  O_11 
REMARK    5  A    between atoms: C_16  and  C_17 
REMARK    6  A    between atoms: C_17  and  C_18 
REMARK    7  A    between atoms: C_18  and  C_19 
REMARK    8  A    between atoms: C_19  and  O_21 
REMARK    9  A    between atoms: C_28  and  C_29 
REMARK   10  A    between atoms: C_29  and  C_30 
REMARK   11  A    between atoms: C_30  and  C_31 
REMARK   12  A    between atoms: C_31  and  O_33 
REMARK   13  A    between atoms: C_42  and  C_43 
REMARK   14  A    between atoms: C_43  and  C_44 
REMARK   15  A    between atoms: C_44  and  C_45 
REMARK   16  A    between atoms: C_45  and  O_47 
ROOT
HETATM    1  C   UNK     0     -32.427   1.683  12.273  0.00  0.00     0.051 C 
HETATM    2  C   UNK     0     -31.192   1.189  11.547  0.00  0.00    -0.031 A 
HETATM    3  C   UNK     0     -30.038   0.620  12.061  0.00  0.00     0.021 A 
HETATM    4  N   UNK     0     -29.183   0.360  11.043  0.00  0.00    -0.361 N 
HETATM    5  C   UNK     0     -29.771   0.743   9.891  0.00  0.00     0.022 A 
HETATM    6  C   UNK     0     -31.028   1.269  10.170  0.00  0.00    -0.027 A 
HETATM    7  C   UNK     0     -29.293   0.589   8.481  0.00  0.00     0.115 C 
HETATM    8  C   UNK     0     -28.658  -0.742   8.119  0.00  0.00     0.021 A 
HETATM    9  N   UNK     0     -28.982  -1.969   8.555  0.00  0.00    -0.361 N 
HETATM   10  C   UNK     0     -28.092  -2.845   8.041  0.00  0.00     0.022 A 
HETATM   11  C   UNK     0     -27.176  -2.164   7.244  0.00  0.00    -0.027 A 
HETATM   12  C   UNK     0     -27.527  -0.839   7.289  0.00  0.00    -0.031 A 
HETATM   13  C   UNK     0     -26.812   0.279   6.564  0.00  0.00     0.051 C 
HETATM   14  C   UNK     0     -28.038  -4.344   8.322  0.00  0.00     0.115 C 
HETATM   15  C   UNK     0     -27.814  -4.689   9.785  0.00  0.00     0.021 A 
HETATM   16  N   UNK     0     -28.578  -4.340  10.838  0.00  0.00    -0.361 N 
HETATM   17  C   UNK     0     -28.003  -4.777  11.960  0.00  0.00     0.022 A 
HETATM   18  C   UNK     0     -26.813  -5.452  11.623  0.00  0.00    -0.027 A 
HETATM   19  C   UNK     0     -26.707  -5.390  10.258  0.00  0.00    -0.031 A 
HETATM   20  C   UNK     0     -25.578  -6.030   9.470  0.00  0.00     0.051 C 
HETATM   21  C   UNK     0     -28.417  -4.586  13.402  0.00  0.00     0.115 C 
HETATM   22  C   UNK     0     -29.090  -3.284  13.768  0.00  0.00     0.022 A 
HETATM   23  N   UNK     0     -28.792  -2.049  13.345  0.00  0.00    -0.361 N 
HETATM   24  C   UNK     0     -29.736  -1.204  13.806  0.00  0.00     0.021 A 
HETATM   25  C   UNK     0     -30.659  -1.911  14.552  0.00  0.00    -0.031 A 
HETATM   26  C   UNK     0     -31.872  -1.400  15.302  0.00  0.00     0.051 C 
HETATM   27  C   UNK     0     -30.267  -3.245  14.542  0.00  0.00    -0.027 A 
HETATM   28  C   UNK     0     -29.878   0.280  13.516  0.00  0.00     0.115 C 
HETATM   29  H   UNK     0     -28.154  -0.055  11.150  0.00  0.00     0.165 HD
HETATM   30  H   UNK     0     -29.867  -2.228   9.186  0.00  0.00     0.165 HD
HETATM   31  H   UNK     0     -29.567  -3.816  10.784  0.00  0.00     0.165 HD
HETATM   32  H   UNK     0     -27.886  -1.754  12.753  0.00  0.00     0.165 HD
ENDROOT
BRANCH   6  33
HETATM   33  C   UNK     0     -32.071   1.836   9.240  0.00  0.00     0.051 C 
BRANCH  33  34
HETATM   34  C   UNK     0     -31.884   3.325   9.070  0.00  0.00     0.114 C 
BRANCH  34  35
HETATM   35  C   UNK     0     -33.220   3.964   9.237  0.00  0.00     0.139 C 
HETATM   36  O   UNK     0     -34.233   3.260   9.521  0.00  0.00    -0.650 OA
BRANCH  35  37
HETATM   37  O   UNK     0     -33.419   5.332   9.096  0.00  0.00    -0.776 OA
HETATM   38  H   UNK     0     -34.341   5.737   9.052  0.00  0.00     0.167 HD
ENDBRANCH  35  37
ENDBRANCH  34  35
ENDBRANCH  33  34
ENDBRANCH   6  33
BRANCH  27  39
HETATM   39  C   UNK     0     -30.982  -4.306  15.303  0.00  0.00     0.051 C 
BRANCH  39  40
HETATM   40  C   UNK     0     -31.959  -5.130  14.593  0.00  0.00     0.114 C 
BRANCH  40  41
HETATM   41  C   UNK     0     -32.774  -4.607  13.519  0.00  0.00     0.139 C 
HETATM   42  O   UNK     0     -32.460  -4.684  12.323  0.00  0.00    -0.650 OA
BRANCH  41  43
HETATM   43  O   UNK     0     -34.005  -3.965  13.835  0.00  0.00    -0.776 OA
HETATM   44  H   UNK     0     -33.946  -2.956  13.904  0.00  0.00     0.167 HD
ENDBRANCH  41  43
ENDBRANCH  40  41
ENDBRANCH  39  40
ENDBRANCH  27  39
BRANCH  11  45
HETATM   45  C   UNK     0     -26.014  -2.717   6.463  0.00  0.00     0.051 C 
BRANCH  45  46
HETATM   46  C   UNK     0     -26.340  -3.065   5.056  0.00  0.00     0.114 C 
BRANCH  46  47
HETATM   47  C   UNK     0     -25.048  -3.210   4.326  0.00  0.00     0.139 C 
HETATM   48  O   UNK     0     -24.960  -2.747   3.181  0.00  0.00    -0.650 OA
BRANCH  47  49
HETATM   49  O   UNK     0     -23.980  -3.843   4.909  0.00  0.00    -0.776 OA
HETATM   50  H   UNK     0     -23.945  -4.040   5.916  0.00  0.00     0.167 HD
ENDBRANCH  47  49
ENDBRANCH  46  47
ENDBRANCH  45  46
ENDBRANCH  11  45
BRANCH  18  51
HETATM   51  C   UNK     0     -25.841  -6.136  12.549  0.00  0.00     0.051 C 
BRANCH  51  52
HETATM   52  C   UNK     0     -26.544  -7.387  13.056  0.00  0.00     0.114 C 
BRANCH  52  53
HETATM   53  C   UNK     0     -25.955  -8.616  12.490  0.00  0.00     0.139 C 
HETATM   54  O   UNK     0     -25.888  -8.763  11.259  0.00  0.00    -0.650 OA
BRANCH  53  55
HETATM   55  O   UNK     0     -25.486  -9.594  13.332  0.00  0.00    -0.776 OA
HETATM   56  H   UNK     0     -25.097 -10.465  13.056  0.00  0.00     0.167 HD
ENDBRANCH  53  55
ENDBRANCH  52  53
ENDBRANCH  51  52
ENDBRANCH  18  51
TORSDOF 16
ENDMDL
MODEL 20
REMARK VINA RESULT:      -7.4      3.316      7.125
REMARK  16 active torsions:
REMARK  status: ('A' for Active; 'I' for Inactive)
REMARK    1  A    between atoms: C_6  and  C_7 
REMARK    2  A    between atoms: C_7  and  C_8 
REMARK    3  A    between atoms: C_8  and  C_9 
REMARK    4  A    between atoms: C_9  and  O_11 
REMARK    5  A    between atoms: C_16  and  C_17 
REMARK    6  A    between atoms: C_17  and  C_18 
REMARK    7  A    between atoms: C_18  and  C_19 
REMARK    8  A    between atoms: C_19  and  O_21 
REMARK    9  A    between atoms: C_28  and  C_29 
REMARK   10  A    between atoms: C_29  and  C_30 
REMARK   11  A    between atoms: C_30  and  C_31 
REMARK   12  A    between atoms: C_31  and  O_33 
REMARK   13  A    between atoms: C_42  and  C_43 
REMARK   14  A    between atoms: C_43  and  C_44 
REMARK   15  A    between atoms: C_44  and  C_45 
REMARK   16  A    between atoms: C_45  and  O_47 
ROOT
HETATM    1  C   UNK     0     -29.282   0.840   7.426  0.00  0.00     0.051 C 
HETATM    2  C   UNK     0     -29.138   0.312   8.839  0.00  0.00    -0.031 A 
HETATM    3  C   UNK     0     -29.073  -0.999   9.285  0.00  0.00     0.021 A 
HETATM    4  N   UNK     0     -28.978  -1.001  10.636  0.00  0.00    -0.361 N 
HETATM    5  C   UNK     0     -28.971   0.280  11.059  0.00  0.00     0.022 A 
HETATM    6  C   UNK     0     -29.073   1.127   9.961  0.00  0.00    -0.027 A 
HETATM    7  C   UNK     0     -28.791   0.825  12.442  0.00  0.00     0.115 C 
HETATM    8  C   UNK     0     -27.716   0.175  13.296  0.00  0.00     0.021 A 
HETATM    9  N   UNK     0     -26.527  -0.315  12.913  0.00  0.00    -0.361 N 
HETATM   10  C   UNK     0     -25.941  -0.882  13.989  0.00  0.00     0.022 A 
HETATM   11  C   UNK     0     -26.772  -0.744  15.098  0.00  0.00    -0.027 A 
HETATM   12  C   UNK     0     -27.892  -0.080  14.668  0.00  0.00    -0.031 A 
HETATM   13  C   UNK     0     -29.072   0.297  15.535  0.00  0.00     0.051 C 
HETATM   14  C   UNK     0     -24.605  -1.619  14.005  0.00  0.00     0.115 C 
HETATM   15  C   UNK     0     -24.567  -2.844  13.106  0.00  0.00     0.021 A 
HETATM   16  N   UNK     0     -24.782  -2.896  11.778  0.00  0.00    -0.361 N 
HETATM   17  C   UNK     0     -24.728  -4.167  11.375  0.00  0.00     0.022 A 
HETATM   18  C   UNK     0     -24.457  -4.982  12.492  0.00  0.00    -0.027 A 
HETATM   19  C   UNK     0     -24.357  -4.141  13.570  0.00  0.00    -0.031 A 
HETATM   20  C   UNK     0     -24.033  -4.609  14.977  0.00  0.00     0.051 C 
HETATM   21  C   UNK     0     -24.969  -4.763  10.006  0.00  0.00     0.115 C 
HETATM   22  C   UNK     0     -26.004  -4.099   9.129  0.00  0.00     0.022 A 
HETATM   23  N   UNK     0     -27.195  -3.599   9.483  0.00  0.00    -0.361 N 
HETATM   24  C   UNK     0     -27.726  -2.971   8.414  0.00  0.00     0.021 A 
HETATM   25  C   UNK     0     -26.860  -3.080   7.342  0.00  0.00    -0.031 A 
HETATM   26  C   UNK     0     -27.031  -2.575   5.924  0.00  0.00     0.051 C 
HETATM   27  C   UNK     0     -25.751  -3.798   7.775  0.00  0.00    -0.027 A 
HETATM   28  C   UNK     0     -29.017  -2.174   8.350  0.00  0.00     0.115 C 
HETATM   29  H   UNK     0     -28.955  -1.907  11.284  0.00  0.00     0.165 HD
HETATM   30  H   UNK     0     -26.076  -0.219  11.895  0.00  0.00     0.165 HD
HETATM   31  H   UNK     0     -24.926  -2.013  11.103  0.00  0.00     0.165 HD
HETATM   32  H   UNK     0     -27.692  -3.721  10.480  0.00  0.00     0.165 HD
ENDROOT
BRANCH   6  33
HETATM   33  C   UNK     0     -29.116   2.633   9.898  0.00  0.00     0.051 C 
BRANCH  33  34
HETATM   34  C   UNK     0     -30.542   3.129   9.902  0.00  0.00     0.114 C 
BRANCH  34  35
HETATM   35  C   UNK     0     -30.595   4.330  10.784  0.00  0.00     0.139 C 
HETATM   36  O   UNK     0     -31.065   5.421  10.348  0.00  0.00    -0.650 OA
BRANCH  35  37
HETATM   37  O   UNK     0     -30.146   4.313  12.099  0.00  0.00    -0.776 OA
HETATM   38  H   UNK     0     -30.077   3.460  12.630  0.00  0.00     0.167 HD
ENDBRANCH  35  37
ENDBRANCH  34  35
ENDBRANCH  33  34
ENDBRANCH   6  33
BRANCH  27  39
HETATM   39  C   UNK     0     -24.630  -4.178   6.874  0.00  0.00     0.051 C 
BRANCH  39  40
HETATM   40  C   UNK     0     -24.934  -4.977   5.687  0.00  0.00     0.114 C 
BRANCH  40  41
HETATM   41  C   UNK     0     -24.373  -4.673   4.390  0.00  0.00     0.139 C 
HETATM   42  O   UNK     0     -25.013  -4.133   3.478  0.00  0.00    -0.650 OA
BRANCH  41  43
HETATM   43  O   UNK     0     -23.013  -5.008   4.129  0.00  0.00    -0.776 OA
HETATM   44  H   UNK     0     -22.695  -5.853   4.587  0.00  0.00     0.167 HD
ENDBRANCH  41  43
ENDBRANCH  40  41
ENDBRANCH  39  40
ENDBRANCH  27  39
BRANCH  11  45
HETATM   45  C   UNK     0     -26.542  -1.208  16.511  0.00  0.00     0.051 C 
BRANCH  45  46
HETATM   46  C   UNK     0     -26.129  -0.129  17.444  0.00  0.00     0.114 C 
BRANCH  46  47
HETATM   47  C   UNK     0     -24.686  -0.338  17.751  0.00  0.00     0.139 C 
HETATM   48  O   UNK     0     -24.383  -0.965  18.776  0.00  0.00    -0.650 OA
BRANCH  47  49
HETATM   49  O   UNK     0     -23.711   0.153  16.919  0.00  0.00    -0.776 OA
HETATM   50  H   UNK     0     -22.914  -0.419  16.617  0.00  0.00     0.167 HD
ENDBRANCH  47  49
ENDBRANCH  46  47
ENDBRANCH  45  46
ENDBRANCH  11  45
BRANCH  18  51
HETATM   51  C   UNK     0     -24.280  -6.478  12.526  0.00  0.00     0.051 C 
BRANCH  51  52
HETATM   52  C   UNK     0     -25.654  -7.062  12.819  0.00  0.00     0.114 C 
BRANCH  52  53
HETATM   53  C   UNK     0     -25.770  -8.457  12.351  0.00  0.00     0.139 C 
HETATM   54  O   UNK     0     -25.952  -8.695  11.146  0.00  0.00    -0.650 OA
BRANCH  53  55
HETATM   55  O   UNK     0     -25.678  -9.487  13.255  0.00  0.00    -0.776 OA
HETATM   56  H   UNK     0     -24.907 -10.103  13.363  0.00  0.00     0.167 HD
ENDBRANCH  53  55
ENDBRANCH  52  53
ENDBRANCH  51  52
ENDBRANCH  18  51
TORSDOF 16
ENDMDL
