MODEL 1
REMARK VINA RESULT:     -10.1      0.000      0.000
REMARK  28 active torsions:
REMARK  status: ('A' for Active; 'I' for Inactive)
REMARK    1  A    between atoms: C_2  and  O_3 
REMARK    2  A    between atoms: C_2  and  C_4 
REMARK    3  A    between atoms: C_4  and  C_5 
REMARK    4  A    between atoms: C_5  and  C_6 
REMARK    5  A    between atoms: C_7  and  C_8 
REMARK    6  A    between atoms: C_8  and  C_9 
REMARK    7  A    between atoms: C_9  and  O_11 
REMARK    8  A    between atoms: C_28  and  C_29 
REMARK    9  A    between atoms: C_29  and  C_30 
REMARK   10  A    between atoms: C_30  and  O_32 
REMARK   11  A    between atoms: C_33  and  C_34 
REMARK   12  A    between atoms: C_34  and  C_35 
REMARK   13  A    between atoms: C_35  and  C_36 
REMARK   14  A    between atoms: C_36  and  O_38 
REMARK   15  A    between atoms: C_39  and  C_40 
REMARK   16  A    between atoms: C_40  and  C_41 
REMARK   17  A    between atoms: C_41  and  C_42 
REMARK   18  A    between atoms: C_42  and  O_44 
REMARK   19  A    between atoms: C_45  and  C_46 
REMARK   20  A    between atoms: C_46  and  C_47 
REMARK   21  A    between atoms: C_47  and  O_49 
REMARK   22  A    between atoms: C_50  and  C_51 
REMARK   23  A    between atoms: C_51  and  C_52 
REMARK   24  A    between atoms: C_52  and  O_54 
REMARK   25  A    between atoms: C_55  and  C_56 
REMARK   26  A    between atoms: C_56  and  C_57 
REMARK   27  A    between atoms: C_57  and  C_58 
REMARK   28  A    between atoms: C_58  and  O_60 
ROOT
ATOM      1  O   UNK d   0      40.476  10.451  64.915  0.00  0.00    -0.650 OA
ATOM      2  C   UNK d   0      39.993  10.695  66.043  0.00  0.00     0.139 C 
ENDROOT
BRANCH   2   3
ATOM      3  O   UNK d   0      39.832   9.670  66.943  0.00  0.00    -0.776 OA
ATOM      4  H   UNK d   0      39.644   8.715  66.628  0.00  0.00     0.167 HD
ENDBRANCH   2   3
BRANCH   2   5
ATOM      5  C   UNK d   0      39.596  12.086  66.402  0.00  0.00     0.115 C 
BRANCH   5   6
ATOM      6  C   UNK d   0      39.563  12.949  65.170  0.00  0.00     0.052 C 
BRANCH   6   7
ATOM      7  C   UNK d   0      38.173  13.096  64.600  0.00  0.00    -0.020 A 
ATOM      8  C   UNK d   0      37.287  14.017  64.884  0.00  0.00    -0.011 A 
ATOM      9  C   UNK d   0      36.095  13.745  64.097  0.00  0.00     0.067 A 
ATOM     10  C   UNK d   0      34.838  14.344  63.925  0.00  0.00     0.062 C 
ATOM     11  N   UNK d   0      36.341  12.637  63.367  0.00  0.00    -0.248 NA
ATOM     12  C   UNK d   0      33.913  14.093  62.905  0.00  0.00     0.041 A 
ATOM     13  N   UNK d   0      33.502  12.940  62.345  0.00  0.00    -0.355 N 
ATOM     14  C   UNK d   0      33.298  15.182  62.262  0.00  0.00    -0.022 A 
ATOM     15  C   UNK d   0      32.648  13.269  61.358  0.00  0.00     0.042 A 
ATOM     16  H   UNK d   0      33.794  11.912  62.655  0.00  0.00     0.166 HD
ATOM     17  C   UNK d   0      31.930  12.453  60.461  0.00  0.00     0.062 C 
ATOM     18  C   UNK d   0      32.495  14.667  61.275  0.00  0.00    -0.013 A 
ATOM     19  C   UNK d   0      32.366  11.367  59.746  0.00  0.00     0.067 A 
ATOM     20  N   UNK d   0      33.565  10.873  60.067  0.00  0.00    -0.248 NA
ATOM     21  C   UNK d   0      31.850  10.561  58.652  0.00  0.00    -0.011 A 
ATOM     22  C   UNK d   0      33.871   9.804  59.261  0.00  0.00     0.066 A 
ATOM     23  C   UNK d   0      35.078   9.169  59.512  0.00  0.00     0.062 C 
ATOM     24  C   UNK d   0      32.738   9.651  58.370  0.00  0.00    -0.020 A 
ATOM     25  C   UNK d   0      35.988   9.428  60.549  0.00  0.00     0.041 A 
ATOM     26  N   UNK d   0      36.408  10.575  61.095  0.00  0.00    -0.355 N 
ATOM     27  C   UNK d   0      36.601   8.334  61.197  0.00  0.00    -0.022 A 
ATOM     28  C   UNK d   0      37.266  10.250  62.075  0.00  0.00     0.042 A 
ATOM     29  H   UNK d   0      36.121  11.607  60.776  0.00  0.00     0.166 HD
ATOM     30  C   UNK d   0      37.994  11.051  62.968  0.00  0.00     0.062 C 
ATOM     31  C   UNK d   0      37.411   8.845  62.165  0.00  0.00    -0.013 A 
ATOM     32  C   UNK d   0      37.575  12.198  63.624  0.00  0.00     0.066 A 
BRANCH   8  33
ATOM     33  C   UNK d   0      37.445  15.135  65.832  0.00  0.00     0.151 C 
BRANCH  33  34
ATOM     34  C   UNK d   0      37.993  16.347  65.198  0.00  0.00     0.143 C 
ATOM     35  O   UNK d   0      38.755  16.268  64.224  0.00  0.00    -0.650 OA
BRANCH  34  36
ATOM     36  O   UNK d   0      37.653  17.583  65.698  0.00  0.00    -0.776 OA
ATOM     37  H   UNK d   0      38.207  18.029  66.442  0.00  0.00     0.167 HD
ENDBRANCH  34  36
ENDBRANCH  33  34
ENDBRANCH   8  33
BRANCH  31  38
ATOM     38  C   UNK d   0      38.262   8.049  63.126  0.00  0.00     0.151 C 
BRANCH  38  39
ATOM     39  C   UNK d   0      37.612   7.826  64.400  0.00  0.00     0.143 C 
ATOM     40  O   UNK d   0      36.379   7.906  64.540  0.00  0.00    -0.650 OA
BRANCH  39  41
ATOM     41  O   UNK d   0      38.382   7.508  65.518  0.00  0.00    -0.776 OA
ATOM     42  H   UNK d   0      38.209   8.053  66.368  0.00  0.00     0.167 HD
ENDBRANCH  39  41
ENDBRANCH  38  39
ENDBRANCH  31  38
BRANCH  27  43
ATOM     43  C   UNK d   0      36.450   6.857  60.935  0.00  0.00     0.052 C 
BRANCH  43  44
ATOM     44  C   UNK d   0      36.445   6.512  59.481  0.00  0.00     0.115 C 
BRANCH  44  45
ATOM     45  C   UNK d   0      36.434   5.029  59.396  0.00  0.00     0.139 C 
ATOM     46  O   UNK d   0      35.322   4.447  59.354  0.00  0.00    -0.650 OA
BRANCH  45  47
ATOM     47  O   UNK d   0      37.586   4.274  59.356  0.00  0.00    -0.776 OA
ATOM     48  H   UNK d   0      38.205   4.240  58.530  0.00  0.00     0.167 HD
ENDBRANCH  45  47
ENDBRANCH  44  45
ENDBRANCH  43  44
ENDBRANCH  27  43
BRANCH  24  49
ATOM     49  C   UNK d   0      32.606   8.597  57.349  0.00  0.00     0.052 C 
BRANCH  49  50
ATOM     50  C   UNK d   0      33.452   7.404  57.716  0.00  0.00     0.115 C 
BRANCH  50  51
ATOM     51  C   UNK d   0      34.103   6.690  56.625  0.00  0.00     0.139 C 
ATOM     52  O   UNK d   0      33.628   5.644  56.124  0.00  0.00    -0.650 OA
BRANCH  51  53
ATOM     53  O   UNK d   0      35.297   7.169  56.108  0.00  0.00    -0.776 OA
ATOM     54  H   UNK d   0      35.396   8.160  55.981  0.00  0.00     0.167 HD
ENDBRANCH  51  53
ENDBRANCH  50  51
ENDBRANCH  49  50
ENDBRANCH  24  49
BRANCH  21  55
ATOM     55  C   UNK d   0      30.523  10.782  58.005  0.00  0.00     0.151 C 
BRANCH  55  56
ATOM     56  C   UNK d   0      30.512  11.991  57.168  0.00  0.00     0.143 C 
ATOM     57  O   UNK d   0      29.564  12.800  57.163  0.00  0.00    -0.650 OA
BRANCH  56  58
ATOM     58  O   UNK d   0      31.617  12.225  56.351  0.00  0.00    -0.776 OA
ATOM     59  H   UNK d   0      32.263  11.421  56.250  0.00  0.00     0.167 HD
ENDBRANCH  56  58
ENDBRANCH  55  56
ENDBRANCH  21  55
BRANCH  18  60
ATOM     60  C   UNK d   0      31.652  15.487  60.330  0.00  0.00     0.151 C 
BRANCH  60  61
ATOM     61  C   UNK d   0      32.427  15.591  59.084  0.00  0.00     0.143 C 
ATOM     62  O   UNK d   0      33.476  16.213  58.912  0.00  0.00    -0.650 OA
BRANCH  61  63
ATOM     63  O   UNK d   0      31.888  14.890  57.978  0.00  0.00    -0.776 OA
ATOM     64  H   UNK d   0      32.174  15.104  57.039  0.00  0.00     0.167 HD
ENDBRANCH  61  63
ENDBRANCH  60  61
ENDBRANCH  18  60
BRANCH  14  65
ATOM     65  C   UNK d   0      33.335  16.652  62.569  0.00  0.00     0.052 C 
BRANCH  65  66
ATOM     66  C   UNK d   0      32.595  17.006  63.811  0.00  0.00     0.115 C 
BRANCH  66  67
ATOM     67  C   UNK d   0      31.284  16.467  64.035  0.00  0.00     0.139 C 
ATOM     68  O   UNK d   0      31.076  15.782  65.104  0.00  0.00    -0.650 OA
BRANCH  67  69
ATOM     69  O   UNK d   0      30.160  16.590  63.219  0.00  0.00    -0.776 OA
ATOM     70  H   UNK d   0      30.058  17.491  62.730  0.00  0.00     0.167 HD
ENDBRANCH  67  69
ENDBRANCH  66  67
ENDBRANCH  65  66
ENDBRANCH  14  65
ENDBRANCH   6   7
ENDBRANCH   5   6
ENDBRANCH   2   5
TORSDOF 28
ENDMDL
MODEL 2
REMARK VINA RESULT:     -10.1      1.519      7.306
REMARK  28 active torsions:
REMARK  status: ('A' for Active; 'I' for Inactive)
REMARK    1  A    between atoms: C_2  and  O_3 
REMARK    2  A    between atoms: C_2  and  C_4 
REMARK    3  A    between atoms: C_4  and  C_5 
REMARK    4  A    between atoms: C_5  and  C_6 
REMARK    5  A    between atoms: C_7  and  C_8 
REMARK    6  A    between atoms: C_8  and  C_9 
REMARK    7  A    between atoms: C_9  and  O_11 
REMARK    8  A    between atoms: C_28  and  C_29 
REMARK    9  A    between atoms: C_29  and  C_30 
REMARK   10  A    between atoms: C_30  and  O_32 
REMARK   11  A    between atoms: C_33  and  C_34 
REMARK   12  A    between atoms: C_34  and  C_35 
REMARK   13  A    between atoms: C_35  and  C_36 
REMARK   14  A    between atoms: C_36  and  O_38 
REMARK   15  A    between atoms: C_39  and  C_40 
REMARK   16  A    between atoms: C_40  and  C_41 
REMARK   17  A    between atoms: C_41  and  C_42 
REMARK   18  A    between atoms: C_42  and  O_44 
REMARK   19  A    between atoms: C_45  and  C_46 
REMARK   20  A    between atoms: C_46  and  C_47 
REMARK   21  A    between atoms: C_47  and  O_49 
REMARK   22  A    between atoms: C_50  and  C_51 
REMARK   23  A    between atoms: C_51  and  C_52 
REMARK   24  A    between atoms: C_52  and  O_54 
REMARK   25  A    between atoms: C_55  and  C_56 
REMARK   26  A    between atoms: C_56  and  C_57 
REMARK   27  A    between atoms: C_57  and  C_58 
REMARK   28  A    between atoms: C_58  and  O_60 
ROOT
ATOM      1  O   UNK d   0      30.972  16.670  63.554  0.00  0.00    -0.650 OA
ATOM      2  C   UNK d   0      31.271  16.180  64.665  0.00  0.00     0.139 C 
ENDROOT
BRANCH   2   3
ATOM      3  O   UNK d   0      30.286  15.615  65.439  0.00  0.00    -0.776 OA
ATOM      4  H   UNK d   0      30.188  15.857  66.427  0.00  0.00     0.167 HD
ENDBRANCH   2   3
BRANCH   2   5
ATOM      5  C   UNK d   0      32.683  16.210  65.141  0.00  0.00     0.115 C 
BRANCH   5   6
ATOM      6  C   UNK d   0      33.601  16.604  64.016  0.00  0.00     0.052 C 
BRANCH   6   7
ATOM      7  C   UNK d   0      34.465  15.461  63.543  0.00  0.00    -0.020 A 
ATOM      8  C   UNK d   0      35.704  15.205  63.878  0.00  0.00    -0.011 A 
ATOM      9  C   UNK d   0      36.120  14.009  63.165  0.00  0.00     0.067 A 
ATOM     10  C   UNK d   0      37.280  13.221  63.098  0.00  0.00     0.062 C 
ATOM     11  N   UNK d   0      35.074  13.605  62.414  0.00  0.00    -0.248 NA
ATOM     12  C   UNK d   0      37.402  11.935  62.561  0.00  0.00     0.041 A 
ATOM     13  N   UNK d   0      36.904  11.395  61.432  0.00  0.00    -0.355 N 
ATOM     14  C   UNK d   0      38.105  10.958  63.289  0.00  0.00    -0.022 A 
ATOM     15  C   UNK d   0      37.267  10.099  61.429  0.00  0.00     0.042 A 
ATOM     16  H   UNK d   0      36.325  11.925  60.645  0.00  0.00     0.166 HD
ATOM     17  C   UNK d   0      37.013   9.082  60.487  0.00  0.00     0.062 C 
ATOM     18  C   UNK d   0      38.021   9.787  62.577  0.00  0.00    -0.013 A 
ATOM     19  C   UNK d   0      35.841   8.775  59.844  0.00  0.00     0.067 A 
ATOM     20  N   UNK d   0      34.842   9.654  59.955  0.00  0.00    -0.248 NA
ATOM     21  C   UNK d   0      35.352   7.672  59.033  0.00  0.00    -0.011 A 
ATOM     22  C   UNK d   0      33.735   9.206  59.277  0.00  0.00     0.066 A 
ATOM     23  C   UNK d   0      32.630  10.045  59.278  0.00  0.00     0.062 C 
ATOM     24  C   UNK d   0      34.118   7.929  58.707  0.00  0.00    -0.020 A 
ATOM     25  C   UNK d   0      32.533  11.339  59.812  0.00  0.00     0.041 A 
ATOM     26  N   UNK d   0      33.014  11.871  60.941  0.00  0.00    -0.355 N 
ATOM     27  C   UNK d   0      31.830  12.320  59.079  0.00  0.00    -0.022 A 
ATOM     28  C   UNK d   0      32.647  13.162  60.952  0.00  0.00     0.042 A 
ATOM     29  H   UNK d   0      33.587  11.335  61.737  0.00  0.00     0.166 HD
ATOM     30  C   UNK d   0      32.884  14.182  61.887  0.00  0.00     0.062 C 
ATOM     31  C   UNK d   0      31.898  13.477  59.793  0.00  0.00    -0.013 A 
ATOM     32  C   UNK d   0      34.047  14.437  62.597  0.00  0.00     0.066 A 
BRANCH   8  33
ATOM     33  C   UNK d   0      36.548  15.981  64.805  0.00  0.00     0.151 C 
BRANCH  33  34
ATOM     34  C   UNK d   0      36.889  15.232  66.028  0.00  0.00     0.143 C 
ATOM     35  O   UNK d   0      36.027  14.983  66.883  0.00  0.00    -0.650 OA
BRANCH  34  36
ATOM     36  O   UNK d   0      38.183  14.806  66.221  0.00  0.00    -0.776 OA
ATOM     37  H   UNK d   0      38.414  14.109  66.942  0.00  0.00     0.167 HD
ENDBRANCH  34  36
ENDBRANCH  33  34
ENDBRANCH   8  33
BRANCH  31  38
ATOM     38  C   UNK d   0      31.301  14.807  59.394  0.00  0.00     0.151 C 
BRANCH  38  39
ATOM     39  C   UNK d   0      32.218  15.630  58.636  0.00  0.00     0.143 C 
ATOM     40  O   UNK d   0      31.850  16.320  57.670  0.00  0.00    -0.650 OA
BRANCH  39  41
ATOM     41  O   UNK d   0      33.566  15.661  58.992  0.00  0.00    -0.776 OA
ATOM     42  H   UNK d   0      34.206  15.094  58.427  0.00  0.00     0.167 HD
ENDBRANCH  39  41
ENDBRANCH  38  39
ENDBRANCH  31  38
BRANCH  27  43
ATOM     43  C   UNK d   0      31.113  12.200  57.758  0.00  0.00     0.052 C 
BRANCH  43  44
ATOM     44  C   UNK d   0      29.683  11.790  57.898  0.00  0.00     0.115 C 
BRANCH  44  45
ATOM     45  C   UNK d   0      29.616  10.350  57.539  0.00  0.00     0.139 C 
ATOM     46  O   UNK d   0      28.895   9.598  58.240  0.00  0.00    -0.650 OA
BRANCH  45  47
ATOM     47  O   UNK d   0      30.305   9.812  56.473  0.00  0.00    -0.776 OA
ATOM     48  H   UNK d   0      29.904   9.744  55.524  0.00  0.00     0.167 HD
ENDBRANCH  45  47
ENDBRANCH  44  45
ENDBRANCH  43  44
ENDBRANCH  27  43
BRANCH  24  49
ATOM     49  C   UNK d   0      33.252   7.094  57.857  0.00  0.00     0.052 C 
BRANCH  49  50
ATOM     50  C   UNK d   0      33.510   7.384  56.401  0.00  0.00     0.115 C 
BRANCH  50  51
ATOM     51  C   UNK d   0      32.583   6.812  55.434  0.00  0.00     0.139 C 
ATOM     52  O   UNK d   0      32.679   5.631  55.022  0.00  0.00    -0.650 OA
BRANCH  51  53
ATOM     53  O   UNK d   0      31.547   7.586  54.935  0.00  0.00    -0.776 OA
ATOM     54  H   UNK d   0      31.749   8.224  54.186  0.00  0.00     0.167 HD
ENDBRANCH  51  53
ENDBRANCH  50  51
ENDBRANCH  49  50
ENDBRANCH  24  49
BRANCH  21  55
ATOM     55  C   UNK d   0      36.171   6.480  58.664  0.00  0.00     0.151 C 
BRANCH  55  56
ATOM     56  C   UNK d   0      36.056   5.403  59.659  0.00  0.00     0.143 C 
ATOM     57  O   UNK d   0      35.362   4.384  59.474  0.00  0.00    -0.650 OA
BRANCH  56  58
ATOM     58  O   UNK d   0      36.761   5.545  60.854  0.00  0.00    -0.776 OA
ATOM     59  H   UNK d   0      36.241   6.022  61.613  0.00  0.00     0.167 HD
ENDBRANCH  56  58
ENDBRANCH  55  56
ENDBRANCH  21  55
BRANCH  18  60
ATOM     60  C   UNK d   0      38.631   8.473  62.998  0.00  0.00     0.151 C 
BRANCH  60  61
ATOM     61  C   UNK d   0      37.539   7.697  63.604  0.00  0.00     0.143 C 
ATOM     62  O   UNK d   0      36.621   8.128  64.303  0.00  0.00    -0.650 OA
BRANCH  61  63
ATOM     63  O   UNK d   0      37.569   6.306  63.341  0.00  0.00    -0.776 OA
ATOM     64  H   UNK d   0      36.817   5.707  63.630  0.00  0.00     0.167 HD
ENDBRANCH  61  63
ENDBRANCH  60  61
ENDBRANCH  18  60
BRANCH  14  65
ATOM     65  C   UNK d   0      38.925  11.069  64.543  0.00  0.00     0.052 C 
BRANCH  65  66
ATOM     66  C   UNK d   0      40.289  11.610  64.299  0.00  0.00     0.115 C 
BRANCH  66  67
ATOM     67  C   UNK d   0      40.679  12.853  64.903  0.00  0.00     0.139 C 
ATOM     68  O   UNK d   0      41.279  12.822  66.040  0.00  0.00    -0.650 OA
BRANCH  67  69
ATOM     69  O   UNK d   0      40.488  14.141  64.403  0.00  0.00    -0.776 OA
ATOM     70  H   UNK d   0      39.519  14.492  64.427  0.00  0.00     0.167 HD
ENDBRANCH  67  69
ENDBRANCH  66  67
ENDBRANCH  65  66
ENDBRANCH  14  65
ENDBRANCH   6   7
ENDBRANCH   5   6
ENDBRANCH   2   5
TORSDOF 28
ENDMDL
MODEL 3
REMARK VINA RESULT:     -10.1      1.298      1.740
REMARK  28 active torsions:
REMARK  status: ('A' for Active; 'I' for Inactive)
REMARK    1  A    between atoms: C_2  and  O_3 
REMARK    2  A    between atoms: C_2  and  C_4 
REMARK    3  A    between atoms: C_4  and  C_5 
REMARK    4  A    between atoms: C_5  and  C_6 
REMARK    5  A    between atoms: C_7  and  C_8 
REMARK    6  A    between atoms: C_8  and  C_9 
REMARK    7  A    between atoms: C_9  and  O_11 
REMARK    8  A    between atoms: C_28  and  C_29 
REMARK    9  A    between atoms: C_29  and  C_30 
REMARK   10  A    between atoms: C_30  and  O_32 
REMARK   11  A    between atoms: C_33  and  C_34 
REMARK   12  A    between atoms: C_34  and  C_35 
REMARK   13  A    between atoms: C_35  and  C_36 
REMARK   14  A    between atoms: C_36  and  O_38 
REMARK   15  A    between atoms: C_39  and  C_40 
REMARK   16  A    between atoms: C_40  and  C_41 
REMARK   17  A    between atoms: C_41  and  C_42 
REMARK   18  A    between atoms: C_42  and  O_44 
REMARK   19  A    between atoms: C_45  and  C_46 
REMARK   20  A    between atoms: C_46  and  C_47 
REMARK   21  A    between atoms: C_47  and  O_49 
REMARK   22  A    between atoms: C_50  and  C_51 
REMARK   23  A    between atoms: C_51  and  C_52 
REMARK   24  A    between atoms: C_52  and  O_54 
REMARK   25  A    between atoms: C_55  and  C_56 
REMARK   26  A    between atoms: C_56  and  C_57 
REMARK   27  A    between atoms: C_57  and  C_58 
REMARK   28  A    between atoms: C_58  and  O_60 
ROOT
ATOM      1  O   UNK d   0      40.923  15.863  67.225  0.00  0.00    -0.650 OA
ATOM      2  C   UNK d   0      41.422  15.054  66.411  0.00  0.00     0.139 C 
ENDROOT
BRANCH   2   3
ATOM      3  O   UNK d   0      42.762  14.763  66.487  0.00  0.00    -0.776 OA
ATOM      4  H   UNK d   0      43.401  15.014  65.729  0.00  0.00     0.167 HD
ENDBRANCH   2   3
BRANCH   2   5
ATOM      5  C   UNK d   0      40.566  14.416  65.371  0.00  0.00     0.115 C 
BRANCH   5   6
ATOM      6  C   UNK d   0      39.611  13.445  66.010  0.00  0.00     0.052 C 
BRANCH   6   7
ATOM      7  C   UNK d   0      38.244  13.469  65.370  0.00  0.00    -0.020 A 
ATOM      8  C   UNK d   0      37.250  14.276  65.640  0.00  0.00    -0.011 A 
ATOM      9  C   UNK d   0      36.136  13.915  64.778  0.00  0.00     0.067 A 
ATOM     10  C   UNK d   0      34.832  14.384  64.560  0.00  0.00     0.062 C 
ATOM     11  N   UNK d   0      36.539  12.874  64.019  0.00  0.00    -0.248 NA
ATOM     12  C   UNK d   0      33.993  14.083  63.481  0.00  0.00     0.041 A 
ATOM     13  N   UNK d   0      33.739  12.919  62.854  0.00  0.00    -0.355 N 
ATOM     14  C   UNK d   0      33.296  15.129  62.849  0.00  0.00    -0.022 A 
ATOM     15  C   UNK d   0      32.905  13.200  61.835  0.00  0.00     0.042 A 
ATOM     16  H   UNK d   0      34.125  11.915  63.138  0.00  0.00     0.166 HD
ATOM     17  C   UNK d   0      32.328  12.354  60.867  0.00  0.00     0.062 C 
ATOM     18  C   UNK d   0      32.606  14.576  61.799  0.00  0.00    -0.013 A 
ATOM     19  C   UNK d   0      32.915  11.354  60.135  0.00  0.00     0.067 A 
ATOM     20  N   UNK d   0      34.143  10.977  60.502  0.00  0.00    -0.248 NA
ATOM     21  C   UNK d   0      32.547  10.549  58.982  0.00  0.00    -0.011 A 
ATOM     22  C   UNK d   0      34.604   9.985  59.672  0.00  0.00     0.066 A 
ATOM     23  C   UNK d   0      35.859   9.471  59.964  0.00  0.00     0.062 C 
ATOM     24  C   UNK d   0      33.541   9.753  58.714  0.00  0.00    -0.020 A 
ATOM     25  C   UNK d   0      36.680   9.778  61.060  0.00  0.00     0.041 A 
ATOM     26  N   UNK d   0      36.945  10.937  61.674  0.00  0.00    -0.355 N 
ATOM     27  C   UNK d   0      37.375   8.727  61.698  0.00  0.00    -0.022 A 
ATOM     28  C   UNK d   0      37.782  10.661  62.686  0.00  0.00     0.042 A 
ATOM     29  H   UNK d   0      36.564  11.946  61.381  0.00  0.00     0.166 HD
ATOM     30  C   UNK d   0      38.372  11.493  63.650  0.00  0.00     0.062 C 
ATOM     31  C   UNK d   0      38.075   9.277  62.728  0.00  0.00    -0.013 A 
ATOM     32  C   UNK d   0      37.797  12.558  64.326  0.00  0.00     0.066 A 
BRANCH   8  33
ATOM     33  C   UNK d   0      37.237  15.360  66.640  0.00  0.00     0.151 C 
BRANCH  33  34
ATOM     34  C   UNK d   0      37.378  16.696  66.034  0.00  0.00     0.143 C 
ATOM     35  O   UNK d   0      36.384  17.328  65.648  0.00  0.00    -0.650 OA
BRANCH  34  36
ATOM     36  O   UNK d   0      38.631  17.246  65.895  0.00  0.00    -0.776 OA
ATOM     37  H   UNK d   0      38.967  17.979  66.536  0.00  0.00     0.167 HD
ENDBRANCH  34  36
ENDBRANCH  33  34
ENDBRANCH   8  33
BRANCH  31  38
ATOM     38  C   UNK d   0      38.957   8.533  63.703  0.00  0.00     0.151 C 
BRANCH  38  39
ATOM     39  C   UNK d   0      38.295   8.255  64.960  0.00  0.00     0.143 C 
ATOM     40  O   UNK d   0      38.925   8.034  66.009  0.00  0.00    -0.650 OA
BRANCH  39  41
ATOM     41  O   UNK d   0      36.902   8.231  65.011  0.00  0.00    -0.776 OA
ATOM     42  H   UNK d   0      36.408   8.934  64.453  0.00  0.00     0.167 HD
ENDBRANCH  39  41
ENDBRANCH  38  39
ENDBRANCH  31  38
BRANCH  27  43
ATOM     43  C   UNK d   0      37.399   7.255  61.368  0.00  0.00     0.052 C 
BRANCH  43  44
ATOM     44  C   UNK d   0      36.401   6.460  62.145  0.00  0.00     0.115 C 
BRANCH  44  45
ATOM     45  C   UNK d   0      36.184   5.198  61.390  0.00  0.00     0.139 C 
ATOM     46  O   UNK d   0      36.579   5.146  60.199  0.00  0.00    -0.650 OA
BRANCH  45  47
ATOM     47  O   UNK d   0      35.576   4.092  61.943  0.00  0.00    -0.776 OA
ATOM     48  H   UNK d   0      34.641   4.125  62.379  0.00  0.00     0.167 HD
ENDBRANCH  45  47
ENDBRANCH  44  45
ENDBRANCH  43  44
ENDBRANCH  27  43
BRANCH  24  49
ATOM     49  C   UNK d   0      33.577   8.738  57.647  0.00  0.00     0.052 C 
BRANCH  49  50
ATOM     50  C   UNK d   0      34.219   7.470  58.150  0.00  0.00     0.115 C 
BRANCH  50  51
ATOM     51  C   UNK d   0      35.183   6.820  57.272  0.00  0.00     0.139 C 
ATOM     52  O   UNK d   0      34.916   6.507  56.088  0.00  0.00    -0.650 OA
BRANCH  51  53
ATOM     53  O   UNK d   0      36.452   6.523  57.746  0.00  0.00    -0.776 OA
ATOM     54  H   UNK d   0      36.714   5.557  57.829  0.00  0.00     0.167 HD
ENDBRANCH  51  53
ENDBRANCH  50  51
ENDBRANCH  49  50
ENDBRANCH  24  49
BRANCH  21  55
ATOM     55  C   UNK d   0      31.238  10.656  58.272  0.00  0.00     0.151 C 
BRANCH  55  56
ATOM     56  C   UNK d   0      31.140  11.892  57.480  0.00  0.00     0.143 C 
ATOM     57  O   UNK d   0      30.399  12.842  57.799  0.00  0.00    -0.650 OA
BRANCH  56  58
ATOM     58  O   UNK d   0      31.917  11.986  56.326  0.00  0.00    -0.776 OA
ATOM     59  H   UNK d   0      31.508  11.535  55.487  0.00  0.00     0.167 HD
ENDBRANCH  56  58
ENDBRANCH  55  56
ENDBRANCH  21  55
BRANCH  18  60
ATOM     60  C   UNK d   0      31.728  15.344  60.842  0.00  0.00     0.151 C 
BRANCH  60  61
ATOM     61  C   UNK d   0      32.574  15.655  59.679  0.00  0.00     0.143 C 
ATOM     62  O   UNK d   0      33.604  16.329  59.671  0.00  0.00    -0.650 OA
BRANCH  61  63
ATOM     63  O   UNK d   0      32.134  15.109  58.450  0.00  0.00    -0.776 OA
ATOM     64  H   UNK d   0      32.780  14.675  57.815  0.00  0.00     0.167 HD
ENDBRANCH  61  63
ENDBRANCH  60  61
ENDBRANCH  18  60
BRANCH  14  65
ATOM     65  C   UNK d   0      33.158  16.579  63.216  0.00  0.00     0.052 C 
BRANCH  65  66
ATOM     66  C   UNK d   0      32.351  16.792  64.448  0.00  0.00     0.115 C 
BRANCH  66  67
ATOM     67  C   UNK d   0      31.068  16.159  64.577  0.00  0.00     0.139 C 
ATOM     68  O   UNK d   0      30.871  15.370  65.572  0.00  0.00    -0.650 OA
BRANCH  67  69
ATOM     69  O   UNK d   0      29.964  16.289  63.735  0.00  0.00    -0.776 OA
ATOM     70  H   UNK d   0      29.463  17.187  63.789  0.00  0.00     0.167 HD
ENDBRANCH  67  69
ENDBRANCH  66  67
ENDBRANCH  65  66
ENDBRANCH  14  65
ENDBRANCH   6   7
ENDBRANCH   5   6
ENDBRANCH   2   5
TORSDOF 28
ENDMDL
MODEL 4
REMARK VINA RESULT:      -9.8      2.005     10.755
REMARK  28 active torsions:
REMARK  status: ('A' for Active; 'I' for Inactive)
REMARK    1  A    between atoms: C_2  and  O_3 
REMARK    2  A    between atoms: C_2  and  C_4 
REMARK    3  A    between atoms: C_4  and  C_5 
REMARK    4  A    between atoms: C_5  and  C_6 
REMARK    5  A    between atoms: C_7  and  C_8 
REMARK    6  A    between atoms: C_8  and  C_9 
REMARK    7  A    between atoms: C_9  and  O_11 
REMARK    8  A    between atoms: C_28  and  C_29 
REMARK    9  A    between atoms: C_29  and  C_30 
REMARK   10  A    between atoms: C_30  and  O_32 
REMARK   11  A    between atoms: C_33  and  C_34 
REMARK   12  A    between atoms: C_34  and  C_35 
REMARK   13  A    between atoms: C_35  and  C_36 
REMARK   14  A    between atoms: C_36  and  O_38 
REMARK   15  A    between atoms: C_39  and  C_40 
REMARK   16  A    between atoms: C_40  and  C_41 
REMARK   17  A    between atoms: C_41  and  C_42 
REMARK   18  A    between atoms: C_42  and  O_44 
REMARK   19  A    between atoms: C_45  and  C_46 
REMARK   20  A    between atoms: C_46  and  C_47 
REMARK   21  A    between atoms: C_47  and  O_49 
REMARK   22  A    between atoms: C_50  and  C_51 
REMARK   23  A    between atoms: C_51  and  C_52 
REMARK   24  A    between atoms: C_52  and  O_54 
REMARK   25  A    between atoms: C_55  and  C_56 
REMARK   26  A    between atoms: C_56  and  C_57 
REMARK   27  A    between atoms: C_57  and  C_58 
REMARK   28  A    between atoms: C_58  and  O_60 
ROOT
ATOM      1  O   UNK d   0      30.681  17.510  57.436  0.00  0.00    -0.650 OA
ATOM      2  C   UNK d   0      31.000  16.952  58.509  0.00  0.00     0.139 C 
ENDROOT
BRANCH   2   3
ATOM      3  O   UNK d   0      30.528  17.458  59.697  0.00  0.00    -0.776 OA
ATOM      4  H   UNK d   0      30.050  16.859  60.373  0.00  0.00     0.167 HD
ENDBRANCH   2   3
BRANCH   2   5
ATOM      5  C   UNK d   0      31.883  15.752  58.496  0.00  0.00     0.115 C 
BRANCH   5   6
ATOM      6  C   UNK d   0      31.131  14.550  59.000  0.00  0.00     0.052 C 
BRANCH   6   7
ATOM      7  C   UNK d   0      31.979  13.661  59.879  0.00  0.00    -0.020 A 
ATOM      8  C   UNK d   0      32.002  12.353  59.905  0.00  0.00    -0.011 A 
ATOM      9  C   UNK d   0      32.964  11.945  60.914  0.00  0.00     0.067 A 
ATOM     10  C   UNK d   0      33.461  10.728  61.407  0.00  0.00     0.062 C 
ATOM     11  N   UNK d   0      33.476  13.070  61.458  0.00  0.00    -0.248 NA
ATOM     12  C   UNK d   0      34.600  10.535  62.197  0.00  0.00     0.041 A 
ATOM     13  N   UNK d   0      35.069  11.220  63.257  0.00  0.00    -0.355 N 
ATOM     14  C   UNK d   0      35.493   9.501  61.862  0.00  0.00    -0.022 A 
ATOM     15  C   UNK d   0      36.241  10.651  63.599  0.00  0.00     0.042 A 
ATOM     16  H   UNK d   0      34.572  12.075  63.766  0.00  0.00     0.166 HD
ATOM     17  C   UNK d   0      37.144  10.971  64.633  0.00  0.00     0.062 C 
ATOM     18  C   UNK d   0      36.540   9.571  62.747  0.00  0.00    -0.013 A 
ATOM     19  C   UNK d   0      37.605  12.201  65.025  0.00  0.00     0.067 A 
ATOM     20  N   UNK d   0      36.991  13.270  64.510  0.00  0.00    -0.248 NA
ATOM     21  C   UNK d   0      38.661  12.693  65.895  0.00  0.00    -0.011 A 
ATOM     22  C   UNK d   0      37.569  14.424  64.980  0.00  0.00     0.066 A 
ATOM     23  C   UNK d   0      37.001  15.615  64.553  0.00  0.00     0.062 C 
ATOM     24  C   UNK d   0      38.637  13.994  65.861  0.00  0.00    -0.020 A 
ATOM     25  C   UNK d   0      35.849  15.788  63.770  0.00  0.00     0.041 A 
ATOM     26  N   UNK d   0      35.390  15.117  62.706  0.00  0.00    -0.355 N 
ATOM     27  C   UNK d   0      34.951  16.823  64.109  0.00  0.00    -0.022 A 
ATOM     28  C   UNK d   0      34.226  15.687  62.358  0.00  0.00     0.042 A 
ATOM     29  H   UNK d   0      35.896  14.265  62.189  0.00  0.00     0.166 HD
ATOM     30  C   UNK d   0      33.323  15.386  61.327  0.00  0.00     0.062 C 
ATOM     31  C   UNK d   0      33.921  16.766  63.221  0.00  0.00    -0.013 A 
ATOM     32  C   UNK d   0      32.924  14.137  60.878  0.00  0.00     0.066 A 
BRANCH   8  33
ATOM     33  C   UNK d   0      31.200  11.437  59.072  0.00  0.00     0.151 C 
BRANCH  33  34
ATOM     34  C   UNK d   0      31.915  10.993  57.862  0.00  0.00     0.143 C 
ATOM     35  O   UNK d   0      32.492   9.897  57.830  0.00  0.00    -0.650 OA
BRANCH  34  36
ATOM     36  O   UNK d   0      31.942  11.810  56.755  0.00  0.00    -0.776 OA
ATOM     37  H   UNK d   0      32.543  11.597  55.948  0.00  0.00     0.167 HD
ENDBRANCH  34  36
ENDBRANCH  33  34
ENDBRANCH   8  33
BRANCH  31  38
ATOM     38  C   UNK d   0      32.712  17.672  63.200  0.00  0.00     0.151 C 
BRANCH  38  39
ATOM     39  C   UNK d   0      31.509  17.014  63.666  0.00  0.00     0.143 C 
ATOM     40  O   UNK d   0      31.424  16.508  64.798  0.00  0.00    -0.650 OA
BRANCH  39  41
ATOM     41  O   UNK d   0      30.399  16.939  62.825  0.00  0.00    -0.776 OA
ATOM     42  H   UNK d   0      30.124  17.802  62.345  0.00  0.00     0.167 HD
ENDBRANCH  39  41
ENDBRANCH  38  39
ENDBRANCH  31  38
BRANCH  27  43
ATOM     43  C   UNK d   0      35.037  17.840  65.219  0.00  0.00     0.052 C 
BRANCH  43  44
ATOM     44  C   UNK d   0      35.647  19.134  64.788  0.00  0.00     0.115 C 
BRANCH  44  45
ATOM     45  C   UNK d   0      36.974  19.220  65.453  0.00  0.00     0.139 C 
ATOM     46  O   UNK d   0      37.330  18.265  66.187  0.00  0.00    -0.650 OA
BRANCH  45  47
ATOM     47  O   UNK d   0      37.823  20.293  65.291  0.00  0.00    -0.776 OA
ATOM     48  H   UNK d   0      37.866  21.079  65.959  0.00  0.00     0.167 HD
ENDBRANCH  45  47
ENDBRANCH  44  45
ENDBRANCH  43  44
ENDBRANCH  27  43
BRANCH  24  49
ATOM     49  C   UNK d   0      39.512  14.899  66.626  0.00  0.00     0.052 C 
BRANCH  49  50
ATOM     50  C   UNK d   0      40.565  15.495  65.727  0.00  0.00     0.115 C 
BRANCH  50  51
ATOM     51  C   UNK d   0      41.842  15.840  66.338  0.00  0.00     0.139 C 
ATOM     52  O   UNK d   0      42.061  16.959  66.859  0.00  0.00    -0.650 OA
BRANCH  51  53
ATOM     53  O   UNK d   0      42.870  14.910  66.351  0.00  0.00    -0.776 OA
ATOM     54  H   UNK d   0      43.578  14.994  67.059  0.00  0.00     0.167 HD
ENDBRANCH  51  53
ENDBRANCH  50  51
ENDBRANCH  49  50
ENDBRANCH  24  49
BRANCH  21  55
ATOM     55  C   UNK d   0      39.580  11.811  66.672  0.00  0.00     0.151 C 
BRANCH  55  56
ATOM     56  C   UNK d   0      40.897  11.683  66.029  0.00  0.00     0.143 C 
ATOM     57  O   UNK d   0      41.902  12.310  66.418  0.00  0.00    -0.650 OA
BRANCH  56  58
ATOM     58  O   UNK d   0      41.007  10.820  64.940  0.00  0.00    -0.776 OA
ATOM     59  H   UNK d   0      40.142  10.714  64.379  0.00  0.00     0.167 HD
ENDBRANCH  56  58
ENDBRANCH  55  56
ENDBRANCH  21  55
BRANCH  18  60
ATOM     60  C   UNK d   0      37.735   8.650  62.746  0.00  0.00     0.151 C 
BRANCH  60  61
ATOM     61  C   UNK d   0      37.333   7.466  63.522  0.00  0.00     0.143 C 
ATOM     62  O   UNK d   0      36.987   7.436  64.703  0.00  0.00    -0.650 OA
BRANCH  61  63
ATOM     63  O   UNK d   0      37.353   6.243  62.809  0.00  0.00    -0.776 OA
ATOM     64  H   UNK d   0      36.917   5.419  63.181  0.00  0.00     0.167 HD
ENDBRANCH  61  63
ENDBRANCH  60  61
ENDBRANCH  18  60
BRANCH  14  65
ATOM     65  C   UNK d   0      35.385   8.403  60.842  0.00  0.00     0.052 C 
BRANCH  65  66
ATOM     66  C   UNK d   0      36.384   8.526  59.747  0.00  0.00     0.115 C 
BRANCH  66  67
ATOM     67  C   UNK d   0      35.962   8.398  58.381  0.00  0.00     0.139 C 
ATOM     68  O   UNK d   0      36.341   7.365  57.716  0.00  0.00    -0.650 OA
BRANCH  67  69
ATOM     69  O   UNK d   0      35.166   9.277  57.648  0.00  0.00    -0.776 OA
ATOM     70  H   UNK d   0      35.332  10.280  57.819  0.00  0.00     0.167 HD
ENDBRANCH  67  69
ENDBRANCH  66  67
ENDBRANCH  65  66
ENDBRANCH  14  65
ENDBRANCH   6   7
ENDBRANCH   5   6
ENDBRANCH   2   5
TORSDOF 28
ENDMDL
MODEL 5
REMARK VINA RESULT:      -9.7      1.666      7.675
REMARK  28 active torsions:
REMARK  status: ('A' for Active; 'I' for Inactive)
REMARK    1  A    between atoms: C_2  and  O_3 
REMARK    2  A    between atoms: C_2  and  C_4 
REMARK    3  A    between atoms: C_4  and  C_5 
REMARK    4  A    between atoms: C_5  and  C_6 
REMARK    5  A    between atoms: C_7  and  C_8 
REMARK    6  A    between atoms: C_8  and  C_9 
REMARK    7  A    between atoms: C_9  and  O_11 
REMARK    8  A    between atoms: C_28  and  C_29 
REMARK    9  A    between atoms: C_29  and  C_30 
REMARK   10  A    between atoms: C_30  and  O_32 
REMARK   11  A    between atoms: C_33  and  C_34 
REMARK   12  A    between atoms: C_34  and  C_35 
REMARK   13  A    between atoms: C_35  and  C_36 
REMARK   14  A    between atoms: C_36  and  O_38 
REMARK   15  A    between atoms: C_39  and  C_40 
REMARK   16  A    between atoms: C_40  and  C_41 
REMARK   17  A    between atoms: C_41  and  C_42 
REMARK   18  A    between atoms: C_42  and  O_44 
REMARK   19  A    between atoms: C_45  and  C_46 
REMARK   20  A    between atoms: C_46  and  C_47 
REMARK   21  A    between atoms: C_47  and  O_49 
REMARK   22  A    between atoms: C_50  and  C_51 
REMARK   23  A    between atoms: C_51  and  C_52 
REMARK   24  A    between atoms: C_52  and  O_54 
REMARK   25  A    between atoms: C_55  and  C_56 
REMARK   26  A    between atoms: C_56  and  C_57 
REMARK   27  A    between atoms: C_57  and  C_58 
REMARK   28  A    between atoms: C_58  and  O_60 
ROOT
ATOM      1  O   UNK d   0      34.552  18.568  62.697  0.00  0.00    -0.650 OA
ATOM      2  C   UNK d   0      34.227  18.342  63.884  0.00  0.00     0.139 C 
ENDROOT
BRANCH   2   3
ATOM      3  O   UNK d   0      32.897  18.212  64.205  0.00  0.00    -0.776 OA
ATOM      4  H   UNK d   0      32.355  17.404  63.891  0.00  0.00     0.167 HD
ENDBRANCH   2   3
BRANCH   2   5
ATOM      5  C   UNK d   0      35.275  18.217  64.936  0.00  0.00     0.115 C 
BRANCH   5   6
ATOM      6  C   UNK d   0      35.049  16.971  65.747  0.00  0.00     0.052 C 
BRANCH   6   7
ATOM      7  C   UNK d   0      35.654  15.744  65.109  0.00  0.00    -0.020 A 
ATOM      8  C   UNK d   0      36.835  15.227  65.334  0.00  0.00    -0.011 A 
ATOM      9  C   UNK d   0      36.979  14.058  64.482  0.00  0.00     0.067 A 
ATOM     10  C   UNK d   0      37.961  13.080  64.262  0.00  0.00     0.062 C 
ATOM     11  N   UNK d   0      35.841  13.941  63.766  0.00  0.00    -0.248 NA
ATOM     12  C   UNK d   0      37.808  11.860  63.595  0.00  0.00     0.041 A 
ATOM     13  N   UNK d   0      37.164  11.548  62.454  0.00  0.00    -0.355 N 
ATOM     14  C   UNK d   0      38.343  10.695  64.175  0.00  0.00    -0.022 A 
ATOM     15  C   UNK d   0      37.269  10.214  62.300  0.00  0.00     0.042 A 
ATOM     16  H   UNK d   0      36.661  12.259  61.762  0.00  0.00     0.166 HD
ATOM     17  C   UNK d   0      36.781   9.371  61.282  0.00  0.00     0.062 C 
ATOM     18  C   UNK d   0      38.002   9.645  63.360  0.00  0.00    -0.013 A 
ATOM     19  C   UNK d   0      35.542   9.360  60.692  0.00  0.00     0.067 A 
ATOM     20  N   UNK d   0      34.738  10.393  60.954  0.00  0.00    -0.248 NA
ATOM     21  C   UNK d   0      34.813   8.463  59.811  0.00  0.00    -0.011 A 
ATOM     22  C   UNK d   0      33.535  10.236  60.310  0.00  0.00     0.066 A 
ATOM     23  C   UNK d   0      32.614  11.261  60.467  0.00  0.00     0.062 C 
ATOM     24  C   UNK d   0      33.638   8.979  59.595  0.00  0.00    -0.020 A 
ATOM     25  C   UNK d   0      32.792  12.485  61.130  0.00  0.00     0.041 A 
ATOM     26  N   UNK d   0      33.420  12.792  62.271  0.00  0.00    -0.355 N 
ATOM     27  C   UNK d   0      32.259  13.654  60.545  0.00  0.00    -0.022 A 
ATOM     28  C   UNK d   0      33.308  14.120  62.432  0.00  0.00     0.042 A 
ATOM     29  H   UNK d   0      33.915  12.075  62.971  0.00  0.00     0.166 HD
ATOM     30  C   UNK d   0      33.781  14.970  63.444  0.00  0.00     0.062 C 
ATOM     31  C   UNK d   0      32.581  14.693  61.362  0.00  0.00    -0.013 A 
ATOM     32  C   UNK d   0      35.003  14.925  64.097  0.00  0.00     0.066 A 
BRANCH   8  33
ATOM     33  C   UNK d   0      37.855  15.726  66.275  0.00  0.00     0.151 C 
BRANCH  33  34
ATOM     34  C   UNK d   0      38.833  16.623  65.633  0.00  0.00     0.143 C 
ATOM     35  O   UNK d   0      38.870  17.829  65.914  0.00  0.00    -0.650 OA
BRANCH  34  36
ATOM     36  O   UNK d   0      39.714  16.111  64.709  0.00  0.00    -0.776 OA
ATOM     37  H   UNK d   0      39.447  15.333  64.090  0.00  0.00     0.167 HD
ENDBRANCH  34  36
ENDBRANCH  33  34
ENDBRANCH   8  33
BRANCH  31  38
ATOM     38  C   UNK d   0      32.233  16.146  61.136  0.00  0.00     0.151 C 
BRANCH  38  39
ATOM     39  C   UNK d   0      30.960  16.515  61.717  0.00  0.00     0.143 C 
ATOM     40  O   UNK d   0      30.830  16.766  62.928  0.00  0.00    -0.650 OA
BRANCH  39  41
ATOM     41  O   UNK d   0      29.832  16.598  60.902  0.00  0.00    -0.776 OA
ATOM     42  H   UNK d   0      29.371  17.512  60.842  0.00  0.00     0.167 HD
ENDBRANCH  39  41
ENDBRANCH  38  39
ENDBRANCH  31  38
BRANCH  27  43
ATOM     43  C   UNK d   0      31.471  13.813  59.269  0.00  0.00     0.052 C 
BRANCH  43  44
ATOM     44  C   UNK d   0      31.944  14.948  58.420  0.00  0.00     0.115 C 
BRANCH  44  45
ATOM     45  C   UNK d   0      30.743  15.496  57.737  0.00  0.00     0.139 C 
ATOM     46  O   UNK d   0      30.062  14.720  57.023  0.00  0.00    -0.650 OA
BRANCH  45  47
ATOM     47  O   UNK d   0      30.348  16.811  57.861  0.00  0.00    -0.776 OA
ATOM     48  H   UNK d   0      29.851  17.171  58.691  0.00  0.00     0.167 HD
ENDBRANCH  45  47
ENDBRANCH  44  45
ENDBRANCH  43  44
ENDBRANCH  27  43
BRANCH  24  49
ATOM     49  C   UNK d   0      32.589   8.417  58.727  0.00  0.00     0.052 C 
BRANCH  49  50
ATOM     50  C   UNK d   0      32.328   9.335  57.560  0.00  0.00     0.115 C 
BRANCH  50  51
ATOM     51  C   UNK d   0      30.996   9.916  57.457  0.00  0.00     0.139 C 
ATOM     52  O   UNK d   0      30.062   9.610  58.235  0.00  0.00    -0.650 OA
BRANCH  51  53
ATOM     53  O   UNK d   0      30.729  10.846  56.463  0.00  0.00    -0.776 OA
ATOM     54  H   UNK d   0      29.790  10.907  56.110  0.00  0.00     0.167 HD
ENDBRANCH  51  53
ENDBRANCH  50  51
ENDBRANCH  49  50
ENDBRANCH  24  49
BRANCH  21  55
ATOM     55  C   UNK d   0      35.369   7.186  59.274  0.00  0.00     0.151 C 
BRANCH  55  56
ATOM     56  C   UNK d   0      35.945   7.356  57.932  0.00  0.00     0.143 C 
ATOM     57  O   UNK d   0      35.424   6.875  56.907  0.00  0.00    -0.650 OA
BRANCH  56  58
ATOM     58  O   UNK d   0      37.125   8.091  57.820  0.00  0.00    -0.776 OA
ATOM     59  H   UNK d   0      37.981   7.523  57.684  0.00  0.00     0.167 HD
ENDBRANCH  56  58
ENDBRANCH  55  56
ENDBRANCH  21  55
BRANCH  18  60
ATOM     60  C   UNK d   0      38.366   8.203  63.609  0.00  0.00     0.151 C 
BRANCH  60  61
ATOM     61  C   UNK d   0      37.356   7.687  64.546  0.00  0.00     0.143 C 
ATOM     62  O   UNK d   0      36.135   7.676  64.388  0.00  0.00    -0.650 OA
BRANCH  61  63
ATOM     63  O   UNK d   0      37.870   7.150  65.751  0.00  0.00    -0.776 OA
ATOM     64  H   UNK d   0      37.278   7.010  66.550  0.00  0.00     0.167 HD
ENDBRANCH  61  63
ENDBRANCH  60  61
ENDBRANCH  18  60
BRANCH  14  65
ATOM     65  C   UNK d   0      39.226  10.514  65.377  0.00  0.00     0.052 C 
BRANCH  65  66
ATOM     66  C   UNK d   0      40.630  10.943  65.136  0.00  0.00     0.115 C 
BRANCH  66  67
ATOM     67  C   UNK d   0      41.302  11.758  66.108  0.00  0.00     0.139 C 
ATOM     68  O   UNK d   0      40.829  12.927  66.362  0.00  0.00    -0.650 OA
BRANCH  67  69
ATOM     69  O   UNK d   0      42.444  11.443  66.844  0.00  0.00    -0.776 OA
ATOM     70  H   UNK d   0      42.560  11.953  67.732  0.00  0.00     0.167 HD
ENDBRANCH  67  69
ENDBRANCH  66  67
ENDBRANCH  65  66
ENDBRANCH  14  65
ENDBRANCH   6   7
ENDBRANCH   5   6
ENDBRANCH   2   5
TORSDOF 28
ENDMDL
MODEL 6
REMARK VINA RESULT:      -9.7      1.734      2.928
REMARK  28 active torsions:
REMARK  status: ('A' for Active; 'I' for Inactive)
REMARK    1  A    between atoms: C_2  and  O_3 
REMARK    2  A    between atoms: C_2  and  C_4 
REMARK    3  A    between atoms: C_4  and  C_5 
REMARK    4  A    between atoms: C_5  and  C_6 
REMARK    5  A    between atoms: C_7  and  C_8 
REMARK    6  A    between atoms: C_8  and  C_9 
REMARK    7  A    between atoms: C_9  and  O_11 
REMARK    8  A    between atoms: C_28  and  C_29 
REMARK    9  A    between atoms: C_29  and  C_30 
REMARK   10  A    between atoms: C_30  and  O_32 
REMARK   11  A    between atoms: C_33  and  C_34 
REMARK   12  A    between atoms: C_34  and  C_35 
REMARK   13  A    between atoms: C_35  and  C_36 
REMARK   14  A    between atoms: C_36  and  O_38 
REMARK   15  A    between atoms: C_39  and  C_40 
REMARK   16  A    between atoms: C_40  and  C_41 
REMARK   17  A    between atoms: C_41  and  C_42 
REMARK   18  A    between atoms: C_42  and  O_44 
REMARK   19  A    between atoms: C_45  and  C_46 
REMARK   20  A    between atoms: C_46  and  C_47 
REMARK   21  A    between atoms: C_47  and  O_49 
REMARK   22  A    between atoms: C_50  and  C_51 
REMARK   23  A    between atoms: C_51  and  C_52 
REMARK   24  A    between atoms: C_52  and  O_54 
REMARK   25  A    between atoms: C_55  and  C_56 
REMARK   26  A    between atoms: C_56  and  C_57 
REMARK   27  A    between atoms: C_57  and  C_58 
REMARK   28  A    between atoms: C_58  and  O_60 
ROOT
ATOM      1  O   UNK d   0      42.400  14.971  65.662  0.00  0.00    -0.650 OA
ATOM      2  C   UNK d   0      41.204  14.621  65.777  0.00  0.00     0.139 C 
ENDROOT
BRANCH   2   3
ATOM      3  O   UNK d   0      40.913  13.363  66.246  0.00  0.00    -0.776 OA
ATOM      4  H   UNK d   0      41.526  12.894  66.916  0.00  0.00     0.167 HD
ENDBRANCH   2   3
BRANCH   2   5
ATOM      5  C   UNK d   0      40.111  15.564  65.407  0.00  0.00     0.115 C 
BRANCH   5   6
ATOM      6  C   UNK d   0      38.938  15.384  66.333  0.00  0.00     0.052 C 
BRANCH   6   7
ATOM      7  C   UNK d   0      37.641  15.162  65.592  0.00  0.00    -0.020 A 
ATOM      8  C   UNK d   0      36.565  15.905  65.624  0.00  0.00    -0.011 A 
ATOM      9  C   UNK d   0      35.573  15.290  64.759  0.00  0.00     0.067 A 
ATOM     10  C   UNK d   0      34.262  15.585  64.351  0.00  0.00     0.062 C 
ATOM     11  N   UNK d   0      36.127  14.173  64.244  0.00  0.00    -0.248 NA
ATOM     12  C   UNK d   0      33.558  15.016  63.285  0.00  0.00     0.041 A 
ATOM     13  N   UNK d   0      33.459  13.739  62.869  0.00  0.00    -0.355 N 
ATOM     14  C   UNK d   0      32.846  15.859  62.412  0.00  0.00    -0.022 A 
ATOM     15  C   UNK d   0      32.709  13.750  61.751  0.00  0.00     0.042 A 
ATOM     16  H   UNK d   0      33.894  12.844  63.368  0.00  0.00     0.166 HD
ATOM     17  C   UNK d   0      32.296  12.692  60.917  0.00  0.00     0.062 C 
ATOM     18  C   UNK d   0      32.306  15.062  61.433  0.00  0.00    -0.013 A 
ATOM     19  C   UNK d   0      33.029  11.637  60.436  0.00  0.00     0.067 A 
ATOM     20  N   UNK d   0      34.241  11.452  60.965  0.00  0.00    -0.248 NA
ATOM     21  C   UNK d   0      32.839  10.606  59.430  0.00  0.00    -0.011 A 
ATOM     22  C   UNK d   0      34.858  10.374  60.377  0.00  0.00     0.066 A 
ATOM     23  C   UNK d   0      36.115  10.044  60.862  0.00  0.00     0.062 C 
ATOM     24  C   UNK d   0      33.914   9.873  59.398  0.00  0.00    -0.020 A 
ATOM     25  C   UNK d   0      36.799  10.621  61.943  0.00  0.00     0.041 A 
ATOM     26  N   UNK d   0      36.910  11.892  62.347  0.00  0.00    -0.355 N 
ATOM     27  C   UNK d   0      37.510   9.774  62.820  0.00  0.00    -0.022 A 
ATOM     28  C   UNK d   0      37.665  11.884  63.457  0.00  0.00     0.042 A 
ATOM     29  H   UNK d   0      36.481  12.790  61.839  0.00  0.00     0.166 HD
ATOM     30  C   UNK d   0      38.091  12.929  64.291  0.00  0.00     0.062 C 
ATOM     31  C   UNK d   0      38.060  10.564  63.782  0.00  0.00    -0.013 A 
ATOM     32  C   UNK d   0      37.372  14.039  64.706  0.00  0.00     0.066 A 
BRANCH   8  33
ATOM     33  C   UNK d   0      36.370  17.146  66.397  0.00  0.00     0.151 C 
BRANCH  33  34
ATOM     34  C   UNK d   0      36.649  18.359  65.609  0.00  0.00     0.143 C 
ATOM     35  O   UNK d   0      37.777  18.871  65.605  0.00  0.00    -0.650 OA
BRANCH  34  36
ATOM     36  O   UNK d   0      35.639  18.930  64.868  0.00  0.00    -0.776 OA
ATOM     37  H   UNK d   0      35.106  18.382  64.179  0.00  0.00     0.167 HD
ENDBRANCH  34  36
ENDBRANCH  33  34
ENDBRANCH   8  33
BRANCH  31  38
ATOM     38  C   UNK d   0      38.900  10.097  64.948  0.00  0.00     0.151 C 
BRANCH  38  39
ATOM     39  C   UNK d   0      40.320  10.125  64.664  0.00  0.00     0.143 C 
ATOM     40  O   UNK d   0      40.941  11.188  64.488  0.00  0.00    -0.650 OA
BRANCH  39  41
ATOM     41  O   UNK d   0      41.028   8.927  64.585  0.00  0.00    -0.776 OA
ATOM     42  H   UNK d   0      41.913   8.947  64.070  0.00  0.00     0.167 HD
ENDBRANCH  39  41
ENDBRANCH  38  39
ENDBRANCH  31  38
BRANCH  27  43
ATOM     43  C   UNK d   0      37.682   8.276  62.777  0.00  0.00     0.052 C 
BRANCH  43  44
ATOM     44  C   UNK d   0      36.445   7.528  63.157  0.00  0.00     0.115 C 
BRANCH  44  45
ATOM     45  C   UNK d   0      36.628   7.092  64.566  0.00  0.00     0.139 C 
ATOM     46  O   UNK d   0      37.793   6.836  64.959  0.00  0.00    -0.650 OA
BRANCH  45  47
ATOM     47  O   UNK d   0      35.579   6.963  65.450  0.00  0.00    -0.776 OA
ATOM     48  H   UNK d   0      35.560   7.435  66.369  0.00  0.00     0.167 HD
ENDBRANCH  45  47
ENDBRANCH  44  45
ENDBRANCH  43  44
ENDBRANCH  27  43
BRANCH  24  49
ATOM     49  C   UNK d   0      34.134   8.690  58.547  0.00  0.00     0.052 C 
BRANCH  49  50
ATOM     50  C   UNK d   0      35.608   8.472  58.324  0.00  0.00     0.115 C 
BRANCH  50  51
ATOM     51  C   UNK d   0      36.040   7.116  58.013  0.00  0.00     0.139 C 
ATOM     52  O   UNK d   0      35.741   6.130  58.728  0.00  0.00    -0.650 OA
BRANCH  51  53
ATOM     53  O   UNK d   0      36.815   6.883  56.887  0.00  0.00    -0.776 OA
ATOM     54  H   UNK d   0      37.813   6.857  56.994  0.00  0.00     0.167 HD
ENDBRANCH  51  53
ENDBRANCH  50  51
ENDBRANCH  49  50
ENDBRANCH  24  49
BRANCH  21  55
ATOM     55  C   UNK d   0      31.601  10.458  58.609  0.00  0.00     0.151 C 
BRANCH  55  56
ATOM     56  C   UNK d   0      31.362  11.631  57.754  0.00  0.00     0.143 C 
ATOM     57  O   UNK d   0      30.502  12.494  58.017  0.00  0.00    -0.650 OA
BRANCH  56  58
ATOM     58  O   UNK d   0      32.141  11.766  56.606  0.00  0.00    -0.776 OA
ATOM     59  H   UNK d   0      32.922  11.089  56.526  0.00  0.00     0.167 HD
ENDBRANCH  56  58
ENDBRANCH  55  56
ENDBRANCH  21  55
BRANCH  18  60
ATOM     60  C   UNK d   0      31.468  15.557  60.281  0.00  0.00     0.151 C 
BRANCH  60  61
ATOM     61  C   UNK d   0      32.363  15.590  59.114  0.00  0.00     0.143 C 
ATOM     62  O   UNK d   0      33.508  16.043  59.070  0.00  0.00    -0.650 OA
BRANCH  61  63
ATOM     63  O   UNK d   0      31.828  15.034  57.928  0.00  0.00    -0.776 OA
ATOM     64  H   UNK d   0      30.971  14.510  57.942  0.00  0.00     0.167 HD
ENDBRANCH  61  63
ENDBRANCH  60  61
ENDBRANCH  18  60
BRANCH  14  65
ATOM     65  C   UNK d   0      32.558  17.331  62.488  0.00  0.00     0.052 C 
BRANCH  65  66
ATOM     66  C   UNK d   0      33.620  18.164  61.861  0.00  0.00     0.115 C 
BRANCH  66  67
ATOM     67  C   UNK d   0      33.318  18.937  60.689  0.00  0.00     0.139 C 
ATOM     68  O   UNK d   0      34.292  19.351  59.959  0.00  0.00    -0.650 OA
BRANCH  67  69
ATOM     69  O   UNK d   0      32.062  19.316  60.217  0.00  0.00    -0.776 OA
ATOM     70  H   UNK d   0      31.405  19.671  60.926  0.00  0.00     0.167 HD
ENDBRANCH  67  69
ENDBRANCH  66  67
ENDBRANCH  65  66
ENDBRANCH  14  65
ENDBRANCH   6   7
ENDBRANCH   5   6
ENDBRANCH   2   5
TORSDOF 28
ENDMDL
MODEL 7
REMARK VINA RESULT:      -9.7      2.000      8.246
REMARK  28 active torsions:
REMARK  status: ('A' for Active; 'I' for Inactive)
REMARK    1  A    between atoms: C_2  and  O_3 
REMARK    2  A    between atoms: C_2  and  C_4 
REMARK    3  A    between atoms: C_4  and  C_5 
REMARK    4  A    between atoms: C_5  and  C_6 
REMARK    5  A    between atoms: C_7  and  C_8 
REMARK    6  A    between atoms: C_8  and  C_9 
REMARK    7  A    between atoms: C_9  and  O_11 
REMARK    8  A    between atoms: C_28  and  C_29 
REMARK    9  A    between atoms: C_29  and  C_30 
REMARK   10  A    between atoms: C_30  and  O_32 
REMARK   11  A    between atoms: C_33  and  C_34 
REMARK   12  A    between atoms: C_34  and  C_35 
REMARK   13  A    between atoms: C_35  and  C_36 
REMARK   14  A    between atoms: C_36  and  O_38 
REMARK   15  A    between atoms: C_39  and  C_40 
REMARK   16  A    between atoms: C_40  and  C_41 
REMARK   17  A    between atoms: C_41  and  C_42 
REMARK   18  A    between atoms: C_42  and  O_44 
REMARK   19  A    between atoms: C_45  and  C_46 
REMARK   20  A    between atoms: C_46  and  C_47 
REMARK   21  A    between atoms: C_47  and  O_49 
REMARK   22  A    between atoms: C_50  and  C_51 
REMARK   23  A    between atoms: C_51  and  C_52 
REMARK   24  A    between atoms: C_52  and  O_54 
REMARK   25  A    between atoms: C_55  and  C_56 
REMARK   26  A    between atoms: C_56  and  C_57 
REMARK   27  A    between atoms: C_57  and  C_58 
REMARK   28  A    between atoms: C_58  and  O_60 
ROOT
ATOM      1  O   UNK d   0      32.736  17.666  63.576  0.00  0.00    -0.650 OA
ATOM      2  C   UNK d   0      32.798  18.284  62.490  0.00  0.00     0.139 C 
ENDROOT
BRANCH   2   3
ATOM      3  O   UNK d   0      31.689  18.951  62.031  0.00  0.00    -0.776 OA
ATOM      4  H   UNK d   0      30.775  18.822  62.470  0.00  0.00     0.167 HD
ENDBRANCH   2   3
BRANCH   2   5
ATOM      5  C   UNK d   0      34.066  18.292  61.706  0.00  0.00     0.115 C 
BRANCH   5   6
ATOM      6  C   UNK d   0      33.849  17.645  60.365  0.00  0.00     0.052 C 
BRANCH   6   7
ATOM      7  C   UNK d   0      33.651  16.152  60.466  0.00  0.00    -0.020 A 
ATOM      8  C   UNK d   0      32.685  15.438  59.948  0.00  0.00    -0.011 A 
ATOM      9  C   UNK d   0      32.909  14.050  60.318  0.00  0.00     0.067 A 
ATOM     10  C   UNK d   0      32.274  12.822  60.075  0.00  0.00     0.062 C 
ATOM     11  N   UNK d   0      34.032  14.011  61.066  0.00  0.00    -0.248 NA
ATOM     12  C   UNK d   0      32.797  11.542  60.286  0.00  0.00     0.041 A 
ATOM     13  N   UNK d   0      33.511  11.033  61.309  0.00  0.00    -0.355 N 
ATOM     14  C   UNK d   0      32.642  10.569  59.282  0.00  0.00    -0.022 A 
ATOM     15  C   UNK d   0      33.819   9.766  60.976  0.00  0.00     0.042 A 
ATOM     16  H   UNK d   0      33.775  11.554  62.256  0.00  0.00     0.166 HD
ATOM     17  C   UNK d   0      34.547   8.787  61.682  0.00  0.00     0.062 C 
ATOM     18  C   UNK d   0      33.292   9.439  59.711  0.00  0.00    -0.013 A 
ATOM     19  C   UNK d   0      35.732   8.916  62.360  0.00  0.00     0.067 A 
ATOM     20  N   UNK d   0      36.180  10.157  62.564  0.00  0.00    -0.248 NA
ATOM     21  C   UNK d   0      36.704   8.008  62.946  0.00  0.00    -0.011 A 
ATOM     22  C   UNK d   0      37.376  10.127  63.239  0.00  0.00     0.066 A 
ATOM     23  C   UNK d   0      37.938  11.356  63.551  0.00  0.00     0.062 C 
ATOM     24  C   UNK d   0      37.666   8.723  63.455  0.00  0.00    -0.020 A 
ATOM     25  C   UNK d   0      37.391  12.631  63.341  0.00  0.00     0.041 A 
ATOM     26  N   UNK d   0      36.694  13.141  62.318  0.00  0.00    -0.355 N 
ATOM     27  C   UNK d   0      37.543  13.605  64.352  0.00  0.00    -0.022 A 
ATOM     28  C   UNK d   0      36.393  14.408  62.644  0.00  0.00     0.042 A 
ATOM     29  H   UNK d   0      36.439  12.620  61.363  0.00  0.00     0.166 HD
ATOM     30  C   UNK d   0      35.678  15.395  61.948  0.00  0.00     0.062 C 
ATOM     31  C   UNK d   0      36.914  14.732  63.919  0.00  0.00    -0.013 A 
ATOM     32  C   UNK d   0      34.527  15.243  61.192  0.00  0.00     0.066 A 
BRANCH   8  33
ATOM     33  C   UNK d   0      31.557  15.931  59.137  0.00  0.00     0.151 C 
BRANCH  33  34
ATOM     34  C   UNK d   0      30.706  16.889  59.866  0.00  0.00     0.143 C 
ATOM     35  O   UNK d   0      30.222  16.599  60.969  0.00  0.00    -0.650 OA
BRANCH  34  36
ATOM     36  O   UNK d   0      30.445  18.120  59.310  0.00  0.00    -0.776 OA
ATOM     37  H   UNK d   0      30.223  18.935  59.897  0.00  0.00     0.167 HD
ENDBRANCH  34  36
ENDBRANCH  33  34
ENDBRANCH   8  33
BRANCH  31  38
ATOM     38  C   UNK d   0      36.802  16.036  64.675  0.00  0.00     0.151 C 
BRANCH  38  39
ATOM     39  C   UNK d   0      35.773  16.009  65.692  0.00  0.00     0.143 C 
ATOM     40  O   UNK d   0      36.038  15.982  66.907  0.00  0.00    -0.650 OA
BRANCH  39  41
ATOM     41  O   UNK d   0      34.431  16.013  65.311  0.00  0.00    -0.776 OA
ATOM     42  H   UNK d   0      33.783  15.480  65.900  0.00  0.00     0.167 HD
ENDBRANCH  39  41
ENDBRANCH  38  39
ENDBRANCH  31  38
BRANCH  27  43
ATOM     43  C   UNK d   0      38.250  13.506  65.680  0.00  0.00     0.052 C 
BRANCH  43  44
ATOM     44  C   UNK d   0      39.521  14.290  65.734  0.00  0.00     0.115 C 
BRANCH  44  45
ATOM     45  C   UNK d   0      40.581  13.420  65.159  0.00  0.00     0.139 C 
ATOM     46  O   UNK d   0      41.273  12.731  65.949  0.00  0.00    -0.650 OA
BRANCH  45  47
ATOM     47  O   UNK d   0      40.827  13.337  63.806  0.00  0.00    -0.776 OA
ATOM     48  H   UNK d   0      41.781  13.302  63.411  0.00  0.00     0.167 HD
ENDBRANCH  45  47
ENDBRANCH  44  45
ENDBRANCH  43  44
ENDBRANCH  27  43
BRANCH  24  49
ATOM     49  C   UNK d   0      38.840   8.209  64.180  0.00  0.00     0.052 C 
BRANCH  49  50
ATOM     50  C   UNK d   0      39.007   8.935  65.490  0.00  0.00     0.115 C 
BRANCH  50  51
ATOM     51  C   UNK d   0      40.327   9.474  65.788  0.00  0.00     0.139 C 
ATOM     52  O   UNK d   0      40.781   9.545  66.955  0.00  0.00    -0.650 OA
BRANCH  51  53
ATOM     53  O   UNK d   0      41.130   9.934  64.756  0.00  0.00    -0.776 OA
ATOM     54  H   UNK d   0      41.248   9.348  63.948  0.00  0.00     0.167 HD
ENDBRANCH  51  53
ENDBRANCH  50  51
ENDBRANCH  49  50
ENDBRANCH  24  49
BRANCH  21  55
ATOM     55  C   UNK d   0      36.569   6.522  62.940  0.00  0.00     0.151 C 
BRANCH  55  56
ATOM     56  C   UNK d   0      36.682   5.963  61.584  0.00  0.00     0.143 C 
ATOM     57  O   UNK d   0      36.257   4.830  61.283  0.00  0.00    -0.650 OA
BRANCH  56  58
ATOM     58  O   UNK d   0      37.293   6.748  60.608  0.00  0.00    -0.776 OA
ATOM     59  H   UNK d   0      36.912   7.707  60.518  0.00  0.00     0.167 HD
ENDBRANCH  56  58
ENDBRANCH  55  56
ENDBRANCH  21  55
BRANCH  18  60
ATOM     60  C   UNK d   0      33.385   8.148  58.936  0.00  0.00     0.151 C 
BRANCH  60  61
ATOM     61  C   UNK d   0      34.765   8.079  58.430  0.00  0.00     0.143 C 
ATOM     62  O   UNK d   0      35.527   7.114  58.483  0.00  0.00    -0.650 OA
BRANCH  61  63
ATOM     63  O   UNK d   0      35.243   9.265  57.822  0.00  0.00    -0.776 OA
ATOM     64  H   UNK d   0      35.277   9.357  56.822  0.00  0.00     0.167 HD
ENDBRANCH  61  63
ENDBRANCH  60  61
ENDBRANCH  18  60
BRANCH  14  65
ATOM     65  C   UNK d   0      31.851  10.595  58.005  0.00  0.00     0.052 C 
BRANCH  65  66
ATOM     66  C   UNK d   0      30.390  10.765  58.229  0.00  0.00     0.115 C 
BRANCH  66  67
ATOM     67  C   UNK d   0      29.460   9.929  57.524  0.00  0.00     0.139 C 
ATOM     68  O   UNK d   0      29.785   9.498  56.357  0.00  0.00    -0.650 OA
BRANCH  67  69
ATOM     69  O   UNK d   0      28.202   9.504  57.950  0.00  0.00    -0.776 OA
ATOM     70  H   UNK d   0      27.804  10.016  58.750  0.00  0.00     0.167 HD
ENDBRANCH  67  69
ENDBRANCH  66  67
ENDBRANCH  65  66
ENDBRANCH  14  65
ENDBRANCH   6   7
ENDBRANCH   5   6
ENDBRANCH   2   5
TORSDOF 28
ENDMDL
MODEL 8
REMARK VINA RESULT:      -9.7      1.475      4.845
REMARK  28 active torsions:
REMARK  status: ('A' for Active; 'I' for Inactive)
REMARK    1  A    between atoms: C_2  and  O_3 
REMARK    2  A    between atoms: C_2  and  C_4 
REMARK    3  A    between atoms: C_4  and  C_5 
REMARK    4  A    between atoms: C_5  and  C_6 
REMARK    5  A    between atoms: C_7  and  C_8 
REMARK    6  A    between atoms: C_8  and  C_9 
REMARK    7  A    between atoms: C_9  and  O_11 
REMARK    8  A    between atoms: C_28  and  C_29 
REMARK    9  A    between atoms: C_29  and  C_30 
REMARK   10  A    between atoms: C_30  and  O_32 
REMARK   11  A    between atoms: C_33  and  C_34 
REMARK   12  A    between atoms: C_34  and  C_35 
REMARK   13  A    between atoms: C_35  and  C_36 
REMARK   14  A    between atoms: C_36  and  O_38 
REMARK   15  A    between atoms: C_39  and  C_40 
REMARK   16  A    between atoms: C_40  and  C_41 
REMARK   17  A    between atoms: C_41  and  C_42 
REMARK   18  A    between atoms: C_42  and  O_44 
REMARK   19  A    between atoms: C_45  and  C_46 
REMARK   20  A    between atoms: C_46  and  C_47 
REMARK   21  A    between atoms: C_47  and  O_49 
REMARK   22  A    between atoms: C_50  and  C_51 
REMARK   23  A    between atoms: C_51  and  C_52 
REMARK   24  A    between atoms: C_52  and  O_54 
REMARK   25  A    between atoms: C_55  and  C_56 
REMARK   26  A    between atoms: C_56  and  C_57 
REMARK   27  A    between atoms: C_57  and  C_58 
REMARK   28  A    between atoms: C_58  and  O_60 
ROOT
ATOM      1  O   UNK d   0      37.501  16.440  66.730  0.00  0.00    -0.650 OA
ATOM      2  C   UNK d   0      37.058  15.615  65.901  0.00  0.00     0.139 C 
ENDROOT
BRANCH   2   3
ATOM      3  O   UNK d   0      37.810  14.510  65.583  0.00  0.00    -0.776 OA
ATOM      4  H   UNK d   0      38.390  14.046  66.285  0.00  0.00     0.167 HD
ENDBRANCH   2   3
BRANCH   2   5
ATOM      5  C   UNK d   0      35.727  15.833  65.267  0.00  0.00     0.115 C 
BRANCH   5   6
ATOM      6  C   UNK d   0      35.889  16.054  63.787  0.00  0.00     0.052 C 
BRANCH   6   7
ATOM      7  C   UNK d   0      35.041  15.116  62.963  0.00  0.00    -0.020 A 
ATOM      8  C   UNK d   0      33.839  15.330  62.493  0.00  0.00    -0.011 A 
ATOM      9  C   UNK d   0      33.424  14.139  61.770  0.00  0.00     0.067 A 
ATOM     10  C   UNK d   0      32.295  13.741  61.038  0.00  0.00     0.062 C 
ATOM     11  N   UNK d   0      34.433  13.247  61.856  0.00  0.00    -0.248 NA
ATOM     12  C   UNK d   0      32.189  12.648  60.171  0.00  0.00     0.041 A 
ATOM     13  N   UNK d   0      32.631  11.381  60.285  0.00  0.00    -0.355 N 
ATOM     14  C   UNK d   0      31.577  12.829  58.918  0.00  0.00    -0.022 A 
ATOM     15  C   UNK d   0      32.321  10.756  59.134  0.00  0.00     0.042 A 
ATOM     16  H   UNK d   0      33.134  10.931  61.170  0.00  0.00     0.166 HD
ATOM     17  C   UNK d   0      32.552   9.427  58.725  0.00  0.00     0.062 C 
ATOM     18  C   UNK d   0      31.660  11.632  58.251  0.00  0.00    -0.013 A 
ATOM     19  C   UNK d   0      33.689   8.671  58.850  0.00  0.00     0.067 A 
ATOM     20  N   UNK d   0      34.657   9.160  59.630  0.00  0.00    -0.248 NA
ATOM     21  C   UNK d   0      34.166   7.405  58.319  0.00  0.00    -0.011 A 
ATOM     22  C   UNK d   0      35.733   8.306  59.646  0.00  0.00     0.066 A 
ATOM     23  C   UNK d   0      36.800   8.674  60.451  0.00  0.00     0.062 C 
ATOM     24  C   UNK d   0      35.364   7.199  58.786  0.00  0.00    -0.020 A 
ATOM     25  C   UNK d   0      36.881   9.770  61.324  0.00  0.00     0.041 A 
ATOM     26  N   UNK d   0      36.456  11.034  61.205  0.00  0.00    -0.355 N 
ATOM     27  C   UNK d   0      37.492   9.586  62.584  0.00  0.00    -0.022 A 
ATOM     28  C   UNK d   0      36.771  11.662  62.349  0.00  0.00     0.042 A 
ATOM     29  H   UNK d   0      35.960  11.486  60.311  0.00  0.00     0.166 HD
ATOM     30  C   UNK d   0      36.556  12.985  62.765  0.00  0.00     0.062 C 
ATOM     31  C   UNK d   0      37.426  10.778  63.239  0.00  0.00    -0.013 A 
ATOM     32  C   UNK d   0      35.436  13.774  62.561  0.00  0.00     0.066 A 
BRANCH   8  33
ATOM     33  C   UNK d   0      33.029  16.552  62.658  0.00  0.00     0.151 C 
BRANCH  33  34
ATOM     34  C   UNK d   0      31.871  16.352  63.549  0.00  0.00     0.143 C 
ATOM     35  O   UNK d   0      32.027  16.177  64.766  0.00  0.00    -0.650 OA
BRANCH  34  36
ATOM     36  O   UNK d   0      30.602  16.359  63.018  0.00  0.00    -0.776 OA
ATOM     37  H   UNK d   0      29.837  16.877  63.470  0.00  0.00     0.167 HD
ENDBRANCH  34  36
ENDBRANCH  33  34
ENDBRANCH   8  33
BRANCH  31  38
ATOM     38  C   UNK d   0      37.941  11.059  64.631  0.00  0.00     0.151 C 
BRANCH  38  39
ATOM     39  C   UNK d   0      39.347  11.404  64.651  0.00  0.00     0.143 C 
ATOM     40  O   UNK d   0      40.220  10.618  65.059  0.00  0.00    -0.650 OA
BRANCH  39  41
ATOM     41  O   UNK d   0      39.752  12.660  64.198  0.00  0.00    -0.776 OA
ATOM     42  H   UNK d   0      40.165  12.701  63.261  0.00  0.00     0.167 HD
ENDBRANCH  39  41
ENDBRANCH  38  39
ENDBRANCH  31  38
BRANCH  27  43
ATOM     43  C   UNK d   0      38.123   8.349  63.171  0.00  0.00     0.052 C 
BRANCH  43  44
ATOM     44  C   UNK d   0      37.169   7.523  63.972  0.00  0.00     0.115 C 
BRANCH  44  45
ATOM     45  C   UNK d   0      37.785   7.343  65.313  0.00  0.00     0.139 C 
ATOM     46  O   UNK d   0      37.231   6.553  66.117  0.00  0.00    -0.650 OA
BRANCH  45  47
ATOM     47  O   UNK d   0      38.932   8.000  65.702  0.00  0.00    -0.776 OA
ATOM     48  H   UNK d   0      39.861   7.788  65.303  0.00  0.00     0.167 HD
ENDBRANCH  45  47
ENDBRANCH  44  45
ENDBRANCH  43  44
ENDBRANCH  27  43
BRANCH  24  49
ATOM     49  C   UNK d   0      36.203   6.015  58.532  0.00  0.00     0.052 C 
BRANCH  49  50
ATOM     50  C   UNK d   0      36.694   5.432  59.832  0.00  0.00     0.115 C 
BRANCH  50  51
ATOM     51  C   UNK d   0      35.794   4.531  60.539  0.00  0.00     0.139 C 
ATOM     52  O   UNK d   0      35.914   4.276  61.760  0.00  0.00    -0.650 OA
BRANCH  51  53
ATOM     53  O   UNK d   0      34.758   3.918  59.851  0.00  0.00    -0.776 OA
ATOM     54  H   UNK d   0      34.901   2.983  59.510  0.00  0.00     0.167 HD
ENDBRANCH  51  53
ENDBRANCH  50  51
ENDBRANCH  49  50
ENDBRANCH  24  49
BRANCH  21  55
ATOM     55  C   UNK d   0      33.373   6.531  57.405  0.00  0.00     0.151 C 
BRANCH  55  56
ATOM     56  C   UNK d   0      33.317   7.070  56.038  0.00  0.00     0.143 C 
ATOM     57  O   UNK d   0      32.244   7.324  55.455  0.00  0.00    -0.650 OA
BRANCH  56  58
ATOM     58  O   UNK d   0      34.525   7.301  55.381  0.00  0.00    -0.776 OA
ATOM     59  H   UNK d   0      35.192   7.905  55.895  0.00  0.00     0.167 HD
ENDBRANCH  56  58
ENDBRANCH  55  56
ENDBRANCH  21  55
BRANCH  18  60
ATOM     60  C   UNK d   0      31.133  11.379  56.861  0.00  0.00     0.151 C 
BRANCH  60  61
ATOM     61  C   UNK d   0      30.014  10.438  57.018  0.00  0.00     0.143 C 
ATOM     62  O   UNK d   0      29.108  10.494  57.851  0.00  0.00    -0.650 OA
BRANCH  61  63
ATOM     63  O   UNK d   0      29.998   9.360  56.100  0.00  0.00    -0.776 OA
ATOM     64  H   UNK d   0      29.150   8.859  55.903  0.00  0.00     0.167 HD
ENDBRANCH  61  63
ENDBRANCH  60  61
ENDBRANCH  18  60
BRANCH  14  65
ATOM     65  C   UNK d   0      30.840  14.007  58.348  0.00  0.00     0.052 C 
BRANCH  65  66
ATOM     66  C   UNK d   0      31.673  15.238  58.281  0.00  0.00     0.115 C 
BRANCH  66  67
ATOM     67  C   UNK d   0      31.168  16.470  58.818  0.00  0.00     0.139 C 
ATOM     68  O   UNK d   0      31.353  17.552  58.150  0.00  0.00    -0.650 OA
BRANCH  67  69
ATOM     69  O   UNK d   0      30.478  16.659  60.015  0.00  0.00    -0.776 OA
ATOM     70  H   UNK d   0      30.914  16.249  60.854  0.00  0.00     0.167 HD
ENDBRANCH  67  69
ENDBRANCH  66  67
ENDBRANCH  65  66
ENDBRANCH  14  65
ENDBRANCH   6   7
ENDBRANCH   5   6
ENDBRANCH   2   5
TORSDOF 28
ENDMDL
MODEL 9
REMARK VINA RESULT:      -9.7      1.900     10.091
REMARK  28 active torsions:
REMARK  status: ('A' for Active; 'I' for Inactive)
REMARK    1  A    between atoms: C_2  and  O_3 
REMARK    2  A    between atoms: C_2  and  C_4 
REMARK    3  A    between atoms: C_4  and  C_5 
REMARK    4  A    between atoms: C_5  and  C_6 
REMARK    5  A    between atoms: C_7  and  C_8 
REMARK    6  A    between atoms: C_8  and  C_9 
REMARK    7  A    between atoms: C_9  and  O_11 
REMARK    8  A    between atoms: C_28  and  C_29 
REMARK    9  A    between atoms: C_29  and  C_30 
REMARK   10  A    between atoms: C_30  and  O_32 
REMARK   11  A    between atoms: C_33  and  C_34 
REMARK   12  A    between atoms: C_34  and  C_35 
REMARK   13  A    between atoms: C_35  and  C_36 
REMARK   14  A    between atoms: C_36  and  O_38 
REMARK   15  A    between atoms: C_39  and  C_40 
REMARK   16  A    between atoms: C_40  and  C_41 
REMARK   17  A    between atoms: C_41  and  C_42 
REMARK   18  A    between atoms: C_42  and  O_44 
REMARK   19  A    between atoms: C_45  and  C_46 
REMARK   20  A    between atoms: C_46  and  C_47 
REMARK   21  A    between atoms: C_47  and  O_49 
REMARK   22  A    between atoms: C_50  and  C_51 
REMARK   23  A    between atoms: C_51  and  C_52 
REMARK   24  A    between atoms: C_52  and  O_54 
REMARK   25  A    between atoms: C_55  and  C_56 
REMARK   26  A    between atoms: C_56  and  C_57 
REMARK   27  A    between atoms: C_57  and  C_58 
REMARK   28  A    between atoms: C_58  and  O_60 
ROOT
ATOM      1  O   UNK d   0      33.470  19.715  58.112  0.00  0.00    -0.650 OA
ATOM      2  C   UNK d   0      32.570  18.956  58.535  0.00  0.00     0.139 C 
ENDROOT
BRANCH   2   3
ATOM      3  O   UNK d   0      31.919  19.268  59.704  0.00  0.00    -0.776 OA
ATOM      4  H   UNK d   0      32.376  19.824  60.430  0.00  0.00     0.167 HD
ENDBRANCH   2   3
BRANCH   2   5
ATOM      5  C   UNK d   0      32.210  17.726  57.774  0.00  0.00     0.115 C 
BRANCH   5   6
ATOM      6  C   UNK d   0      31.122  16.973  58.491  0.00  0.00     0.052 C 
BRANCH   6   7
ATOM      7  C   UNK d   0      31.602  15.659  59.058  0.00  0.00    -0.020 A 
ATOM      8  C   UNK d   0      31.271  14.454  58.670  0.00  0.00    -0.011 A 
ATOM      9  C   UNK d   0      31.976  13.505  59.516  0.00  0.00     0.067 A 
ATOM     10  C   UNK d   0      32.073  12.107  59.608  0.00  0.00     0.062 C 
ATOM     11  N   UNK d   0      32.708  14.219  60.396  0.00  0.00    -0.248 NA
ATOM     12  C   UNK d   0      33.027  11.369  60.316  0.00  0.00     0.041 A 
ATOM     13  N   UNK d   0      33.546  11.541  61.546  0.00  0.00    -0.355 N 
ATOM     14  C   UNK d   0      33.641  10.270  59.688  0.00  0.00    -0.022 A 
ATOM     15  C   UNK d   0      34.480  10.585  61.712  0.00  0.00     0.042 A 
ATOM     16  H   UNK d   0      33.245  12.311  62.291  0.00  0.00     0.166 HD
ATOM     17  C   UNK d   0      35.319  10.308  62.809  0.00  0.00     0.062 C 
ATOM     18  C   UNK d   0      34.568   9.769  60.567  0.00  0.00    -0.013 A 
ATOM     19  C   UNK d   0      36.049  11.179  63.577  0.00  0.00     0.067 A 
ATOM     20  N   UNK d   0      35.802  12.481  63.416  0.00  0.00    -0.248 NA
ATOM     21  C   UNK d   0      37.099  11.063  64.576  0.00  0.00    -0.011 A 
ATOM     22  C   UNK d   0      36.614  13.226  64.236  0.00  0.00     0.066 A 
ATOM     23  C   UNK d   0      36.435  14.601  64.197  0.00  0.00     0.062 C 
ATOM     24  C   UNK d   0      37.428  12.265  64.954  0.00  0.00    -0.020 A 
ATOM     25  C   UNK d   0      35.462  15.322  63.488  0.00  0.00     0.041 A 
ATOM     26  N   UNK d   0      34.957  15.160  62.260  0.00  0.00    -0.355 N 
ATOM     27  C   UNK d   0      34.843  16.422  64.121  0.00  0.00    -0.022 A 
ATOM     28  C   UNK d   0      34.032  16.118  62.089  0.00  0.00     0.042 A 
ATOM     29  H   UNK d   0      35.268  14.393  61.509  0.00  0.00     0.166 HD
ATOM     30  C   UNK d   0      33.196  16.410  61.000  0.00  0.00     0.062 C 
ATOM     31  C   UNK d   0      33.936  16.931  63.243  0.00  0.00    -0.013 A 
ATOM     32  C   UNK d   0      32.528  15.522  60.173  0.00  0.00     0.066 A 
BRANCH   8  33
ATOM     33  C   UNK d   0      30.347  14.098  57.577  0.00  0.00     0.151 C 
BRANCH  33  34
ATOM     34  C   UNK d   0      30.519  12.709  57.114  0.00  0.00     0.143 C 
ATOM     35  O   UNK d   0      29.683  11.837  57.393  0.00  0.00    -0.650 OA
BRANCH  34  36
ATOM     36  O   UNK d   0      31.623  12.379  56.363  0.00  0.00    -0.776 OA
ATOM     37  H   UNK d   0      31.904  11.398  56.229  0.00  0.00     0.167 HD
ENDBRANCH  34  36
ENDBRANCH  33  34
ENDBRANCH   8  33
BRANCH  31  38
ATOM     38  C   UNK d   0      33.023  18.110  63.488  0.00  0.00     0.151 C 
BRANCH  38  39
ATOM     39  C   UNK d   0      31.621  17.752  63.450  0.00  0.00     0.143 C 
ATOM     40  O   UNK d   0      31.093  17.040  64.322  0.00  0.00    -0.650 OA
BRANCH  39  41
ATOM     41  O   UNK d   0      30.823  18.215  62.405  0.00  0.00    -0.776 OA
ATOM     42  H   UNK d   0      31.046  19.142  62.029  0.00  0.00     0.167 HD
ENDBRANCH  39  41
ENDBRANCH  38  39
ENDBRANCH  31  38
BRANCH  27  43
ATOM     43  C   UNK d   0      35.079  16.993  65.497  0.00  0.00     0.052 C 
BRANCH  43  44
ATOM     44  C   UNK d   0      36.041  18.137  65.505  0.00  0.00     0.115 C 
BRANCH  44  45
ATOM     45  C   UNK d   0      37.328  17.605  66.022  0.00  0.00     0.139 C 
ATOM     46  O   UNK d   0      37.288  16.730  66.923  0.00  0.00    -0.650 OA
BRANCH  45  47
ATOM     47  O   UNK d   0      38.554  18.026  65.553  0.00  0.00    -0.776 OA
ATOM     48  H   UNK d   0      39.223  18.558  66.133  0.00  0.00     0.167 HD
ENDBRANCH  45  47
ENDBRANCH  44  45
ENDBRANCH  43  44
ENDBRANCH  27  43
BRANCH  24  49
ATOM     49  C   UNK d   0      38.426  12.609  65.982  0.00  0.00     0.052 C 
BRANCH  49  50
ATOM     50  C   UNK d   0      39.654  13.204  65.341  0.00  0.00     0.115 C 
BRANCH  50  51
ATOM     51  C   UNK d   0      39.941  14.603  65.626  0.00  0.00     0.139 C 
ATOM     52  O   UNK d   0      40.242  15.012  66.773  0.00  0.00    -0.650 OA
BRANCH  51  53
ATOM     53  O   UNK d   0      39.883  15.538  64.604  0.00  0.00    -0.776 OA
ATOM     54  H   UNK d   0      39.192  15.413  63.885  0.00  0.00     0.167 HD
ENDBRANCH  51  53
ENDBRANCH  50  51
ENDBRANCH  49  50
ENDBRANCH  24  49
BRANCH  21  55
ATOM     55  C   UNK d   0      37.660   9.764  65.052  0.00  0.00     0.151 C 
BRANCH  55  56
ATOM     56  C   UNK d   0      38.742   9.279  64.181  0.00  0.00     0.143 C 
ATOM     57  O   UNK d   0      39.948   9.447  64.447  0.00  0.00    -0.650 OA
BRANCH  56  58
ATOM     58  O   UNK d   0      38.384   8.606  63.014  0.00  0.00    -0.776 OA
ATOM     59  H   UNK d   0      38.695   7.620  62.967  0.00  0.00     0.167 HD
ENDBRANCH  56  58
ENDBRANCH  55  56
ENDBRANCH  21  55
BRANCH  18  60
ATOM     60  C   UNK d   0      35.465   8.587  60.297  0.00  0.00     0.151 C 
BRANCH  60  61
ATOM     61  C   UNK d   0      36.691   9.138  59.701  0.00  0.00     0.143 C 
ATOM     62  O   UNK d   0      37.619   9.693  60.291  0.00  0.00    -0.650 OA
BRANCH  61  63
ATOM     63  O   UNK d   0      36.792   9.004  58.295  0.00  0.00    -0.776 OA
ATOM     64  H   UNK d   0      36.285   9.614  57.678  0.00  0.00     0.167 HD
ENDBRANCH  61  63
ENDBRANCH  60  61
ENDBRANCH  18  60
BRANCH  14  65
ATOM     65  C   UNK d   0      33.352   9.606  58.372  0.00  0.00     0.052 C 
BRANCH  65  66
ATOM     66  C   UNK d   0      32.714   8.270  58.522  0.00  0.00     0.115 C 
BRANCH  66  67
ATOM     67  C   UNK d   0      33.252   7.141  57.818  0.00  0.00     0.139 C 
ATOM     68  O   UNK d   0      33.258   7.164  56.533  0.00  0.00    -0.650 OA
BRANCH  67  69
ATOM     69  O   UNK d   0      33.791   5.974  58.361  0.00  0.00    -0.776 OA
ATOM     70  H   UNK d   0      34.211   5.319  57.687  0.00  0.00     0.167 HD
ENDBRANCH  67  69
ENDBRANCH  66  67
ENDBRANCH  65  66
ENDBRANCH  14  65
ENDBRANCH   6   7
ENDBRANCH   5   6
ENDBRANCH   2   5
TORSDOF 28
ENDMDL
MODEL 10
REMARK VINA RESULT:      -9.6      1.694      7.448
REMARK  28 active torsions:
REMARK  status: ('A' for Active; 'I' for Inactive)
REMARK    1  A    between atoms: C_2  and  O_3 
REMARK    2  A    between atoms: C_2  and  C_4 
REMARK    3  A    between atoms: C_4  and  C_5 
REMARK    4  A    between atoms: C_5  and  C_6 
REMARK    5  A    between atoms: C_7  and  C_8 
REMARK    6  A    between atoms: C_8  and  C_9 
REMARK    7  A    between atoms: C_9  and  O_11 
REMARK    8  A    between atoms: C_28  and  C_29 
REMARK    9  A    between atoms: C_29  and  C_30 
REMARK   10  A    between atoms: C_30  and  O_32 
REMARK   11  A    between atoms: C_33  and  C_34 
REMARK   12  A    between atoms: C_34  and  C_35 
REMARK   13  A    between atoms: C_35  and  C_36 
REMARK   14  A    between atoms: C_36  and  O_38 
REMARK   15  A    between atoms: C_39  and  C_40 
REMARK   16  A    between atoms: C_40  and  C_41 
REMARK   17  A    between atoms: C_41  and  C_42 
REMARK   18  A    between atoms: C_42  and  O_44 
REMARK   19  A    between atoms: C_45  and  C_46 
REMARK   20  A    between atoms: C_46  and  C_47 
REMARK   21  A    between atoms: C_47  and  O_49 
REMARK   22  A    between atoms: C_50  and  C_51 
REMARK   23  A    between atoms: C_51  and  C_52 
REMARK   24  A    between atoms: C_52  and  O_54 
REMARK   25  A    between atoms: C_55  and  C_56 
REMARK   26  A    between atoms: C_56  and  C_57 
REMARK   27  A    between atoms: C_57  and  C_58 
REMARK   28  A    between atoms: C_58  and  O_60 
ROOT
ATOM      1  O   UNK d   0      31.130  14.309  57.138  0.00  0.00    -0.650 OA
ATOM      2  C   UNK d   0      30.459  15.332  57.400  0.00  0.00     0.139 C 
ENDROOT
BRANCH   2   3
ATOM      3  O   UNK d   0      29.202  15.468  56.863  0.00  0.00    -0.776 OA
ATOM      4  H   UNK d   0      29.044  15.373  55.858  0.00  0.00     0.167 HD
ENDBRANCH   2   3
BRANCH   2   5
ATOM      5  C   UNK d   0      31.022  16.390  58.287  0.00  0.00     0.115 C 
BRANCH   5   6
ATOM      6  C   UNK d   0      30.891  15.981  59.729  0.00  0.00     0.052 C 
BRANCH   6   7
ATOM      7  C   UNK d   0      32.200  15.519  60.323  0.00  0.00    -0.020 A 
ATOM      8  C   UNK d   0      33.147  16.260  60.839  0.00  0.00    -0.011 A 
ATOM      9  C   UNK d   0      34.216  15.376  61.274  0.00  0.00     0.067 A 
ATOM     10  C   UNK d   0      35.461  15.526  61.905  0.00  0.00     0.062 C 
ATOM     11  N   UNK d   0      33.838  14.115  60.978  0.00  0.00    -0.248 NA
ATOM     12  C   UNK d   0      36.236  14.524  62.499  0.00  0.00     0.041 A 
ATOM     13  N   UNK d   0      36.530  13.274  62.094  0.00  0.00    -0.355 N 
ATOM     14  C   UNK d   0      36.801  14.762  63.765  0.00  0.00    -0.022 A 
ATOM     15  C   UNK d   0      37.259  12.709  63.075  0.00  0.00     0.042 A 
ATOM     16  H   UNK d   0      36.244  12.806  61.126  0.00  0.00     0.166 HD
ATOM     17  C   UNK d   0      37.825  11.422  63.167  0.00  0.00     0.062 C 
ATOM     18  C   UNK d   0      37.450  13.611  64.139  0.00  0.00    -0.013 A 
ATOM     19  C   UNK d   0      37.261  10.209  62.863  0.00  0.00     0.067 A 
ATOM     20  N   UNK d   0      36.097  10.229  62.208  0.00  0.00    -0.248 NA
ATOM     21  C   UNK d   0      37.601   8.813  63.087  0.00  0.00    -0.011 A 
ATOM     22  C   UNK d   0      35.651   8.949  61.988  0.00  0.00     0.066 A 
ATOM     23  C   UNK d   0      34.465   8.823  61.281  0.00  0.00     0.062 C 
ATOM     24  C   UNK d   0      36.653   8.082  62.576  0.00  0.00    -0.020 A 
ATOM     25  C   UNK d   0      33.708   9.841  60.681  0.00  0.00     0.041 A 
ATOM     26  N   UNK d   0      33.404  11.079  61.090  0.00  0.00    -0.355 N 
ATOM     27  C   UNK d   0      33.146   9.604  59.408  0.00  0.00    -0.022 A 
ATOM     28  C   UNK d   0      32.669  11.641  60.117  0.00  0.00     0.042 A 
ATOM     29  H   UNK d   0      33.683  11.544  62.067  0.00  0.00     0.166 HD
ATOM     30  C   UNK d   0      32.093  12.917  60.016  0.00  0.00     0.062 C 
ATOM     31  C   UNK d   0      32.487  10.738  59.043  0.00  0.00    -0.013 A 
ATOM     32  C   UNK d   0      32.634  14.133  60.404  0.00  0.00     0.066 A 
BRANCH   8  33
ATOM     33  C   UNK d   0      33.153  17.729  60.964  0.00  0.00     0.151 C 
BRANCH  33  34
ATOM     34  C   UNK d   0      32.535  18.198  62.217  0.00  0.00     0.143 C 
ATOM     35  O   UNK d   0      33.191  18.254  63.268  0.00  0.00    -0.650 OA
BRANCH  34  36
ATOM     36  O   UNK d   0      31.213  18.577  62.218  0.00  0.00    -0.776 OA
ATOM     37  H   UNK d   0      30.939  19.560  62.353  0.00  0.00     0.167 HD
ENDBRANCH  34  36
ENDBRANCH  33  34
ENDBRANCH   8  33
BRANCH  31  38
ATOM     38  C   UNK d   0      31.740  10.957  57.748  0.00  0.00     0.151 C 
BRANCH  38  39
ATOM     39  C   UNK d   0      30.458  10.286  57.719  0.00  0.00     0.143 C 
ATOM     40  O   UNK d   0      29.660  10.334  58.671  0.00  0.00    -0.650 OA
BRANCH  39  41
ATOM     41  O   UNK d   0      30.092   9.556  56.588  0.00  0.00    -0.776 OA
ATOM     42  H   UNK d   0      30.452   9.888  55.688  0.00  0.00     0.167 HD
ENDBRANCH  39  41
ENDBRANCH  38  39
ENDBRANCH  31  38
BRANCH  27  43
ATOM     43  C   UNK d   0      33.209   8.366  58.548  0.00  0.00     0.052 C 
BRANCH  43  44
ATOM     44  C   UNK d   0      34.487   8.242  57.784  0.00  0.00     0.115 C 
BRANCH  44  45
ATOM     45  C   UNK d   0      34.951   6.841  57.958  0.00  0.00     0.139 C 
ATOM     46  O   UNK d   0      36.142   6.572  57.664  0.00  0.00    -0.650 OA
BRANCH  45  47
ATOM     47  O   UNK d   0      34.134   5.837  58.429  0.00  0.00    -0.776 OA
ATOM     48  H   UNK d   0      33.109   5.845  58.308  0.00  0.00     0.167 HD
ENDBRANCH  45  47
ENDBRANCH  44  45
ENDBRANCH  43  44
ENDBRANCH  27  43
BRANCH  24  49
ATOM     49  C   UNK d   0      36.613   6.610  62.546  0.00  0.00     0.052 C 
BRANCH  49  50
ATOM     50  C   UNK d   0      36.846   6.107  61.144  0.00  0.00     0.115 C 
BRANCH  50  51
ATOM     51  C   UNK d   0      36.359   4.772  60.826  0.00  0.00     0.139 C 
ATOM     52  O   UNK d   0      35.786   4.043  61.670  0.00  0.00    -0.650 OA
BRANCH  51  53
ATOM     53  O   UNK d   0      36.528   4.266  59.547  0.00  0.00    -0.776 OA
ATOM     54  H   UNK d   0      36.483   4.906  58.773  0.00  0.00     0.167 HD
ENDBRANCH  51  53
ENDBRANCH  50  51
ENDBRANCH  49  50
ENDBRANCH  24  49
BRANCH  21  55
ATOM     55  C   UNK d   0      38.840   8.357  63.783  0.00  0.00     0.151 C 
BRANCH  55  56
ATOM     56  C   UNK d   0      38.705   8.420  65.246  0.00  0.00     0.143 C 
ATOM     57  O   UNK d   0      38.302   7.457  65.929  0.00  0.00    -0.650 OA
BRANCH  56  58
ATOM     58  O   UNK d   0      39.047   9.614  65.879  0.00  0.00    -0.776 OA
ATOM     59  H   UNK d   0      39.525  10.306  65.275  0.00  0.00     0.167 HD
ENDBRANCH  56  58
ENDBRANCH  55  56
ENDBRANCH  21  55
BRANCH  18  60
ATOM     60  C   UNK d   0      38.191  13.421  65.439  0.00  0.00     0.151 C 
BRANCH  60  61
ATOM     61  C   UNK d   0      39.618  13.366  65.086  0.00  0.00     0.143 C 
ATOM     62  O   UNK d   0      40.385  12.417  65.245  0.00  0.00    -0.650 OA
BRANCH  61  63
ATOM     63  O   UNK d   0      40.140  14.546  64.502  0.00  0.00    -0.776 OA
ATOM     64  H   UNK d   0      39.539  15.202  64.035  0.00  0.00     0.167 HD
ENDBRANCH  61  63
ENDBRANCH  60  61
ENDBRANCH  18  60
BRANCH  14  65
ATOM     65  C   UNK d   0      36.856  16.012  64.595  0.00  0.00     0.052 C 
BRANCH  65  66
ATOM     66  C   UNK d   0      35.838  16.036  65.680  0.00  0.00     0.115 C 
BRANCH  66  67
ATOM     67  C   UNK d   0      34.584  15.362  65.494  0.00  0.00     0.139 C 
ATOM     68  O   UNK d   0      34.419  14.210  66.040  0.00  0.00    -0.650 OA
BRANCH  67  69
ATOM     69  O   UNK d   0      33.476  15.805  64.772  0.00  0.00    -0.776 OA
ATOM     70  H   UNK d   0      33.639  16.612  64.152  0.00  0.00     0.167 HD
ENDBRANCH  67  69
ENDBRANCH  66  67
ENDBRANCH  65  66
ENDBRANCH  14  65
ENDBRANCH   6   7
ENDBRANCH   5   6
ENDBRANCH   2   5
TORSDOF 28
ENDMDL
MODEL 11
REMARK VINA RESULT:      -9.6      1.618      5.572
REMARK  28 active torsions:
REMARK  status: ('A' for Active; 'I' for Inactive)
REMARK    1  A    between atoms: C_2  and  O_3 
REMARK    2  A    between atoms: C_2  and  C_4 
REMARK    3  A    between atoms: C_4  and  C_5 
REMARK    4  A    between atoms: C_5  and  C_6 
REMARK    5  A    between atoms: C_7  and  C_8 
REMARK    6  A    between atoms: C_8  and  C_9 
REMARK    7  A    between atoms: C_9  and  O_11 
REMARK    8  A    between atoms: C_28  and  C_29 
REMARK    9  A    between atoms: C_29  and  C_30 
REMARK   10  A    between atoms: C_30  and  O_32 
REMARK   11  A    between atoms: C_33  and  C_34 
REMARK   12  A    between atoms: C_34  and  C_35 
REMARK   13  A    between atoms: C_35  and  C_36 
REMARK   14  A    between atoms: C_36  and  O_38 
REMARK   15  A    between atoms: C_39  and  C_40 
REMARK   16  A    between atoms: C_40  and  C_41 
REMARK   17  A    between atoms: C_41  and  C_42 
REMARK   18  A    between atoms: C_42  and  O_44 
REMARK   19  A    between atoms: C_45  and  C_46 
REMARK   20  A    between atoms: C_46  and  C_47 
REMARK   21  A    between atoms: C_47  and  O_49 
REMARK   22  A    between atoms: C_50  and  C_51 
REMARK   23  A    between atoms: C_51  and  C_52 
REMARK   24  A    between atoms: C_52  and  O_54 
REMARK   25  A    between atoms: C_55  and  C_56 
REMARK   26  A    between atoms: C_56  and  C_57 
REMARK   27  A    between atoms: C_57  and  C_58 
REMARK   28  A    between atoms: C_58  and  O_60 
ROOT
ATOM      1  O   UNK d   0      37.365  17.640  65.569  0.00  0.00    -0.650 OA
ATOM      2  C   UNK d   0      36.315  17.170  66.061  0.00  0.00     0.139 C 
ENDROOT
BRANCH   2   3
ATOM      3  O   UNK d   0      36.393  16.371  67.177  0.00  0.00    -0.776 OA
ATOM      4  H   UNK d   0      36.965  16.641  67.980  0.00  0.00     0.167 HD
ENDBRANCH   2   3
BRANCH   2   5
ATOM      5  C   UNK d   0      34.995  17.476  65.440  0.00  0.00     0.115 C 
BRANCH   5   6
ATOM      6  C   UNK d   0      35.147  17.633  63.952  0.00  0.00     0.052 C 
BRANCH   6   7
ATOM      7  C   UNK d   0      34.462  16.532  63.178  0.00  0.00    -0.020 A 
ATOM      8  C   UNK d   0      33.302  16.583  62.576  0.00  0.00    -0.011 A 
ATOM      9  C   UNK d   0      33.055  15.284  61.974  0.00  0.00     0.067 A 
ATOM     10  C   UNK d   0      32.040  14.704  61.197  0.00  0.00     0.062 C 
ATOM     11  N   UNK d   0      34.115  14.500  62.265  0.00  0.00    -0.248 NA
ATOM     12  C   UNK d   0      32.107  13.510  60.469  0.00  0.00     0.041 A 
ATOM     13  N   UNK d   0      32.630  12.309  60.783  0.00  0.00    -0.355 N 
ATOM     14  C   UNK d   0      31.614  13.488  59.152  0.00  0.00    -0.022 A 
ATOM     15  C   UNK d   0      32.488  11.528  59.695  0.00  0.00     0.042 A 
ATOM     16  H   UNK d   0      33.072  12.014  61.759  0.00  0.00     0.166 HD
ATOM     17  C   UNK d   0      32.860  10.186  59.480  0.00  0.00     0.062 C 
ATOM     18  C   UNK d   0      31.856  12.232  58.652  0.00  0.00    -0.013 A 
ATOM     19  C   UNK d   0      34.033   9.553  59.805  0.00  0.00     0.067 A 
ATOM     20  N   UNK d   0      34.876  10.214  60.602  0.00  0.00    -0.248 NA
ATOM     21  C   UNK d   0      34.656   8.280  59.484  0.00  0.00    -0.011 A 
ATOM     22  C   UNK d   0      36.006   9.466  60.825  0.00  0.00     0.066 A 
ATOM     23  C   UNK d   0      36.954  10.020  61.673  0.00  0.00     0.062 C 
ATOM     24  C   UNK d   0      35.812   8.237  60.081  0.00  0.00    -0.020 A 
ATOM     25  C   UNK d   0      36.862  11.214  62.404  0.00  0.00     0.041 A 
ATOM     26  N   UNK d   0      36.356  12.412  62.087  0.00  0.00    -0.355 N 
ATOM     27  C   UNK d   0      37.353  11.235  63.728  0.00  0.00    -0.022 A 
ATOM     28  C   UNK d   0      36.504  13.196  63.167  0.00  0.00     0.042 A 
ATOM     29  H   UNK d   0      35.922  12.710  61.102  0.00  0.00     0.166 HD
ATOM     30  C   UNK d   0      36.148  14.535  63.391  0.00  0.00     0.062 C 
ATOM     31  C   UNK d   0      37.130  12.484  64.218  0.00  0.00    -0.013 A 
ATOM     32  C   UNK d   0      34.997  15.192  62.987  0.00  0.00     0.066 A 
BRANCH   8  33
ATOM     33  C   UNK d   0      32.388  17.739  62.510  0.00  0.00     0.151 C 
BRANCH  33  34
ATOM     34  C   UNK d   0      31.039  17.429  63.015  0.00  0.00     0.143 C 
ATOM     35  O   UNK d   0      30.856  17.132  64.204  0.00  0.00    -0.650 OA
BRANCH  34  36
ATOM     36  O   UNK d   0      29.969  17.470  62.151  0.00  0.00    -0.776 OA
ATOM     37  H   UNK d   0      29.002  17.391  62.493  0.00  0.00     0.167 HD
ENDBRANCH  34  36
ENDBRANCH  33  34
ENDBRANCH   8  33
BRANCH  31  38
ATOM     38  C   UNK d   0      37.477  12.973  65.605  0.00  0.00     0.151 C 
BRANCH  38  39
ATOM     39  C   UNK d   0      38.712  13.727  65.642  0.00  0.00     0.143 C 
ATOM     40  O   UNK d   0      39.808  13.225  65.338  0.00  0.00    -0.650 OA
BRANCH  39  41
ATOM     41  O   UNK d   0      38.686  15.067  66.030  0.00  0.00    -0.776 OA
ATOM     42  H   UNK d   0      38.539  15.256  67.027  0.00  0.00     0.167 HD
ENDBRANCH  39  41
ENDBRANCH  38  39
ENDBRANCH  31  38
BRANCH  27  43
ATOM     43  C   UNK d   0      38.013  10.135  64.522  0.00  0.00     0.052 C 
BRANCH  43  44
ATOM     44  C   UNK d   0      39.504  10.151  64.427  0.00  0.00     0.115 C 
BRANCH  44  45
ATOM     45  C   UNK d   0      40.019   9.807  65.778  0.00  0.00     0.139 C 
ATOM     46  O   UNK d   0      40.610   8.709  65.924  0.00  0.00    -0.650 OA
BRANCH  45  47
ATOM     47  O   UNK d   0      39.880  10.642  66.865  0.00  0.00    -0.776 OA
ATOM     48  H   UNK d   0      39.522  11.608  66.788  0.00  0.00     0.167 HD
ENDBRANCH  45  47
ENDBRANCH  44  45
ENDBRANCH  43  44
ENDBRANCH  27  43
BRANCH  24  49
ATOM     49  C   UNK d   0      36.761   7.110  60.057  0.00  0.00     0.052 C 
BRANCH  49  50
ATOM     50  C   UNK d   0      36.512   6.191  61.226  0.00  0.00     0.115 C 
BRANCH  50  51
ATOM     51  C   UNK d   0      36.231   4.794  60.925  0.00  0.00     0.139 C 
ATOM     52  O   UNK d   0      35.797   3.991  61.784  0.00  0.00    -0.650 OA
BRANCH  51  53
ATOM     53  O   UNK d   0      36.448   4.311  59.643  0.00  0.00    -0.776 OA
ATOM     54  H   UNK d   0      36.472   3.315  59.508  0.00  0.00     0.167 HD
ENDBRANCH  51  53
ENDBRANCH  50  51
ENDBRANCH  49  50
ENDBRANCH  24  49
BRANCH  21  55
ATOM     55  C   UNK d   0      34.030   7.238  58.618  0.00  0.00     0.151 C 
BRANCH  55  56
ATOM     56  C   UNK d   0      33.860   7.701  57.233  0.00  0.00     0.143 C 
ATOM     57  O   UNK d   0      32.759   8.063  56.772  0.00  0.00    -0.650 OA
BRANCH  56  58
ATOM     58  O   UNK d   0      34.988   7.731  56.415  0.00  0.00    -0.776 OA
ATOM     59  H   UNK d   0      35.639   8.516  56.597  0.00  0.00     0.167 HD
ENDBRANCH  56  58
ENDBRANCH  55  56
ENDBRANCH  21  55
BRANCH  18  60
ATOM     60  C   UNK d   0      31.495  11.771  57.262  0.00  0.00     0.151 C 
BRANCH  60  61
ATOM     61  C   UNK d   0      30.249  11.003  57.402  0.00  0.00     0.143 C 
ATOM     62  O   UNK d   0      29.150  11.430  57.757  0.00  0.00    -0.650 OA
BRANCH  61  63
ATOM     63  O   UNK d   0      30.351   9.626  57.090  0.00  0.00    -0.776 OA
ATOM     64  H   UNK d   0      29.546   9.026  57.120  0.00  0.00     0.167 HD
ENDBRANCH  61  63
ENDBRANCH  60  61
ENDBRANCH  18  60
BRANCH  14  65
ATOM     65  C   UNK d   0      30.852  14.521  58.372  0.00  0.00     0.052 C 
BRANCH  65  66
ATOM     66  C   UNK d   0      31.645  15.751  58.107  0.00  0.00     0.115 C 
BRANCH  66  67
ATOM     67  C   UNK d   0      31.019  17.039  58.216  0.00  0.00     0.139 C 
ATOM     68  O   UNK d   0      30.901  17.756  57.155  0.00  0.00    -0.650 OA
BRANCH  67  69
ATOM     69  O   UNK d   0      30.501  17.641  59.362  0.00  0.00    -0.776 OA
ATOM     70  H   UNK d   0      30.004  17.015  60.012  0.00  0.00     0.167 HD
ENDBRANCH  67  69
ENDBRANCH  66  67
ENDBRANCH  65  66
ENDBRANCH  14  65
ENDBRANCH   6   7
ENDBRANCH   5   6
ENDBRANCH   2   5
TORSDOF 28
ENDMDL
MODEL 12
REMARK VINA RESULT:      -9.6      1.740      8.033
REMARK  28 active torsions:
REMARK  status: ('A' for Active; 'I' for Inactive)
REMARK    1  A    between atoms: C_2  and  O_3 
REMARK    2  A    between atoms: C_2  and  C_4 
REMARK    3  A    between atoms: C_4  and  C_5 
REMARK    4  A    between atoms: C_5  and  C_6 
REMARK    5  A    between atoms: C_7  and  C_8 
REMARK    6  A    between atoms: C_8  and  C_9 
REMARK    7  A    between atoms: C_9  and  O_11 
REMARK    8  A    between atoms: C_28  and  C_29 
REMARK    9  A    between atoms: C_29  and  C_30 
REMARK   10  A    between atoms: C_30  and  O_32 
REMARK   11  A    between atoms: C_33  and  C_34 
REMARK   12  A    between atoms: C_34  and  C_35 
REMARK   13  A    between atoms: C_35  and  C_36 
REMARK   14  A    between atoms: C_36  and  O_38 
REMARK   15  A    between atoms: C_39  and  C_40 
REMARK   16  A    between atoms: C_40  and  C_41 
REMARK   17  A    between atoms: C_41  and  C_42 
REMARK   18  A    between atoms: C_42  and  O_44 
REMARK   19  A    between atoms: C_45  and  C_46 
REMARK   20  A    between atoms: C_46  and  C_47 
REMARK   21  A    between atoms: C_47  and  O_49 
REMARK   22  A    between atoms: C_50  and  C_51 
REMARK   23  A    between atoms: C_51  and  C_52 
REMARK   24  A    between atoms: C_52  and  O_54 
REMARK   25  A    between atoms: C_55  and  C_56 
REMARK   26  A    between atoms: C_56  and  C_57 
REMARK   27  A    between atoms: C_57  and  C_58 
REMARK   28  A    between atoms: C_58  and  O_60 
ROOT
ATOM      1  O   UNK d   0      41.161  10.739  65.991  0.00  0.00    -0.650 OA
ATOM      2  C   UNK d   0      40.339   9.797  65.961  0.00  0.00     0.139 C 
ENDROOT
BRANCH   2   3
ATOM      3  O   UNK d   0      39.750   9.379  67.130  0.00  0.00    -0.776 OA
ATOM      4  H   UNK d   0      38.775   9.602  67.339  0.00  0.00     0.167 HD
ENDBRANCH   2   3
BRANCH   2   5
ATOM      5  C   UNK d   0      40.004   9.137  64.667  0.00  0.00     0.115 C 
BRANCH   5   6
ATOM      6  C   UNK d   0      38.614   8.563  64.723  0.00  0.00     0.052 C 
BRANCH   6   7
ATOM      7  C   UNK d   0      37.665   9.245  63.767  0.00  0.00    -0.020 A 
ATOM      8  C   UNK d   0      37.292   8.832  62.583  0.00  0.00    -0.011 A 
ATOM      9  C   UNK d   0      36.378   9.820  62.034  0.00  0.00     0.067 A 
ATOM     10  C   UNK d   0      35.631   9.964  60.855  0.00  0.00     0.062 C 
ATOM     11  N   UNK d   0      36.256  10.804  62.950  0.00  0.00    -0.248 NA
ATOM     12  C   UNK d   0      34.582  10.859  60.621  0.00  0.00     0.041 A 
ATOM     13  N   UNK d   0      34.440  12.161  60.935  0.00  0.00    -0.355 N 
ATOM     14  C   UNK d   0      33.410  10.387  60.002  0.00  0.00    -0.022 A 
ATOM     15  C   UNK d   0      33.206  12.525  60.538  0.00  0.00     0.042 A 
ATOM     16  H   UNK d   0      35.205  12.815  61.409  0.00  0.00     0.166 HD
ATOM     17  C   UNK d   0      32.548  13.768  60.625  0.00  0.00     0.062 C 
ATOM     18  C   UNK d   0      32.530  11.439  59.949  0.00  0.00    -0.013 A 
ATOM     19  C   UNK d   0      32.485  14.638  61.683  0.00  0.00     0.067 A 
ATOM     20  N   UNK d   0      33.302  14.400  62.712  0.00  0.00    -0.248 NA
ATOM     21  C   UNK d   0      31.709  15.821  62.018  0.00  0.00    -0.011 A 
ATOM     22  C   UNK d   0      33.115  15.339  63.696  0.00  0.00     0.066 A 
ATOM     23  C   UNK d   0      33.931  15.232  64.813  0.00  0.00     0.062 C 
ATOM     24  C   UNK d   0      32.079  16.224  63.199  0.00  0.00    -0.020 A 
ATOM     25  C   UNK d   0      34.988  14.334  65.023  0.00  0.00     0.041 A 
ATOM     26  N   UNK d   0      35.123  13.036  64.725  0.00  0.00    -0.355 N 
ATOM     27  C   UNK d   0      36.165  14.809  65.640  0.00  0.00    -0.022 A 
ATOM     28  C   UNK d   0      36.350  12.668  65.127  0.00  0.00     0.042 A 
ATOM     29  H   UNK d   0      34.350  12.378  64.257  0.00  0.00     0.166 HD
ATOM     30  C   UNK d   0      37.013  11.433  65.056  0.00  0.00     0.062 C 
ATOM     31  C   UNK d   0      37.032  13.763  65.709  0.00  0.00    -0.013 A 
ATOM     32  C   UNK d   0      37.005  10.518  64.016  0.00  0.00     0.066 A 
BRANCH   8  33
ATOM     33  C   UNK d   0      37.715   7.593  61.904  0.00  0.00     0.151 C 
BRANCH  33  34
ATOM     34  C   UNK d   0      36.687   6.537  61.951  0.00  0.00     0.143 C 
ATOM     35  O   UNK d   0      36.429   5.947  63.010  0.00  0.00    -0.650 OA
BRANCH  34  36
ATOM     36  O   UNK d   0      36.007   6.204  60.802  0.00  0.00    -0.776 OA
ATOM     37  H   UNK d   0      35.758   6.917  60.103  0.00  0.00     0.167 HD
ENDBRANCH  34  36
ENDBRANCH  33  34
ENDBRANCH   8  33
BRANCH  31  38
ATOM     38  C   UNK d   0      38.431  13.799  66.281  0.00  0.00     0.151 C 
BRANCH  38  39
ATOM     39  C   UNK d   0      39.449  13.951  65.264  0.00  0.00     0.143 C 
ATOM     40  O   UNK d   0      39.194  14.383  64.126  0.00  0.00    -0.650 OA
BRANCH  39  41
ATOM     41  O   UNK d   0      40.768  13.605  65.557  0.00  0.00    -0.776 OA
ATOM     42  H   UNK d   0      41.494  14.271  65.275  0.00  0.00     0.167 HD
ENDBRANCH  39  41
ENDBRANCH  38  39
ENDBRANCH  31  38
BRANCH  27  43
ATOM     43  C   UNK d   0      36.486  16.190  66.156  0.00  0.00     0.052 C 
BRANCH  43  44
ATOM     44  C   UNK d   0      37.256  17.021  65.181  0.00  0.00     0.115 C 
BRANCH  44  45
ATOM     45  C   UNK d   0      38.242  17.801  65.974  0.00  0.00     0.139 C 
ATOM     46  O   UNK d   0      38.274  19.047  65.817  0.00  0.00    -0.650 OA
BRANCH  45  47
ATOM     47  O   UNK d   0      39.110  17.217  66.870  0.00  0.00    -0.776 OA
ATOM     48  H   UNK d   0      39.064  17.388  67.887  0.00  0.00     0.167 HD
ENDBRANCH  45  47
ENDBRANCH  44  45
ENDBRANCH  43  44
ENDBRANCH  27  43
BRANCH  24  49
ATOM     49  C   UNK d   0      31.576  17.412  63.909  0.00  0.00     0.052 C 
BRANCH  49  50
ATOM     50  C   UNK d   0      32.241  18.658  63.382  0.00  0.00     0.115 C 
BRANCH  50  51
ATOM     51  C   UNK d   0      33.677  18.595  63.143  0.00  0.00     0.139 C 
ATOM     52  O   UNK d   0      34.520  18.673  64.067  0.00  0.00    -0.650 OA
BRANCH  51  53
ATOM     53  O   UNK d   0      34.151  18.445  61.849  0.00  0.00    -0.776 OA
ATOM     54  H   UNK d   0      34.987  18.938  61.589  0.00  0.00     0.167 HD
ENDBRANCH  51  53
ENDBRANCH  50  51
ENDBRANCH  49  50
ENDBRANCH  24  49
BRANCH  21  55
ATOM     55  C   UNK d   0      30.681  16.427  61.121  0.00  0.00     0.151 C 
BRANCH  55  56
ATOM     56  C   UNK d   0      31.258  16.874  59.844  0.00  0.00     0.143 C 
ATOM     57  O   UNK d   0      32.152  17.740  59.773  0.00  0.00    -0.650 OA
BRANCH  56  58
ATOM     58  O   UNK d   0      30.773  16.293  58.673  0.00  0.00    -0.776 OA
ATOM     59  H   UNK d   0      30.305  15.377  58.802  0.00  0.00     0.167 HD
ENDBRANCH  56  58
ENDBRANCH  55  56
ENDBRANCH  21  55
BRANCH  18  60
ATOM     60  C   UNK d   0      31.139  11.374  59.369  0.00  0.00     0.151 C 
BRANCH  60  61
ATOM     61  C   UNK d   0      31.181  12.163  58.128  0.00  0.00     0.143 C 
ATOM     62  O   UNK d   0      30.675  13.269  57.934  0.00  0.00    -0.650 OA
BRANCH  61  63
ATOM     63  O   UNK d   0      31.887  11.564  57.057  0.00  0.00    -0.776 OA
ATOM     64  H   UNK d   0      31.617  11.725  56.103  0.00  0.00     0.167 HD
ENDBRANCH  61  63
ENDBRANCH  60  61
ENDBRANCH  18  60
BRANCH  14  65
ATOM     65  C   UNK d   0      33.099   9.058  59.375  0.00  0.00     0.052 C 
BRANCH  65  66
ATOM     66  C   UNK d   0      33.621   8.933  57.987  0.00  0.00     0.115 C 
BRANCH  66  67
ATOM     67  C   UNK d   0      34.352   7.758  57.605  0.00  0.00     0.139 C 
ATOM     68  O   UNK d   0      34.539   6.838  58.484  0.00  0.00    -0.650 OA
BRANCH  67  69
ATOM     69  O   UNK d   0      34.909   7.467  56.360  0.00  0.00    -0.776 OA
ATOM     70  H   UNK d   0      35.880   7.781  56.220  0.00  0.00     0.167 HD
ENDBRANCH  67  69
ENDBRANCH  66  67
ENDBRANCH  65  66
ENDBRANCH  14  65
ENDBRANCH   6   7
ENDBRANCH   5   6
ENDBRANCH   2   5
TORSDOF 28
ENDMDL
MODEL 13
REMARK VINA RESULT:      -9.6      2.034      8.090
REMARK  28 active torsions:
REMARK  status: ('A' for Active; 'I' for Inactive)
REMARK    1  A    between atoms: C_2  and  O_3 
REMARK    2  A    between atoms: C_2  and  C_4 
REMARK    3  A    between atoms: C_4  and  C_5 
REMARK    4  A    between atoms: C_5  and  C_6 
REMARK    5  A    between atoms: C_7  and  C_8 
REMARK    6  A    between atoms: C_8  and  C_9 
REMARK    7  A    between atoms: C_9  and  O_11 
REMARK    8  A    between atoms: C_28  and  C_29 
REMARK    9  A    between atoms: C_29  and  C_30 
REMARK   10  A    between atoms: C_30  and  O_32 
REMARK   11  A    between atoms: C_33  and  C_34 
REMARK   12  A    between atoms: C_34  and  C_35 
REMARK   13  A    between atoms: C_35  and  C_36 
REMARK   14  A    between atoms: C_36  and  O_38 
REMARK   15  A    between atoms: C_39  and  C_40 
REMARK   16  A    between atoms: C_40  and  C_41 
REMARK   17  A    between atoms: C_41  and  C_42 
REMARK   18  A    between atoms: C_42  and  O_44 
REMARK   19  A    between atoms: C_45  and  C_46 
REMARK   20  A    between atoms: C_46  and  C_47 
REMARK   21  A    between atoms: C_47  and  O_49 
REMARK   22  A    between atoms: C_50  and  C_51 
REMARK   23  A    between atoms: C_51  and  C_52 
REMARK   24  A    between atoms: C_52  and  O_54 
REMARK   25  A    between atoms: C_55  and  C_56 
REMARK   26  A    between atoms: C_56  and  C_57 
REMARK   27  A    between atoms: C_57  and  C_58 
REMARK   28  A    between atoms: C_58  and  O_60 
ROOT
ATOM      1  O   UNK d   0      31.306  11.834  56.843  0.00  0.00    -0.650 OA
ATOM      2  C   UNK d   0      31.506  10.758  57.450  0.00  0.00     0.139 C 
ENDROOT
BRANCH   2   3
ATOM      3  O   UNK d   0      31.170   9.571  56.845  0.00  0.00    -0.776 OA
ATOM      4  H   UNK d   0      31.460   8.676  57.243  0.00  0.00     0.167 HD
ENDBRANCH   2   3
BRANCH   2   5
ATOM      5  C   UNK d   0      32.102  10.769  58.816  0.00  0.00     0.115 C 
BRANCH   5   6
ATOM      6  C   UNK d   0      31.391  11.772  59.683  0.00  0.00     0.052 C 
BRANCH   6   7
ATOM      7  C   UNK d   0      32.344  12.694  60.407  0.00  0.00    -0.020 A 
ATOM      8  C   UNK d   0      32.332  14.002  60.421  0.00  0.00    -0.011 A 
ATOM      9  C   UNK d   0      33.445  14.448  61.243  0.00  0.00     0.067 A 
ATOM     10  C   UNK d   0      33.959  15.683  61.668  0.00  0.00     0.062 C 
ATOM     11  N   UNK d   0      34.084  13.344  61.684  0.00  0.00    -0.248 NA
ATOM     12  C   UNK d   0      34.883  15.909  62.694  0.00  0.00     0.041 A 
ATOM     13  N   UNK d   0      36.016  15.260  63.024  0.00  0.00    -0.355 N 
ATOM     14  C   UNK d   0      34.635  16.939  63.619  0.00  0.00    -0.022 A 
ATOM     15  C   UNK d   0      36.489  15.848  64.140  0.00  0.00     0.042 A 
ATOM     16  H   UNK d   0      36.483  14.417  62.469  0.00  0.00     0.166 HD
ATOM     17  C   UNK d   0      37.640  15.566  64.903  0.00  0.00     0.062 C 
ATOM     18  C   UNK d   0      35.650  16.904  64.543  0.00  0.00    -0.013 A 
ATOM     19  C   UNK d   0      38.126  14.352  65.315  0.00  0.00     0.067 A 
ATOM     20  N   UNK d   0      37.570  13.264  64.776  0.00  0.00    -0.248 NA
ATOM     21  C   UNK d   0      39.140  13.895  66.251  0.00  0.00    -0.011 A 
ATOM     22  C   UNK d   0      38.146  12.129  65.293  0.00  0.00     0.066 A 
ATOM     23  C   UNK d   0      37.686  10.921  64.789  0.00  0.00     0.062 C 
ATOM     24  C   UNK d   0      39.143  12.593  66.236  0.00  0.00    -0.020 A 
ATOM     25  C   UNK d   0      36.766  10.716  63.749  0.00  0.00     0.041 A 
ATOM     26  N   UNK d   0      35.632  11.351  63.429  0.00  0.00    -0.355 N 
ATOM     27  C   UNK d   0      37.018   9.685  62.819  0.00  0.00    -0.022 A 
ATOM     28  C   UNK d   0      35.154  10.761  62.322  0.00  0.00     0.042 A 
ATOM     29  H   UNK d   0      35.159  12.191  63.994  0.00  0.00     0.166 HD
ATOM     30  C   UNK d   0      34.006  11.025  61.558  0.00  0.00     0.062 C 
ATOM     31  C   UNK d   0      36.004   9.706  61.912  0.00  0.00    -0.013 A 
ATOM     32  C   UNK d   0      33.471  12.256  61.216  0.00  0.00     0.066 A 
BRANCH   8  33
ATOM     33  C   UNK d   0      31.375  14.887  59.731  0.00  0.00     0.151 C 
BRANCH  33  34
ATOM     34  C   UNK d   0      31.821  15.264  58.377  0.00  0.00     0.143 C 
ATOM     35  O   UNK d   0      32.538  16.259  58.197  0.00  0.00    -0.650 OA
BRANCH  34  36
ATOM     36  O   UNK d   0      31.433  14.500  57.301  0.00  0.00    -0.776 OA
ATOM     37  H   UNK d   0      30.439  14.317  57.106  0.00  0.00     0.167 HD
ENDBRANCH  34  36
ENDBRANCH  33  34
ENDBRANCH   8  33
BRANCH  31  38
ATOM     38  C   UNK d   0      35.854   8.791  60.719  0.00  0.00     0.151 C 
BRANCH  38  39
ATOM     39  C   UNK d   0      36.496   9.310  59.529  0.00  0.00     0.143 C 
ATOM     40  O   UNK d   0      37.649   9.775  59.545  0.00  0.00    -0.650 OA
BRANCH  39  41
ATOM     41  O   UNK d   0      35.809   9.292  58.316  0.00  0.00    -0.776 OA
ATOM     42  H   UNK d   0      35.842   8.419  57.780  0.00  0.00     0.167 HD
ENDBRANCH  39  41
ENDBRANCH  38  39
ENDBRANCH  31  38
BRANCH  27  43
ATOM     43  C   UNK d   0      38.161   8.701  62.764  0.00  0.00     0.052 C 
BRANCH  43  44
ATOM     44  C   UNK d   0      37.733   7.286  62.975  0.00  0.00     0.115 C 
BRANCH  44  45
ATOM     45  C   UNK d   0      37.278   7.186  64.387  0.00  0.00     0.139 C 
ATOM     46  O   UNK d   0      36.056   6.990  64.602  0.00  0.00    -0.650 OA
BRANCH  45  47
ATOM     47  O   UNK d   0      38.138   7.294  65.458  0.00  0.00    -0.776 OA
ATOM     48  H   UNK d   0      37.893   7.798  66.325  0.00  0.00     0.167 HD
ENDBRANCH  45  47
ENDBRANCH  44  45
ENDBRANCH  43  44
ENDBRANCH  27  43
BRANCH  24  49
ATOM     49  C   UNK d   0      40.043  11.719  67.008  0.00  0.00     0.052 C 
BRANCH  49  50
ATOM     50  C   UNK d   0      41.058  11.076  66.097  0.00  0.00     0.115 C 
BRANCH  50  51
ATOM     51  C   UNK d   0      40.810   9.699  65.692  0.00  0.00     0.139 C 
ATOM     52  O   UNK d   0      40.252   8.863  66.442  0.00  0.00    -0.650 OA
BRANCH  51  53
ATOM     53  O   UNK d   0      41.201   9.273  64.432  0.00  0.00    -0.776 OA
ATOM     54  H   UNK d   0      41.818   9.863  63.901  0.00  0.00     0.167 HD
ENDBRANCH  51  53
ENDBRANCH  50  51
ENDBRANCH  49  50
ENDBRANCH  24  49
BRANCH  21  55
ATOM     55  C   UNK d   0      40.002  14.807  67.058  0.00  0.00     0.151 C 
BRANCH  55  56
ATOM     56  C   UNK d   0      40.977  15.527  66.224  0.00  0.00     0.143 C 
ATOM     57  O   UNK d   0      41.994  14.981  65.752  0.00  0.00    -0.650 OA
BRANCH  56  58
ATOM     58  O   UNK d   0      40.737  16.874  65.961  0.00  0.00    -0.776 OA
ATOM     59  H   UNK d   0      40.712  17.484  66.798  0.00  0.00     0.167 HD
ENDBRANCH  56  58
ENDBRANCH  55  56
ENDBRANCH  21  55
BRANCH  18  60
ATOM     60  C   UNK d   0      35.775  17.834  65.724  0.00  0.00     0.151 C 
BRANCH  60  61
ATOM     61  C   UNK d   0      36.674  18.915  65.293  0.00  0.00     0.143 C 
ATOM     62  O   UNK d   0      36.357  19.967  64.736  0.00  0.00    -0.650 OA
BRANCH  61  63
ATOM     63  O   UNK d   0      38.048  18.699  65.560  0.00  0.00    -0.776 OA
ATOM     64  H   UNK d   0      38.342  18.119  66.326  0.00  0.00     0.167 HD
ENDBRANCH  61  63
ENDBRANCH  60  61
ENDBRANCH  18  60
BRANCH  14  65
ATOM     65  C   UNK d   0      33.577  18.005  63.639  0.00  0.00     0.052 C 
BRANCH  65  66
ATOM     66  C   UNK d   0      32.280  17.526  64.190  0.00  0.00     0.115 C 
BRANCH  66  67
ATOM     67  C   UNK d   0      31.186  17.256  63.300  0.00  0.00     0.139 C 
ATOM     68  O   UNK d   0      31.164  17.846  62.158  0.00  0.00    -0.650 OA
BRANCH  67  69
ATOM     69  O   UNK d   0      30.100  16.408  63.516  0.00  0.00    -0.776 OA
ATOM     70  H   UNK d   0      30.074  15.938  64.432  0.00  0.00     0.167 HD
ENDBRANCH  67  69
ENDBRANCH  66  67
ENDBRANCH  65  66
ENDBRANCH  14  65
ENDBRANCH   6   7
ENDBRANCH   5   6
ENDBRANCH   2   5
TORSDOF 28
ENDMDL
MODEL 14
REMARK VINA RESULT:      -9.6      1.785      7.783
REMARK  28 active torsions:
REMARK  status: ('A' for Active; 'I' for Inactive)
REMARK    1  A    between atoms: C_2  and  O_3 
REMARK    2  A    between atoms: C_2  and  C_4 
REMARK    3  A    between atoms: C_4  and  C_5 
REMARK    4  A    between atoms: C_5  and  C_6 
REMARK    5  A    between atoms: C_7  and  C_8 
REMARK    6  A    between atoms: C_8  and  C_9 
REMARK    7  A    between atoms: C_9  and  O_11 
REMARK    8  A    between atoms: C_28  and  C_29 
REMARK    9  A    between atoms: C_29  and  C_30 
REMARK   10  A    between atoms: C_30  and  O_32 
REMARK   11  A    between atoms: C_33  and  C_34 
REMARK   12  A    between atoms: C_34  and  C_35 
REMARK   13  A    between atoms: C_35  and  C_36 
REMARK   14  A    between atoms: C_36  and  O_38 
REMARK   15  A    between atoms: C_39  and  C_40 
REMARK   16  A    between atoms: C_40  and  C_41 
REMARK   17  A    between atoms: C_41  and  C_42 
REMARK   18  A    between atoms: C_42  and  O_44 
REMARK   19  A    between atoms: C_45  and  C_46 
REMARK   20  A    between atoms: C_46  and  C_47 
REMARK   21  A    between atoms: C_47  and  O_49 
REMARK   22  A    between atoms: C_50  and  C_51 
REMARK   23  A    between atoms: C_51  and  C_52 
REMARK   24  A    between atoms: C_52  and  O_54 
REMARK   25  A    between atoms: C_55  and  C_56 
REMARK   26  A    between atoms: C_56  and  C_57 
REMARK   27  A    between atoms: C_57  and  C_58 
REMARK   28  A    between atoms: C_58  and  O_60 
ROOT
ATOM      1  O   UNK d   0      39.520  18.530  67.252  0.00  0.00    -0.650 OA
ATOM      2  C   UNK d   0      39.157  18.433  66.058  0.00  0.00     0.139 C 
ENDROOT
BRANCH   2   3
ATOM      3  O   UNK d   0      40.033  18.782  65.058  0.00  0.00    -0.776 OA
ATOM      4  H   UNK d   0      40.909  19.265  65.268  0.00  0.00     0.167 HD
ENDBRANCH   2   3
BRANCH   2   5
ATOM      5  C   UNK d   0      37.788  17.944  65.730  0.00  0.00     0.115 C 
BRANCH   5   6
ATOM      6  C   UNK d   0      37.450  16.746  66.574  0.00  0.00     0.052 C 
BRANCH   6   7
ATOM      7  C   UNK d   0      37.631  15.443  65.832  0.00  0.00    -0.020 A 
ATOM      8  C   UNK d   0      38.597  14.572  65.972  0.00  0.00    -0.011 A 
ATOM      9  C   UNK d   0      38.352  13.483  65.041  0.00  0.00     0.067 A 
ATOM     10  C   UNK d   0      38.978  12.269  64.716  0.00  0.00     0.062 C 
ATOM     11  N   UNK d   0      37.219  13.776  64.370  0.00  0.00    -0.248 NA
ATOM     12  C   UNK d   0      38.438  11.208  63.980  0.00  0.00     0.041 A 
ATOM     13  N   UNK d   0      37.704  11.196  62.851  0.00  0.00    -0.355 N 
ATOM     14  C   UNK d   0      38.597   9.896  64.460  0.00  0.00    -0.022 A 
ATOM     15  C   UNK d   0      37.387   9.910  62.607  0.00  0.00     0.042 A 
ATOM     16  H   UNK d   0      37.433  12.077  62.228  0.00  0.00     0.166 HD
ATOM     17  C   UNK d   0      36.639   9.337  61.559  0.00  0.00     0.062 C 
ATOM     18  C   UNK d   0      37.929   9.066  63.595  0.00  0.00    -0.013 A 
ATOM     19  C   UNK d   0      35.446   9.752  61.024  0.00  0.00     0.067 A 
ATOM     20  N   UNK d   0      35.008  10.960  61.387  0.00  0.00    -0.248 NA
ATOM     21  C   UNK d   0      34.456   9.191  60.120  0.00  0.00    -0.011 A 
ATOM     22  C   UNK d   0      33.802  11.230  60.787  0.00  0.00     0.066 A 
ATOM     23  C   UNK d   0      33.249  12.474  61.049  0.00  0.00     0.062 C 
ATOM     24  C   UNK d   0      33.494  10.059  59.989  0.00  0.00    -0.020 A 
ATOM     25  C   UNK d   0      33.813  13.531  61.781  0.00  0.00     0.041 A 
ATOM     26  N   UNK d   0      34.529  13.544  62.911  0.00  0.00    -0.355 N 
ATOM     27  C   UNK d   0      33.656  14.847  61.296  0.00  0.00    -0.022 A 
ATOM     28  C   UNK d   0      34.839  14.826  63.162  0.00  0.00     0.042 A 
ATOM     29  H   UNK d   0      34.793  12.659  63.542  0.00  0.00     0.166 HD
ATOM     30  C   UNK d   0      35.575  15.411  64.204  0.00  0.00     0.062 C 
ATOM     31  C   UNK d   0      34.303  15.673  62.163  0.00  0.00    -0.013 A 
ATOM     32  C   UNK d   0      36.735  14.942  64.799  0.00  0.00     0.066 A 
BRANCH   8  33
ATOM     33  C   UNK d   0      39.742  14.661  66.897  0.00  0.00     0.151 C 
BRANCH  33  34
ATOM     34  C   UNK d   0      41.028  14.832  66.199  0.00  0.00     0.143 C 
ATOM     35  O   UNK d   0      41.910  13.964  66.266  0.00  0.00    -0.650 OA
BRANCH  34  36
ATOM     36  O   UNK d   0      41.251  15.974  65.464  0.00  0.00    -0.776 OA
ATOM     37  H   UNK d   0      40.942  16.896  65.802  0.00  0.00     0.167 HD
ENDBRANCH  34  36
ENDBRANCH  33  34
ENDBRANCH   8  33
BRANCH  31  38
ATOM     38  C   UNK d   0      34.419  17.175  62.046  0.00  0.00     0.151 C 
BRANCH  38  39
ATOM     39  C   UNK d   0      33.247  17.868  62.538  0.00  0.00     0.143 C 
ATOM     40  O   UNK d   0      32.538  18.580  61.806  0.00  0.00    -0.650 OA
BRANCH  39  41
ATOM     41  O   UNK d   0      32.889  17.742  63.880  0.00  0.00    -0.776 OA
ATOM     42  H   UNK d   0      33.216  16.902  64.368  0.00  0.00     0.167 HD
ENDBRANCH  39  41
ENDBRANCH  38  39
ENDBRANCH  31  38
BRANCH  27  43
ATOM     43  C   UNK d   0      32.929  15.336  60.068  0.00  0.00     0.052 C 
BRANCH  43  44
ATOM     44  C   UNK d   0      31.471  15.565  60.297  0.00  0.00     0.115 C 
BRANCH  44  45
ATOM     45  C   UNK d   0      31.027  16.539  59.267  0.00  0.00     0.139 C 
ATOM     46  O   UNK d   0      31.073  16.189  58.062  0.00  0.00    -0.650 OA
BRANCH  45  47
ATOM     47  O   UNK d   0      30.565  17.799  59.579  0.00  0.00    -0.776 OA
ATOM     48  H   UNK d   0      29.629  18.138  59.304  0.00  0.00     0.167 HD
ENDBRANCH  45  47
ENDBRANCH  44  45
ENDBRANCH  43  44
ENDBRANCH  27  43
BRANCH  24  49
ATOM     49  C   UNK d   0      32.304   9.915  59.133  0.00  0.00     0.052 C 
BRANCH  49  50
ATOM     50  C   UNK d   0      32.453  10.745  57.884  0.00  0.00     0.115 C 
BRANCH  50  51
ATOM     51  C   UNK d   0      31.345  11.623  57.534  0.00  0.00     0.139 C 
ATOM     52  O   UNK d   0      31.005  12.599  58.243  0.00  0.00    -0.650 OA
BRANCH  51  53
ATOM     53  O   UNK d   0      30.621  11.386  56.375  0.00  0.00    -0.776 OA
ATOM     54  H   UNK d   0      29.618  11.400  56.429  0.00  0.00     0.167 HD
ENDBRANCH  51  53
ENDBRANCH  50  51
ENDBRANCH  49  50
ENDBRANCH  24  49
BRANCH  21  55
ATOM     55  C   UNK d   0      34.575   7.849  59.479  0.00  0.00     0.151 C 
BRANCH  55  56
ATOM     56  C   UNK d   0      35.405   7.890  58.265  0.00  0.00     0.143 C 
ATOM     57  O   UNK d   0      36.001   6.889  57.821  0.00  0.00    -0.650 OA
BRANCH  56  58
ATOM     58  O   UNK d   0      35.518   9.108  57.596  0.00  0.00    -0.776 OA
ATOM     59  H   UNK d   0      36.470   9.516  57.590  0.00  0.00     0.167 HD
ENDBRANCH  56  58
ENDBRANCH  55  56
ENDBRANCH  21  55
BRANCH  18  60
ATOM     60  C   UNK d   0      37.833   7.567  63.735  0.00  0.00     0.151 C 
BRANCH  60  61
ATOM     61  C   UNK d   0      36.829   7.323  64.782  0.00  0.00     0.143 C 
ATOM     62  O   UNK d   0      37.006   6.766  65.865  0.00  0.00    -0.650 OA
BRANCH  61  63
ATOM     63  O   UNK d   0      35.525   7.789  64.486  0.00  0.00    -0.776 OA
ATOM     64  H   UNK d   0      35.169   7.772  63.547  0.00  0.00     0.167 HD
ENDBRANCH  61  63
ENDBRANCH  60  61
ENDBRANCH  18  60
BRANCH  14  65
ATOM     65  C   UNK d   0      39.407   9.363  65.608  0.00  0.00     0.052 C 
BRANCH  65  66
ATOM     66  C   UNK d   0      40.815   9.843  65.600  0.00  0.00     0.115 C 
BRANCH  66  67
ATOM     67  C   UNK d   0      41.396  10.365  66.804  0.00  0.00     0.139 C 
ATOM     68  O   UNK d   0      40.829  10.094  67.926  0.00  0.00    -0.650 OA
BRANCH  67  69
ATOM     69  O   UNK d   0      42.536  11.158  66.928  0.00  0.00    -0.776 OA
ATOM     70  H   UNK d   0      42.370  12.152  67.139  0.00  0.00     0.167 HD
ENDBRANCH  67  69
ENDBRANCH  66  67
ENDBRANCH  65  66
ENDBRANCH  14  65
ENDBRANCH   6   7
ENDBRANCH   5   6
ENDBRANCH   2   5
TORSDOF 28
ENDMDL
MODEL 15
REMARK VINA RESULT:      -9.5      2.005      9.294
REMARK  28 active torsions:
REMARK  status: ('A' for Active; 'I' for Inactive)
REMARK    1  A    between atoms: C_2  and  O_3 
REMARK    2  A    between atoms: C_2  and  C_4 
REMARK    3  A    between atoms: C_4  and  C_5 
REMARK    4  A    between atoms: C_5  and  C_6 
REMARK    5  A    between atoms: C_7  and  C_8 
REMARK    6  A    between atoms: C_8  and  C_9 
REMARK    7  A    between atoms: C_9  and  O_11 
REMARK    8  A    between atoms: C_28  and  C_29 
REMARK    9  A    between atoms: C_29  and  C_30 
REMARK   10  A    between atoms: C_30  and  O_32 
REMARK   11  A    between atoms: C_33  and  C_34 
REMARK   12  A    between atoms: C_34  and  C_35 
REMARK   13  A    between atoms: C_35  and  C_36 
REMARK   14  A    between atoms: C_36  and  O_38 
REMARK   15  A    between atoms: C_39  and  C_40 
REMARK   16  A    between atoms: C_40  and  C_41 
REMARK   17  A    between atoms: C_41  and  C_42 
REMARK   18  A    between atoms: C_42  and  O_44 
REMARK   19  A    between atoms: C_45  and  C_46 
REMARK   20  A    between atoms: C_46  and  C_47 
REMARK   21  A    between atoms: C_47  and  O_49 
REMARK   22  A    between atoms: C_50  and  C_51 
REMARK   23  A    between atoms: C_51  and  C_52 
REMARK   24  A    between atoms: C_52  and  O_54 
REMARK   25  A    between atoms: C_55  and  C_56 
REMARK   26  A    between atoms: C_56  and  C_57 
REMARK   27  A    between atoms: C_57  and  C_58 
REMARK   28  A    between atoms: C_58  and  O_60 
ROOT
ATOM      1  O   UNK d   0      35.178   7.055  58.605  0.00  0.00    -0.650 OA
ATOM      2  C   UNK d   0      35.891   8.081  58.676  0.00  0.00     0.139 C 
ENDROOT
BRANCH   2   3
ATOM      3  O   UNK d   0      35.680   9.110  57.790  0.00  0.00    -0.776 OA
ATOM      4  H   UNK d   0      34.743   9.319  57.438  0.00  0.00     0.167 HD
ENDBRANCH   2   3
BRANCH   2   5
ATOM      5  C   UNK d   0      36.958   8.181  59.711  0.00  0.00     0.115 C 
BRANCH   5   6
ATOM      6  C   UNK d   0      36.414   7.782  61.056  0.00  0.00     0.052 C 
BRANCH   6   7
ATOM      7  C   UNK d   0      36.583   8.864  62.095  0.00  0.00    -0.020 A 
ATOM      8  C   UNK d   0      37.255   8.796  63.216  0.00  0.00    -0.011 A 
ATOM      9  C   UNK d   0      37.125  10.077  63.891  0.00  0.00     0.067 A 
ATOM     10  C   UNK d   0      37.603  10.647  65.081  0.00  0.00     0.062 C 
ATOM     11  N   UNK d   0      36.352  10.863  63.113  0.00  0.00    -0.248 NA
ATOM     12  C   UNK d   0      37.598  12.001  65.433  0.00  0.00     0.041 A 
ATOM     13  N   UNK d   0      36.654  12.951  65.293  0.00  0.00    -0.355 N 
ATOM     14  C   UNK d   0      38.762  12.564  65.987  0.00  0.00    -0.022 A 
ATOM     15  C   UNK d   0      37.191  14.103  65.736  0.00  0.00     0.042 A 
ATOM     16  H   UNK d   0      35.621  12.805  64.907  0.00  0.00     0.166 HD
ATOM     17  C   UNK d   0      36.639  15.397  65.815  0.00  0.00     0.062 C 
ATOM     18  C   UNK d   0      38.512  13.900  66.180  0.00  0.00    -0.013 A 
ATOM     19  C   UNK d   0      35.903  16.079  64.881  0.00  0.00     0.067 A 
ATOM     20  N   UNK d   0      35.468  15.382  63.827  0.00  0.00    -0.248 NA
ATOM     21  C   UNK d   0      35.448  17.448  64.705  0.00  0.00    -0.011 A 
ATOM     22  C   UNK d   0      34.764  16.197  62.975  0.00  0.00     0.066 A 
ATOM     23  C   UNK d   0      34.220  15.591  61.852  0.00  0.00     0.062 C 
ATOM     24  C   UNK d   0      34.785  17.511  63.586  0.00  0.00    -0.020 A 
ATOM     25  C   UNK d   0      34.225  14.227  61.523  0.00  0.00     0.041 A 
ATOM     26  N   UNK d   0      35.169  13.286  61.649  0.00  0.00    -0.355 N 
ATOM     27  C   UNK d   0      33.055  13.661  60.971  0.00  0.00    -0.022 A 
ATOM     28  C   UNK d   0      34.639  12.138  61.199  0.00  0.00     0.042 A 
ATOM     29  H   UNK d   0      36.210  13.436  62.028  0.00  0.00     0.166 HD
ATOM     30  C   UNK d   0      35.179  10.846  61.106  0.00  0.00     0.062 C 
ATOM     31  C   UNK d   0      33.307  12.340  60.764  0.00  0.00    -0.013 A 
ATOM     32  C   UNK d   0      35.994  10.193  62.017  0.00  0.00     0.066 A 
BRANCH   8  33
ATOM     33  C   UNK d   0      38.011   7.637  63.726  0.00  0.00     0.151 C 
BRANCH  33  34
ATOM     34  C   UNK d   0      37.412   7.055  64.941  0.00  0.00     0.143 C 
ATOM     35  O   UNK d   0      38.120   6.721  65.901  0.00  0.00    -0.650 OA
BRANCH  34  36
ATOM     36  O   UNK d   0      36.049   6.882  65.006  0.00  0.00    -0.776 OA
ATOM     37  H   UNK d   0      35.597   6.051  64.601  0.00  0.00     0.167 HD
ENDBRANCH  34  36
ENDBRANCH  33  34
ENDBRANCH   8  33
BRANCH  31  38
ATOM     38  C   UNK d   0      32.341  11.326  60.199  0.00  0.00     0.151 C 
BRANCH  38  39
ATOM     39  C   UNK d   0      32.385  11.252  58.754  0.00  0.00     0.143 C 
ATOM     40  O   UNK d   0      31.644  11.939  58.030  0.00  0.00    -0.650 OA
BRANCH  39  41
ATOM     41  O   UNK d   0      33.287  10.384  58.139  0.00  0.00    -0.776 OA
ATOM     42  H   UNK d   0      34.051  10.813  57.608  0.00  0.00     0.167 HD
ENDBRANCH  39  41
ENDBRANCH  38  39
ENDBRANCH  31  38
BRANCH  27  43
ATOM     43  C   UNK d   0      31.737  14.318  60.640  0.00  0.00     0.052 C 
BRANCH  43  44
ATOM     44  C   UNK d   0      31.737  15.005  59.313  0.00  0.00     0.115 C 
BRANCH  44  45
ATOM     45  C   UNK d   0      30.926  16.239  59.475  0.00  0.00     0.139 C 
ATOM     46  O   UNK d   0      30.937  17.082  58.544  0.00  0.00    -0.650 OA
BRANCH  45  47
ATOM     47  O   UNK d   0      30.164  16.492  60.596  0.00  0.00    -0.776 OA
ATOM     48  H   UNK d   0      29.140  16.623  60.559  0.00  0.00     0.167 HD
ENDBRANCH  45  47
ENDBRANCH  44  45
ENDBRANCH  43  44
ENDBRANCH  27  43
BRANCH  24  49
ATOM     49  C   UNK d   0      34.116  18.704  63.040  0.00  0.00     0.052 C 
BRANCH  49  50
ATOM     50  C   UNK d   0      34.100  18.653  61.533  0.00  0.00     0.115 C 
BRANCH  50  51
ATOM     51  C   UNK d   0      32.871  19.063  60.867  0.00  0.00     0.139 C 
ATOM     52  O   UNK d   0      32.860  19.561  59.717  0.00  0.00    -0.650 OA
BRANCH  51  53
ATOM     53  O   UNK d   0      31.655  18.906  61.514  0.00  0.00    -0.776 OA
ATOM     54  H   UNK d   0      30.938  18.372  61.055  0.00  0.00     0.167 HD
ENDBRANCH  51  53
ENDBRANCH  50  51
ENDBRANCH  49  50
ENDBRANCH  24  49
BRANCH  21  55
ATOM     55  C   UNK d   0      35.719  18.549  65.676  0.00  0.00     0.151 C 
BRANCH  55  56
ATOM     56  C   UNK d   0      37.007  19.209  65.416  0.00  0.00     0.143 C 
ATOM     57  O   UNK d   0      37.095  20.321  64.859  0.00  0.00    -0.650 OA
BRANCH  56  58
ATOM     58  O   UNK d   0      38.167  18.549  65.817  0.00  0.00    -0.776 OA
ATOM     59  H   UNK d   0      38.180  18.252  66.809  0.00  0.00     0.167 HD
ENDBRANCH  56  58
ENDBRANCH  55  56
ENDBRANCH  21  55
BRANCH  18  60
ATOM     60  C   UNK d   0      39.497  14.891  66.750  0.00  0.00     0.151 C 
BRANCH  60  61
ATOM     61  C   UNK d   0      40.168  15.504  65.593  0.00  0.00     0.143 C 
ATOM     62  O   UNK d   0      39.734  16.405  64.875  0.00  0.00    -0.650 OA
BRANCH  61  63
ATOM     63  O   UNK d   0      41.451  14.984  65.296  0.00  0.00    -0.776 OA
ATOM     64  H   UNK d   0      41.617  13.993  65.274  0.00  0.00     0.167 HD
ENDBRANCH  61  63
ENDBRANCH  60  61
ENDBRANCH  18  60
BRANCH  14  65
ATOM     65  C   UNK d   0      40.045  11.923  66.436  0.00  0.00     0.052 C 
BRANCH  65  66
ATOM     66  C   UNK d   0      40.775  11.248  65.329  0.00  0.00     0.115 C 
BRANCH  66  67
ATOM     67  C   UNK d   0      40.807   9.813  65.268  0.00  0.00     0.139 C 
ATOM     68  O   UNK d   0      40.486   9.147  66.321  0.00  0.00    -0.650 OA
BRANCH  67  69
ATOM     69  O   UNK d   0      41.153   9.013  64.180  0.00  0.00    -0.776 OA
ATOM     70  H   UNK d   0      40.365   8.604  63.657  0.00  0.00     0.167 HD
ENDBRANCH  67  69
ENDBRANCH  66  67
ENDBRANCH  65  66
ENDBRANCH  14  65
ENDBRANCH   6   7
ENDBRANCH   5   6
ENDBRANCH   2   5
TORSDOF 28
ENDMDL
MODEL 16
REMARK VINA RESULT:      -9.5      1.961      7.466
REMARK  28 active torsions:
REMARK  status: ('A' for Active; 'I' for Inactive)
REMARK    1  A    between atoms: C_2  and  O_3 
REMARK    2  A    between atoms: C_2  and  C_4 
REMARK    3  A    between atoms: C_4  and  C_5 
REMARK    4  A    between atoms: C_5  and  C_6 
REMARK    5  A    between atoms: C_7  and  C_8 
REMARK    6  A    between atoms: C_8  and  C_9 
REMARK    7  A    between atoms: C_9  and  O_11 
REMARK    8  A    between atoms: C_28  and  C_29 
REMARK    9  A    between atoms: C_29  and  C_30 
REMARK   10  A    between atoms: C_30  and  O_32 
REMARK   11  A    between atoms: C_33  and  C_34 
REMARK   12  A    between atoms: C_34  and  C_35 
REMARK   13  A    between atoms: C_35  and  C_36 
REMARK   14  A    between atoms: C_36  and  O_38 
REMARK   15  A    between atoms: C_39  and  C_40 
REMARK   16  A    between atoms: C_40  and  C_41 
REMARK   17  A    between atoms: C_41  and  C_42 
REMARK   18  A    between atoms: C_42  and  O_44 
REMARK   19  A    between atoms: C_45  and  C_46 
REMARK   20  A    between atoms: C_46  and  C_47 
REMARK   21  A    between atoms: C_47  and  O_49 
REMARK   22  A    between atoms: C_50  and  C_51 
REMARK   23  A    between atoms: C_51  and  C_52 
REMARK   24  A    between atoms: C_52  and  O_54 
REMARK   25  A    between atoms: C_55  and  C_56 
REMARK   26  A    between atoms: C_56  and  C_57 
REMARK   27  A    between atoms: C_57  and  C_58 
REMARK   28  A    between atoms: C_58  and  O_60 
ROOT
ATOM      1  O   UNK d   0      36.729   4.631  59.781  0.00  0.00    -0.650 OA
ATOM      2  C   UNK d   0      36.154   5.742  59.751  0.00  0.00     0.139 C 
ENDROOT
BRANCH   2   3
ATOM      3  O   UNK d   0      34.977   5.873  59.054  0.00  0.00    -0.776 OA
ATOM      4  H   UNK d   0      34.371   5.067  58.887  0.00  0.00     0.167 HD
ENDBRANCH   2   3
BRANCH   2   5
ATOM      5  C   UNK d   0      36.744   6.909  60.466  0.00  0.00     0.115 C 
BRANCH   5   6
ATOM      6  C   UNK d   0      36.538   6.766  61.949  0.00  0.00     0.052 C 
BRANCH   6   7
ATOM      7  C   UNK d   0      35.996   8.024  62.585  0.00  0.00    -0.020 A 
ATOM      8  C   UNK d   0      36.161   8.430  63.817  0.00  0.00    -0.011 A 
ATOM      9  C   UNK d   0      35.448   9.688  63.970  0.00  0.00     0.067 A 
ATOM     10  C   UNK d   0      35.251  10.621  65.000  0.00  0.00     0.062 C 
ATOM     11  N   UNK d   0      34.873   9.969  62.782  0.00  0.00    -0.248 NA
ATOM     12  C   UNK d   0      34.758  11.925  64.878  0.00  0.00     0.041 A 
ATOM     13  N   UNK d   0      33.736  12.423  64.156  0.00  0.00    -0.355 N 
ATOM     14  C   UNK d   0      35.419  12.968  65.553  0.00  0.00    -0.022 A 
ATOM     15  C   UNK d   0      33.737  13.755  64.349  0.00  0.00     0.042 A 
ATOM     16  H   UNK d   0      33.017  11.841  63.538  0.00  0.00     0.166 HD
ATOM     17  C   UNK d   0      32.885  14.753  63.833  0.00  0.00     0.062 C 
ATOM     18  C   UNK d   0      34.777  14.134  65.219  0.00  0.00    -0.013 A 
ATOM     19  C   UNK d   0      32.431  14.920  62.550  0.00  0.00     0.067 A 
ATOM     20  N   UNK d   0      32.646  13.916  61.697  0.00  0.00    -0.248 NA
ATOM     21  C   UNK d   0      31.746  15.969  61.813  0.00  0.00    -0.011 A 
ATOM     22  C   UNK d   0      32.152  14.232  60.455  0.00  0.00     0.066 A 
ATOM     23  C   UNK d   0      32.275  13.257  59.476  0.00  0.00     0.062 C 
ATOM     24  C   UNK d   0      31.590  15.562  60.586  0.00  0.00    -0.020 A 
ATOM     25  C   UNK d   0      32.761  11.948  59.622  0.00  0.00     0.041 A 
ATOM     26  N   UNK d   0      33.786  11.455  60.328  0.00  0.00    -0.355 N 
ATOM     27  C   UNK d   0      32.095  10.902  58.948  0.00  0.00    -0.022 A 
ATOM     28  C   UNK d   0      33.793  10.128  60.130  0.00  0.00     0.042 A 
ATOM     29  H   UNK d   0      34.514  12.042  60.940  0.00  0.00     0.166 HD
ATOM     30  C   UNK d   0      34.639   9.125  60.629  0.00  0.00     0.062 C 
ATOM     31  C   UNK d   0      32.741   9.746  59.265  0.00  0.00    -0.013 A 
ATOM     32  C   UNK d   0      35.165   9.007  61.906  0.00  0.00     0.066 A 
BRANCH   8  33
ATOM     33  C   UNK d   0      36.924   7.749  64.879  0.00  0.00     0.151 C 
BRANCH  33  34
ATOM     34  C   UNK d   0      38.316   8.224  64.976  0.00  0.00     0.143 C 
ATOM     35  O   UNK d   0      38.966   8.080  66.021  0.00  0.00    -0.650 OA
BRANCH  34  36
ATOM     36  O   UNK d   0      38.897   8.838  63.891  0.00  0.00    -0.776 OA
ATOM     37  H   UNK d   0      38.436   8.846  62.971  0.00  0.00     0.167 HD
ENDBRANCH  34  36
ENDBRANCH  33  34
ENDBRANCH   8  33
BRANCH  31  38
ATOM     38  C   UNK d   0      32.375   8.360  58.786  0.00  0.00     0.151 C 
BRANCH  38  39
ATOM     39  C   UNK d   0      32.830   8.093  57.439  0.00  0.00     0.143 C 
ATOM     40  O   UNK d   0      34.025   7.879  57.170  0.00  0.00    -0.650 OA
BRANCH  39  41
ATOM     41  O   UNK d   0      31.906   8.071  56.394  0.00  0.00    -0.776 OA
ATOM     42  H   UNK d   0      31.104   8.704  56.473  0.00  0.00     0.167 HD
ENDBRANCH  39  41
ENDBRANCH  38  39
ENDBRANCH  31  38
BRANCH  27  43
ATOM     43  C   UNK d   0      30.896  10.960  58.034  0.00  0.00     0.052 C 
BRANCH  43  44
ATOM     44  C   UNK d   0      29.601  10.727  58.742  0.00  0.00     0.115 C 
BRANCH  44  45
ATOM     45  C   UNK d   0      28.787   9.850  57.861  0.00  0.00     0.139 C 
ATOM     46  O   UNK d   0      29.259   9.536  56.740  0.00  0.00    -0.650 OA
BRANCH  45  47
ATOM     47  O   UNK d   0      27.549   9.367  58.225  0.00  0.00    -0.776 OA
ATOM     48  H   UNK d   0      26.787   9.211  57.545  0.00  0.00     0.167 HD
ENDBRANCH  45  47
ENDBRANCH  44  45
ENDBRANCH  43  44
ENDBRANCH  27  43
BRANCH  24  49
ATOM     49  C   UNK d   0      30.909  16.297  59.507  0.00  0.00     0.052 C 
BRANCH  49  50
ATOM     50  C   UNK d   0      31.918  16.976  58.617  0.00  0.00     0.115 C 
BRANCH  50  51
ATOM     51  C   UNK d   0      31.482  18.172  57.908  0.00  0.00     0.139 C 
ATOM     52  O   UNK d   0      31.082  18.146  56.720  0.00  0.00    -0.650 OA
BRANCH  51  53
ATOM     53  O   UNK d   0      31.504  19.399  58.554  0.00  0.00    -0.776 OA
ATOM     54  H   UNK d   0      31.082  19.465  59.463  0.00  0.00     0.167 HD
ENDBRANCH  51  53
ENDBRANCH  50  51
ENDBRANCH  49  50
ENDBRANCH  24  49
BRANCH  21  55
ATOM     55  C   UNK d   0      31.316  17.267  62.412  0.00  0.00     0.151 C 
BRANCH  55  56
ATOM     56  C   UNK d   0      32.368  18.291  62.323  0.00  0.00     0.143 C 
ATOM     57  O   UNK d   0      33.310  18.363  63.136  0.00  0.00    -0.650 OA
BRANCH  56  58
ATOM     58  O   UNK d   0      32.291  19.211  61.279  0.00  0.00    -0.776 OA
ATOM     59  H   UNK d   0      31.487  19.862  61.329  0.00  0.00     0.167 HD
ENDBRANCH  56  58
ENDBRANCH  55  56
ENDBRANCH  21  55
BRANCH  18  60
ATOM     60  C   UNK d   0      35.164  15.506  65.714  0.00  0.00     0.151 C 
BRANCH  60  61
ATOM     61  C   UNK d   0      36.101  16.047  64.718  0.00  0.00     0.143 C 
ATOM     62  O   UNK d   0      36.367  15.570  63.614  0.00  0.00    -0.650 OA
BRANCH  61  63
ATOM     63  O   UNK d   0      36.754  17.245  65.094  0.00  0.00    -0.776 OA
ATOM     64  H   UNK d   0      37.524  17.606  64.558  0.00  0.00     0.167 HD
ENDBRANCH  61  63
ENDBRANCH  60  61
ENDBRANCH  18  60
BRANCH  14  65
ATOM     65  C   UNK d   0      36.537  12.934  66.556  0.00  0.00     0.052 C 
BRANCH  65  66
ATOM     66  C   UNK d   0      37.876  13.135  65.941  0.00  0.00     0.115 C 
BRANCH  66  67
ATOM     67  C   UNK d   0      38.604  12.005  65.437  0.00  0.00     0.139 C 
ATOM     68  O   UNK d   0      38.558  11.758  64.176  0.00  0.00    -0.650 OA
BRANCH  67  69
ATOM     69  O   UNK d   0      39.386  11.102  66.158  0.00  0.00    -0.776 OA
ATOM     70  H   UNK d   0      40.195  11.505  66.651  0.00  0.00     0.167 HD
ENDBRANCH  67  69
ENDBRANCH  66  67
ENDBRANCH  65  66
ENDBRANCH  14  65
ENDBRANCH   6   7
ENDBRANCH   5   6
ENDBRANCH   2   5
TORSDOF 28
ENDMDL
MODEL 17
REMARK VINA RESULT:      -9.3      1.677      8.003
REMARK  28 active torsions:
REMARK  status: ('A' for Active; 'I' for Inactive)
REMARK    1  A    between atoms: C_2  and  O_3 
REMARK    2  A    between atoms: C_2  and  C_4 
REMARK    3  A    between atoms: C_4  and  C_5 
REMARK    4  A    between atoms: C_5  and  C_6 
REMARK    5  A    between atoms: C_7  and  C_8 
REMARK    6  A    between atoms: C_8  and  C_9 
REMARK    7  A    between atoms: C_9  and  O_11 
REMARK    8  A    between atoms: C_28  and  C_29 
REMARK    9  A    between atoms: C_29  and  C_30 
REMARK   10  A    between atoms: C_30  and  O_32 
REMARK   11  A    between atoms: C_33  and  C_34 
REMARK   12  A    between atoms: C_34  and  C_35 
REMARK   13  A    between atoms: C_35  and  C_36 
REMARK   14  A    between atoms: C_36  and  O_38 
REMARK   15  A    between atoms: C_39  and  C_40 
REMARK   16  A    between atoms: C_40  and  C_41 
REMARK   17  A    between atoms: C_41  and  C_42 
REMARK   18  A    between atoms: C_42  and  O_44 
REMARK   19  A    between atoms: C_45  and  C_46 
REMARK   20  A    between atoms: C_46  and  C_47 
REMARK   21  A    between atoms: C_47  and  O_49 
REMARK   22  A    between atoms: C_50  and  C_51 
REMARK   23  A    between atoms: C_51  and  C_52 
REMARK   24  A    between atoms: C_52  and  O_54 
REMARK   25  A    between atoms: C_55  and  C_56 
REMARK   26  A    between atoms: C_56  and  C_57 
REMARK   27  A    between atoms: C_57  and  C_58 
REMARK   28  A    between atoms: C_58  and  O_60 
ROOT
ATOM      1  O   UNK d   0      32.788   7.810  57.668  0.00  0.00    -0.650 OA
ATOM      2  C   UNK d   0      31.998   8.091  56.740  0.00  0.00     0.139 C 
ENDROOT
BRANCH   2   3
ATOM      3  O   UNK d   0      31.937   7.273  55.637  0.00  0.00    -0.776 OA
ATOM      4  H   UNK d   0      32.753   6.739  55.331  0.00  0.00     0.167 HD
ENDBRANCH   2   3
BRANCH   2   5
ATOM      5  C   UNK d   0      31.134   9.301  56.834  0.00  0.00     0.115 C 
BRANCH   5   6
ATOM      6  C   UNK d   0      30.724   9.535  58.262  0.00  0.00     0.052 C 
BRANCH   6   7
ATOM      7  C   UNK d   0      31.325  10.794  58.841  0.00  0.00    -0.020 A 
ATOM      8  C   UNK d   0      30.958  12.030  58.618  0.00  0.00    -0.011 A 
ATOM      9  C   UNK d   0      31.833  12.899  59.386  0.00  0.00     0.067 A 
ATOM     10  C   UNK d   0      31.955  14.282  59.598  0.00  0.00     0.062 C 
ATOM     11  N   UNK d   0      32.708  12.109  60.042  0.00  0.00    -0.248 NA
ATOM     12  C   UNK d   0      32.692  14.923  60.599  0.00  0.00     0.041 A 
ATOM     13  N   UNK d   0      33.926  14.684  61.083  0.00  0.00    -0.355 N 
ATOM     14  C   UNK d   0      32.095  15.979  61.312  0.00  0.00    -0.022 A 
ATOM     15  C   UNK d   0      34.124  15.556  62.090  0.00  0.00     0.042 A 
ATOM     16  H   UNK d   0      34.649  13.928  60.707  0.00  0.00     0.166 HD
ATOM     17  C   UNK d   0      35.238  15.739  62.933  0.00  0.00     0.062 C 
ATOM     18  C   UNK d   0      32.998  16.384  62.264  0.00  0.00    -0.013 A 
ATOM     19  C   UNK d   0      35.998  14.795  63.576  0.00  0.00     0.067 A 
ATOM     20  N   UNK d   0      35.806  13.522  63.223  0.00  0.00    -0.248 NA
ATOM     21  C   UNK d   0      37.014  14.803  64.616  0.00  0.00    -0.011 A 
ATOM     22  C   UNK d   0      36.621  12.696  63.958  0.00  0.00     0.066 A 
ATOM     23  C   UNK d   0      36.551  11.342  63.665  0.00  0.00     0.062 C 
ATOM     24  C   UNK d   0      37.371  13.571  64.837  0.00  0.00    -0.020 A 
ATOM     25  C   UNK d   0      35.814  10.718  62.647  0.00  0.00     0.041 A 
ATOM     26  N   UNK d   0      34.582  10.946  62.176  0.00  0.00    -0.355 N 
ATOM     27  C   UNK d   0      36.415   9.662  61.928  0.00  0.00    -0.022 A 
ATOM     28  C   UNK d   0      34.379  10.073  61.177  0.00  0.00     0.042 A 
ATOM     29  H   UNK d   0      33.852  11.700  62.561  0.00  0.00     0.166 HD
ATOM     30  C   UNK d   0      33.272   9.873  60.336  0.00  0.00     0.062 C 
ATOM     31  C   UNK d   0      35.514   9.248  60.996  0.00  0.00    -0.013 A 
ATOM     32  C   UNK d   0      32.455  10.831  59.757  0.00  0.00     0.066 A 
BRANCH   8  33
ATOM     33  C   UNK d   0      29.860  12.483  57.744  0.00  0.00     0.151 C 
BRANCH  33  34
ATOM     34  C   UNK d   0      30.295  13.484  56.753  0.00  0.00     0.143 C 
ATOM     35  O   UNK d   0      29.553  14.421  56.428  0.00  0.00    -0.650 OA
BRANCH  34  36
ATOM     36  O   UNK d   0      31.542  13.372  56.183  0.00  0.00    -0.776 OA
ATOM     37  H   UNK d   0      32.203  14.161  56.187  0.00  0.00     0.167 HD
ENDBRANCH  34  36
ENDBRANCH  33  34
ENDBRANCH   8  33
BRANCH  31  38
ATOM     38  C   UNK d   0      35.722   8.145  59.984  0.00  0.00     0.151 C 
BRANCH  38  39
ATOM     39  C   UNK d   0      36.269   8.626  58.733  0.00  0.00     0.143 C 
ATOM     40  O   UNK d   0      37.486   8.823  58.571  0.00  0.00    -0.650 OA
BRANCH  39  41
ATOM     41  O   UNK d   0      35.412   8.881  57.663  0.00  0.00    -0.776 OA
ATOM     42  H   UNK d   0      35.663   9.661  57.046  0.00  0.00     0.167 HD
ENDBRANCH  39  41
ENDBRANCH  38  39
ENDBRANCH  31  38
BRANCH  27  43
ATOM     43  C   UNK d   0      37.782   9.046  62.095  0.00  0.00     0.052 C 
BRANCH  43  44
ATOM     44  C   UNK d   0      37.959   8.344  63.402  0.00  0.00     0.115 C 
BRANCH  44  45
ATOM     45  C   UNK d   0      37.108   7.127  63.349  0.00  0.00     0.139 C 
ATOM     46  O   UNK d   0      36.199   7.003  64.207  0.00  0.00    -0.650 OA
BRANCH  45  47
ATOM     47  O   UNK d   0      37.272   6.141  62.400  0.00  0.00    -0.776 OA
ATOM     48  H   UNK d   0      36.670   5.303  62.353  0.00  0.00     0.167 HD
ENDBRANCH  45  47
ENDBRANCH  44  45
ENDBRANCH  43  44
ENDBRANCH  27  43
BRANCH  24  49
ATOM     49  C   UNK d   0      38.404  13.124  65.787  0.00  0.00     0.052 C 
BRANCH  49  50
ATOM     50  C   UNK d   0      39.657  12.727  65.050  0.00  0.00     0.115 C 
BRANCH  50  51
ATOM     51  C   UNK d   0      40.437  11.630  65.608  0.00  0.00     0.139 C 
ATOM     52  O   UNK d   0      40.468  11.378  66.836  0.00  0.00    -0.650 OA
BRANCH  51  53
ATOM     53  O   UNK d   0      41.185  10.821  64.766  0.00  0.00    -0.776 OA
ATOM     54  H   UNK d   0      41.927  10.276  65.166  0.00  0.00     0.167 HD
ENDBRANCH  51  53
ENDBRANCH  50  51
ENDBRANCH  49  50
ENDBRANCH  24  49
BRANCH  21  55
ATOM     55  C   UNK d   0      37.524  16.041  65.276  0.00  0.00     0.151 C 
BRANCH  55  56
ATOM     56  C   UNK d   0      36.535  16.622  66.197  0.00  0.00     0.143 C 
ATOM     57  O   UNK d   0      35.811  17.589  65.887  0.00  0.00    -0.650 OA
BRANCH  56  58
ATOM     58  O   UNK d   0      36.416  16.055  67.464  0.00  0.00    -0.776 OA
ATOM     59  H   UNK d   0      37.282  15.619  67.830  0.00  0.00     0.167 HD
ENDBRANCH  56  58
ENDBRANCH  55  56
ENDBRANCH  21  55
BRANCH  18  60
ATOM     60  C   UNK d   0      32.765  17.492  63.261  0.00  0.00     0.151 C 
BRANCH  60  61
ATOM     61  C   UNK d   0      32.145  16.856  64.433  0.00  0.00     0.143 C 
ATOM     62  O   UNK d   0      30.942  16.690  64.638  0.00  0.00    -0.650 OA
BRANCH  61  63
ATOM     63  O   UNK d   0      33.052  16.394  65.418  0.00  0.00    -0.776 OA
ATOM     64  H   UNK d   0      33.573  17.039  65.985  0.00  0.00     0.167 HD
ENDBRANCH  61  63
ENDBRANCH  60  61
ENDBRANCH  18  60
BRANCH  14  65
ATOM     65  C   UNK d   0      30.790  16.691  61.100  0.00  0.00     0.052 C 
BRANCH  65  66
ATOM     66  C   UNK d   0      30.752  17.472  59.834  0.00  0.00     0.115 C 
BRANCH  66  67
ATOM     67  C   UNK d   0      31.880  18.279  59.462  0.00  0.00     0.139 C 
ATOM     68  O   UNK d   0      32.603  17.901  58.468  0.00  0.00    -0.650 OA
BRANCH  67  69
ATOM     69  O   UNK d   0      32.314  19.464  60.055  0.00  0.00    -0.776 OA
ATOM     70  H   UNK d   0      32.786  20.132  59.428  0.00  0.00     0.167 HD
ENDBRANCH  67  69
ENDBRANCH  66  67
ENDBRANCH  65  66
ENDBRANCH  14  65
ENDBRANCH   6   7
ENDBRANCH   5   6
ENDBRANCH   2   5
TORSDOF 28
ENDMDL
MODEL 18
REMARK VINA RESULT:      -9.3     28.441     31.693
REMARK  28 active torsions:
REMARK  status: ('A' for Active; 'I' for Inactive)
REMARK    1  A    between atoms: C_2  and  O_3 
REMARK    2  A    between atoms: C_2  and  C_4 
REMARK    3  A    between atoms: C_4  and  C_5 
REMARK    4  A    between atoms: C_5  and  C_6 
REMARK    5  A    between atoms: C_7  and  C_8 
REMARK    6  A    between atoms: C_8  and  C_9 
REMARK    7  A    between atoms: C_9  and  O_11 
REMARK    8  A    between atoms: C_28  and  C_29 
REMARK    9  A    between atoms: C_29  and  C_30 
REMARK   10  A    between atoms: C_30  and  O_32 
REMARK   11  A    between atoms: C_33  and  C_34 
REMARK   12  A    between atoms: C_34  and  C_35 
REMARK   13  A    between atoms: C_35  and  C_36 
REMARK   14  A    between atoms: C_36  and  O_38 
REMARK   15  A    between atoms: C_39  and  C_40 
REMARK   16  A    between atoms: C_40  and  C_41 
REMARK   17  A    between atoms: C_41  and  C_42 
REMARK   18  A    between atoms: C_42  and  O_44 
REMARK   19  A    between atoms: C_45  and  C_46 
REMARK   20  A    between atoms: C_46  and  C_47 
REMARK   21  A    between atoms: C_47  and  O_49 
REMARK   22  A    between atoms: C_50  and  C_51 
REMARK   23  A    between atoms: C_51  and  C_52 
REMARK   24  A    between atoms: C_52  and  O_54 
REMARK   25  A    between atoms: C_55  and  C_56 
REMARK   26  A    between atoms: C_56  and  C_57 
REMARK   27  A    between atoms: C_57  and  C_58 
REMARK   28  A    between atoms: C_58  and  O_60 
ROOT
ATOM      1  O   UNK d   0      49.144  21.387  37.436  0.00  0.00    -0.650 OA
ATOM      2  C   UNK d   0      50.231  20.819  37.687  0.00  0.00     0.139 C 
ENDROOT
BRANCH   2   3
ATOM      3  O   UNK d   0      51.408  21.425  37.319  0.00  0.00    -0.776 OA
ATOM      4  H   UNK d   0      52.127  20.912  36.806  0.00  0.00     0.167 HD
ENDBRANCH   2   3
BRANCH   2   5
ATOM      5  C   UNK d   0      50.243  19.498  38.377  0.00  0.00     0.115 C 
BRANCH   5   6
ATOM      6  C   UNK d   0      51.392  18.664  37.878  0.00  0.00     0.052 C 
BRANCH   6   7
ATOM      7  C   UNK d   0      50.939  17.371  37.244  0.00  0.00    -0.020 A 
ATOM      8  C   UNK d   0      51.227  16.152  37.624  0.00  0.00    -0.011 A 
ATOM      9  C   UNK d   0      50.574  15.234  36.706  0.00  0.00     0.067 A 
ATOM     10  C   UNK d   0      50.467  13.841  36.572  0.00  0.00     0.062 C 
ATOM     11  N   UNK d   0      49.915  15.980  35.794  0.00  0.00    -0.248 NA
ATOM     12  C   UNK d   0      49.558  13.133  35.778  0.00  0.00     0.041 A 
ATOM     13  N   UNK d   0      49.131  13.342  34.518  0.00  0.00    -0.355 N 
ATOM     14  C   UNK d   0      48.887  12.028  36.333  0.00  0.00    -0.022 A 
ATOM     15  C   UNK d   0      48.201  12.403  34.262  0.00  0.00     0.042 A 
ATOM     16  H   UNK d   0      49.494  14.126  33.817  0.00  0.00     0.166 HD
ATOM     17  C   UNK d   0      47.439  12.165  33.100  0.00  0.00     0.062 C 
ATOM     18  C   UNK d   0      48.020  11.561  35.376  0.00  0.00    -0.013 A 
ATOM     19  C   UNK d   0      46.777  13.064  32.304  0.00  0.00     0.067 A 
ATOM     20  N   UNK d   0      47.028  14.359  32.516  0.00  0.00    -0.248 NA
ATOM     21  C   UNK d   0      45.801  12.987  31.229  0.00  0.00    -0.011 A 
ATOM     22  C   UNK d   0      46.286  15.134  31.659  0.00  0.00     0.066 A 
ATOM     23  C   UNK d   0      46.477  16.505  31.745  0.00  0.00     0.062 C 
ATOM     24  C   UNK d   0      45.515  14.202  30.859  0.00  0.00    -0.020 A 
ATOM     25  C   UNK d   0      47.405  17.195  32.540  0.00  0.00     0.041 A 
ATOM     26  N   UNK d   0      47.819  16.997  33.798  0.00  0.00    -0.355 N 
ATOM     27  C   UNK d   0      48.081  18.302  31.982  0.00  0.00    -0.022 A 
ATOM     28  C   UNK d   0      48.740  17.937  34.059  0.00  0.00     0.042 A 
ATOM     29  H   UNK d   0      47.445  16.215  34.504  0.00  0.00     0.166 HD
ATOM     30  C   UNK d   0      49.498  18.192  35.212  0.00  0.00     0.062 C 
ATOM     31  C   UNK d   0      48.928  18.777  32.935  0.00  0.00    -0.013 A 
ATOM     32  C   UNK d   0      50.095  17.274  36.063  0.00  0.00     0.066 A 
BRANCH   8  33
ATOM     33  C   UNK d   0      52.065  15.758  38.771  0.00  0.00     0.151 C 
BRANCH  33  34
ATOM     34  C   UNK d   0      53.332  15.125  38.361  0.00  0.00     0.143 C 
ATOM     35  O   UNK d   0      54.009  15.596  37.437  0.00  0.00    -0.650 OA
BRANCH  34  36
ATOM     36  O   UNK d   0      53.765  13.995  39.016  0.00  0.00    -0.776 OA
ATOM     37  H   UNK d   0      54.080  13.165  38.496  0.00  0.00     0.167 HD
ENDBRANCH  34  36
ENDBRANCH  33  34
ENDBRANCH   8  33
BRANCH  31  38
ATOM     38  C   UNK d   0      49.870  19.949  32.787  0.00  0.00     0.151 C 
BRANCH  38  39
ATOM     39  C   UNK d   0      49.240  21.217  33.083  0.00  0.00     0.143 C 
ATOM     40  O   UNK d   0      48.850  21.991  32.191  0.00  0.00    -0.650 OA
BRANCH  39  41
ATOM     41  O   UNK d   0      49.055  21.598  34.412  0.00  0.00    -0.776 OA
ATOM     42  H   UNK d   0      49.608  21.100  35.116  0.00  0.00     0.167 HD
ENDBRANCH  39  41
ENDBRANCH  38  39
ENDBRANCH  31  38
BRANCH  27  43
ATOM     43  C   UNK d   0      47.952  18.910  30.607  0.00  0.00     0.052 C 
BRANCH  43  44
ATOM     44  C   UNK d   0      49.204  18.811  29.797  0.00  0.00     0.115 C 
BRANCH  44  45
ATOM     45  C   UNK d   0      48.955  17.780  28.757  0.00  0.00     0.139 C 
ATOM     46  O   UNK d   0      48.136  18.046  27.843  0.00  0.00    -0.650 OA
BRANCH  45  47
ATOM     47  O   UNK d   0      49.588  16.555  28.752  0.00  0.00    -0.776 OA
ATOM     48  H   UNK d   0      49.281  15.764  29.340  0.00  0.00     0.167 HD
ENDBRANCH  45  47
ENDBRANCH  44  45
ENDBRANCH  43  44
ENDBRANCH  27  43
BRANCH  24  49
ATOM     49  C   UNK d   0      44.598  14.585  29.772  0.00  0.00     0.052 C 
BRANCH  49  50
ATOM     50  C   UNK d   0      43.177  14.627  30.275  0.00  0.00     0.115 C 
BRANCH  50  51
ATOM     51  C   UNK d   0      42.836  15.686  31.214  0.00  0.00     0.139 C 
ATOM     52  O   UNK d   0      42.362  15.455  32.352  0.00  0.00    -0.650 OA
BRANCH  51  53
ATOM     53  O   UNK d   0      43.032  17.011  30.856  0.00  0.00    -0.776 OA
ATOM     54  H   UNK d   0      42.368  17.694  31.178  0.00  0.00     0.167 HD
ENDBRANCH  51  53
ENDBRANCH  50  51
ENDBRANCH  49  50
ENDBRANCH  24  49
BRANCH  21  55
ATOM     55  C   UNK d   0      45.261  11.708  30.682  0.00  0.00     0.151 C 
BRANCH  55  56
ATOM     56  C   UNK d   0      45.940  11.309  29.439  0.00  0.00     0.143 C 
ATOM     57  O   UNK d   0      45.416  10.555  28.596  0.00  0.00    -0.650 OA
BRANCH  56  58
ATOM     58  O   UNK d   0      47.222  11.806  29.212  0.00  0.00    -0.776 OA
ATOM     59  H   UNK d   0      47.902  11.622  29.972  0.00  0.00     0.167 HD
ENDBRANCH  56  58
ENDBRANCH  55  56
ENDBRANCH  21  55
BRANCH  18  60
ATOM     60  C   UNK d   0      47.092  10.384  35.551  0.00  0.00     0.151 C 
BRANCH  60  61
ATOM     61  C   UNK d   0      47.804   9.222  34.997  0.00  0.00     0.143 C 
ATOM     62  O   UNK d   0      49.016   9.114  34.812  0.00  0.00    -0.650 OA
BRANCH  61  63
ATOM     63  O   UNK d   0      46.982   8.124  34.648  0.00  0.00    -0.776 OA
ATOM     64  H   UNK d   0      46.176   7.884  35.197  0.00  0.00     0.167 HD
ENDBRANCH  61  63
ENDBRANCH  60  61
ENDBRANCH  18  60
BRANCH  14  65
ATOM     65  C   UNK d   0      49.072  11.327  37.648  0.00  0.00     0.052 C 
BRANCH  65  66
ATOM     66  C   UNK d   0      50.295  10.481  37.690  0.00  0.00     0.115 C 
BRANCH  66  67
ATOM     67  C   UNK d   0      51.215  10.614  38.785  0.00  0.00     0.139 C 
ATOM     68  O   UNK d   0      51.456   9.581  39.512  0.00  0.00    -0.650 OA
BRANCH  67  69
ATOM     69  O   UNK d   0      51.909  11.756  39.183  0.00  0.00    -0.776 OA
ATOM     70  H   UNK d   0      52.652  11.608  39.881  0.00  0.00     0.167 HD
ENDBRANCH  67  69
ENDBRANCH  66  67
ENDBRANCH  65  66
ENDBRANCH  14  65
ENDBRANCH   6   7
ENDBRANCH   5   6
ENDBRANCH   2   5
TORSDOF 28
ENDMDL
MODEL 19
REMARK VINA RESULT:      -9.2     28.288     31.348
REMARK  28 active torsions:
REMARK  status: ('A' for Active; 'I' for Inactive)
REMARK    1  A    between atoms: C_2  and  O_3 
REMARK    2  A    between atoms: C_2  and  C_4 
REMARK    3  A    between atoms: C_4  and  C_5 
REMARK    4  A    between atoms: C_5  and  C_6 
REMARK    5  A    between atoms: C_7  and  C_8 
REMARK    6  A    between atoms: C_8  and  C_9 
REMARK    7  A    between atoms: C_9  and  O_11 
REMARK    8  A    between atoms: C_28  and  C_29 
REMARK    9  A    between atoms: C_29  and  C_30 
REMARK   10  A    between atoms: C_30  and  O_32 
REMARK   11  A    between atoms: C_33  and  C_34 
REMARK   12  A    between atoms: C_34  and  C_35 
REMARK   13  A    between atoms: C_35  and  C_36 
REMARK   14  A    between atoms: C_36  and  O_38 
REMARK   15  A    between atoms: C_39  and  C_40 
REMARK   16  A    between atoms: C_40  and  C_41 
REMARK   17  A    between atoms: C_41  and  C_42 
REMARK   18  A    between atoms: C_42  and  O_44 
REMARK   19  A    between atoms: C_45  and  C_46 
REMARK   20  A    between atoms: C_46  and  C_47 
REMARK   21  A    between atoms: C_47  and  O_49 
REMARK   22  A    between atoms: C_50  and  C_51 
REMARK   23  A    between atoms: C_51  and  C_52 
REMARK   24  A    between atoms: C_52  and  O_54 
REMARK   25  A    between atoms: C_55  and  C_56 
REMARK   26  A    between atoms: C_56  and  C_57 
REMARK   27  A    between atoms: C_57  and  C_58 
REMARK   28  A    between atoms: C_58  and  O_60 
ROOT
ATOM      1  O   UNK d   0      51.398  22.435  35.005  0.00  0.00    -0.650 OA
ATOM      2  C   UNK d   0      51.369  22.289  33.763  0.00  0.00     0.139 C 
ENDROOT
BRANCH   2   3
ATOM      3  O   UNK d   0      52.550  22.250  33.061  0.00  0.00    -0.776 OA
ATOM      4  H   UNK d   0      52.556  22.141  32.045  0.00  0.00     0.167 HD
ENDBRANCH   2   3
BRANCH   2   5
ATOM      5  C   UNK d   0      50.063  22.159  33.055  0.00  0.00     0.115 C 
BRANCH   5   6
ATOM      6  C   UNK d   0      48.938  22.102  34.052  0.00  0.00     0.052 C 
BRANCH   6   7
ATOM      7  C   UNK d   0      48.223  20.772  34.045  0.00  0.00    -0.020 A 
ATOM      8  C   UNK d   0      47.052  20.498  33.529  0.00  0.00    -0.011 A 
ATOM      9  C   UNK d   0      46.777  19.092  33.774  0.00  0.00     0.067 A 
ATOM     10  C   UNK d   0      45.739  18.196  33.472  0.00  0.00     0.062 C 
ATOM     11  N   UNK d   0      47.831  18.589  34.450  0.00  0.00    -0.248 NA
ATOM     12  C   UNK d   0      45.776  16.799  33.550  0.00  0.00     0.041 A 
ATOM     13  N   UNK d   0      46.288  15.977  34.486  0.00  0.00    -0.355 N 
ATOM     14  C   UNK d   0      45.259  16.044  32.482  0.00  0.00    -0.022 A 
ATOM     15  C   UNK d   0      46.115  14.720  34.036  0.00  0.00     0.042 A 
ATOM     16  H   UNK d   0      46.745  16.279  35.454  0.00  0.00     0.166 HD
ATOM     17  C   UNK d   0      46.464  13.485  34.619  0.00  0.00     0.062 C 
ATOM     18  C   UNK d   0      45.473  14.721  32.782  0.00  0.00    -0.013 A 
ATOM     19  C   UNK d   0      47.634  13.123  35.236  0.00  0.00     0.067 A 
ATOM     20  N   UNK d   0      48.501  14.101  35.511  0.00  0.00    -0.248 NA
ATOM     21  C   UNK d   0      48.234  11.880  35.690  0.00  0.00    -0.011 A 
ATOM     22  C   UNK d   0      49.625  13.587  36.110  0.00  0.00     0.066 A 
ATOM     23  C   UNK d   0      50.597  14.503  36.486  0.00  0.00     0.062 C 
ATOM     24  C   UNK d   0      49.401  12.157  36.197  0.00  0.00    -0.020 A 
ATOM     25  C   UNK d   0      50.535  15.903  36.410  0.00  0.00     0.041 A 
ATOM     26  N   UNK d   0      50.039  16.720  35.473  0.00  0.00    -0.355 N 
ATOM     27  C   UNK d   0      51.051  16.661  37.484  0.00  0.00    -0.022 A 
ATOM     28  C   UNK d   0      50.218  17.975  35.915  0.00  0.00     0.042 A 
ATOM     29  H   UNK d   0      49.590  16.416  34.496  0.00  0.00     0.166 HD
ATOM     30  C   UNK d   0      49.885  19.212  35.342  0.00  0.00     0.062 C 
ATOM     31  C   UNK d   0      50.854  17.972  37.180  0.00  0.00    -0.013 A 
ATOM     32  C   UNK d   0      48.736  19.549  34.645  0.00  0.00     0.066 A 
BRANCH   8  33
ATOM     33  C   UNK d   0      46.154  21.432  32.826  0.00  0.00     0.151 C 
BRANCH  33  34
ATOM     34  C   UNK d   0      46.430  21.510  31.380  0.00  0.00     0.143 C 
ATOM     35  O   UNK d   0      45.930  20.695  30.592  0.00  0.00    -0.650 OA
BRANCH  34  36
ATOM     36  O   UNK d   0      47.256  22.502  30.903  0.00  0.00    -0.776 OA
ATOM     37  H   UNK d   0      48.119  22.277  30.389  0.00  0.00     0.167 HD
ENDBRANCH  34  36
ENDBRANCH  33  34
ENDBRANCH   8  33
BRANCH  31  38
ATOM     38  C   UNK d   0      51.234  19.154  38.041  0.00  0.00     0.151 C 
BRANCH  38  39
ATOM     39  C   UNK d   0      50.189  20.153  38.116  0.00  0.00     0.143 C 
ATOM     40  O   UNK d   0      49.040  19.886  38.511  0.00  0.00    -0.650 OA
BRANCH  39  41
ATOM     41  O   UNK d   0      50.467  21.466  37.737  0.00  0.00    -0.776 OA
ATOM     42  H   UNK d   0      51.269  21.917  38.188  0.00  0.00     0.167 HD
ENDBRANCH  39  41
ENDBRANCH  38  39
ENDBRANCH  31  38
BRANCH  27  43
ATOM     43  C   UNK d   0      51.710  16.193  38.757  0.00  0.00     0.052 C 
BRANCH  43  44
ATOM     44  C   UNK d   0      53.203  16.217  38.693  0.00  0.00     0.115 C 
BRANCH  44  45
ATOM     45  C   UNK d   0      53.634  14.846  38.319  0.00  0.00     0.139 C 
ATOM     46  O   UNK d   0      53.546  13.940  39.186  0.00  0.00    -0.650 OA
BRANCH  45  47
ATOM     47  O   UNK d   0      54.118  14.529  37.068  0.00  0.00    -0.776 OA
ATOM     48  H   UNK d   0      55.079  14.759  36.765  0.00  0.00     0.167 HD
ENDBRANCH  45  47
ENDBRANCH  44  45
ENDBRANCH  43  44
ENDBRANCH  27  43
BRANCH  24  49
ATOM     49  C   UNK d   0      50.333  11.196  36.810  0.00  0.00     0.052 C 
BRANCH  49  50
ATOM     50  C   UNK d   0      50.075  11.087  38.291  0.00  0.00     0.115 C 
BRANCH  50  51
ATOM     51  C   UNK d   0      51.170  10.607  39.123  0.00  0.00     0.139 C 
ATOM     52  O   UNK d   0      51.389   9.388  39.316  0.00  0.00    -0.650 OA
BRANCH  51  53
ATOM     53  O   UNK d   0      52.015  11.519  39.738  0.00  0.00    -0.776 OA
ATOM     54  H   UNK d   0      51.648  12.074  40.491  0.00  0.00     0.167 HD
ENDBRANCH  51  53
ENDBRANCH  50  51
ENDBRANCH  49  50
ENDBRANCH  24  49
BRANCH  21  55
ATOM     55  C   UNK d   0      47.577  10.544  35.574  0.00  0.00     0.151 C 
BRANCH  55  56
ATOM     56  C   UNK d   0      47.746   9.961  34.234  0.00  0.00     0.143 C 
ATOM     57  O   UNK d   0      46.997  10.239  33.278  0.00  0.00    -0.650 OA
BRANCH  56  58
ATOM     58  O   UNK d   0      48.794   9.061  34.046  0.00  0.00    -0.776 OA
ATOM     59  H   UNK d   0      49.569   9.145  34.728  0.00  0.00     0.167 HD
ENDBRANCH  56  58
ENDBRANCH  55  56
ENDBRANCH  21  55
BRANCH  18  60
ATOM     60  C   UNK d   0      45.080  13.560  31.903  0.00  0.00     0.151 C 
BRANCH  60  61
ATOM     61  C   UNK d   0      46.250  13.281  31.056  0.00  0.00     0.143 C 
ATOM     62  O   UNK d   0      47.384  12.982  31.432  0.00  0.00    -0.650 OA
BRANCH  61  63
ATOM     63  O   UNK d   0      46.020  13.371  29.662  0.00  0.00    -0.776 OA
ATOM     64  H   UNK d   0      45.784  12.557  29.122  0.00  0.00     0.167 HD
ENDBRANCH  61  63
ENDBRANCH  60  61
ENDBRANCH  18  60
BRANCH  14  65
ATOM     65  C   UNK d   0      44.496  16.468  31.260  0.00  0.00     0.052 C 
BRANCH  65  66
ATOM     66  C   UNK d   0      45.353  16.577  30.048  0.00  0.00     0.115 C 
BRANCH  66  67
ATOM     67  C   UNK d   0      46.727  16.970  30.182  0.00  0.00     0.139 C 
ATOM     68  O   UNK d   0      47.636  16.065  30.092  0.00  0.00    -0.650 OA
BRANCH  67  69
ATOM     69  O   UNK d   0      47.230  18.251  30.405  0.00  0.00    -0.776 OA
ATOM     70  H   UNK d   0      46.794  18.776  31.177  0.00  0.00     0.167 HD
ENDBRANCH  67  69
ENDBRANCH  66  67
ENDBRANCH  65  66
ENDBRANCH  14  65
ENDBRANCH   6   7
ENDBRANCH   5   6
ENDBRANCH   2   5
TORSDOF 28
ENDMDL
MODEL 20
REMARK VINA RESULT:      -9.2     28.082     31.350
REMARK  28 active torsions:
REMARK  status: ('A' for Active; 'I' for Inactive)
REMARK    1  A    between atoms: C_2  and  O_3 
REMARK    2  A    between atoms: C_2  and  C_4 
REMARK    3  A    between atoms: C_4  and  C_5 
REMARK    4  A    between atoms: C_5  and  C_6 
REMARK    5  A    between atoms: C_7  and  C_8 
REMARK    6  A    between atoms: C_8  and  C_9 
REMARK    7  A    between atoms: C_9  and  O_11 
REMARK    8  A    between atoms: C_28  and  C_29 
REMARK    9  A    between atoms: C_29  and  C_30 
REMARK   10  A    between atoms: C_30  and  O_32 
REMARK   11  A    between atoms: C_33  and  C_34 
REMARK   12  A    between atoms: C_34  and  C_35 
REMARK   13  A    between atoms: C_35  and  C_36 
REMARK   14  A    between atoms: C_36  and  O_38 
REMARK   15  A    between atoms: C_39  and  C_40 
REMARK   16  A    between atoms: C_40  and  C_41 
REMARK   17  A    between atoms: C_41  and  C_42 
REMARK   18  A    between atoms: C_42  and  O_44 
REMARK   19  A    between atoms: C_45  and  C_46 
REMARK   20  A    between atoms: C_46  and  C_47 
REMARK   21  A    between atoms: C_47  and  O_49 
REMARK   22  A    between atoms: C_50  and  C_51 
REMARK   23  A    between atoms: C_51  and  C_52 
REMARK   24  A    between atoms: C_52  and  O_54 
REMARK   25  A    between atoms: C_55  and  C_56 
REMARK   26  A    between atoms: C_56  and  C_57 
REMARK   27  A    between atoms: C_57  and  C_58 
REMARK   28  A    between atoms: C_58  and  O_60 
ROOT
ATOM      1  O   UNK d   0      47.705  22.051  30.932  0.00  0.00    -0.650 OA
ATOM      2  C   UNK d   0      47.390  20.842  30.876  0.00  0.00     0.139 C 
ENDROOT
BRANCH   2   3
ATOM      3  O   UNK d   0      48.272  19.941  30.329  0.00  0.00    -0.776 OA
ATOM      4  H   UNK d   0      48.030  19.408  29.491  0.00  0.00     0.167 HD
ENDBRANCH   2   3
BRANCH   2   5
ATOM      5  C   UNK d   0      46.070  20.387  31.399  0.00  0.00     0.115 C 
BRANCH   5   6
ATOM      6  C   UNK d   0      46.052  20.469  32.901  0.00  0.00     0.052 C 
BRANCH   6   7
ATOM      7  C   UNK d   0      47.057  19.544  33.545  0.00  0.00    -0.020 A 
ATOM      8  C   UNK d   0      48.184  19.869  34.125  0.00  0.00    -0.011 A 
ATOM      9  C   UNK d   0      48.815  18.644  34.588  0.00  0.00     0.067 A 
ATOM     10  C   UNK d   0      49.989  18.310  35.281  0.00  0.00     0.062 C 
ATOM     11  N   UNK d   0      48.006  17.621  34.242  0.00  0.00    -0.248 NA
ATOM     12  C   UNK d   0      50.296  17.086  35.886  0.00  0.00     0.041 A 
ATOM     13  N   UNK d   0      50.118  15.819  35.465  0.00  0.00    -0.355 N 
ATOM     14  C   UNK d   0      50.840  17.086  37.184  0.00  0.00    -0.022 A 
ATOM     15  C   UNK d   0      50.527  15.016  36.465  0.00  0.00     0.042 A 
ATOM     16  H   UNK d   0      49.729  15.500  34.473  0.00  0.00     0.166 HD
ATOM     17  C   UNK d   0      50.559  13.610  36.552  0.00  0.00     0.062 C 
ATOM     18  C   UNK d   0      50.986  15.774  37.560  0.00  0.00    -0.013 A 
ATOM     19  C   UNK d   0      49.597  12.701  36.192  0.00  0.00     0.067 A 
ATOM     20  N   UNK d   0      48.564  13.164  35.483  0.00  0.00    -0.248 NA
ATOM     21  C   UNK d   0      49.373  11.280  36.396  0.00  0.00    -0.011 A 
ATOM     22  C   UNK d   0      47.680  12.148  35.210  0.00  0.00     0.066 A 
ATOM     23  C   UNK d   0      46.574  12.483  34.443  0.00  0.00     0.062 C 
ATOM     24  C   UNK d   0      48.248  10.964  35.823  0.00  0.00    -0.020 A 
ATOM     25  C   UNK d   0      46.290  13.715  33.834  0.00  0.00     0.041 A 
ATOM     26  N   UNK d   0      46.454  14.974  34.258  0.00  0.00    -0.355 N 
ATOM     27  C   UNK d   0      45.749  13.714  32.530  0.00  0.00    -0.022 A 
ATOM     28  C   UNK d   0      46.038  15.777  33.266  0.00  0.00     0.042 A 
ATOM     29  H   UNK d   0      46.835  15.294  35.259  0.00  0.00     0.166 HD
ATOM     30  C   UNK d   0      45.992  17.177  33.169  0.00  0.00     0.062 C 
ATOM     31  C   UNK d   0      45.587  15.015  32.162  0.00  0.00    -0.013 A 
ATOM     32  C   UNK d   0      46.930  18.096  33.613  0.00  0.00     0.066 A 
BRANCH   8  33
ATOM     33  C   UNK d   0      48.737  21.226  34.286  0.00  0.00     0.151 C 
BRANCH  33  34
ATOM     34  C   UNK d   0      50.092  21.361  33.720  0.00  0.00     0.143 C 
ATOM     35  O   UNK d   0      51.038  21.748  34.420  0.00  0.00    -0.650 OA
BRANCH  34  36
ATOM     36  O   UNK d   0      50.305  21.053  32.396  0.00  0.00    -0.776 OA
ATOM     37  H   UNK d   0      50.180  20.094  32.044  0.00  0.00     0.167 HD
ENDBRANCH  34  36
ENDBRANCH  33  34
ENDBRANCH   8  33
BRANCH  31  38
ATOM     38  C   UNK d   0      45.049  15.507  30.839  0.00  0.00     0.151 C 
BRANCH  38  39
ATOM     39  C   UNK d   0      43.602  15.521  30.792  0.00  0.00     0.143 C 
ATOM     40  O   UNK d   0      42.919  16.248  31.535  0.00  0.00    -0.650 OA
BRANCH  39  41
ATOM     41  O   UNK d   0      42.937  14.697  29.884  0.00  0.00    -0.776 OA
ATOM     42  H   UNK d   0      41.936  14.549  30.043  0.00  0.00     0.167 HD
ENDBRANCH  39  41
ENDBRANCH  38  39
ENDBRANCH  31  38
BRANCH  27  43
ATOM     43  C   UNK d   0      45.387  12.549  31.643  0.00  0.00     0.052 C 
BRANCH  43  44
ATOM     44  C   UNK d   0      46.482  12.157  30.705  0.00  0.00     0.115 C 
BRANCH  44  45
ATOM     45  C   UNK d   0      45.856  11.987  29.369  0.00  0.00     0.139 C 
ATOM     46  O   UNK d   0      46.531  11.436  28.464  0.00  0.00    -0.650 OA
BRANCH  45  47
ATOM     47  O   UNK d   0      44.572  12.401  29.087  0.00  0.00    -0.776 OA
ATOM     48  H   UNK d   0      43.735  11.927  29.464  0.00  0.00     0.167 HD
ENDBRANCH  45  47
ENDBRANCH  44  45
ENDBRANCH  43  44
ENDBRANCH  27  43
BRANCH  24  49
ATOM     49  C   UNK d   0      47.657   9.616  35.754  0.00  0.00     0.052 C 
BRANCH  49  50
ATOM     50  C   UNK d   0      47.527   9.173  34.319  0.00  0.00     0.115 C 
BRANCH  50  51
ATOM     51  C   UNK d   0      48.577   8.311  33.792  0.00  0.00     0.139 C 
ATOM     52  O   UNK d   0      49.010   7.314  34.417  0.00  0.00    -0.650 OA
BRANCH  51  53
ATOM     53  O   UNK d   0      49.134   8.588  32.553  0.00  0.00    -0.776 OA
ATOM     54  H   UNK d   0      48.608   8.348  31.731  0.00  0.00     0.167 HD
ENDBRANCH  51  53
ENDBRANCH  50  51
ENDBRANCH  49  50
ENDBRANCH  24  49
BRANCH  21  55
ATOM     55  C   UNK d   0      50.309  10.386  37.140  0.00  0.00     0.151 C 
BRANCH  55  56
ATOM     56  C   UNK d   0      50.248  10.609  38.592  0.00  0.00     0.143 C 
ATOM     57  O   UNK d   0      51.224  11.013  39.255  0.00  0.00    -0.650 OA
BRANCH  56  58
ATOM     58  O   UNK d   0      49.040  10.353  39.238  0.00  0.00    -0.776 OA
ATOM     59  H   UNK d   0      49.025  10.590  40.247  0.00  0.00     0.167 HD
ENDBRANCH  56  58
ENDBRANCH  55  56
ENDBRANCH  21  55
BRANCH  18  60
ATOM     60  C   UNK d   0      51.530  15.311  38.889  0.00  0.00     0.151 C 
BRANCH  60  61
ATOM     61  C   UNK d   0      52.816  14.662  38.594  0.00  0.00     0.143 C 
ATOM     62  O   UNK d   0      53.727  15.102  37.893  0.00  0.00    -0.650 OA
BRANCH  61  63
ATOM     63  O   UNK d   0      53.002  13.393  39.195  0.00  0.00    -0.776 OA
ATOM     64  H   UNK d   0      53.727  12.773  38.882  0.00  0.00     0.167 HD
ENDBRANCH  61  63
ENDBRANCH  60  61
ENDBRANCH  18  60
BRANCH  14  65
ATOM     65  C   UNK d   0      51.318  18.219  38.047  0.00  0.00     0.052 C 
BRANCH  65  66
ATOM     66  C   UNK d   0      50.239  19.182  38.393  0.00  0.00     0.115 C 
BRANCH  66  67
ATOM     67  C   UNK d   0      50.271  20.512  37.853  0.00  0.00     0.139 C 
ATOM     68  O   UNK d   0      49.177  21.187  37.819  0.00  0.00    -0.650 OA
BRANCH  67  69
ATOM     69  O   UNK d   0      51.371  21.198  37.341  0.00  0.00    -0.776 OA
ATOM     70  H   UNK d   0      51.243  21.618  36.409  0.00  0.00     0.167 HD
ENDBRANCH  67  69
ENDBRANCH  66  67
ENDBRANCH  65  66
ENDBRANCH  14  65
ENDBRANCH   6   7
ENDBRANCH   5   6
ENDBRANCH   2   5
TORSDOF 28
ENDMDL
