MODEL 1
REMARK VINA RESULT:      -8.2      0.000      0.000
REMARK  28 active torsions:
REMARK  status: ('A' for Active; 'I' for Inactive)
REMARK    1  A    between atoms: C_2  and  O_3 
REMARK    2  A    between atoms: C_2  and  C_4 
REMARK    3  A    between atoms: C_4  and  C_5 
REMARK    4  A    between atoms: C_5  and  C_6 
REMARK    5  A    between atoms: C_7  and  C_8 
REMARK    6  A    between atoms: C_8  and  C_9 
REMARK    7  A    between atoms: C_9  and  O_11 
REMARK    8  A    between atoms: C_28  and  C_29 
REMARK    9  A    between atoms: C_29  and  C_30 
REMARK   10  A    between atoms: C_30  and  O_32 
REMARK   11  A    between atoms: C_33  and  C_34 
REMARK   12  A    between atoms: C_34  and  C_35 
REMARK   13  A    between atoms: C_35  and  C_36 
REMARK   14  A    between atoms: C_36  and  O_38 
REMARK   15  A    between atoms: C_39  and  C_40 
REMARK   16  A    between atoms: C_40  and  C_41 
REMARK   17  A    between atoms: C_41  and  C_42 
REMARK   18  A    between atoms: C_42  and  O_44 
REMARK   19  A    between atoms: C_45  and  C_46 
REMARK   20  A    between atoms: C_46  and  C_47 
REMARK   21  A    between atoms: C_47  and  O_49 
REMARK   22  A    between atoms: C_50  and  C_51 
REMARK   23  A    between atoms: C_51  and  C_52 
REMARK   24  A    between atoms: C_52  and  O_54 
REMARK   25  A    between atoms: C_55  and  C_56 
REMARK   26  A    between atoms: C_56  and  C_57 
REMARK   27  A    between atoms: C_57  and  C_58 
REMARK   28  A    between atoms: C_58  and  O_60 
ROOT
ATOM      1  O   UNK d   0      21.106   1.883 -13.204  0.00  0.00    -0.650 OA
ATOM      2  C   UNK d   0      21.925   2.717 -12.758  0.00  0.00     0.139 C 
ENDROOT
BRANCH   2   3
ATOM      3  O   UNK d   0      22.919   2.297 -11.908  0.00  0.00    -0.776 OA
ATOM      4  H   UNK d   0      22.700   1.772 -11.058  0.00  0.00     0.167 HD
ENDBRANCH   2   3
BRANCH   2   5
ATOM      5  C   UNK d   0      21.819   4.151 -13.148  0.00  0.00     0.115 C 
BRANCH   5   6
ATOM      6  C   UNK d   0      20.430   4.452 -13.644  0.00  0.00     0.052 C 
BRANCH   6   7
ATOM      7  C   UNK d   0      19.599   5.200 -12.630  0.00  0.00    -0.020 A 
ATOM      8  C   UNK d   0      19.297   6.473 -12.628  0.00  0.00    -0.011 A 
ATOM      9  C   UNK d   0      18.487   6.737 -11.451  0.00  0.00     0.067 A 
ATOM     10  C   UNK d   0      17.844   7.853 -10.893  0.00  0.00     0.062 C 
ATOM     11  N   UNK d   0      18.350   5.569 -10.789  0.00  0.00    -0.248 NA
ATOM     12  C   UNK d   0      16.869   7.856  -9.890  0.00  0.00     0.041 A 
ATOM     13  N   UNK d   0      16.779   7.160  -8.740  0.00  0.00    -0.355 N 
ATOM     14  C   UNK d   0      15.724   8.656 -10.055  0.00  0.00    -0.022 A 
ATOM     15  C   UNK d   0      15.602   7.492  -8.176  0.00  0.00     0.042 A 
ATOM     16  H   UNK d   0      17.540   6.463  -8.326  0.00  0.00     0.166 HD
ATOM     17  C   UNK d   0      15.012   7.060  -6.972  0.00  0.00     0.062 C 
ATOM     18  C   UNK d   0      14.912   8.428  -8.972  0.00  0.00    -0.013 A 
ATOM     19  C   UNK d   0      14.916   5.789  -6.466  0.00  0.00     0.067 A 
ATOM     20  N   UNK d   0      15.635   4.841  -7.073  0.00  0.00    -0.248 NA
ATOM     21  C   UNK d   0      14.185   5.146  -5.386  0.00  0.00    -0.011 A 
ATOM     22  C   UNK d   0      15.426   3.625  -6.469  0.00  0.00     0.066 A 
ATOM     23  C   UNK d   0      16.145   2.553  -6.978  0.00  0.00     0.062 C 
ATOM     24  C   UNK d   0      14.485   3.879  -5.396  0.00  0.00    -0.020 A 
ATOM     25  C   UNK d   0      17.129   2.574  -7.978  0.00  0.00     0.041 A 
ATOM     26  N   UNK d   0      17.212   3.254  -9.127  0.00  0.00    -0.355 N 
ATOM     27  C   UNK d   0      18.280   1.774  -7.809  0.00  0.00    -0.022 A 
ATOM     28  C   UNK d   0      18.381   2.917  -9.696  0.00  0.00     0.042 A 
ATOM     29  H   UNK d   0      16.441   3.946  -9.547  0.00  0.00     0.166 HD
ATOM     30  C   UNK d   0      18.975   3.332 -10.898  0.00  0.00     0.062 C 
ATOM     31  C   UNK d   0      19.078   1.985  -8.891  0.00  0.00    -0.013 A 
ATOM     32  C   UNK d   0      18.996   4.605 -11.447  0.00  0.00     0.066 A 
BRANCH   8  33
ATOM     33  C   UNK d   0      19.700   7.479 -13.628  0.00  0.00     0.151 C 
BRANCH  33  34
ATOM     34  C   UNK d   0      20.795   8.346 -13.157  0.00  0.00     0.143 C 
ATOM     35  O   UNK d   0      21.169   9.320 -13.826  0.00  0.00    -0.650 OA
BRANCH  34  36
ATOM     36  O   UNK d   0      21.409   8.067 -11.958  0.00  0.00    -0.776 OA
ATOM     37  H   UNK d   0      22.125   8.693 -11.565  0.00  0.00     0.167 HD
ENDBRANCH  34  36
ENDBRANCH  33  34
ENDBRANCH   8  33
BRANCH  31  38
ATOM     38  C   UNK d   0      20.427   1.353  -9.142  0.00  0.00     0.151 C 
BRANCH  38  39
ATOM     39  C   UNK d   0      20.395   0.362 -10.196  0.00  0.00     0.143 C 
ATOM     40  O   UNK d   0      19.330  -0.103 -10.640  0.00  0.00    -0.650 OA
BRANCH  39  41
ATOM     41  O   UNK d   0      21.593  -0.097 -10.743  0.00  0.00    -0.776 OA
ATOM     42  H   UNK d   0      22.458   0.264 -10.328  0.00  0.00     0.167 HD
ENDBRANCH  39  41
ENDBRANCH  38  39
ENDBRANCH  31  38
BRANCH  27  43
ATOM     43  C   UNK d   0      18.639   0.836  -6.683  0.00  0.00     0.052 C 
BRANCH  43  44
ATOM     44  C   UNK d   0      17.921  -0.473  -6.753  0.00  0.00     0.115 C 
BRANCH  44  45
ATOM     45  C   UNK d   0      18.962  -1.532  -6.680  0.00  0.00     0.139 C 
ATOM     46  O   UNK d   0      18.587  -2.730  -6.664  0.00  0.00    -0.650 OA
BRANCH  45  47
ATOM     47  O   UNK d   0      20.311  -1.252  -6.634  0.00  0.00    -0.776 OA
ATOM     48  H   UNK d   0      20.987  -1.834  -6.114  0.00  0.00     0.167 HD
ENDBRANCH  45  47
ENDBRANCH  44  45
ENDBRANCH  43  44
ENDBRANCH  27  43
BRANCH  24  49
ATOM     49  C   UNK d   0      13.997   2.864  -4.447  0.00  0.00     0.052 C 
BRANCH  49  50
ATOM     50  C   UNK d   0      12.521   2.629  -4.643  0.00  0.00     0.115 C 
BRANCH  50  51
ATOM     51  C   UNK d   0      11.658   2.818  -3.486  0.00  0.00     0.139 C 
ATOM     52  O   UNK d   0      10.427   2.580  -3.514  0.00  0.00    -0.650 OA
BRANCH  51  53
ATOM     53  O   UNK d   0      12.198   3.281  -2.295  0.00  0.00    -0.776 OA
ATOM     54  H   UNK d   0      13.024   2.832  -1.942  0.00  0.00     0.167 HD
ENDBRANCH  51  53
ENDBRANCH  50  51
ENDBRANCH  49  50
ENDBRANCH  24  49
BRANCH  21  55
ATOM     55  C   UNK d   0      13.267   5.866  -4.455  0.00  0.00     0.151 C 
BRANCH  55  56
ATOM     56  C   UNK d   0      13.918   6.182  -3.174  0.00  0.00     0.143 C 
ATOM     57  O   UNK d   0      15.121   6.496  -3.087  0.00  0.00    -0.650 OA
BRANCH  56  58
ATOM     58  O   UNK d   0      13.139   6.122  -2.019  0.00  0.00    -0.776 OA
ATOM     59  H   UNK d   0      12.753   7.031  -1.706  0.00  0.00     0.167 HD
ENDBRANCH  56  58
ENDBRANCH  55  56
ENDBRANCH  21  55
BRANCH  18  60
ATOM     60  C   UNK d   0      13.570   9.077  -8.746  0.00  0.00     0.151 C 
BRANCH  60  61
ATOM     61  C   UNK d   0      12.578   8.173  -9.349  0.00  0.00     0.143 C 
ATOM     62  O   UNK d   0      12.124   7.138  -8.861  0.00  0.00    -0.650 OA
BRANCH  61  63
ATOM     63  O   UNK d   0      12.110   8.559 -10.628  0.00  0.00    -0.776 OA
ATOM     64  H   UNK d   0      12.511   8.173 -11.464  0.00  0.00     0.167 HD
ENDBRANCH  61  63
ENDBRANCH  60  61
ENDBRANCH  18  60
BRANCH  14  65
ATOM     65  C   UNK d   0      15.387   9.682 -11.099  0.00  0.00     0.052 C 
BRANCH  65  66
ATOM     66  C   UNK d   0      15.605  11.078 -10.633  0.00  0.00     0.115 C 
BRANCH  66  67
ATOM     67  C   UNK d   0      14.583  12.066 -10.842  0.00  0.00     0.139 C 
ATOM     68  O   UNK d   0      14.935  13.241 -11.226  0.00  0.00    -0.650 OA
BRANCH  67  69
ATOM     69  O   UNK d   0      13.207  11.917 -10.678  0.00  0.00    -0.776 OA
ATOM     70  H   UNK d   0      12.906  11.084 -10.152  0.00  0.00     0.167 HD
ENDBRANCH  67  69
ENDBRANCH  66  67
ENDBRANCH  65  66
ENDBRANCH  14  65
ENDBRANCH   6   7
ENDBRANCH   5   6
ENDBRANCH   2   5
TORSDOF 28
ENDMDL
MODEL 2
REMARK VINA RESULT:      -7.6     15.064     19.896
REMARK  28 active torsions:
REMARK  status: ('A' for Active; 'I' for Inactive)
REMARK    1  A    between atoms: C_2  and  O_3 
REMARK    2  A    between atoms: C_2  and  C_4 
REMARK    3  A    between atoms: C_4  and  C_5 
REMARK    4  A    between atoms: C_5  and  C_6 
REMARK    5  A    between atoms: C_7  and  C_8 
REMARK    6  A    between atoms: C_8  and  C_9 
REMARK    7  A    between atoms: C_9  and  O_11 
REMARK    8  A    between atoms: C_28  and  C_29 
REMARK    9  A    between atoms: C_29  and  C_30 
REMARK   10  A    between atoms: C_30  and  O_32 
REMARK   11  A    between atoms: C_33  and  C_34 
REMARK   12  A    between atoms: C_34  and  C_35 
REMARK   13  A    between atoms: C_35  and  C_36 
REMARK   14  A    between atoms: C_36  and  O_38 
REMARK   15  A    between atoms: C_39  and  C_40 
REMARK   16  A    between atoms: C_40  and  C_41 
REMARK   17  A    between atoms: C_41  and  C_42 
REMARK   18  A    between atoms: C_42  and  O_44 
REMARK   19  A    between atoms: C_45  and  C_46 
REMARK   20  A    between atoms: C_46  and  C_47 
REMARK   21  A    between atoms: C_47  and  O_49 
REMARK   22  A    between atoms: C_50  and  C_51 
REMARK   23  A    between atoms: C_51  and  C_52 
REMARK   24  A    between atoms: C_52  and  O_54 
REMARK   25  A    between atoms: C_55  and  C_56 
REMARK   26  A    between atoms: C_56  and  C_57 
REMARK   27  A    between atoms: C_57  and  C_58 
REMARK   28  A    between atoms: C_58  and  O_60 
ROOT
ATOM      1  O   UNK d   0      13.260 -11.701  -2.488  0.00  0.00    -0.650 OA
ATOM      2  C   UNK d   0      12.200 -11.950  -3.104  0.00  0.00     0.139 C 
ENDROOT
BRANCH   2   3
ATOM      3  O   UNK d   0      12.207 -12.890  -4.106  0.00  0.00    -0.776 OA
ATOM      4  H   UNK d   0      12.389 -13.875  -3.904  0.00  0.00     0.167 HD
ENDBRANCH   2   3
BRANCH   2   5
ATOM      5  C   UNK d   0      10.943 -11.230  -2.751  0.00  0.00     0.115 C 
BRANCH   5   6
ATOM      6  C   UNK d   0      10.951  -9.850  -3.350  0.00  0.00     0.052 C 
BRANCH   6   7
ATOM      7  C   UNK d   0      10.563  -9.848  -4.809  0.00  0.00    -0.020 A 
ATOM      8  C   UNK d   0      11.358  -9.772  -5.846  0.00  0.00    -0.011 A 
ATOM      9  C   UNK d   0      10.532  -9.796  -7.042  0.00  0.00     0.067 A 
ATOM     10  C   UNK d   0      10.756  -9.770  -8.427  0.00  0.00     0.062 C 
ATOM     11  N   UNK d   0       9.247  -9.883  -6.640  0.00  0.00    -0.248 NA
ATOM     12  C   UNK d   0       9.842 -10.084  -9.439  0.00  0.00     0.041 A 
ATOM     13  N   UNK d   0       8.541  -9.770  -9.587  0.00  0.00    -0.355 N 
ATOM     14  C   UNK d   0      10.257 -10.912 -10.498  0.00  0.00    -0.022 A 
ATOM     15  C   UNK d   0       8.118 -10.385 -10.708  0.00  0.00     0.042 A 
ATOM     16  H   UNK d   0       7.939  -9.112  -8.923  0.00  0.00     0.166 HD
ATOM     17  C   UNK d   0       6.850 -10.391 -11.323  0.00  0.00     0.062 C 
ATOM     18  C   UNK d   0       9.166 -11.111 -11.307  0.00  0.00    -0.013 A 
ATOM     19  C   UNK d   0       5.614 -10.548 -10.750  0.00  0.00     0.067 A 
ATOM     20  N   UNK d   0       5.555 -10.493  -9.416  0.00  0.00    -0.248 NA
ATOM     21  C   UNK d   0       4.263 -10.787 -11.228  0.00  0.00    -0.011 A 
ATOM     22  C   UNK d   0       4.263 -10.680  -8.989  0.00  0.00     0.066 A 
ATOM     23  C   UNK d   0       4.051 -10.609  -7.620  0.00  0.00     0.062 C 
ATOM     24  C   UNK d   0       3.478 -10.867 -10.193  0.00  0.00    -0.020 A 
ATOM     25  C   UNK d   0       4.980 -10.279  -6.621  0.00  0.00     0.041 A 
ATOM     26  N   UNK d   0       6.269 -10.603  -6.466  0.00  0.00    -0.355 N 
ATOM     27  C   UNK d   0       4.564  -9.444  -5.561  0.00  0.00    -0.022 A 
ATOM     28  C   UNK d   0       6.691  -9.999  -5.344  0.00  0.00     0.042 A 
ATOM     29  H   UNK d   0       6.870 -11.273  -7.128  0.00  0.00     0.166 HD
ATOM     30  C   UNK d   0       7.947  -9.991  -4.716  0.00  0.00     0.062 C 
ATOM     31  C   UNK d   0       5.640  -9.261  -4.749  0.00  0.00    -0.013 A 
ATOM     32  C   UNK d   0       9.198  -9.918  -5.307  0.00  0.00     0.066 A 
BRANCH   8  33
ATOM     33  C   UNK d   0      12.829  -9.673  -5.828  0.00  0.00     0.151 C 
BRANCH  33  34
ATOM     34  C   UNK d   0      13.315  -8.328  -6.188  0.00  0.00     0.143 C 
ATOM     35  O   UNK d   0      12.712  -7.313  -5.813  0.00  0.00    -0.650 OA
BRANCH  34  36
ATOM     36  O   UNK d   0      14.452  -8.203  -6.951  0.00  0.00    -0.776 OA
ATOM     37  H   UNK d   0      14.411  -7.849  -7.917  0.00  0.00     0.167 HD
ENDBRANCH  34  36
ENDBRANCH  33  34
ENDBRANCH   8  33
BRANCH  31  38
ATOM     38  C   UNK d   0       5.676  -8.426  -3.490  0.00  0.00     0.151 C 
BRANCH  38  39
ATOM     39  C   UNK d   0       6.165  -7.083  -3.721  0.00  0.00     0.143 C 
ATOM     40  O   UNK d   0       7.303  -6.721  -3.374  0.00  0.00    -0.650 OA
BRANCH  39  41
ATOM     41  O   UNK d   0       5.342  -6.152  -4.354  0.00  0.00    -0.776 OA
ATOM     42  H   UNK d   0       5.442  -6.063  -5.370  0.00  0.00     0.167 HD
ENDBRANCH  39  41
ENDBRANCH  38  39
ENDBRANCH  31  38
BRANCH  27  43
ATOM     43  C   UNK d   0       3.211  -8.831  -5.299  0.00  0.00     0.052 C 
BRANCH  43  44
ATOM     44  C   UNK d   0       2.498  -9.448  -4.139  0.00  0.00     0.115 C 
BRANCH  44  45
ATOM     45  C   UNK d   0       1.998 -10.769  -4.602  0.00  0.00     0.139 C 
ATOM     46  O   UNK d   0       0.807 -10.848  -4.992  0.00  0.00    -0.650 OA
BRANCH  45  47
ATOM     47  O   UNK d   0       2.786 -11.899  -4.623  0.00  0.00    -0.776 OA
ATOM     48  H   UNK d   0       3.771 -11.902  -4.312  0.00  0.00     0.167 HD
ENDBRANCH  45  47
ENDBRANCH  44  45
ENDBRANCH  43  44
ENDBRANCH  27  43
BRANCH  24  49
ATOM     49  C   UNK d   0       2.018 -11.065 -10.223  0.00  0.00     0.052 C 
BRANCH  49  50
ATOM     50  C   UNK d   0       1.673 -12.479  -9.833  0.00  0.00     0.115 C 
BRANCH  50  51
ATOM     51  C   UNK d   0       1.683 -13.482 -10.889  0.00  0.00     0.139 C 
ATOM     52  O   UNK d   0       2.547 -14.387 -10.955  0.00  0.00    -0.650 OA
BRANCH  51  53
ATOM     53  O   UNK d   0       0.707 -13.451 -11.874  0.00  0.00    -0.776 OA
ATOM     54  H   UNK d   0       0.070 -14.225 -11.936  0.00  0.00     0.167 HD
ENDBRANCH  51  53
ENDBRANCH  50  51
ENDBRANCH  49  50
ENDBRANCH  24  49
BRANCH  21  55
ATOM     55  C   UNK d   0       3.897 -10.906 -12.671  0.00  0.00     0.151 C 
BRANCH  55  56
ATOM     56  C   UNK d   0       4.027 -12.286 -13.161  0.00  0.00     0.143 C 
ATOM     57  O   UNK d   0       3.395 -12.716 -14.146  0.00  0.00    -0.650 OA
BRANCH  56  58
ATOM     58  O   UNK d   0       4.900 -13.136 -12.483  0.00  0.00    -0.776 OA
ATOM     59  H   UNK d   0       5.879 -13.116 -12.822  0.00  0.00     0.167 HD
ENDBRANCH  56  58
ENDBRANCH  55  56
ENDBRANCH  21  55
BRANCH  18  60
ATOM     60  C   UNK d   0       9.161 -11.948 -12.561  0.00  0.00     0.151 C 
BRANCH  60  61
ATOM     61  C   UNK d   0       8.817 -13.313 -12.134  0.00  0.00     0.143 C 
ATOM     62  O   UNK d   0       7.712 -13.724 -11.780  0.00  0.00    -0.650 OA
BRANCH  61  63
ATOM     63  O   UNK d   0       9.892 -14.235 -12.140  0.00  0.00    -0.776 OA
ATOM     64  H   UNK d   0      10.589 -14.222 -11.417  0.00  0.00     0.167 HD
ENDBRANCH  61  63
ENDBRANCH  60  61
ENDBRANCH  18  60
BRANCH  14  65
ATOM     65  C   UNK d   0      11.617 -11.444 -10.852  0.00  0.00     0.052 C 
BRANCH  65  66
ATOM     66  C   UNK d   0      12.349 -10.575 -11.813  0.00  0.00     0.115 C 
BRANCH  66  67
ATOM     67  C   UNK d   0      13.509  -9.850 -11.376  0.00  0.00     0.139 C 
ATOM     68  O   UNK d   0      14.403  -9.540 -12.246  0.00  0.00    -0.650 OA
BRANCH  67  69
ATOM     69  O   UNK d   0      13.810  -9.420 -10.084  0.00  0.00    -0.776 OA
ATOM     70  H   UNK d   0      13.015  -9.377  -9.430  0.00  0.00     0.167 HD
ENDBRANCH  67  69
ENDBRANCH  66  67
ENDBRANCH  65  66
ENDBRANCH  14  65
ENDBRANCH   6   7
ENDBRANCH   5   6
ENDBRANCH   2   5
TORSDOF 28
ENDMDL
MODEL 3
REMARK VINA RESULT:      -7.4     16.196     19.664
REMARK  28 active torsions:
REMARK  status: ('A' for Active; 'I' for Inactive)
REMARK    1  A    between atoms: C_2  and  O_3 
REMARK    2  A    between atoms: C_2  and  C_4 
REMARK    3  A    between atoms: C_4  and  C_5 
REMARK    4  A    between atoms: C_5  and  C_6 
REMARK    5  A    between atoms: C_7  and  C_8 
REMARK    6  A    between atoms: C_8  and  C_9 
REMARK    7  A    between atoms: C_9  and  O_11 
REMARK    8  A    between atoms: C_28  and  C_29 
REMARK    9  A    between atoms: C_29  and  C_30 
REMARK   10  A    between atoms: C_30  and  O_32 
REMARK   11  A    between atoms: C_33  and  C_34 
REMARK   12  A    between atoms: C_34  and  C_35 
REMARK   13  A    between atoms: C_35  and  C_36 
REMARK   14  A    between atoms: C_36  and  O_38 
REMARK   15  A    between atoms: C_39  and  C_40 
REMARK   16  A    between atoms: C_40  and  C_41 
REMARK   17  A    between atoms: C_41  and  C_42 
REMARK   18  A    between atoms: C_42  and  O_44 
REMARK   19  A    between atoms: C_45  and  C_46 
REMARK   20  A    between atoms: C_46  and  C_47 
REMARK   21  A    between atoms: C_47  and  O_49 
REMARK   22  A    between atoms: C_50  and  C_51 
REMARK   23  A    between atoms: C_51  and  C_52 
REMARK   24  A    between atoms: C_52  and  O_54 
REMARK   25  A    between atoms: C_55  and  C_56 
REMARK   26  A    between atoms: C_56  and  C_57 
REMARK   27  A    between atoms: C_57  and  C_58 
REMARK   28  A    between atoms: C_58  and  O_60 
ROOT
ATOM      1  O   UNK d   0      14.025  -8.365 -12.919  0.00  0.00    -0.650 OA
ATOM      2  C   UNK d   0      13.041  -8.874 -13.499  0.00  0.00     0.139 C 
ENDROOT
BRANCH   2   3
ATOM      3  O   UNK d   0      13.102  -9.105 -14.852  0.00  0.00    -0.776 OA
ATOM      4  H   UNK d   0      12.497  -8.599 -15.501  0.00  0.00     0.167 HD
ENDBRANCH   2   3
BRANCH   2   5
ATOM      5  C   UNK d   0      11.816  -9.226 -12.726  0.00  0.00     0.115 C 
BRANCH   5   6
ATOM      6  C   UNK d   0      10.803  -8.119 -12.831  0.00  0.00     0.052 C 
BRANCH   6   7
ATOM      7  C   UNK d   0       9.382  -8.630 -12.828  0.00  0.00    -0.020 A 
ATOM      8  C   UNK d   0       8.549  -8.681 -13.836  0.00  0.00    -0.011 A 
ATOM      9  C   UNK d   0       7.298  -9.240 -13.352  0.00  0.00     0.067 A 
ATOM     10  C   UNK d   0       6.052  -9.567 -13.910  0.00  0.00     0.062 C 
ATOM     11  N   UNK d   0       7.455  -9.495 -12.036  0.00  0.00    -0.248 NA
ATOM     12  C   UNK d   0       5.051 -10.362 -13.341  0.00  0.00     0.041 A 
ATOM     13  N   UNK d   0       4.564 -10.410 -12.086  0.00  0.00    -0.355 N 
ATOM     14  C   UNK d   0       4.430 -11.345 -14.132  0.00  0.00    -0.022 A 
ATOM     15  C   UNK d   0       3.656 -11.403 -12.060  0.00  0.00     0.042 A 
ATOM     16  H   UNK d   0       4.842  -9.742 -11.242  0.00  0.00     0.166 HD
ATOM     17  C   UNK d   0       2.851 -11.877 -11.004  0.00  0.00     0.062 C 
ATOM     18  C   UNK d   0       3.545 -12.013 -13.324  0.00  0.00    -0.013 A 
ATOM     19  C   UNK d   0       3.200 -12.136  -9.703  0.00  0.00     0.067 A 
ATOM     20  N   UNK d   0       4.400 -11.710  -9.303  0.00  0.00    -0.248 NA
ATOM     21  C   UNK d   0       2.583 -12.805  -8.570  0.00  0.00    -0.011 A 
ATOM     22  C   UNK d   0       4.614 -12.053  -7.990  0.00  0.00     0.066 A 
ATOM     23  C   UNK d   0       5.814 -11.637  -7.432  0.00  0.00     0.062 C 
ATOM     24  C   UNK d   0       3.417 -12.757  -7.572  0.00  0.00    -0.020 A 
ATOM     25  C   UNK d   0       6.800 -10.829  -8.017  0.00  0.00     0.041 A 
ATOM     26  N   UNK d   0       7.295 -10.791  -9.260  0.00  0.00    -0.355 N 
ATOM     27  C   UNK d   0       7.420  -9.839  -7.223  0.00  0.00    -0.022 A 
ATOM     28  C   UNK d   0       8.208  -9.807  -9.287  0.00  0.00     0.042 A 
ATOM     29  H   UNK d   0       7.022 -11.470 -10.104  0.00  0.00     0.166 HD
ATOM     30  C   UNK d   0       9.022  -9.331 -10.327  0.00  0.00     0.062 C 
ATOM     31  C   UNK d   0       8.311  -9.187  -8.019  0.00  0.00    -0.013 A 
ATOM     32  C   UNK d   0       8.688  -9.151 -11.660  0.00  0.00     0.066 A 
BRANCH   8  33
ATOM     33  C   UNK d   0       8.810  -8.249 -15.222  0.00  0.00     0.151 C 
BRANCH  33  34
ATOM     34  C   UNK d   0       9.244  -9.356 -16.093  0.00  0.00     0.143 C 
ATOM     35  O   UNK d   0      10.353  -9.887 -15.942  0.00  0.00    -0.650 OA
BRANCH  34  36
ATOM     36  O   UNK d   0       8.403  -9.803 -17.086  0.00  0.00    -0.776 OA
ATOM     37  H   UNK d   0       8.509  -9.485 -18.059  0.00  0.00     0.167 HD
ENDBRANCH  34  36
ENDBRANCH  33  34
ENDBRANCH   8  33
BRANCH  31  38
ATOM     38  C   UNK d   0       9.199  -8.037  -7.606  0.00  0.00     0.151 C 
BRANCH  38  39
ATOM     39  C   UNK d   0       8.555  -6.749  -7.754  0.00  0.00     0.143 C 
ATOM     40  O   UNK d   0       8.473  -5.934  -6.818  0.00  0.00    -0.650 OA
BRANCH  39  41
ATOM     41  O   UNK d   0       8.003  -6.395  -8.985  0.00  0.00    -0.776 OA
ATOM     42  H   UNK d   0       7.054  -6.008  -8.971  0.00  0.00     0.167 HD
ENDBRANCH  39  41
ENDBRANCH  38  39
ENDBRANCH  31  38
BRANCH  27  43
ATOM     43  C   UNK d   0       7.201  -9.500  -5.769  0.00  0.00     0.052 C 
BRANCH  43  44
ATOM     44  C   UNK d   0       5.982  -8.669  -5.533  0.00  0.00     0.115 C 
BRANCH  44  45
ATOM     45  C   UNK d   0       6.420  -7.488  -4.745  0.00  0.00     0.139 C 
ATOM     46  O   UNK d   0       7.069  -7.689  -3.689  0.00  0.00    -0.650 OA
BRANCH  45  47
ATOM     47  O   UNK d   0       6.149  -6.192  -5.128  0.00  0.00    -0.776 OA
ATOM     48  H   UNK d   0       5.780  -5.949  -6.061  0.00  0.00     0.167 HD
ENDBRANCH  45  47
ENDBRANCH  44  45
ENDBRANCH  43  44
ENDBRANCH  27  43
BRANCH  24  49
ATOM     49  C   UNK d   0       3.181 -13.281  -6.216  0.00  0.00     0.052 C 
BRANCH  49  50
ATOM     50  C   UNK d   0       3.373 -12.192  -5.192  0.00  0.00     0.115 C 
BRANCH  50  51
ATOM     51  C   UNK d   0       2.530 -11.010  -5.312  0.00  0.00     0.139 C 
ATOM     52  O   UNK d   0       2.929  -9.946  -5.842  0.00  0.00    -0.650 OA
BRANCH  51  53
ATOM     53  O   UNK d   0       1.232 -11.041  -4.826  0.00  0.00    -0.776 OA
ATOM     54  H   UNK d   0       0.574 -10.370  -5.183  0.00  0.00     0.167 HD
ENDBRANCH  51  53
ENDBRANCH  50  51
ENDBRANCH  49  50
ENDBRANCH  24  49
BRANCH  21  55
ATOM     55  C   UNK d   0       1.222 -13.419  -8.602  0.00  0.00     0.151 C 
BRANCH  55  56
ATOM     56  C   UNK d   0       0.196 -12.512  -8.065  0.00  0.00     0.143 C 
ATOM     57  O   UNK d   0      -0.043 -12.410  -6.845  0.00  0.00    -0.650 OA
BRANCH  56  58
ATOM     58  O   UNK d   0      -0.530 -11.743  -8.973  0.00  0.00    -0.776 OA
ATOM     59  H   UNK d   0      -1.267 -11.150  -8.550  0.00  0.00     0.167 HD
ENDBRANCH  56  58
ENDBRANCH  55  56
ENDBRANCH  21  55
BRANCH  18  60
ATOM     60  C   UNK d   0       2.667 -13.159 -13.765  0.00  0.00     0.151 C 
BRANCH  60  61
ATOM     61  C   UNK d   0       1.370 -12.561 -14.116  0.00  0.00     0.143 C 
ATOM     62  O   UNK d   0       1.015 -12.155 -15.223  0.00  0.00    -0.650 OA
BRANCH  61  63
ATOM     63  O   UNK d   0       0.447 -12.453 -13.048  0.00  0.00    -0.776 OA
ATOM     64  H   UNK d   0       0.419 -11.632 -12.469  0.00  0.00     0.167 HD
ENDBRANCH  61  63
ENDBRANCH  60  61
ENDBRANCH  18  60
BRANCH  14  65
ATOM     65  C   UNK d   0       4.538 -11.633 -15.603  0.00  0.00     0.052 C 
BRANCH  65  66
ATOM     66  C   UNK d   0       3.743 -10.695 -16.439  0.00  0.00     0.115 C 
BRANCH  66  67
ATOM     67  C   UNK d   0       4.392  -9.582 -17.074  0.00  0.00     0.139 C 
ATOM     68  O   UNK d   0       5.528  -9.779 -17.645  0.00  0.00    -0.650 OA
BRANCH  67  69
ATOM     69  O   UNK d   0       3.940  -8.266 -17.160  0.00  0.00    -0.776 OA
ATOM     70  H   UNK d   0       4.416  -7.588 -16.547  0.00  0.00     0.167 HD
ENDBRANCH  67  69
ENDBRANCH  66  67
ENDBRANCH  65  66
ENDBRANCH  14  65
ENDBRANCH   6   7
ENDBRANCH   5   6
ENDBRANCH   2   5
TORSDOF 28
ENDMDL
MODEL 4
REMARK VINA RESULT:      -7.1     15.367     20.329
REMARK  28 active torsions:
REMARK  status: ('A' for Active; 'I' for Inactive)
REMARK    1  A    between atoms: C_2  and  O_3 
REMARK    2  A    between atoms: C_2  and  C_4 
REMARK    3  A    between atoms: C_4  and  C_5 
REMARK    4  A    between atoms: C_5  and  C_6 
REMARK    5  A    between atoms: C_7  and  C_8 
REMARK    6  A    between atoms: C_8  and  C_9 
REMARK    7  A    between atoms: C_9  and  O_11 
REMARK    8  A    between atoms: C_28  and  C_29 
REMARK    9  A    between atoms: C_29  and  C_30 
REMARK   10  A    between atoms: C_30  and  O_32 
REMARK   11  A    between atoms: C_33  and  C_34 
REMARK   12  A    between atoms: C_34  and  C_35 
REMARK   13  A    between atoms: C_35  and  C_36 
REMARK   14  A    between atoms: C_36  and  O_38 
REMARK   15  A    between atoms: C_39  and  C_40 
REMARK   16  A    between atoms: C_40  and  C_41 
REMARK   17  A    between atoms: C_41  and  C_42 
REMARK   18  A    between atoms: C_42  and  O_44 
REMARK   19  A    between atoms: C_45  and  C_46 
REMARK   20  A    between atoms: C_46  and  C_47 
REMARK   21  A    between atoms: C_47  and  O_49 
REMARK   22  A    between atoms: C_50  and  C_51 
REMARK   23  A    between atoms: C_51  and  C_52 
REMARK   24  A    between atoms: C_52  and  O_54 
REMARK   25  A    between atoms: C_55  and  C_56 
REMARK   26  A    between atoms: C_56  and  C_57 
REMARK   27  A    between atoms: C_57  and  C_58 
REMARK   28  A    between atoms: C_58  and  O_60 
ROOT
ATOM      1  O   UNK d   0      10.947 -13.264  -1.364  0.00  0.00    -0.650 OA
ATOM      2  C   UNK d   0      10.457 -12.727  -2.382  0.00  0.00     0.139 C 
ENDROOT
BRANCH   2   3
ATOM      3  O   UNK d   0       9.169 -13.033  -2.750  0.00  0.00    -0.776 OA
ATOM      4  H   UNK d   0       8.489 -12.297  -2.950  0.00  0.00     0.167 HD
ENDBRANCH   2   3
BRANCH   2   5
ATOM      5  C   UNK d   0      11.266 -11.768  -3.185  0.00  0.00     0.115 C 
BRANCH   5   6
ATOM      6  C   UNK d   0      10.415 -10.602  -3.610  0.00  0.00     0.052 C 
BRANCH   6   7
ATOM      7  C   UNK d   0      10.213 -10.544  -5.106  0.00  0.00    -0.020 A 
ATOM      8  C   UNK d   0      11.058 -10.117  -6.009  0.00  0.00    -0.011 A 
ATOM      9  C   UNK d   0      10.422 -10.244  -7.309  0.00  0.00     0.067 A 
ATOM     10  C   UNK d   0      10.782  -9.992  -8.642  0.00  0.00     0.062 C 
ATOM     11  N   UNK d   0       9.188 -10.752  -7.103  0.00  0.00    -0.248 NA
ATOM     12  C   UNK d   0      10.130 -10.441  -9.796  0.00  0.00     0.041 A 
ATOM     13  N   UNK d   0       8.821 -10.509 -10.104  0.00  0.00    -0.355 N 
ATOM     14  C   UNK d   0      10.897 -10.981 -10.844  0.00  0.00    -0.022 A 
ATOM     15  C   UNK d   0       8.737 -11.086 -11.318  0.00  0.00     0.042 A 
ATOM     16  H   UNK d   0       7.974 -10.140  -9.485  0.00  0.00     0.166 HD
ATOM     17  C   UNK d   0       7.611 -11.394 -12.107  0.00  0.00     0.062 C 
ATOM     18  C   UNK d   0      10.018 -11.396 -11.814  0.00  0.00    -0.013 A 
ATOM     19  C   UNK d   0       6.426 -11.973 -11.730  0.00  0.00     0.067 A 
ATOM     20  N   UNK d   0       6.202 -12.093 -10.419  0.00  0.00    -0.248 NA
ATOM     21  C   UNK d   0       5.277 -12.542 -12.415  0.00  0.00    -0.011 A 
ATOM     22  C   UNK d   0       4.990 -12.701 -10.197  0.00  0.00     0.066 A 
ATOM     23  C   UNK d   0       4.613 -12.856  -8.871  0.00  0.00     0.062 C 
ATOM     24  C   UNK d   0       4.443 -12.970 -11.512  0.00  0.00    -0.020 A 
ATOM     25  C   UNK d   0       5.276 -12.386  -7.727  0.00  0.00     0.041 A 
ATOM     26  N   UNK d   0       6.576 -12.331  -7.414  0.00  0.00    -0.355 N 
ATOM     27  C   UNK d   0       4.506 -11.840  -6.677  0.00  0.00    -0.022 A 
ATOM     28  C   UNK d   0       6.662 -11.765  -6.200  0.00  0.00     0.042 A 
ATOM     29  H   UNK d   0       7.425 -12.713  -8.033  0.00  0.00     0.166 HD
ATOM     30  C   UNK d   0       7.774 -11.461  -5.400  0.00  0.00     0.062 C 
ATOM     31  C   UNK d   0       5.375 -11.444  -5.707  0.00  0.00    -0.013 A 
ATOM     32  C   UNK d   0       9.001 -10.955  -5.799  0.00  0.00     0.066 A 
BRANCH   8  33
ATOM     33  C   UNK d   0      12.416  -9.592  -5.773  0.00  0.00     0.151 C 
BRANCH  33  34
ATOM     34  C   UNK d   0      12.510  -8.137  -5.985  0.00  0.00     0.143 C 
ATOM     35  O   UNK d   0      11.490  -7.435  -6.042  0.00  0.00    -0.650 OA
BRANCH  34  36
ATOM     36  O   UNK d   0      13.748  -7.553  -6.124  0.00  0.00    -0.776 OA
ATOM     37  H   UNK d   0      14.561  -8.094  -6.448  0.00  0.00     0.167 HD
ENDBRANCH  34  36
ENDBRANCH  33  34
ENDBRANCH   8  33
BRANCH  31  38
ATOM     38  C   UNK d   0       5.009 -10.788  -4.397  0.00  0.00     0.151 C 
BRANCH  38  39
ATOM     39  C   UNK d   0       4.713  -9.378  -4.537  0.00  0.00     0.143 C 
ATOM     40  O   UNK d   0       5.216  -8.678  -5.434  0.00  0.00    -0.650 OA
BRANCH  39  41
ATOM     41  O   UNK d   0       3.833  -8.768  -3.643  0.00  0.00    -0.776 OA
ATOM     42  H   UNK d   0       2.956  -8.407  -4.033  0.00  0.00     0.167 HD
ENDBRANCH  39  41
ENDBRANCH  38  39
ENDBRANCH  31  38
BRANCH  27  43
ATOM     43  C   UNK d   0       3.009 -11.687  -6.565  0.00  0.00     0.052 C 
BRANCH  43  44
ATOM     44  C   UNK d   0       2.314 -12.951  -6.176  0.00  0.00     0.115 C 
BRANCH  44  45
ATOM     45  C   UNK d   0       1.177 -13.117  -7.119  0.00  0.00     0.139 C 
ATOM     46  O   UNK d   0       0.080 -12.580  -6.824  0.00  0.00    -0.650 OA
BRANCH  45  47
ATOM     47  O   UNK d   0       1.279 -13.826  -8.296  0.00  0.00    -0.776 OA
ATOM     48  H   UNK d   0       0.576 -14.521  -8.595  0.00  0.00     0.167 HD
ENDBRANCH  45  47
ENDBRANCH  44  45
ENDBRANCH  43  44
ENDBRANCH  27  43
BRANCH  24  49
ATOM     49  C   UNK d   0       3.128 -13.583 -11.766  0.00  0.00     0.052 C 
BRANCH  49  50
ATOM     50  C   UNK d   0       2.106 -12.522 -12.082  0.00  0.00     0.115 C 
BRANCH  50  51
ATOM     51  C   UNK d   0       2.003 -11.401 -11.158  0.00  0.00     0.139 C 
ATOM     52  O   UNK d   0       1.680 -11.544  -9.955  0.00  0.00    -0.650 OA
BRANCH  51  53
ATOM     53  O   UNK d   0       2.266 -10.115 -11.605  0.00  0.00    -0.776 OA
ATOM     54  H   UNK d   0       3.207  -9.889 -11.876  0.00  0.00     0.167 HD
ENDBRANCH  51  53
ENDBRANCH  50  51
ENDBRANCH  49  50
ENDBRANCH  24  49
BRANCH  21  55
ATOM     55  C   UNK d   0       5.131 -12.594 -13.900  0.00  0.00     0.151 C 
BRANCH  55  56
ATOM     56  C   UNK d   0       5.018 -11.252 -14.490  0.00  0.00     0.143 C 
ATOM     57  O   UNK d   0       5.718 -10.876 -15.452  0.00  0.00    -0.650 OA
BRANCH  56  58
ATOM     58  O   UNK d   0       4.083 -10.377 -13.939  0.00  0.00    -0.776 OA
ATOM     59  H   UNK d   0       3.193 -10.818 -13.646  0.00  0.00     0.167 HD
ENDBRANCH  56  58
ENDBRANCH  55  56
ENDBRANCH  21  55
BRANCH  18  60
ATOM     60  C   UNK d   0      10.413 -12.047 -13.117  0.00  0.00     0.151 C 
BRANCH  60  61
ATOM     61  C   UNK d   0      10.955 -10.969 -13.958  0.00  0.00     0.143 C 
ATOM     62  O   UNK d   0      10.595  -9.792 -13.980  0.00  0.00    -0.650 OA
BRANCH  61  63
ATOM     63  O   UNK d   0      12.005 -11.353 -14.827  0.00  0.00    -0.776 OA
ATOM     64  H   UNK d   0      12.013 -11.064 -15.789  0.00  0.00     0.167 HD
ENDBRANCH  61  63
ENDBRANCH  60  61
ENDBRANCH  18  60
BRANCH  14  65
ATOM     65  C   UNK d   0      12.385 -11.044 -11.040  0.00  0.00     0.052 C 
BRANCH  65  66
ATOM     66  C   UNK d   0      13.020  -9.700 -11.109  0.00  0.00     0.115 C 
BRANCH  66  67
ATOM     67  C   UNK d   0      13.930  -9.397 -12.177  0.00  0.00     0.139 C 
ATOM     68  O   UNK d   0      15.193  -9.496 -11.953  0.00  0.00    -0.650 OA
BRANCH  67  69
ATOM     69  O   UNK d   0      13.619  -8.994 -13.475  0.00  0.00    -0.776 OA
ATOM     70  H   UNK d   0      14.280  -9.293 -14.207  0.00  0.00     0.167 HD
ENDBRANCH  67  69
ENDBRANCH  66  67
ENDBRANCH  65  66
ENDBRANCH  14  65
ENDBRANCH   6   7
ENDBRANCH   5   6
ENDBRANCH   2   5
TORSDOF 28
ENDMDL
MODEL 5
REMARK VINA RESULT:      -7.1     15.881     19.368
REMARK  28 active torsions:
REMARK  status: ('A' for Active; 'I' for Inactive)
REMARK    1  A    between atoms: C_2  and  O_3 
REMARK    2  A    between atoms: C_2  and  C_4 
REMARK    3  A    between atoms: C_4  and  C_5 
REMARK    4  A    between atoms: C_5  and  C_6 
REMARK    5  A    between atoms: C_7  and  C_8 
REMARK    6  A    between atoms: C_8  and  C_9 
REMARK    7  A    between atoms: C_9  and  O_11 
REMARK    8  A    between atoms: C_28  and  C_29 
REMARK    9  A    between atoms: C_29  and  C_30 
REMARK   10  A    between atoms: C_30  and  O_32 
REMARK   11  A    between atoms: C_33  and  C_34 
REMARK   12  A    between atoms: C_34  and  C_35 
REMARK   13  A    between atoms: C_35  and  C_36 
REMARK   14  A    between atoms: C_36  and  O_38 
REMARK   15  A    between atoms: C_39  and  C_40 
REMARK   16  A    between atoms: C_40  and  C_41 
REMARK   17  A    between atoms: C_41  and  C_42 
REMARK   18  A    between atoms: C_42  and  O_44 
REMARK   19  A    between atoms: C_45  and  C_46 
REMARK   20  A    between atoms: C_46  and  C_47 
REMARK   21  A    between atoms: C_47  and  O_49 
REMARK   22  A    between atoms: C_50  and  C_51 
REMARK   23  A    between atoms: C_51  and  C_52 
REMARK   24  A    between atoms: C_52  and  O_54 
REMARK   25  A    between atoms: C_55  and  C_56 
REMARK   26  A    between atoms: C_56  and  C_57 
REMARK   27  A    between atoms: C_57  and  C_58 
REMARK   28  A    between atoms: C_58  and  O_60 
ROOT
ATOM      1  O   UNK d   0      15.831  -9.486 -11.886  0.00  0.00    -0.650 OA
ATOM      2  C   UNK d   0      14.835  -8.822 -11.523  0.00  0.00     0.139 C 
ENDROOT
BRANCH   2   3
ATOM      3  O   UNK d   0      14.848  -7.455 -11.668  0.00  0.00    -0.776 OA
ATOM      4  H   UNK d   0      14.018  -6.951 -11.987  0.00  0.00     0.167 HD
ENDBRANCH   2   3
BRANCH   2   5
ATOM      5  C   UNK d   0      13.648  -9.509 -10.939  0.00  0.00     0.115 C 
BRANCH   5   6
ATOM      6  C   UNK d   0      13.143 -10.564 -11.886  0.00  0.00     0.052 C 
BRANCH   6   7
ATOM      7  C   UNK d   0      11.658 -10.458 -12.136  0.00  0.00    -0.020 A 
ATOM      8  C   UNK d   0      11.059  -9.992 -13.203  0.00  0.00    -0.011 A 
ATOM      9  C   UNK d   0       9.626 -10.081 -12.983  0.00  0.00     0.067 A 
ATOM     10  C   UNK d   0       8.468  -9.780 -13.717  0.00  0.00     0.062 C 
ATOM     11  N   UNK d   0       9.441 -10.608 -11.754  0.00  0.00    -0.248 NA
ATOM     12  C   UNK d   0       7.160 -10.197 -13.445  0.00  0.00     0.041 A 
ATOM     13  N   UNK d   0       6.475 -10.268 -12.288  0.00  0.00    -0.355 N 
ATOM     14  C   UNK d   0       6.371 -10.693 -14.499  0.00  0.00    -0.022 A 
ATOM     15  C   UNK d   0       5.274 -10.804 -12.579  0.00  0.00     0.042 A 
ATOM     16  H   UNK d   0       6.825  -9.928 -11.289  0.00  0.00     0.166 HD
ATOM     17  C   UNK d   0       4.178 -11.097 -11.744  0.00  0.00     0.062 C 
ATOM     18  C   UNK d   0       5.173 -11.085 -13.956  0.00  0.00    -0.013 A 
ATOM     19  C   UNK d   0       4.169 -11.700 -10.512  0.00  0.00     0.067 A 
ATOM     20  N   UNK d   0       5.350 -11.867  -9.912  0.00  0.00    -0.248 NA
ATOM     21  C   UNK d   0       3.158 -12.257  -9.630  0.00  0.00    -0.011 A 
ATOM     22  C   UNK d   0       5.185 -12.494  -8.701  0.00  0.00     0.066 A 
ATOM     23  C   UNK d   0       6.333 -12.697  -7.951  0.00  0.00     0.062 C 
ATOM     24  C   UNK d   0       3.759 -12.724  -8.573  0.00  0.00    -0.020 A 
ATOM     25  C   UNK d   0       7.636 -12.259  -8.235  0.00  0.00     0.041 A 
ATOM     26  N   UNK d   0       8.322 -12.203  -9.383  0.00  0.00    -0.355 N 
ATOM     27  C   UNK d   0       8.425 -11.757  -7.178  0.00  0.00    -0.022 A 
ATOM     28  C   UNK d   0       9.523 -11.676  -9.094  0.00  0.00     0.042 A 
ATOM     29  H   UNK d   0       7.973 -12.555 -10.385  0.00  0.00     0.166 HD
ATOM     30  C   UNK d   0      10.626 -11.389  -9.913  0.00  0.00     0.062 C 
ATOM     31  C   UNK d   0       9.621 -11.385  -7.712  0.00  0.00    -0.013 A 
ATOM     32  C   UNK d   0      10.625 -10.857 -11.193  0.00  0.00     0.066 A 
BRANCH   8  33
ATOM     33  C   UNK d   0      11.703  -9.462 -14.419  0.00  0.00     0.151 C 
BRANCH  33  34
ATOM     34  C   UNK d   0      11.716  -7.988 -14.461  0.00  0.00     0.143 C 
ATOM     35  O   UNK d   0      11.071  -7.371 -15.321  0.00  0.00    -0.650 OA
BRANCH  34  36
ATOM     36  O   UNK d   0      12.455  -7.292 -13.533  0.00  0.00    -0.776 OA
ATOM     37  H   UNK d   0      12.546  -6.268 -13.582  0.00  0.00     0.167 HD
ENDBRANCH  34  36
ENDBRANCH  33  34
ENDBRANCH   8  33
BRANCH  31  38
ATOM     38  C   UNK d   0      10.782 -10.778  -6.961  0.00  0.00     0.151 C 
BRANCH  38  39
ATOM     39  C   UNK d   0      10.825  -9.335  -7.066  0.00  0.00     0.143 C 
ATOM     40  O   UNK d   0      11.743  -8.658  -6.569  0.00  0.00    -0.650 OA
BRANCH  39  41
ATOM     41  O   UNK d   0       9.808  -8.665  -7.745  0.00  0.00    -0.776 OA
ATOM     42  H   UNK d   0       8.882  -8.665  -7.306  0.00  0.00     0.167 HD
ENDBRANCH  39  41
ENDBRANCH  38  39
ENDBRANCH  31  38
BRANCH  27  43
ATOM     43  C   UNK d   0       8.092 -11.623  -5.713  0.00  0.00     0.052 C 
BRANCH  43  44
ATOM     44  C   UNK d   0       7.683 -10.240  -5.324  0.00  0.00     0.115 C 
BRANCH  44  45
ATOM     45  C   UNK d   0       6.334 -10.352  -4.711  0.00  0.00     0.139 C 
ATOM     46  O   UNK d   0       5.517  -9.418  -4.904  0.00  0.00    -0.650 OA
BRANCH  45  47
ATOM     47  O   UNK d   0       5.946 -11.435  -3.952  0.00  0.00    -0.776 OA
ATOM     48  H   UNK d   0       5.313 -12.170  -4.306  0.00  0.00     0.167 HD
ENDBRANCH  45  47
ENDBRANCH  44  45
ENDBRANCH  43  44
ENDBRANCH  27  43
BRANCH  24  49
ATOM     49  C   UNK d   0       3.108 -13.342  -7.405  0.00  0.00     0.052 C 
BRANCH  49  50
ATOM     50  C   UNK d   0       3.456 -12.585  -6.150  0.00  0.00     0.115 C 
BRANCH  50  51
ATOM     51  C   UNK d   0       2.681 -11.386  -5.859  0.00  0.00     0.139 C 
ATOM     52  O   UNK d   0       1.594 -11.419  -5.235  0.00  0.00    -0.650 OA
BRANCH  51  53
ATOM     53  O   UNK d   0       3.143 -10.150  -6.284  0.00  0.00    -0.776 OA
ATOM     54  H   UNK d   0       3.234  -9.417  -5.602  0.00  0.00     0.167 HD
ENDBRANCH  51  53
ENDBRANCH  50  51
ENDBRANCH  49  50
ENDBRANCH  24  49
BRANCH  21  55
ATOM     55  C   UNK d   0       1.696 -12.261  -9.931  0.00  0.00     0.151 C 
BRANCH  55  56
ATOM     56  C   UNK d   0       1.356 -13.211 -11.002  0.00  0.00     0.143 C 
ATOM     57  O   UNK d   0       0.530 -12.950 -11.899  0.00  0.00    -0.650 OA
BRANCH  56  58
ATOM     58  O   UNK d   0       1.995 -14.450 -10.997  0.00  0.00    -0.776 OA
ATOM     59  H   UNK d   0       2.553 -14.656 -11.845  0.00  0.00     0.167 HD
ENDBRANCH  56  58
ENDBRANCH  55  56
ENDBRANCH  21  55
BRANCH  18  60
ATOM     60  C   UNK d   0       4.027 -11.686 -14.732  0.00  0.00     0.151 C 
BRANCH  60  61
ATOM     61  C   UNK d   0       4.076 -13.132 -14.467  0.00  0.00     0.143 C 
ATOM     62  O   UNK d   0       5.012 -13.898 -14.697  0.00  0.00    -0.650 OA
BRANCH  61  63
ATOM     63  O   UNK d   0       2.907 -13.677 -13.883  0.00  0.00    -0.776 OA
ATOM     64  H   UNK d   0       2.160 -14.033 -14.453  0.00  0.00     0.167 HD
ENDBRANCH  61  63
ENDBRANCH  60  61
ENDBRANCH  18  60
BRANCH  14  65
ATOM     65  C   UNK d   0       6.625 -10.734 -15.979  0.00  0.00     0.052 C 
BRANCH  65  66
ATOM     66  C   UNK d   0       6.339  -9.440 -16.654  0.00  0.00     0.115 C 
BRANCH  66  67
ATOM     67  C   UNK d   0       5.093  -9.256 -17.342  0.00  0.00     0.139 C 
ATOM     68  O   UNK d   0       4.786 -10.074 -18.286  0.00  0.00    -0.650 OA
BRANCH  67  69
ATOM     69  O   UNK d   0       4.131  -8.271 -17.117  0.00  0.00    -0.776 OA
ATOM     70  H   UNK d   0       3.427  -8.154 -17.860  0.00  0.00     0.167 HD
ENDBRANCH  67  69
ENDBRANCH  66  67
ENDBRANCH  65  66
ENDBRANCH  14  65
ENDBRANCH   6   7
ENDBRANCH   5   6
ENDBRANCH   2   5
TORSDOF 28
ENDMDL
MODEL 6
REMARK VINA RESULT:      -7.0     15.935     21.461
REMARK  28 active torsions:
REMARK  status: ('A' for Active; 'I' for Inactive)
REMARK    1  A    between atoms: C_2  and  O_3 
REMARK    2  A    between atoms: C_2  and  C_4 
REMARK    3  A    between atoms: C_4  and  C_5 
REMARK    4  A    between atoms: C_5  and  C_6 
REMARK    5  A    between atoms: C_7  and  C_8 
REMARK    6  A    between atoms: C_8  and  C_9 
REMARK    7  A    between atoms: C_9  and  O_11 
REMARK    8  A    between atoms: C_28  and  C_29 
REMARK    9  A    between atoms: C_29  and  C_30 
REMARK   10  A    between atoms: C_30  and  O_32 
REMARK   11  A    between atoms: C_33  and  C_34 
REMARK   12  A    between atoms: C_34  and  C_35 
REMARK   13  A    between atoms: C_35  and  C_36 
REMARK   14  A    between atoms: C_36  and  O_38 
REMARK   15  A    between atoms: C_39  and  C_40 
REMARK   16  A    between atoms: C_40  and  C_41 
REMARK   17  A    between atoms: C_41  and  C_42 
REMARK   18  A    between atoms: C_42  and  O_44 
REMARK   19  A    between atoms: C_45  and  C_46 
REMARK   20  A    between atoms: C_46  and  C_47 
REMARK   21  A    between atoms: C_47  and  O_49 
REMARK   22  A    between atoms: C_50  and  C_51 
REMARK   23  A    between atoms: C_51  and  C_52 
REMARK   24  A    between atoms: C_52  and  O_54 
REMARK   25  A    between atoms: C_55  and  C_56 
REMARK   26  A    between atoms: C_56  and  C_57 
REMARK   27  A    between atoms: C_57  and  C_58 
REMARK   28  A    between atoms: C_58  and  O_60 
ROOT
ATOM      1  O   UNK d   0       3.014  -8.039  -2.929  0.00  0.00    -0.650 OA
ATOM      2  C   UNK d   0       3.194  -8.545  -4.059  0.00  0.00     0.139 C 
ENDROOT
BRANCH   2   3
ATOM      3  O   UNK d   0       3.949  -7.869  -4.987  0.00  0.00    -0.776 OA
ATOM      4  H   UNK d   0       4.821  -8.264  -5.347  0.00  0.00     0.167 HD
ENDBRANCH   2   3
BRANCH   2   5
ATOM      5  C   UNK d   0       2.592  -9.867  -4.391  0.00  0.00     0.115 C 
BRANCH   5   6
ATOM      6  C   UNK d   0       3.614 -10.958  -4.219  0.00  0.00     0.052 C 
BRANCH   6   7
ATOM      7  C   UNK d   0       4.049 -11.560  -5.533  0.00  0.00    -0.020 A 
ATOM      8  C   UNK d   0       3.441 -12.490  -6.225  0.00  0.00    -0.011 A 
ATOM      9  C   UNK d   0       4.237 -12.752  -7.413  0.00  0.00     0.067 A 
ATOM     10  C   UNK d   0       4.135 -13.589  -8.535  0.00  0.00     0.062 C 
ATOM     11  N   UNK d   0       5.314 -11.941  -7.361  0.00  0.00    -0.248 NA
ATOM     12  C   UNK d   0       4.866 -13.502  -9.726  0.00  0.00     0.041 A 
ATOM     13  N   UNK d   0       6.173 -13.270  -9.948  0.00  0.00    -0.355 N 
ATOM     14  C   UNK d   0       4.185 -13.613 -10.951  0.00  0.00    -0.022 A 
ATOM     15  C   UNK d   0       6.338 -13.222 -11.284  0.00  0.00     0.042 A 
ATOM     16  H   UNK d   0       6.967 -13.161  -9.177  0.00  0.00     0.166 HD
ATOM     17  C   UNK d   0       7.499 -13.008 -12.054  0.00  0.00     0.062 C 
ATOM     18  C   UNK d   0       5.113 -13.432 -11.946  0.00  0.00    -0.013 A 
ATOM     19  C   UNK d   0       8.490 -12.076 -11.880  0.00  0.00     0.067 A 
ATOM     20  N   UNK d   0       8.486 -11.396 -10.731  0.00  0.00    -0.248 NA
ATOM     21  C   UNK d   0       9.610 -11.584 -12.664  0.00  0.00    -0.011 A 
ATOM     22  C   UNK d   0       9.521 -10.495 -10.707  0.00  0.00     0.066 A 
ATOM     23  C   UNK d   0       9.658  -9.744  -9.549  0.00  0.00     0.062 C 
ATOM     24  C   UNK d   0      10.207 -10.656 -11.974  0.00  0.00    -0.020 A 
ATOM     25  C   UNK d   0       8.922  -9.855  -8.359  0.00  0.00     0.041 A 
ATOM     26  N   UNK d   0       7.620 -10.071  -8.138  0.00  0.00    -0.355 N 
ATOM     27  C   UNK d   0       9.607  -9.748  -7.129  0.00  0.00    -0.022 A 
ATOM     28  C   UNK d   0       7.451 -10.111  -6.807  0.00  0.00     0.042 A 
ATOM     29  H   UNK d   0       6.821 -10.170  -8.914  0.00  0.00     0.166 HD
ATOM     30  C   UNK d   0       6.302 -10.313  -6.027  0.00  0.00     0.062 C 
ATOM     31  C   UNK d   0       8.684  -9.910  -6.142  0.00  0.00    -0.013 A 
ATOM     32  C   UNK d   0       5.260 -11.198  -6.254  0.00  0.00     0.066 A 
BRANCH   8  33
ATOM     33  C   UNK d   0       2.179 -13.169  -5.878  0.00  0.00     0.151 C 
BRANCH  33  34
ATOM     34  C   UNK d   0       1.008 -12.570  -6.544  0.00  0.00     0.143 C 
ATOM     35  O   UNK d   0       0.125 -12.000  -5.887  0.00  0.00    -0.650 OA
BRANCH  34  36
ATOM     36  O   UNK d   0       0.895 -12.649  -7.913  0.00  0.00    -0.776 OA
ATOM     37  H   UNK d   0       1.627 -12.273  -8.531  0.00  0.00     0.167 HD
ENDBRANCH  34  36
ENDBRANCH  33  34
ENDBRANCH   8  33
BRANCH  31  38
ATOM     38  C   UNK d   0       8.956  -9.888  -4.656  0.00  0.00     0.151 C 
BRANCH  38  39
ATOM     39  C   UNK d   0       9.362 -11.178  -4.140  0.00  0.00     0.143 C 
ATOM     40  O   UNK d   0      10.547 -11.556  -4.151  0.00  0.00    -0.650 OA
BRANCH  39  41
ATOM     41  O   UNK d   0       8.402 -12.038  -3.609  0.00  0.00    -0.776 OA
ATOM     42  H   UNK d   0       8.470 -13.026  -3.872  0.00  0.00     0.167 HD
ENDBRANCH  39  41
ENDBRANCH  38  39
ENDBRANCH  31  38
BRANCH  27  43
ATOM     43  C   UNK d   0      11.072  -9.502  -6.866  0.00  0.00     0.052 C 
BRANCH  43  44
ATOM     44  C   UNK d   0      11.350  -8.151  -6.291  0.00  0.00     0.115 C 
BRANCH  44  45
ATOM     45  C   UNK d   0      12.531  -8.304  -5.402  0.00  0.00     0.139 C 
ATOM     46  O   UNK d   0      13.500  -7.522  -5.567  0.00  0.00    -0.650 OA
BRANCH  45  47
ATOM     47  O   UNK d   0      12.601  -9.256  -4.409  0.00  0.00    -0.776 OA
ATOM     48  H   UNK d   0      13.156 -10.122  -4.502  0.00  0.00     0.167 HD
ENDBRANCH  45  47
ENDBRANCH  44  45
ENDBRANCH  43  44
ENDBRANCH  27  43
BRANCH  24  49
ATOM     49  C   UNK d   0      11.415  -9.915 -12.377  0.00  0.00     0.052 C 
BRANCH  49  50
ATOM     50  C   UNK d   0      12.653 -10.637 -11.910  0.00  0.00     0.115 C 
BRANCH  50  51
ATOM     51  C   UNK d   0      13.759  -9.819 -11.432  0.00  0.00     0.139 C 
ATOM     52  O   UNK d   0      14.702  -9.456 -12.174  0.00  0.00    -0.650 OA
BRANCH  51  53
ATOM     53  O   UNK d   0      13.791  -9.416 -10.106  0.00  0.00    -0.776 OA
ATOM     54  H   UNK d   0      14.661  -9.077  -9.733  0.00  0.00     0.167 HD
ENDBRANCH  51  53
ENDBRANCH  50  51
ENDBRANCH  49  50
ENDBRANCH  24  49
BRANCH  21  55
ATOM     55  C   UNK d   0       9.970 -12.097 -14.020  0.00  0.00     0.151 C 
BRANCH  55  56
ATOM     56  C   UNK d   0       9.057 -11.595 -15.059  0.00  0.00     0.143 C 
ATOM     57  O   UNK d   0       9.151 -10.451 -15.544  0.00  0.00    -0.650 OA
BRANCH  56  58
ATOM     58  O   UNK d   0       8.052 -12.450 -15.507  0.00  0.00    -0.776 OA
ATOM     59  H   UNK d   0       8.358 -13.160 -16.197  0.00  0.00     0.167 HD
ENDBRANCH  56  58
ENDBRANCH  55  56
ENDBRANCH  21  55
BRANCH  18  60
ATOM     60  C   UNK d   0       4.813 -13.462 -13.425  0.00  0.00     0.151 C 
BRANCH  60  61
ATOM     61  C   UNK d   0       5.186 -14.808 -13.885  0.00  0.00     0.143 C 
ATOM     62  O   UNK d   0       4.668 -15.876 -13.555  0.00  0.00    -0.650 OA
BRANCH  61  63
ATOM     63  O   UNK d   0       6.260 -14.854 -14.807  0.00  0.00    -0.776 OA
ATOM     64  H   UNK d   0       7.020 -14.199 -14.750  0.00  0.00     0.167 HD
ENDBRANCH  61  63
ENDBRANCH  60  61
ENDBRANCH  18  60
BRANCH  14  65
ATOM     65  C   UNK d   0       2.757 -13.971 -11.251  0.00  0.00     0.052 C 
BRANCH  65  66
ATOM     66  C   UNK d   0       1.895 -12.780 -11.481  0.00  0.00     0.115 C 
BRANCH  66  67
ATOM     67  C   UNK d   0       1.376 -12.520 -12.794  0.00  0.00     0.139 C 
ATOM     68  O   UNK d   0       1.690 -13.322 -13.749  0.00  0.00    -0.650 OA
BRANCH  67  69
ATOM     69  O   UNK d   0       0.545 -11.472 -13.191  0.00  0.00    -0.776 OA
ATOM     70  H   UNK d   0       0.936 -10.835 -13.900  0.00  0.00     0.167 HD
ENDBRANCH  67  69
ENDBRANCH  66  67
ENDBRANCH  65  66
ENDBRANCH  14  65
ENDBRANCH   6   7
ENDBRANCH   5   6
ENDBRANCH   2   5
TORSDOF 28
ENDMDL
MODEL 7
REMARK VINA RESULT:      -6.9     27.238     30.731
REMARK  28 active torsions:
REMARK  status: ('A' for Active; 'I' for Inactive)
REMARK    1  A    between atoms: C_2  and  O_3 
REMARK    2  A    between atoms: C_2  and  C_4 
REMARK    3  A    between atoms: C_4  and  C_5 
REMARK    4  A    between atoms: C_5  and  C_6 
REMARK    5  A    between atoms: C_7  and  C_8 
REMARK    6  A    between atoms: C_8  and  C_9 
REMARK    7  A    between atoms: C_9  and  O_11 
REMARK    8  A    between atoms: C_28  and  C_29 
REMARK    9  A    between atoms: C_29  and  C_30 
REMARK   10  A    between atoms: C_30  and  O_32 
REMARK   11  A    between atoms: C_33  and  C_34 
REMARK   12  A    between atoms: C_34  and  C_35 
REMARK   13  A    between atoms: C_35  and  C_36 
REMARK   14  A    between atoms: C_36  and  O_38 
REMARK   15  A    between atoms: C_39  and  C_40 
REMARK   16  A    between atoms: C_40  and  C_41 
REMARK   17  A    between atoms: C_41  and  C_42 
REMARK   18  A    between atoms: C_42  and  O_44 
REMARK   19  A    between atoms: C_45  and  C_46 
REMARK   20  A    between atoms: C_46  and  C_47 
REMARK   21  A    between atoms: C_47  and  O_49 
REMARK   22  A    between atoms: C_50  and  C_51 
REMARK   23  A    between atoms: C_51  and  C_52 
REMARK   24  A    between atoms: C_52  and  O_54 
REMARK   25  A    between atoms: C_55  and  C_56 
REMARK   26  A    between atoms: C_56  and  C_57 
REMARK   27  A    between atoms: C_57  and  C_58 
REMARK   28  A    between atoms: C_58  and  O_60 
ROOT
ATOM      1  O   UNK d   0       5.382 -10.809  15.867  0.00  0.00    -0.650 OA
ATOM      2  C   UNK d   0       5.026 -10.641  14.679  0.00  0.00     0.139 C 
ENDROOT
BRANCH   2   3
ATOM      3  O   UNK d   0       5.369  -9.479  14.031  0.00  0.00    -0.776 OA
ATOM      4  H   UNK d   0       6.271  -9.383  13.561  0.00  0.00     0.167 HD
ENDBRANCH   2   3
BRANCH   2   5
ATOM      5  C   UNK d   0       4.237 -11.694  13.979  0.00  0.00     0.115 C 
BRANCH   5   6
ATOM      6  C   UNK d   0       2.829 -11.725  14.509  0.00  0.00     0.052 C 
BRANCH   6   7
ATOM      7  C   UNK d   0       1.801 -11.414  13.448  0.00  0.00    -0.020 A 
ATOM      8  C   UNK d   0       1.113 -12.264  12.730  0.00  0.00    -0.011 A 
ATOM      9  C   UNK d   0       0.257 -11.502  11.836  0.00  0.00     0.067 A 
ATOM     10  C   UNK d   0      -0.707 -11.798  10.860  0.00  0.00     0.062 C 
ATOM     11  N   UNK d   0       0.493 -10.195  12.074  0.00  0.00    -0.248 NA
ATOM     12  C   UNK d   0      -1.636 -10.919  10.293  0.00  0.00     0.041 A 
ATOM     13  N   UNK d   0      -1.507  -9.651   9.860  0.00  0.00    -0.355 N 
ATOM     14  C   UNK d   0      -2.975 -11.334  10.166  0.00  0.00    -0.022 A 
ATOM     15  C   UNK d   0      -2.731  -9.247   9.468  0.00  0.00     0.042 A 
ATOM     16  H   UNK d   0      -0.566  -9.059   9.813  0.00  0.00     0.166 HD
ATOM     17  C   UNK d   0      -3.158  -8.015   8.935  0.00  0.00     0.062 C 
ATOM     18  C   UNK d   0      -3.677 -10.275   9.645  0.00  0.00    -0.013 A 
ATOM     19  C   UNK d   0      -2.851  -6.744   9.347  0.00  0.00     0.067 A 
ATOM     20  N   UNK d   0      -1.867  -6.619  10.242  0.00  0.00    -0.248 NA
ATOM     21  C   UNK d   0      -3.345  -5.406   9.066  0.00  0.00    -0.011 A 
ATOM     22  C   UNK d   0      -1.684  -5.298  10.568  0.00  0.00     0.066 A 
ATOM     23  C   UNK d   0      -0.663  -5.020  11.464  0.00  0.00     0.062 C 
ATOM     24  C   UNK d   0      -2.662  -4.565   9.787  0.00  0.00    -0.020 A 
ATOM     25  C   UNK d   0       0.268  -5.916  12.013  0.00  0.00     0.041 A 
ATOM     26  N   UNK d   0       0.137  -7.171  12.457  0.00  0.00    -0.355 N 
ATOM     27  C   UNK d   0       1.612  -5.500  12.136  0.00  0.00    -0.022 A 
ATOM     28  C   UNK d   0       1.354  -7.573  12.856  0.00  0.00     0.042 A 
ATOM     29  H   UNK d   0      -0.811  -7.761  12.513  0.00  0.00     0.166 HD
ATOM     30  C   UNK d   0       1.792  -8.792  13.397  0.00  0.00     0.062 C 
ATOM     31  C   UNK d   0       2.306  -6.543  12.668  0.00  0.00    -0.013 A 
ATOM     32  C   UNK d   0       1.412 -10.074  13.033  0.00  0.00     0.066 A 
BRANCH   8  33
ATOM     33  C   UNK d   0       1.182 -13.736  12.794  0.00  0.00     0.151 C 
BRANCH  33  34
ATOM     34  C   UNK d   0       1.932 -14.322  11.669  0.00  0.00     0.143 C 
ATOM     35  O   UNK d   0       1.594 -15.408  11.175  0.00  0.00    -0.650 OA
BRANCH  34  36
ATOM     36  O   UNK d   0       3.022 -13.653  11.162  0.00  0.00    -0.776 OA
ATOM     37  H   UNK d   0       3.413 -12.830  11.640  0.00  0.00     0.167 HD
ENDBRANCH  34  36
ENDBRANCH  33  34
ENDBRANCH   8  33
BRANCH  31  38
ATOM     38  C   UNK d   0       3.786  -6.568  12.969  0.00  0.00     0.151 C 
BRANCH  38  39
ATOM     39  C   UNK d   0       4.580  -7.024  11.847  0.00  0.00     0.143 C 
ATOM     40  O   UNK d   0       4.087  -7.232  10.724  0.00  0.00    -0.650 OA
BRANCH  39  41
ATOM     41  O   UNK d   0       5.947  -7.240  12.016  0.00  0.00    -0.776 OA
ATOM     42  H   UNK d   0       6.342  -8.070  11.565  0.00  0.00     0.167 HD
ENDBRANCH  39  41
ENDBRANCH  38  39
ENDBRANCH  31  38
BRANCH  27  43
ATOM     43  C   UNK d   0       2.244  -4.179  11.776  0.00  0.00     0.052 C 
BRANCH  43  44
ATOM     44  C   UNK d   0       2.079  -3.138  12.836  0.00  0.00     0.115 C 
BRANCH  44  45
ATOM     45  C   UNK d   0       3.404  -2.988  13.493  0.00  0.00     0.139 C 
ATOM     46  O   UNK d   0       3.546  -3.454  14.650  0.00  0.00    -0.650 OA
BRANCH  45  47
ATOM     47  O   UNK d   0       4.474  -2.368  12.884  0.00  0.00    -0.776 OA
ATOM     48  H   UNK d   0       4.362  -1.658  12.142  0.00  0.00     0.167 HD
ENDBRANCH  45  47
ENDBRANCH  44  45
ENDBRANCH  43  44
ENDBRANCH  27  43
BRANCH  24  49
ATOM     49  C   UNK d   0      -2.808  -3.099   9.784  0.00  0.00     0.052 C 
BRANCH  49  50
ATOM     50  C   UNK d   0      -3.851  -2.675  10.786  0.00  0.00     0.115 C 
BRANCH  50  51
ATOM     51  C   UNK d   0      -4.864  -1.731  10.333  0.00  0.00     0.139 C 
ATOM     52  O   UNK d   0      -5.796  -2.058   9.562  0.00  0.00    -0.650 OA
BRANCH  51  53
ATOM     53  O   UNK d   0      -4.811  -0.412  10.757  0.00  0.00    -0.776 OA
ATOM     54  H   UNK d   0      -4.880   0.313  10.064  0.00  0.00     0.167 HD
ENDBRANCH  51  53
ENDBRANCH  50  51
ENDBRANCH  49  50
ENDBRANCH  24  49
BRANCH  21  55
ATOM     55  C   UNK d   0      -4.447  -5.108   8.103  0.00  0.00     0.151 C 
BRANCH  55  56
ATOM     56  C   UNK d   0      -3.975  -5.101   6.710  0.00  0.00     0.143 C 
ATOM     57  O   UNK d   0      -2.996  -5.770   6.326  0.00  0.00    -0.650 OA
BRANCH  56  58
ATOM     58  O   UNK d   0      -4.664  -4.306   5.796  0.00  0.00    -0.776 OA
ATOM     59  H   UNK d   0      -5.546  -3.895   6.152  0.00  0.00     0.167 HD
ENDBRANCH  56  58
ENDBRANCH  55  56
ENDBRANCH  21  55
BRANCH  18  60
ATOM     60  C   UNK d   0      -5.157 -10.280   9.352  0.00  0.00     0.151 C 
BRANCH  60  61
ATOM     61  C   UNK d   0      -5.287 -10.666   7.939  0.00  0.00     0.143 C 
ATOM     62  O   UNK d   0      -5.195  -9.929   6.957  0.00  0.00    -0.650 OA
BRANCH  61  63
ATOM     63  O   UNK d   0      -5.546 -12.039   7.711  0.00  0.00    -0.776 OA
ATOM     64  H   UNK d   0      -5.193 -12.744   8.334  0.00  0.00     0.167 HD
ENDBRANCH  61  63
ENDBRANCH  60  61
ENDBRANCH  18  60
BRANCH  14  65
ATOM     65  C   UNK d   0      -3.614 -12.672  10.403  0.00  0.00     0.052 C 
BRANCH  65  66
ATOM     66  C   UNK d   0      -3.379 -13.635   9.294  0.00  0.00     0.115 C 
BRANCH  66  67
ATOM     67  C   UNK d   0      -2.689 -14.866   9.554  0.00  0.00     0.139 C 
ATOM     68  O   UNK d   0      -1.417 -14.909   9.366  0.00  0.00    -0.650 OA
BRANCH  67  69
ATOM     69  O   UNK d   0      -3.231 -16.071  10.000  0.00  0.00    -0.776 OA
ATOM     70  H   UNK d   0      -2.936 -16.913   9.486  0.00  0.00     0.167 HD
ENDBRANCH  67  69
ENDBRANCH  66  67
ENDBRANCH  65  66
ENDBRANCH  14  65
ENDBRANCH   6   7
ENDBRANCH   5   6
ENDBRANCH   2   5
TORSDOF 28
ENDMDL
MODEL 8
REMARK VINA RESULT:      -6.9      8.208     13.925
REMARK  28 active torsions:
REMARK  status: ('A' for Active; 'I' for Inactive)
REMARK    1  A    between atoms: C_2  and  O_3 
REMARK    2  A    between atoms: C_2  and  C_4 
REMARK    3  A    between atoms: C_4  and  C_5 
REMARK    4  A    between atoms: C_5  and  C_6 
REMARK    5  A    between atoms: C_7  and  C_8 
REMARK    6  A    between atoms: C_8  and  C_9 
REMARK    7  A    between atoms: C_9  and  O_11 
REMARK    8  A    between atoms: C_28  and  C_29 
REMARK    9  A    between atoms: C_29  and  C_30 
REMARK   10  A    between atoms: C_30  and  O_32 
REMARK   11  A    between atoms: C_33  and  C_34 
REMARK   12  A    between atoms: C_34  and  C_35 
REMARK   13  A    between atoms: C_35  and  C_36 
REMARK   14  A    between atoms: C_36  and  O_38 
REMARK   15  A    between atoms: C_39  and  C_40 
REMARK   16  A    between atoms: C_40  and  C_41 
REMARK   17  A    between atoms: C_41  and  C_42 
REMARK   18  A    between atoms: C_42  and  O_44 
REMARK   19  A    between atoms: C_45  and  C_46 
REMARK   20  A    between atoms: C_46  and  C_47 
REMARK   21  A    between atoms: C_47  and  O_49 
REMARK   22  A    between atoms: C_50  and  C_51 
REMARK   23  A    between atoms: C_51  and  C_52 
REMARK   24  A    between atoms: C_52  and  O_54 
REMARK   25  A    between atoms: C_55  and  C_56 
REMARK   26  A    between atoms: C_56  and  C_57 
REMARK   27  A    between atoms: C_57  and  C_58 
REMARK   28  A    between atoms: C_58  and  O_60 
ROOT
ATOM      1  O   UNK d   0       7.675  17.957  -5.449  0.00  0.00    -0.650 OA
ATOM      2  C   UNK d   0       8.736  17.739  -4.823  0.00  0.00     0.139 C 
ENDROOT
BRANCH   2   3
ATOM      3  O   UNK d   0       8.682  17.115  -3.600  0.00  0.00    -0.776 OA
ATOM      4  H   UNK d   0       8.214  17.554  -2.804  0.00  0.00     0.167 HD
ENDBRANCH   2   3
BRANCH   2   5
ATOM      5  C   UNK d   0      10.045  18.153  -5.403  0.00  0.00     0.115 C 
BRANCH   5   6
ATOM      6  C   UNK d   0       9.881  18.499  -6.858  0.00  0.00     0.052 C 
BRANCH   6   7
ATOM      7  C   UNK d   0      10.601  17.534  -7.770  0.00  0.00    -0.020 A 
ATOM      8  C   UNK d   0      11.841  17.599  -8.181  0.00  0.00    -0.011 A 
ATOM      9  C   UNK d   0      12.083  16.457  -9.047  0.00  0.00     0.067 A 
ATOM     10  C   UNK d   0      13.174  15.947  -9.769  0.00  0.00     0.062 C 
ATOM     11  N   UNK d   0      10.934  15.753  -9.112  0.00  0.00    -0.248 NA
ATOM     12  C   UNK d   0      13.296  14.671 -10.330  0.00  0.00     0.041 A 
ATOM     13  N   UNK d   0      12.417  13.916 -11.016  0.00  0.00    -0.355 N 
ATOM     14  C   UNK d   0      14.495  13.959 -10.145  0.00  0.00    -0.022 A 
ATOM     15  C   UNK d   0      13.025  12.741 -11.265  0.00  0.00     0.042 A 
ATOM     16  H   UNK d   0      11.395  14.216 -11.336  0.00  0.00     0.166 HD
ATOM     17  C   UNK d   0      12.560  11.599 -11.947  0.00  0.00     0.062 C 
ATOM     18  C   UNK d   0      14.329  12.730 -10.734  0.00  0.00    -0.013 A 
ATOM     19  C   UNK d   0      11.345  10.970 -11.849  0.00  0.00     0.067 A 
ATOM     20  N   UNK d   0      10.386  11.611 -11.175  0.00  0.00    -0.248 NA
ATOM     21  C   UNK d   0      10.783   9.707 -12.296  0.00  0.00    -0.011 A 
ATOM     22  C   UNK d   0       9.238  10.857 -11.148  0.00  0.00     0.066 A 
ATOM     23  C   UNK d   0       8.145  11.422 -10.509  0.00  0.00     0.062 C 
ATOM     24  C   UNK d   0       9.551   9.644 -11.879  0.00  0.00    -0.020 A 
ATOM     25  C   UNK d   0       8.038  12.711  -9.964  0.00  0.00     0.041 A 
ATOM     26  N   UNK d   0       8.906  13.455  -9.268  0.00  0.00    -0.355 N 
ATOM     27  C   UNK d   0       6.836  13.427 -10.154  0.00  0.00    -0.022 A 
ATOM     28  C   UNK d   0       8.299  14.625  -9.011  0.00  0.00     0.042 A 
ATOM     29  H   UNK d   0       9.929  13.149  -8.939  0.00  0.00     0.166 HD
ATOM     30  C   UNK d   0       8.746  15.765  -8.326  0.00  0.00     0.062 C 
ATOM     31  C   UNK d   0       6.993  14.639  -9.555  0.00  0.00    -0.013 A 
ATOM     32  C   UNK d   0      10.003  16.348  -8.364  0.00  0.00     0.066 A 
BRANCH   8  33
ATOM     33  C   UNK d   0      12.832  18.638  -7.845  0.00  0.00     0.151 C 
BRANCH  33  34
ATOM     34  C   UNK d   0      13.834  18.176  -6.867  0.00  0.00     0.143 C 
ATOM     35  O   UNK d   0      14.821  17.520  -7.229  0.00  0.00    -0.650 OA
BRANCH  34  36
ATOM     36  O   UNK d   0      13.667  18.478  -5.535  0.00  0.00    -0.776 OA
ATOM     37  H   UNK d   0      14.390  18.246  -4.840  0.00  0.00     0.167 HD
ENDBRANCH  34  36
ENDBRANCH  33  34
ENDBRANCH   8  33
BRANCH  31  38
ATOM     38  C   UNK d   0       5.970  15.750  -9.511  0.00  0.00     0.151 C 
BRANCH  38  39
ATOM     39  C   UNK d   0       5.978  16.568 -10.705  0.00  0.00     0.143 C 
ATOM     40  O   UNK d   0       7.004  17.143 -11.112  0.00  0.00    -0.650 OA
BRANCH  39  41
ATOM     41  O   UNK d   0       4.802  16.725 -11.437  0.00  0.00    -0.776 OA
ATOM     42  H   UNK d   0       4.171  15.918 -11.476  0.00  0.00     0.167 HD
ENDBRANCH  39  41
ENDBRANCH  38  39
ENDBRANCH  31  38
BRANCH  27  43
ATOM     43  C   UNK d   0       5.573  13.008 -10.865  0.00  0.00     0.052 C 
BRANCH  43  44
ATOM     44  C   UNK d   0       5.621  13.243 -12.340  0.00  0.00     0.115 C 
BRANCH  44  45
ATOM     45  C   UNK d   0       4.952  12.079 -12.977  0.00  0.00     0.139 C 
ATOM     46  O   UNK d   0       4.357  12.262 -14.067  0.00  0.00    -0.650 OA
BRANCH  45  47
ATOM     47  O   UNK d   0       4.964  10.816 -12.425  0.00  0.00    -0.776 OA
ATOM     48  H   UNK d   0       4.127  10.381 -12.004  0.00  0.00     0.167 HD
ENDBRANCH  45  47
ENDBRANCH  44  45
ENDBRANCH  43  44
ENDBRANCH  27  43
BRANCH  24  49
ATOM     49  C   UNK d   0       8.600   8.551 -12.141  0.00  0.00     0.052 C 
BRANCH  49  50
ATOM     50  C   UNK d   0       7.697   8.907 -13.294  0.00  0.00     0.115 C 
BRANCH  50  51
ATOM     51  C   UNK d   0       7.852   8.137 -14.521  0.00  0.00     0.139 C 
ATOM     52  O   UNK d   0       8.804   8.316 -15.317  0.00  0.00    -0.650 OA
BRANCH  51  53
ATOM     53  O   UNK d   0       6.918   7.164 -14.843  0.00  0.00    -0.776 OA
ATOM     54  H   UNK d   0       6.075   7.115 -14.297  0.00  0.00     0.167 HD
ENDBRANCH  51  53
ENDBRANCH  50  51
ENDBRANCH  49  50
ENDBRANCH  24  49
BRANCH  21  55
ATOM     55  C   UNK d   0      11.534   8.695 -13.096  0.00  0.00     0.151 C 
BRANCH  55  56
ATOM     56  C   UNK d   0      12.107   7.637 -12.251  0.00  0.00     0.143 C 
ATOM     57  O   UNK d   0      12.833   7.878 -11.266  0.00  0.00    -0.650 OA
BRANCH  56  58
ATOM     58  O   UNK d   0      11.813   6.314 -12.579  0.00  0.00    -0.776 OA
ATOM     59  H   UNK d   0      10.819   6.047 -12.468  0.00  0.00     0.167 HD
ENDBRANCH  56  58
ENDBRANCH  55  56
ENDBRANCH  21  55
BRANCH  18  60
ATOM     60  C   UNK d   0      15.370  11.638 -10.765  0.00  0.00     0.151 C 
BRANCH  60  61
ATOM     61  C   UNK d   0      15.200  10.882  -9.515  0.00  0.00     0.143 C 
ATOM     62  O   UNK d   0      15.848  11.010  -8.476  0.00  0.00    -0.650 OA
BRANCH  61  63
ATOM     63  O   UNK d   0      14.173   9.908  -9.535  0.00  0.00    -0.776 OA
ATOM     64  H   UNK d   0      14.378   8.935  -9.394  0.00  0.00     0.167 HD
ENDBRANCH  61  63
ENDBRANCH  60  61
ENDBRANCH  18  60
BRANCH  14  65
ATOM     65  C   UNK d   0      15.806  14.383  -9.546  0.00  0.00     0.052 C 
BRANCH  65  66
ATOM     66  C   UNK d   0      16.665  15.135 -10.500  0.00  0.00     0.115 C 
BRANCH  66  67
ATOM     67  C   UNK d   0      16.600  16.569 -10.539  0.00  0.00     0.139 C 
ATOM     68  O   UNK d   0      16.559  17.151 -11.685  0.00  0.00    -0.650 OA
BRANCH  67  69
ATOM     69  O   UNK d   0      16.576  17.451  -9.459  0.00  0.00    -0.776 OA
ATOM     70  H   UNK d   0      16.197  17.072  -8.579  0.00  0.00     0.167 HD
ENDBRANCH  67  69
ENDBRANCH  66  67
ENDBRANCH  65  66
ENDBRANCH  14  65
ENDBRANCH   6   7
ENDBRANCH   5   6
ENDBRANCH   2   5
TORSDOF 28
ENDMDL
MODEL 9
REMARK VINA RESULT:      -6.8      7.395     14.076
REMARK  28 active torsions:
REMARK  status: ('A' for Active; 'I' for Inactive)
REMARK    1  A    between atoms: C_2  and  O_3 
REMARK    2  A    between atoms: C_2  and  C_4 
REMARK    3  A    between atoms: C_4  and  C_5 
REMARK    4  A    between atoms: C_5  and  C_6 
REMARK    5  A    between atoms: C_7  and  C_8 
REMARK    6  A    between atoms: C_8  and  C_9 
REMARK    7  A    between atoms: C_9  and  O_11 
REMARK    8  A    between atoms: C_28  and  C_29 
REMARK    9  A    between atoms: C_29  and  C_30 
REMARK   10  A    between atoms: C_30  and  O_32 
REMARK   11  A    between atoms: C_33  and  C_34 
REMARK   12  A    between atoms: C_34  and  C_35 
REMARK   13  A    between atoms: C_35  and  C_36 
REMARK   14  A    between atoms: C_36  and  O_38 
REMARK   15  A    between atoms: C_39  and  C_40 
REMARK   16  A    between atoms: C_40  and  C_41 
REMARK   17  A    between atoms: C_41  and  C_42 
REMARK   18  A    between atoms: C_42  and  O_44 
REMARK   19  A    between atoms: C_45  and  C_46 
REMARK   20  A    between atoms: C_46  and  C_47 
REMARK   21  A    between atoms: C_47  and  O_49 
REMARK   22  A    between atoms: C_50  and  C_51 
REMARK   23  A    between atoms: C_51  and  C_52 
REMARK   24  A    between atoms: C_52  and  O_54 
REMARK   25  A    between atoms: C_55  and  C_56 
REMARK   26  A    between atoms: C_56  and  C_57 
REMARK   27  A    between atoms: C_57  and  C_58 
REMARK   28  A    between atoms: C_58  and  O_60 
ROOT
ATOM      1  O   UNK d   0       7.363  19.432  -4.747  0.00  0.00    -0.650 OA
ATOM      2  C   UNK d   0       7.078  18.227  -4.563  0.00  0.00     0.139 C 
ENDROOT
BRANCH   2   3
ATOM      3  O   UNK d   0       6.160  17.892  -3.597  0.00  0.00    -0.776 OA
ATOM      4  H   UNK d   0       5.818  18.588  -2.931  0.00  0.00     0.167 HD
ENDBRANCH   2   3
BRANCH   2   5
ATOM      5  C   UNK d   0       7.731  17.170  -5.386  0.00  0.00     0.115 C 
BRANCH   5   6
ATOM      6  C   UNK d   0       7.444  17.398  -6.845  0.00  0.00     0.052 C 
BRANCH   6   7
ATOM      7  C   UNK d   0       8.627  17.078  -7.727  0.00  0.00    -0.020 A 
ATOM      8  C   UNK d   0       9.615  17.870  -8.056  0.00  0.00    -0.011 A 
ATOM      9  C   UNK d   0      10.510  17.126  -8.928  0.00  0.00     0.067 A 
ATOM     10  C   UNK d   0      11.722  17.379  -9.587  0.00  0.00     0.062 C 
ATOM     11  N   UNK d   0       9.986  15.892  -9.081  0.00  0.00    -0.248 NA
ATOM     12  C   UNK d   0      12.585  16.441 -10.165  0.00  0.00     0.041 A 
ATOM     13  N   UNK d   0      12.335  15.356 -10.922  0.00  0.00    -0.355 N 
ATOM     14  C   UNK d   0      13.966  16.543  -9.917  0.00  0.00    -0.022 A 
ATOM     15  C   UNK d   0      13.522  14.763 -11.155  0.00  0.00     0.042 A 
ATOM     16  H   UNK d   0      11.343  15.027 -11.301  0.00  0.00     0.166 HD
ATOM     17  C   UNK d   0      13.833  13.601 -11.889  0.00  0.00     0.062 C 
ATOM     18  C   UNK d   0      14.567  15.479 -10.540  0.00  0.00    -0.013 A 
ATOM     19  C   UNK d   0      13.205  12.382 -11.882  0.00  0.00     0.067 A 
ATOM     20  N   UNK d   0      12.026  12.313 -11.259  0.00  0.00    -0.248 NA
ATOM     21  C   UNK d   0      13.499  11.053 -12.390  0.00  0.00    -0.011 A 
ATOM     22  C   UNK d   0      11.528  11.035 -11.322  0.00  0.00     0.066 A 
ATOM     23  C   UNK d   0      10.284  10.829 -10.744  0.00  0.00     0.062 C 
ATOM     24  C   UNK d   0      12.515  10.268 -12.055  0.00  0.00    -0.020 A 
ATOM     25  C   UNK d   0       9.427  11.788 -10.181  0.00  0.00     0.041 A 
ATOM     26  N   UNK d   0       9.674  12.858  -9.415  0.00  0.00    -0.355 N 
ATOM     27  C   UNK d   0       8.042  11.687 -10.434  0.00  0.00    -0.022 A 
ATOM     28  C   UNK d   0       8.491  13.446  -9.174  0.00  0.00     0.042 A 
ATOM     29  H   UNK d   0      10.670  13.181  -9.026  0.00  0.00     0.166 HD
ATOM     30  C   UNK d   0       8.166  14.596  -8.439  0.00  0.00     0.062 C 
ATOM     31  C   UNK d   0       7.442  12.732  -9.801  0.00  0.00    -0.013 A 
ATOM     32  C   UNK d   0       8.852  15.799  -8.383  0.00  0.00     0.066 A 
BRANCH   8  33
ATOM     33  C   UNK d   0       9.805  19.270  -7.635  0.00  0.00     0.151 C 
BRANCH  33  34
ATOM     34  C   UNK d   0      10.726  19.402  -6.492  0.00  0.00     0.143 C 
ATOM     35  O   UNK d   0      11.270  20.486  -6.235  0.00  0.00    -0.650 OA
BRANCH  34  36
ATOM     36  O   UNK d   0      10.986  18.305  -5.704  0.00  0.00    -0.776 OA
ATOM     37  H   UNK d   0      11.528  18.389  -4.833  0.00  0.00     0.167 HD
ENDBRANCH  34  36
ENDBRANCH  33  34
ENDBRANCH   8  33
BRANCH  31  38
ATOM     38  C   UNK d   0       5.964  13.045  -9.801  0.00  0.00     0.151 C 
BRANCH  38  39
ATOM     39  C   UNK d   0       5.537  13.741 -10.997  0.00  0.00     0.143 C 
ATOM     40  O   UNK d   0       6.238  14.608 -11.548  0.00  0.00    -0.650 OA
BRANCH  39  41
ATOM     41  O   UNK d   0       4.299  13.438 -11.561  0.00  0.00    -0.776 OA
ATOM     42  H   UNK d   0       3.651  14.221 -11.701  0.00  0.00     0.167 HD
ENDBRANCH  39  41
ENDBRANCH  38  39
ENDBRANCH  31  38
BRANCH  27  43
ATOM     43  C   UNK d   0       7.286  10.656 -11.234  0.00  0.00     0.052 C 
BRANCH  43  44
ATOM     44  C   UNK d   0       7.240  10.960 -12.696  0.00  0.00     0.115 C 
BRANCH  44  45
ATOM     45  C   UNK d   0       5.970  10.383 -13.209  0.00  0.00     0.139 C 
ATOM     46  O   UNK d   0       6.038   9.507 -14.107  0.00  0.00    -0.650 OA
BRANCH  45  47
ATOM     47  O   UNK d   0       4.732  10.765 -12.739  0.00  0.00    -0.776 OA
ATOM     48  H   UNK d   0       3.849  10.484 -13.196  0.00  0.00     0.167 HD
ENDBRANCH  45  47
ENDBRANCH  44  45
ENDBRANCH  43  44
ENDBRANCH  27  43
BRANCH  24  49
ATOM     49  C   UNK d   0      12.386   8.842 -12.401  0.00  0.00     0.052 C 
BRANCH  49  50
ATOM     50  C   UNK d   0      12.281   8.007 -11.151  0.00  0.00     0.115 C 
BRANCH  50  51
ATOM     51  C   UNK d   0      13.353   8.137 -10.173  0.00  0.00     0.139 C 
ATOM     52  O   UNK d   0      14.517   7.723 -10.387  0.00  0.00    -0.650 OA
BRANCH  51  53
ATOM     53  O   UNK d   0      13.097   8.736  -8.949  0.00  0.00    -0.776 OA
ATOM     54  H   UNK d   0      13.536   9.618  -8.751  0.00  0.00     0.167 HD
ENDBRANCH  51  53
ENDBRANCH  50  51
ENDBRANCH  49  50
ENDBRANCH  24  49
BRANCH  21  55
ATOM     55  C   UNK d   0      14.729  10.706 -13.161  0.00  0.00     0.151 C 
BRANCH  55  56
ATOM     56  C   UNK d   0      14.647  11.150 -14.561  0.00  0.00     0.143 C 
ATOM     57  O   UNK d   0      13.749  10.770 -15.337  0.00  0.00    -0.650 OA
BRANCH  56  58
ATOM     58  O   UNK d   0      15.622  12.033 -15.020  0.00  0.00    -0.776 OA
ATOM     59  H   UNK d   0      15.595  12.976 -14.591  0.00  0.00     0.167 HD
ENDBRANCH  56  58
ENDBRANCH  55  56
ENDBRANCH  21  55
BRANCH  18  60
ATOM     60  C   UNK d   0      16.049  15.193 -10.526  0.00  0.00     0.151 C 
BRANCH  60  61
ATOM     61  C   UNK d   0      16.277  14.305  -9.375  0.00  0.00     0.143 C 
ATOM     62  O   UNK d   0      16.351  14.631  -8.190  0.00  0.00    -0.650 OA
BRANCH  61  63
ATOM     63  O   UNK d   0      16.425  12.933  -9.693  0.00  0.00    -0.776 OA
ATOM     64  H   UNK d   0      16.633  12.638 -10.630  0.00  0.00     0.167 HD
ENDBRANCH  61  63
ENDBRANCH  60  61
ENDBRANCH  18  60
BRANCH  14  65
ATOM     65  C   UNK d   0      14.762  17.614  -9.226  0.00  0.00     0.052 C 
BRANCH  65  66
ATOM     66  C   UNK d   0      14.674  17.539  -7.743  0.00  0.00     0.115 C 
BRANCH  66  67
ATOM     67  C   UNK d   0      14.251  18.690  -6.996  0.00  0.00     0.139 C 
ATOM     68  O   UNK d   0      14.046  18.560  -5.733  0.00  0.00    -0.650 OA
BRANCH  67  69
ATOM     69  O   UNK d   0      14.024  19.980  -7.473  0.00  0.00    -0.776 OA
ATOM     70  H   UNK d   0      13.094  20.375  -7.271  0.00  0.00     0.167 HD
ENDBRANCH  67  69
ENDBRANCH  66  67
ENDBRANCH  65  66
ENDBRANCH  14  65
ENDBRANCH   6   7
ENDBRANCH   5   6
ENDBRANCH   2   5
TORSDOF 28
ENDMDL
MODEL 10
REMARK VINA RESULT:      -6.8     16.109     18.228
REMARK  28 active torsions:
REMARK  status: ('A' for Active; 'I' for Inactive)
REMARK    1  A    between atoms: C_2  and  O_3 
REMARK    2  A    between atoms: C_2  and  C_4 
REMARK    3  A    between atoms: C_4  and  C_5 
REMARK    4  A    between atoms: C_5  and  C_6 
REMARK    5  A    between atoms: C_7  and  C_8 
REMARK    6  A    between atoms: C_8  and  C_9 
REMARK    7  A    between atoms: C_9  and  O_11 
REMARK    8  A    between atoms: C_28  and  C_29 
REMARK    9  A    between atoms: C_29  and  C_30 
REMARK   10  A    between atoms: C_30  and  O_32 
REMARK   11  A    between atoms: C_33  and  C_34 
REMARK   12  A    between atoms: C_34  and  C_35 
REMARK   13  A    between atoms: C_35  and  C_36 
REMARK   14  A    between atoms: C_36  and  O_38 
REMARK   15  A    between atoms: C_39  and  C_40 
REMARK   16  A    between atoms: C_40  and  C_41 
REMARK   17  A    between atoms: C_41  and  C_42 
REMARK   18  A    between atoms: C_42  and  O_44 
REMARK   19  A    between atoms: C_45  and  C_46 
REMARK   20  A    between atoms: C_46  and  C_47 
REMARK   21  A    between atoms: C_47  and  O_49 
REMARK   22  A    between atoms: C_50  and  C_51 
REMARK   23  A    between atoms: C_51  and  C_52 
REMARK   24  A    between atoms: C_52  and  O_54 
REMARK   25  A    between atoms: C_55  and  C_56 
REMARK   26  A    between atoms: C_56  and  C_57 
REMARK   27  A    between atoms: C_57  and  C_58 
REMARK   28  A    between atoms: C_58  and  O_60 
ROOT
ATOM      1  O   UNK d   0      14.687  -8.766 -12.635  0.00  0.00    -0.650 OA
ATOM      2  C   UNK d   0      14.395  -7.550 -12.689  0.00  0.00     0.139 C 
ENDROOT
BRANCH   2   3
ATOM      3  O   UNK d   0      14.846  -6.704 -11.705  0.00  0.00    -0.776 OA
ATOM      4  H   UNK d   0      15.840  -6.482 -11.615  0.00  0.00     0.167 HD
ENDBRANCH   2   3
BRANCH   2   5
ATOM      5  C   UNK d   0      13.565  -7.030 -13.812  0.00  0.00     0.115 C 
BRANCH   5   6
ATOM      6  C   UNK d   0      12.389  -6.261 -13.274  0.00  0.00     0.052 C 
BRANCH   6   7
ATOM      7  C   UNK d   0      11.360  -5.953 -14.335  0.00  0.00    -0.020 A 
ATOM      8  C   UNK d   0      11.263  -4.869 -15.062  0.00  0.00    -0.011 A 
ATOM      9  C   UNK d   0      10.114  -5.023 -15.939  0.00  0.00     0.067 A 
ATOM     10  C   UNK d   0       9.497  -4.260 -16.943  0.00  0.00     0.062 C 
ATOM     11  N   UNK d   0       9.567  -6.228 -15.675  0.00  0.00    -0.248 NA
ATOM     12  C   UNK d   0       8.554  -4.696 -17.879  0.00  0.00     0.041 A 
ATOM     13  N   UNK d   0       7.477  -5.495 -17.747  0.00  0.00    -0.355 N 
ATOM     14  C   UNK d   0       8.712  -4.327 -19.227  0.00  0.00    -0.022 A 
ATOM     15  C   UNK d   0       6.953  -5.648 -18.978  0.00  0.00     0.042 A 
ATOM     16  H   UNK d   0       7.084  -5.925 -16.800  0.00  0.00     0.166 HD
ATOM     17  C   UNK d   0       5.827  -6.378 -19.407  0.00  0.00     0.062 C 
ATOM     18  C   UNK d   0       7.701  -4.931 -19.932  0.00  0.00    -0.013 A 
ATOM     19  C   UNK d   0       5.442  -7.649 -19.065  0.00  0.00     0.067 A 
ATOM     20  N   UNK d   0       6.089  -8.224 -18.047  0.00  0.00    -0.248 NA
ATOM     21  C   UNK d   0       4.466  -8.611 -19.549  0.00  0.00    -0.011 A 
ATOM     22  C   UNK d   0       5.608  -9.492 -17.833  0.00  0.00     0.066 A 
ATOM     23  C   UNK d   0       6.168 -10.193 -16.775  0.00  0.00     0.062 C 
ATOM     24  C   UNK d   0       4.571  -9.689 -18.827  0.00  0.00    -0.020 A 
ATOM     25  C   UNK d   0       7.106  -9.732 -15.838  0.00  0.00     0.041 A 
ATOM     26  N   UNK d   0       8.184  -8.951 -15.972  0.00  0.00    -0.355 N 
ATOM     27  C   UNK d   0       6.943 -10.099 -14.484  0.00  0.00    -0.022 A 
ATOM     28  C   UNK d   0       8.714  -8.804 -14.747  0.00  0.00     0.042 A 
ATOM     29  H   UNK d   0       8.584  -8.528 -16.926  0.00  0.00     0.166 HD
ATOM     30  C   UNK d   0       9.839  -8.088 -14.308  0.00  0.00     0.062 C 
ATOM     31  C   UNK d   0       7.956  -9.516 -13.787  0.00  0.00    -0.013 A 
ATOM     32  C   UNK d   0      10.270  -6.838 -14.719  0.00  0.00     0.066 A 
BRANCH   8  33
ATOM     33  C   UNK d   0      12.146  -3.689 -15.013  0.00  0.00     0.151 C 
BRANCH  33  34
ATOM     34  C   UNK d   0      11.554  -2.564 -14.267  0.00  0.00     0.143 C 
ATOM     35  O   UNK d   0      11.204  -2.698 -13.085  0.00  0.00    -0.650 OA
BRANCH  34  36
ATOM     36  O   UNK d   0      11.387  -1.351 -14.893  0.00  0.00    -0.776 OA
ATOM     37  H   UNK d   0      12.195  -0.763 -15.143  0.00  0.00     0.167 HD
ENDBRANCH  34  36
ENDBRANCH  33  34
ENDBRANCH   8  33
BRANCH  31  38
ATOM     38  C   UNK d   0       8.186  -9.616 -12.297  0.00  0.00     0.151 C 
BRANCH  38  39
ATOM     39  C   UNK d   0       7.698  -8.460 -11.575  0.00  0.00     0.143 C 
ATOM     40  O   UNK d   0       6.490  -8.173 -11.515  0.00  0.00    -0.650 OA
BRANCH  39  41
ATOM     41  O   UNK d   0       8.605  -7.629 -10.917  0.00  0.00    -0.776 OA
ATOM     42  H   UNK d   0       9.530  -8.022 -10.718  0.00  0.00     0.167 HD
ENDBRANCH  39  41
ENDBRANCH  38  39
ENDBRANCH  31  38
BRANCH  27  43
ATOM     43  C   UNK d   0       5.887 -10.966 -13.846  0.00  0.00     0.052 C 
BRANCH  43  44
ATOM     44  C   UNK d   0       4.567 -10.280 -13.703  0.00  0.00     0.115 C 
BRANCH  44  45
ATOM     45  C   UNK d   0       4.090 -10.562 -12.324  0.00  0.00     0.139 C 
ATOM     46  O   UNK d   0       4.855 -11.188 -11.549  0.00  0.00    -0.650 OA
BRANCH  45  47
ATOM     47  O   UNK d   0       2.855 -10.160 -11.864  0.00  0.00    -0.776 OA
ATOM     48  H   UNK d   0       2.653 -10.003 -10.863  0.00  0.00     0.167 HD
ENDBRANCH  45  47
ENDBRANCH  44  45
ENDBRANCH  43  44
ENDBRANCH  27  43
BRANCH  24  49
ATOM     49  C   UNK d   0       3.745 -10.902 -18.952  0.00  0.00     0.052 C 
BRANCH  49  50
ATOM     50  C   UNK d   0       2.979 -11.148 -17.677  0.00  0.00     0.115 C 
BRANCH  50  51
ATOM     51  C   UNK d   0       1.570 -11.496 -17.804  0.00  0.00     0.139 C 
ATOM     52  O   UNK d   0       0.981 -12.242 -16.987  0.00  0.00    -0.650 OA
BRANCH  51  53
ATOM     53  O   UNK d   0       0.833 -10.996 -18.867  0.00  0.00    -0.776 OA
ATOM     54  H   UNK d   0       0.593 -11.622 -19.615  0.00  0.00     0.167 HD
ENDBRANCH  51  53
ENDBRANCH  50  51
ENDBRANCH  49  50
ENDBRANCH  24  49
BRANCH  21  55
ATOM     55  C   UNK d   0       3.528  -8.351 -20.681  0.00  0.00     0.151 C 
BRANCH  55  56
ATOM     56  C   UNK d   0       2.261  -7.762 -20.222  0.00  0.00     0.143 C 
ATOM     57  O   UNK d   0       1.201  -8.415 -20.146  0.00  0.00    -0.650 OA
BRANCH  56  58
ATOM     58  O   UNK d   0       2.264  -6.415 -19.862  0.00  0.00    -0.776 OA
ATOM     59  H   UNK d   0       1.799  -6.204 -18.961  0.00  0.00     0.167 HD
ENDBRANCH  56  58
ENDBRANCH  55  56
ENDBRANCH  21  55
BRANCH  18  60
ATOM     60  C   UNK d   0       7.494  -4.811 -21.422  0.00  0.00     0.151 C 
BRANCH  60  61
ATOM     61  C   UNK d   0       6.685  -3.598 -21.621  0.00  0.00     0.143 C 
ATOM     62  O   UNK d   0       6.038  -2.990 -20.768  0.00  0.00    -0.650 OA
BRANCH  61  63
ATOM     63  O   UNK d   0       6.667  -3.097 -22.945  0.00  0.00    -0.776 OA
ATOM     64  H   UNK d   0       6.490  -3.703 -23.726  0.00  0.00     0.167 HD
ENDBRANCH  61  63
ENDBRANCH  60  61
ENDBRANCH  18  60
BRANCH  14  65
ATOM     65  C   UNK d   0       9.678  -3.378 -19.878  0.00  0.00     0.052 C 
BRANCH  65  66
ATOM     66  C   UNK d   0      10.904  -4.052 -20.384  0.00  0.00     0.115 C 
BRANCH  66  67
ATOM     67  C   UNK d   0      12.133  -3.938 -19.650  0.00  0.00     0.139 C 
ATOM     68  O   UNK d   0      13.132  -4.664 -20.010  0.00  0.00    -0.650 OA
BRANCH  67  69
ATOM     69  O   UNK d   0      12.401  -3.116 -18.556  0.00  0.00    -0.776 OA
ATOM     70  H   UNK d   0      13.099  -2.375 -18.713  0.00  0.00     0.167 HD
ENDBRANCH  67  69
ENDBRANCH  66  67
ENDBRANCH  65  66
ENDBRANCH  14  65
ENDBRANCH   6   7
ENDBRANCH   5   6
ENDBRANCH   2   5
TORSDOF 28
ENDMDL
MODEL 11
REMARK VINA RESULT:      -6.8     15.612     20.307
REMARK  28 active torsions:
REMARK  status: ('A' for Active; 'I' for Inactive)
REMARK    1  A    between atoms: C_2  and  O_3 
REMARK    2  A    between atoms: C_2  and  C_4 
REMARK    3  A    between atoms: C_4  and  C_5 
REMARK    4  A    between atoms: C_5  and  C_6 
REMARK    5  A    between atoms: C_7  and  C_8 
REMARK    6  A    between atoms: C_8  and  C_9 
REMARK    7  A    between atoms: C_9  and  O_11 
REMARK    8  A    between atoms: C_28  and  C_29 
REMARK    9  A    between atoms: C_29  and  C_30 
REMARK   10  A    between atoms: C_30  and  O_32 
REMARK   11  A    between atoms: C_33  and  C_34 
REMARK   12  A    between atoms: C_34  and  C_35 
REMARK   13  A    between atoms: C_35  and  C_36 
REMARK   14  A    between atoms: C_36  and  O_38 
REMARK   15  A    between atoms: C_39  and  C_40 
REMARK   16  A    between atoms: C_40  and  C_41 
REMARK   17  A    between atoms: C_41  and  C_42 
REMARK   18  A    between atoms: C_42  and  O_44 
REMARK   19  A    between atoms: C_45  and  C_46 
REMARK   20  A    between atoms: C_46  and  C_47 
REMARK   21  A    between atoms: C_47  and  O_49 
REMARK   22  A    between atoms: C_50  and  C_51 
REMARK   23  A    between atoms: C_51  and  C_52 
REMARK   24  A    between atoms: C_52  and  O_54 
REMARK   25  A    between atoms: C_55  and  C_56 
REMARK   26  A    between atoms: C_56  and  C_57 
REMARK   27  A    between atoms: C_57  and  C_58 
REMARK   28  A    between atoms: C_58  and  O_60 
ROOT
ATOM      1  O   UNK d   0      13.186  -8.013  -4.345  0.00  0.00    -0.650 OA
ATOM      2  C   UNK d   0      12.877  -7.750  -5.529  0.00  0.00     0.139 C 
ENDROOT
BRANCH   2   3
ATOM      3  O   UNK d   0      13.658  -6.880  -6.251  0.00  0.00    -0.776 OA
ATOM      4  H   UNK d   0      14.497  -7.204  -6.737  0.00  0.00     0.167 HD
ENDBRANCH   2   3
BRANCH   2   5
ATOM      5  C   UNK d   0      11.672  -8.375  -6.144  0.00  0.00     0.115 C 
BRANCH   5   6
ATOM      6  C   UNK d   0      11.848  -9.867  -6.227  0.00  0.00     0.052 C 
BRANCH   6   7
ATOM      7  C   UNK d   0      10.586 -10.578  -6.652  0.00  0.00    -0.020 A 
ATOM      8  C   UNK d   0       9.711 -11.177  -5.885  0.00  0.00    -0.011 A 
ATOM      9  C   UNK d   0       8.670 -11.724  -6.740  0.00  0.00     0.067 A 
ATOM     10  C   UNK d   0       7.476 -12.437  -6.552  0.00  0.00     0.062 C 
ATOM     11  N   UNK d   0       8.995 -11.415  -8.013  0.00  0.00    -0.248 NA
ATOM     12  C   UNK d   0       6.454 -12.638  -7.486  0.00  0.00     0.041 A 
ATOM     13  N   UNK d   0       6.497 -12.948  -8.795  0.00  0.00    -0.355 N 
ATOM     14  C   UNK d   0       5.118 -12.452  -7.083  0.00  0.00    -0.022 A 
ATOM     15  C   UNK d   0       5.225 -12.955  -9.236  0.00  0.00     0.042 A 
ATOM     16  H   UNK d   0       7.408 -13.176  -9.392  0.00  0.00     0.166 HD
ATOM     17  C   UNK d   0       4.704 -13.218 -10.519  0.00  0.00     0.062 C 
ATOM     18  C   UNK d   0       4.332 -12.649  -8.191  0.00  0.00    -0.013 A 
ATOM     19  C   UNK d   0       5.143 -12.765 -11.737  0.00  0.00     0.067 A 
ATOM     20  N   UNK d   0       6.330 -12.154 -11.763  0.00  0.00    -0.248 NA
ATOM     21  C   UNK d   0       4.627 -12.757 -13.096  0.00  0.00    -0.011 A 
ATOM     22  C   UNK d   0       6.626 -11.745 -13.040  0.00  0.00     0.066 A 
ATOM     23  C   UNK d   0       7.855 -11.125 -13.219  0.00  0.00     0.062 C 
ATOM     24  C   UNK d   0       5.498 -12.154 -13.853  0.00  0.00    -0.020 A 
ATOM     25  C   UNK d   0       8.873 -10.944 -12.271  0.00  0.00     0.041 A 
ATOM     26  N   UNK d   0       8.831 -10.622 -10.973  0.00  0.00    -0.355 N 
ATOM     27  C   UNK d   0      10.213 -11.136 -12.675  0.00  0.00    -0.022 A 
ATOM     28  C   UNK d   0      10.099 -10.605 -10.533  0.00  0.00     0.042 A 
ATOM     29  H   UNK d   0       7.916 -10.382 -10.377  0.00  0.00     0.166 HD
ATOM     30  C   UNK d   0      10.632 -10.336  -9.262  0.00  0.00     0.062 C 
ATOM     31  C   UNK d   0      10.995 -10.924 -11.581  0.00  0.00    -0.013 A 
ATOM     32  C   UNK d   0      10.136 -10.725  -8.028  0.00  0.00     0.066 A 
BRANCH   8  33
ATOM     33  C   UNK d   0       9.756 -11.295  -4.416  0.00  0.00     0.151 C 
BRANCH  33  34
ATOM     34  C   UNK d   0       9.960 -12.682  -3.960  0.00  0.00     0.143 C 
ATOM     35  O   UNK d   0      10.915 -13.354  -4.376  0.00  0.00    -0.650 OA
BRANCH  34  36
ATOM     36  O   UNK d   0       9.076 -13.236  -3.063  0.00  0.00    -0.776 OA
ATOM     37  H   UNK d   0       9.243 -13.184  -2.049  0.00  0.00     0.167 HD
ENDBRANCH  34  36
ENDBRANCH  33  34
ENDBRANCH   8  33
BRANCH  31  38
ATOM     38  C   UNK d   0      12.501 -11.030 -11.528  0.00  0.00     0.151 C 
BRANCH  38  39
ATOM     39  C   UNK d   0      13.164  -9.799 -11.904  0.00  0.00     0.143 C 
ATOM     40  O   UNK d   0      14.402  -9.680 -11.895  0.00  0.00    -0.650 OA
BRANCH  39  41
ATOM     41  O   UNK d   0      12.400  -8.699 -12.292  0.00  0.00    -0.776 OA
ATOM     42  H   UNK d   0      11.892  -8.779 -13.178  0.00  0.00     0.167 HD
ENDBRANCH  39  41
ENDBRANCH  38  39
ENDBRANCH  31  38
BRANCH  27  43
ATOM     43  C   UNK d   0      10.762 -11.502 -14.031  0.00  0.00     0.052 C 
BRANCH  43  44
ATOM     44  C   UNK d   0      10.939 -10.325 -14.934  0.00  0.00     0.115 C 
BRANCH  44  45
ATOM     45  C   UNK d   0      12.327 -10.397 -15.459  0.00  0.00     0.139 C 
ATOM     46  O   UNK d   0      13.122  -9.472 -15.160  0.00  0.00    -0.650 OA
BRANCH  45  47
ATOM     47  O   UNK d   0      12.774 -11.434 -16.249  0.00  0.00    -0.776 OA
ATOM     48  H   UNK d   0      12.155 -12.189 -16.587  0.00  0.00     0.167 HD
ENDBRANCH  45  47
ENDBRANCH  44  45
ENDBRANCH  43  44
ENDBRANCH  27  43
BRANCH  24  49
ATOM     49  C   UNK d   0       5.394 -11.957 -15.309  0.00  0.00     0.052 C 
BRANCH  49  50
ATOM     50  C   UNK d   0       5.048 -10.524 -15.621  0.00  0.00     0.115 C 
BRANCH  50  51
ATOM     51  C   UNK d   0       5.888  -9.832 -16.588  0.00  0.00     0.139 C 
ATOM     52  O   UNK d   0       6.366 -10.401 -17.598  0.00  0.00    -0.650 OA
BRANCH  51  53
ATOM     53  O   UNK d   0       6.187  -8.491 -16.403  0.00  0.00    -0.776 OA
ATOM     54  H   UNK d   0       6.529  -7.967 -17.190  0.00  0.00     0.167 HD
ENDBRANCH  51  53
ENDBRANCH  50  51
ENDBRANCH  49  50
ENDBRANCH  24  49
BRANCH  21  55
ATOM     55  C   UNK d   0       3.319 -13.355 -13.496  0.00  0.00     0.151 C 
BRANCH  55  56
ATOM     56  C   UNK d   0       2.193 -12.764 -12.758  0.00  0.00     0.143 C 
ATOM     57  O   UNK d   0       1.946 -11.542 -12.768  0.00  0.00    -0.650 OA
BRANCH  56  58
ATOM     58  O   UNK d   0       1.378 -13.622 -12.021  0.00  0.00    -0.776 OA
ATOM     59  H   UNK d   0       1.879 -14.384 -11.528  0.00  0.00     0.167 HD
ENDBRANCH  56  58
ENDBRANCH  55  56
ENDBRANCH  21  55
BRANCH  18  60
ATOM     60  C   UNK d   0       2.828 -12.539  -8.214  0.00  0.00     0.151 C 
BRANCH  60  61
ATOM     61  C   UNK d   0       2.522 -11.343  -9.014  0.00  0.00     0.143 C 
ATOM     62  O   UNK d   0       3.164 -10.293  -9.054  0.00  0.00    -0.650 OA
BRANCH  61  63
ATOM     63  O   UNK d   0       1.359 -11.436  -9.816  0.00  0.00    -0.776 OA
ATOM     64  H   UNK d   0       1.366 -11.945 -10.682  0.00  0.00     0.167 HD
ENDBRANCH  61  63
ENDBRANCH  60  61
ENDBRANCH  18  60
BRANCH  14  65
ATOM     65  C   UNK d   0       4.529 -12.202  -5.724  0.00  0.00     0.052 C 
BRANCH  65  66
ATOM     66  C   UNK d   0       4.461 -10.757  -5.377  0.00  0.00     0.115 C 
BRANCH  66  67
ATOM     67  C   UNK d   0       3.228 -10.042  -5.548  0.00  0.00     0.139 C 
ATOM     68  O   UNK d   0       3.263  -8.882  -6.103  0.00  0.00    -0.650 OA
BRANCH  67  69
ATOM     69  O   UNK d   0       1.946 -10.449  -5.178  0.00  0.00    -0.776 OA
ATOM     70  H   UNK d   0       1.856 -10.837  -4.228  0.00  0.00     0.167 HD
ENDBRANCH  67  69
ENDBRANCH  66  67
ENDBRANCH  65  66
ENDBRANCH  14  65
ENDBRANCH   6   7
ENDBRANCH   5   6
ENDBRANCH   2   5
TORSDOF 28
ENDMDL
MODEL 12
REMARK VINA RESULT:      -6.7      8.012     13.958
REMARK  28 active torsions:
REMARK  status: ('A' for Active; 'I' for Inactive)
REMARK    1  A    between atoms: C_2  and  O_3 
REMARK    2  A    between atoms: C_2  and  C_4 
REMARK    3  A    between atoms: C_4  and  C_5 
REMARK    4  A    between atoms: C_5  and  C_6 
REMARK    5  A    between atoms: C_7  and  C_8 
REMARK    6  A    between atoms: C_8  and  C_9 
REMARK    7  A    between atoms: C_9  and  O_11 
REMARK    8  A    between atoms: C_28  and  C_29 
REMARK    9  A    between atoms: C_29  and  C_30 
REMARK   10  A    between atoms: C_30  and  O_32 
REMARK   11  A    between atoms: C_33  and  C_34 
REMARK   12  A    between atoms: C_34  and  C_35 
REMARK   13  A    between atoms: C_35  and  C_36 
REMARK   14  A    between atoms: C_36  and  O_38 
REMARK   15  A    between atoms: C_39  and  C_40 
REMARK   16  A    between atoms: C_40  and  C_41 
REMARK   17  A    between atoms: C_41  and  C_42 
REMARK   18  A    between atoms: C_42  and  O_44 
REMARK   19  A    between atoms: C_45  and  C_46 
REMARK   20  A    between atoms: C_46  and  C_47 
REMARK   21  A    between atoms: C_47  and  O_49 
REMARK   22  A    between atoms: C_50  and  C_51 
REMARK   23  A    between atoms: C_51  and  C_52 
REMARK   24  A    between atoms: C_52  and  O_54 
REMARK   25  A    between atoms: C_55  and  C_56 
REMARK   26  A    between atoms: C_56  and  C_57 
REMARK   27  A    between atoms: C_57  and  C_58 
REMARK   28  A    between atoms: C_58  and  O_60 
ROOT
ATOM      1  O   UNK d   0       8.748  19.358  -4.430  0.00  0.00    -0.650 OA
ATOM      2  C   UNK d   0       9.365  19.217  -5.508  0.00  0.00     0.139 C 
ENDROOT
BRANCH   2   3
ATOM      3  O   UNK d   0       8.789  19.655  -6.677  0.00  0.00    -0.776 OA
ATOM      4  H   UNK d   0       9.354  20.070  -7.420  0.00  0.00     0.167 HD
ENDBRANCH   2   3
BRANCH   2   5
ATOM      5  C   UNK d   0      10.712  18.578  -5.522  0.00  0.00     0.115 C 
BRANCH   5   6
ATOM      6  C   UNK d   0      11.529  19.117  -6.664  0.00  0.00     0.052 C 
BRANCH   6   7
ATOM      7  C   UNK d   0      12.030  18.030  -7.584  0.00  0.00    -0.020 A 
ATOM      8  C   UNK d   0      13.216  17.929  -8.129  0.00  0.00    -0.011 A 
ATOM      9  C   UNK d   0      13.230  16.725  -8.943  0.00  0.00     0.067 A 
ATOM     10  C   UNK d   0      14.168  16.055  -9.744  0.00  0.00     0.062 C 
ATOM     11  N   UNK d   0      12.010  16.157  -8.840  0.00  0.00    -0.248 NA
ATOM     12  C   UNK d   0      14.085  14.747 -10.233  0.00  0.00     0.041 A 
ATOM     13  N   UNK d   0      13.055  14.067 -10.773  0.00  0.00    -0.355 N 
ATOM     14  C   UNK d   0      15.211  13.910 -10.133  0.00  0.00    -0.022 A 
ATOM     15  C   UNK d   0      13.497  12.817 -11.011  0.00  0.00     0.042 A 
ATOM     16  H   UNK d   0      12.043  14.467 -10.999  0.00  0.00     0.166 HD
ATOM     17  C   UNK d   0      12.835  11.704 -11.566  0.00  0.00     0.062 C 
ATOM     18  C   UNK d   0      14.844  12.681 -10.622  0.00  0.00    -0.013 A 
ATOM     19  C   UNK d   0      11.577  11.228 -11.299  0.00  0.00     0.067 A 
ATOM     20  N   UNK d   0      10.777  12.009 -10.568  0.00  0.00    -0.248 NA
ATOM     21  C   UNK d   0      10.831  10.018 -11.602  0.00  0.00    -0.011 A 
ATOM     22  C   UNK d   0       9.563  11.397 -10.371  0.00  0.00     0.066 A 
ATOM     23  C   UNK d   0       8.619  12.118  -9.655  0.00  0.00     0.062 C 
ATOM     24  C   UNK d   0       9.656  10.121 -11.053  0.00  0.00    -0.020 A 
ATOM     25  C   UNK d   0       8.718  13.436  -9.184  0.00  0.00     0.041 A 
ATOM     26  N   UNK d   0       9.736  14.107  -8.633  0.00  0.00    -0.355 N 
ATOM     27  C   UNK d   0       7.588  14.277  -9.289  0.00  0.00    -0.022 A 
ATOM     28  C   UNK d   0       9.295  15.351  -8.387  0.00  0.00     0.042 A 
ATOM     29  H   UNK d   0      10.750  13.700  -8.397  0.00  0.00     0.166 HD
ATOM     30  C   UNK d   0       9.941  16.465  -7.827  0.00  0.00     0.062 C 
ATOM     31  C   UNK d   0       7.945  15.491  -8.787  0.00  0.00    -0.013 A 
ATOM     32  C   UNK d   0      11.242  16.894  -8.036  0.00  0.00     0.066 A 
BRANCH   8  33
ATOM     33  C   UNK d   0      14.347  18.861  -7.967  0.00  0.00     0.151 C 
BRANCH  33  34
ATOM     34  C   UNK d   0      14.509  19.768  -9.118  0.00  0.00     0.143 C 
ATOM     35  O   UNK d   0      15.364  19.546  -9.987  0.00  0.00    -0.650 OA
BRANCH  34  36
ATOM     36  O   UNK d   0      13.700  20.875  -9.225  0.00  0.00    -0.776 OA
ATOM     37  H   UNK d   0      12.746  20.805  -9.605  0.00  0.00     0.167 HD
ENDBRANCH  34  36
ENDBRANCH  33  34
ENDBRANCH   8  33
BRANCH  31  38
ATOM     38  C   UNK d   0       7.064  16.715  -8.704  0.00  0.00     0.151 C 
BRANCH  38  39
ATOM     39  C   UNK d   0       7.342  17.679  -9.748  0.00  0.00     0.143 C 
ATOM     40  O   UNK d   0       7.073  17.463 -10.942  0.00  0.00    -0.650 OA
BRANCH  39  41
ATOM     41  O   UNK d   0       7.933  18.898  -9.415  0.00  0.00    -0.776 OA
ATOM     42  H   UNK d   0       8.957  18.920  -9.378  0.00  0.00     0.167 HD
ENDBRANCH  39  41
ENDBRANCH  38  39
ENDBRANCH  31  38
BRANCH  27  43
ATOM     43  C   UNK d   0       6.215  13.974  -9.833  0.00  0.00     0.052 C 
BRANCH  43  44
ATOM     44  C   UNK d   0       6.124  14.112 -11.318  0.00  0.00     0.115 C 
BRANCH  44  45
ATOM     45  C   UNK d   0       4.734  13.745 -11.695  0.00  0.00     0.139 C 
ATOM     46  O   UNK d   0       3.827  13.910 -10.842  0.00  0.00    -0.650 OA
BRANCH  45  47
ATOM     47  O   UNK d   0       4.404  13.241 -12.934  0.00  0.00    -0.776 OA
ATOM     48  H   UNK d   0       3.893  13.790 -13.644  0.00  0.00     0.167 HD
ENDBRANCH  45  47
ENDBRANCH  44  45
ENDBRANCH  43  44
ENDBRANCH  27  43
BRANCH  24  49
ATOM     49  C   UNK d   0       8.566   9.135 -11.143  0.00  0.00     0.052 C 
BRANCH  49  50
ATOM     50  C   UNK d   0       7.761   9.355 -12.398  0.00  0.00     0.115 C 
BRANCH  50  51
ATOM     51  C   UNK d   0       6.651  10.295 -12.319  0.00  0.00     0.139 C 
ATOM     52  O   UNK d   0       6.272  10.978 -13.300  0.00  0.00    -0.650 OA
BRANCH  51  53
ATOM     53  O   UNK d   0       5.973  10.458 -11.120  0.00  0.00    -0.776 OA
ATOM     54  H   UNK d   0       5.656  11.380 -10.875  0.00  0.00     0.167 HD
ENDBRANCH  51  53
ENDBRANCH  50  51
ENDBRANCH  49  50
ENDBRANCH  24  49
BRANCH  21  55
ATOM     55  C   UNK d   0      11.371   8.887 -12.414  0.00  0.00     0.151 C 
BRANCH  55  56
ATOM     56  C   UNK d   0      12.205   7.980 -11.610  0.00  0.00     0.143 C 
ATOM     57  O   UNK d   0      11.912   6.783 -11.420  0.00  0.00    -0.650 OA
BRANCH  56  58
ATOM     58  O   UNK d   0      13.369   8.499 -11.045  0.00  0.00    -0.776 OA
ATOM     59  H   UNK d   0      13.657   9.424 -11.413  0.00  0.00     0.167 HD
ENDBRANCH  56  58
ENDBRANCH  55  56
ENDBRANCH  21  55
BRANCH  18  60
ATOM     60  C   UNK d   0      15.748  11.475 -10.696  0.00  0.00     0.151 C 
BRANCH  60  61
ATOM     61  C   UNK d   0      15.622  10.796  -9.397  0.00  0.00     0.143 C 
ATOM     62  O   UNK d   0      14.619  10.244  -8.942  0.00  0.00    -0.650 OA
BRANCH  61  63
ATOM     63  O   UNK d   0      16.795  10.790  -8.604  0.00  0.00    -0.776 OA
ATOM     64  H   UNK d   0      17.705  10.741  -9.026  0.00  0.00     0.167 HD
ENDBRANCH  61  63
ENDBRANCH  60  61
ENDBRANCH  18  60
BRANCH  14  65
ATOM     65  C   UNK d   0      16.620  14.208  -9.706  0.00  0.00     0.052 C 
BRANCH  65  66
ATOM     66  C   UNK d   0      17.348  15.075 -10.670  0.00  0.00     0.115 C 
BRANCH  66  67
ATOM     67  C   UNK d   0      17.505  14.650 -12.032  0.00  0.00     0.139 C 
ATOM     68  O   UNK d   0      16.931  15.334 -12.958  0.00  0.00    -0.650 OA
BRANCH  67  69
ATOM     69  O   UNK d   0      18.222  13.552 -12.507  0.00  0.00    -0.776 OA
ATOM     70  H   UNK d   0      18.323  12.765 -11.850  0.00  0.00     0.167 HD
ENDBRANCH  67  69
ENDBRANCH  66  67
ENDBRANCH  65  66
ENDBRANCH  14  65
ENDBRANCH   6   7
ENDBRANCH   5   6
ENDBRANCH   2   5
TORSDOF 28
ENDMDL
MODEL 13
REMARK VINA RESULT:      -6.7     15.368     19.504
REMARK  28 active torsions:
REMARK  status: ('A' for Active; 'I' for Inactive)
REMARK    1  A    between atoms: C_2  and  O_3 
REMARK    2  A    between atoms: C_2  and  C_4 
REMARK    3  A    between atoms: C_4  and  C_5 
REMARK    4  A    between atoms: C_5  and  C_6 
REMARK    5  A    between atoms: C_7  and  C_8 
REMARK    6  A    between atoms: C_8  and  C_9 
REMARK    7  A    between atoms: C_9  and  O_11 
REMARK    8  A    between atoms: C_28  and  C_29 
REMARK    9  A    between atoms: C_29  and  C_30 
REMARK   10  A    between atoms: C_30  and  O_32 
REMARK   11  A    between atoms: C_33  and  C_34 
REMARK   12  A    between atoms: C_34  and  C_35 
REMARK   13  A    between atoms: C_35  and  C_36 
REMARK   14  A    between atoms: C_36  and  O_38 
REMARK   15  A    between atoms: C_39  and  C_40 
REMARK   16  A    between atoms: C_40  and  C_41 
REMARK   17  A    between atoms: C_41  and  C_42 
REMARK   18  A    between atoms: C_42  and  O_44 
REMARK   19  A    between atoms: C_45  and  C_46 
REMARK   20  A    between atoms: C_46  and  C_47 
REMARK   21  A    between atoms: C_47  and  O_49 
REMARK   22  A    between atoms: C_50  and  C_51 
REMARK   23  A    between atoms: C_51  and  C_52 
REMARK   24  A    between atoms: C_52  and  O_54 
REMARK   25  A    between atoms: C_55  and  C_56 
REMARK   26  A    between atoms: C_56  and  C_57 
REMARK   27  A    between atoms: C_57  and  C_58 
REMARK   28  A    between atoms: C_58  and  O_60 
ROOT
ATOM      1  O   UNK d   0      12.155  -7.811 -13.002  0.00  0.00    -0.650 OA
ATOM      2  C   UNK d   0      12.808  -8.873 -12.896  0.00  0.00     0.139 C 
ENDROOT
BRANCH   2   3
ATOM      3  O   UNK d   0      13.323  -9.463 -14.025  0.00  0.00    -0.776 OA
ATOM      4  H   UNK d   0      12.755 -10.090 -14.598  0.00  0.00     0.167 HD
ENDBRANCH   2   3
BRANCH   2   5
ATOM      5  C   UNK d   0      13.022  -9.489 -11.556  0.00  0.00     0.115 C 
BRANCH   5   6
ATOM      6  C   UNK d   0      12.498 -10.899 -11.544  0.00  0.00     0.052 C 
BRANCH   6   7
ATOM      7  C   UNK d   0      10.992 -10.959 -11.451  0.00  0.00    -0.020 A 
ATOM      8  C   UNK d   0      10.138 -11.141 -12.426  0.00  0.00    -0.011 A 
ATOM      9  C   UNK d   0       8.801 -11.114 -11.858  0.00  0.00     0.067 A 
ATOM     10  C   UNK d   0       7.492 -11.264 -12.342  0.00  0.00     0.062 C 
ATOM     11  N   UNK d   0       8.934 -10.904 -10.531  0.00  0.00    -0.248 NA
ATOM     12  C   UNK d   0       6.331 -11.485 -11.592  0.00  0.00     0.041 A 
ATOM     13  N   UNK d   0       5.902 -10.934 -10.440  0.00  0.00    -0.355 N 
ATOM     14  C   UNK d   0       5.426 -12.476 -12.014  0.00  0.00    -0.022 A 
ATOM     15  C   UNK d   0       4.752 -11.555 -10.117  0.00  0.00     0.042 A 
ATOM     16  H   UNK d   0       6.392 -10.109  -9.878  0.00  0.00     0.166 HD
ATOM     17  C   UNK d   0       3.890 -11.368  -9.018  0.00  0.00     0.062 C 
ATOM     18  C   UNK d   0       4.422 -12.529 -11.080  0.00  0.00    -0.013 A 
ATOM     19  C   UNK d   0       4.204 -11.220  -7.691  0.00  0.00     0.067 A 
ATOM     20  N   UNK d   0       5.492 -11.028  -7.392  0.00  0.00    -0.248 NA
ATOM     21  C   UNK d   0       3.471 -11.230  -6.436  0.00  0.00    -0.011 A 
ATOM     22  C   UNK d   0       5.654 -10.913  -6.033  0.00  0.00     0.066 A 
ATOM     23  C   UNK d   0       6.944 -10.672  -5.584  0.00  0.00     0.062 C 
ATOM     24  C   UNK d   0       4.325 -11.054  -5.470  0.00  0.00    -0.020 A 
ATOM     25  C   UNK d   0       8.094 -10.440  -6.355  0.00  0.00     0.041 A 
ATOM     26  N   UNK d   0       8.528 -10.998  -7.491  0.00  0.00    -0.355 N 
ATOM     27  C   UNK d   0       8.999  -9.442  -5.933  0.00  0.00    -0.022 A 
ATOM     28  C   UNK d   0       9.679 -10.386  -7.811  0.00  0.00     0.042 A 
ATOM     29  H   UNK d   0       8.040 -11.834  -8.050  0.00  0.00     0.166 HD
ATOM     30  C   UNK d   0      10.551 -10.568  -8.896  0.00  0.00     0.062 C 
ATOM     31  C   UNK d   0      10.005  -9.401  -6.849  0.00  0.00    -0.013 A 
ATOM     32  C   UNK d   0      10.227 -10.803 -10.223  0.00  0.00     0.066 A 
BRANCH   8  33
ATOM     33  C   UNK d   0      10.454 -11.335 -13.854  0.00  0.00     0.151 C 
BRANCH  33  34
ATOM     34  C   UNK d   0      10.999 -12.675 -14.140  0.00  0.00     0.143 C 
ATOM     35  O   UNK d   0      10.440 -13.694 -13.713  0.00  0.00    -0.650 OA
BRANCH  34  36
ATOM     36  O   UNK d   0      12.145 -12.790 -14.892  0.00  0.00    -0.776 OA
ATOM     37  H   UNK d   0      12.652 -11.959 -15.225  0.00  0.00     0.167 HD
ENDBRANCH  34  36
ENDBRANCH  33  34
ENDBRANCH   8  33
BRANCH  31  38
ATOM     38  C   UNK d   0      11.198  -8.474  -6.822  0.00  0.00     0.151 C 
BRANCH  38  39
ATOM     39  C   UNK d   0      12.245  -8.932  -5.934  0.00  0.00     0.143 C 
ATOM     40  O   UNK d   0      13.263  -8.256  -5.701  0.00  0.00    -0.650 OA
BRANCH  39  41
ATOM     41  O   UNK d   0      12.121 -10.173  -5.310  0.00  0.00    -0.776 OA
ATOM     42  H   UNK d   0      11.455 -10.833  -5.723  0.00  0.00     0.167 HD
ENDBRANCH  39  41
ENDBRANCH  38  39
ENDBRANCH  31  38
BRANCH  27  43
ATOM     43  C   UNK d   0       8.944  -8.550  -4.718  0.00  0.00     0.052 C 
BRANCH  43  44
ATOM     44  C   UNK d   0       8.413  -7.185  -5.011  0.00  0.00     0.115 C 
BRANCH  44  45
ATOM     45  C   UNK d   0       7.064  -7.112  -4.391  0.00  0.00     0.139 C 
ATOM     46  O   UNK d   0       6.822  -7.859  -3.411  0.00  0.00    -0.650 OA
BRANCH  45  47
ATOM     47  O   UNK d   0       6.079  -6.261  -4.843  0.00  0.00    -0.776 OA
ATOM     48  H   UNK d   0       5.709  -5.481  -4.276  0.00  0.00     0.167 HD
ENDBRANCH  45  47
ENDBRANCH  44  45
ENDBRANCH  43  44
ENDBRANCH  27  43
BRANCH  24  49
ATOM     49  C   UNK d   0       4.006 -10.959  -4.035  0.00  0.00     0.052 C 
BRANCH  49  50
ATOM     50  C   UNK d   0       3.043  -9.827  -3.786  0.00  0.00     0.115 C 
BRANCH  50  51
ATOM     51  C   UNK d   0       3.556  -8.472  -3.936  0.00  0.00     0.139 C 
ATOM     52  O   UNK d   0       3.637  -7.899  -5.048  0.00  0.00    -0.650 OA
BRANCH  51  53
ATOM     53  O   UNK d   0       3.980  -7.771  -2.818  0.00  0.00    -0.776 OA
ATOM     54  H   UNK d   0       3.819  -8.177  -1.913  0.00  0.00     0.167 HD
ENDBRANCH  51  53
ENDBRANCH  50  51
ENDBRANCH  49  50
ENDBRANCH  24  49
BRANCH  21  55
ATOM     55  C   UNK d   0       1.993 -11.410  -6.335  0.00  0.00     0.151 C 
BRANCH  55  56
ATOM     56  C   UNK d   0       1.575 -12.768  -6.713  0.00  0.00     0.143 C 
ATOM     57  O   UNK d   0       2.182 -13.790  -6.337  0.00  0.00    -0.650 OA
BRANCH  56  58
ATOM     58  O   UNK d   0       0.451 -12.899  -7.527  0.00  0.00    -0.776 OA
ATOM     59  H   UNK d   0      -0.427 -13.126  -7.026  0.00  0.00     0.167 HD
ENDBRANCH  56  58
ENDBRANCH  55  56
ENDBRANCH  21  55
BRANCH  18  60
ATOM     60  C   UNK d   0       3.239 -13.464 -11.134  0.00  0.00     0.151 C 
BRANCH  60  61
ATOM     61  C   UNK d   0       2.045 -12.606 -11.110  0.00  0.00     0.143 C 
ATOM     62  O   UNK d   0       1.064 -12.721 -10.374  0.00  0.00    -0.650 OA
BRANCH  61  63
ATOM     63  O   UNK d   0       2.048 -11.541 -12.042  0.00  0.00    -0.776 OA
ATOM     64  H   UNK d   0       1.190 -11.128 -12.360  0.00  0.00     0.167 HD
ENDBRANCH  61  63
ENDBRANCH  60  61
ENDBRANCH  18  60
BRANCH  14  65
ATOM     65  C   UNK d   0       5.389 -13.298 -13.270  0.00  0.00     0.052 C 
BRANCH  65  66
ATOM     66  C   UNK d   0       4.784 -12.575 -14.421  0.00  0.00     0.115 C 
BRANCH  66  67
ATOM     67  C   UNK d   0       3.391 -12.754 -14.722  0.00  0.00     0.139 C 
ATOM     68  O   UNK d   0       2.926 -13.952 -14.782  0.00  0.00    -0.650 OA
BRANCH  67  69
ATOM     69  O   UNK d   0       2.437 -11.767 -14.967  0.00  0.00    -0.776 OA
ATOM     70  H   UNK d   0       2.466 -11.340 -15.904  0.00  0.00     0.167 HD
ENDBRANCH  67  69
ENDBRANCH  66  67
ENDBRANCH  65  66
ENDBRANCH  14  65
ENDBRANCH   6   7
ENDBRANCH   5   6
ENDBRANCH   2   5
TORSDOF 28
ENDMDL
MODEL 14
REMARK VINA RESULT:      -6.7      8.863     13.840
REMARK  28 active torsions:
REMARK  status: ('A' for Active; 'I' for Inactive)
REMARK    1  A    between atoms: C_2  and  O_3 
REMARK    2  A    between atoms: C_2  and  C_4 
REMARK    3  A    between atoms: C_4  and  C_5 
REMARK    4  A    between atoms: C_5  and  C_6 
REMARK    5  A    between atoms: C_7  and  C_8 
REMARK    6  A    between atoms: C_8  and  C_9 
REMARK    7  A    between atoms: C_9  and  O_11 
REMARK    8  A    between atoms: C_28  and  C_29 
REMARK    9  A    between atoms: C_29  and  C_30 
REMARK   10  A    between atoms: C_30  and  O_32 
REMARK   11  A    between atoms: C_33  and  C_34 
REMARK   12  A    between atoms: C_34  and  C_35 
REMARK   13  A    between atoms: C_35  and  C_36 
REMARK   14  A    between atoms: C_36  and  O_38 
REMARK   15  A    between atoms: C_39  and  C_40 
REMARK   16  A    between atoms: C_40  and  C_41 
REMARK   17  A    between atoms: C_41  and  C_42 
REMARK   18  A    between atoms: C_42  and  O_44 
REMARK   19  A    between atoms: C_45  and  C_46 
REMARK   20  A    between atoms: C_46  and  C_47 
REMARK   21  A    between atoms: C_47  and  O_49 
REMARK   22  A    between atoms: C_50  and  C_51 
REMARK   23  A    between atoms: C_51  and  C_52 
REMARK   24  A    between atoms: C_52  and  O_54 
REMARK   25  A    between atoms: C_55  and  C_56 
REMARK   26  A    between atoms: C_56  and  C_57 
REMARK   27  A    between atoms: C_57  and  C_58 
REMARK   28  A    between atoms: C_58  and  O_60 
ROOT
ATOM      1  O   UNK d   0      13.204  19.527  -7.671  0.00  0.00    -0.650 OA
ATOM      2  C   UNK d   0      13.009  18.846  -6.640  0.00  0.00     0.139 C 
ENDROOT
BRANCH   2   3
ATOM      3  O   UNK d   0      14.082  18.284  -5.992  0.00  0.00    -0.776 OA
ATOM      4  H   UNK d   0      14.038  17.329  -5.629  0.00  0.00     0.167 HD
ENDBRANCH   2   3
BRANCH   2   5
ATOM      5  C   UNK d   0      11.625  18.648  -6.124  0.00  0.00     0.115 C 
BRANCH   5   6
ATOM      6  C   UNK d   0      10.636  18.713  -7.257  0.00  0.00     0.052 C 
BRANCH   6   7
ATOM      7  C   UNK d   0      10.167  17.347  -7.698  0.00  0.00    -0.020 A 
ATOM      8  C   UNK d   0       9.052  16.744  -7.376  0.00  0.00    -0.011 A 
ATOM      9  C   UNK d   0       9.042  15.447  -8.031  0.00  0.00     0.067 A 
ATOM     10  C   UNK d   0       8.158  14.360  -8.113  0.00  0.00     0.062 C 
ATOM     11  N   UNK d   0      10.194  15.341  -8.727  0.00  0.00    -0.248 NA
ATOM     12  C   UNK d   0       8.200  13.300  -9.026  0.00  0.00     0.041 A 
ATOM     13  N   UNK d   0       9.231  12.567  -9.487  0.00  0.00    -0.355 N 
ATOM     14  C   UNK d   0       7.009  12.902  -9.660  0.00  0.00    -0.022 A 
ATOM     15  C   UNK d   0       8.726  11.720 -10.403  0.00  0.00     0.042 A 
ATOM     16  H   UNK d   0      10.291  12.634  -9.157  0.00  0.00     0.166 HD
ATOM     17  C   UNK d   0       9.364  10.737 -11.187  0.00  0.00     0.062 C 
ATOM     18  C   UNK d   0       7.336  11.900 -10.540  0.00  0.00    -0.013 A 
ATOM     19  C   UNK d   0      10.540  10.822 -11.886  0.00  0.00     0.067 A 
ATOM     20  N   UNK d   0      11.304  11.893 -11.658  0.00  0.00    -0.248 NA
ATOM     21  C   UNK d   0      11.222  10.016 -12.886  0.00  0.00    -0.011 A 
ATOM     22  C   UNK d   0      12.435  11.847 -12.436  0.00  0.00     0.066 A 
ATOM     23  C   UNK d   0      13.340  12.885 -12.270  0.00  0.00     0.062 C 
ATOM     24  C   UNK d   0      12.328  10.623 -13.206  0.00  0.00    -0.020 A 
ATOM     25  C   UNK d   0      13.286  13.933 -11.338  0.00  0.00     0.041 A 
ATOM     26  N   UNK d   0      12.264  14.671 -10.891  0.00  0.00    -0.355 N 
ATOM     27  C   UNK d   0      14.481  14.329 -10.698  0.00  0.00    -0.022 A 
ATOM     28  C   UNK d   0      12.766  15.523  -9.983  0.00  0.00     0.042 A 
ATOM     29  H   UNK d   0      11.201  14.610 -11.231  0.00  0.00     0.166 HD
ATOM     30  C   UNK d   0      12.145  16.512  -9.203  0.00  0.00     0.062 C 
ATOM     31  C   UNK d   0      14.161  15.334  -9.839  0.00  0.00    -0.013 A 
ATOM     32  C   UNK d   0      10.915  16.452  -8.568  0.00  0.00     0.066 A 
BRANCH   8  33
ATOM     33  C   UNK d   0       7.984  17.265  -6.503  0.00  0.00     0.151 C 
BRANCH  33  34
ATOM     34  C   UNK d   0       8.235  17.002  -5.074  0.00  0.00     0.143 C 
ATOM     35  O   UNK d   0       8.682  17.888  -4.333  0.00  0.00    -0.650 OA
BRANCH  34  36
ATOM     36  O   UNK d   0       7.970  15.753  -4.561  0.00  0.00    -0.776 OA
ATOM     37  H   UNK d   0       7.703  14.970  -5.173  0.00  0.00     0.167 HD
ENDBRANCH  34  36
ENDBRANCH  33  34
ENDBRANCH   8  33
BRANCH  31  38
ATOM     38  C   UNK d   0      15.117  16.064  -8.925  0.00  0.00     0.151 C 
BRANCH  38  39
ATOM     39  C   UNK d   0      15.539  17.342  -9.459  0.00  0.00     0.143 C 
ATOM     40  O   UNK d   0      15.626  17.556 -10.681  0.00  0.00    -0.650 OA
BRANCH  39  41
ATOM     41  O   UNK d   0      15.863  18.378  -8.584  0.00  0.00    -0.776 OA
ATOM     42  H   UNK d   0      15.837  18.162  -7.582  0.00  0.00     0.167 HD
ENDBRANCH  39  41
ENDBRANCH  38  39
ENDBRANCH  31  38
BRANCH  27  43
ATOM     43  C   UNK d   0      15.883  13.799 -10.873  0.00  0.00     0.052 C 
BRANCH  43  44
ATOM     44  C   UNK d   0      16.504  14.190 -12.174  0.00  0.00     0.115 C 
BRANCH  44  45
ATOM     45  C   UNK d   0      17.723  14.974 -11.844  0.00  0.00     0.139 C 
ATOM     46  O   UNK d   0      18.094  15.014 -10.645  0.00  0.00    -0.650 OA
BRANCH  45  47
ATOM     47  O   UNK d   0      18.458  15.649 -12.795  0.00  0.00    -0.776 OA
ATOM     48  H   UNK d   0      19.057  15.168 -13.485  0.00  0.00     0.167 HD
ENDBRANCH  45  47
ENDBRANCH  44  45
ENDBRANCH  43  44
ENDBRANCH  27  43
BRANCH  24  49
ATOM     49  C   UNK d   0      13.342  10.136 -14.157  0.00  0.00     0.052 C 
BRANCH  49  50
ATOM     50  C   UNK d   0      13.359  10.998 -15.393  0.00  0.00     0.115 C 
BRANCH  50  51
ATOM     51  C   UNK d   0      12.472  10.614 -16.483  0.00  0.00     0.139 C 
ATOM     52  O   UNK d   0      11.251  10.896 -16.493  0.00  0.00    -0.650 OA
BRANCH  51  53
ATOM     53  O   UNK d   0      12.978   9.904 -17.562  0.00  0.00    -0.776 OA
ATOM     54  H   UNK d   0      12.499   9.069 -17.849  0.00  0.00     0.167 HD
ENDBRANCH  51  53
ENDBRANCH  50  51
ENDBRANCH  49  50
ENDBRANCH  24  49
BRANCH  21  55
ATOM     55  C   UNK d   0      10.699   8.721 -13.413  0.00  0.00     0.151 C 
BRANCH  55  56
ATOM     56  C   UNK d   0      10.964   7.604 -12.493  0.00  0.00     0.143 C 
ATOM     57  O   UNK d   0      10.422   7.506 -11.375  0.00  0.00    -0.650 OA
BRANCH  56  58
ATOM     58  O   UNK d   0      11.862   6.621 -12.908  0.00  0.00    -0.776 OA
ATOM     59  H   UNK d   0      11.470   5.919 -13.560  0.00  0.00     0.167 HD
ENDBRANCH  56  58
ENDBRANCH  55  56
ENDBRANCH  21  55
BRANCH  18  60
ATOM     60  C   UNK d   0       6.358  11.186 -11.439  0.00  0.00     0.151 C 
BRANCH  60  61
ATOM     61  C   UNK d   0       6.028  12.136 -12.512  0.00  0.00     0.143 C 
ATOM     62  O   UNK d   0       4.905  12.499 -12.863  0.00  0.00    -0.650 OA
BRANCH  61  63
ATOM     63  O   UNK d   0       7.141  12.678 -13.200  0.00  0.00    -0.776 OA
ATOM     64  H   UNK d   0       7.026  13.419 -13.868  0.00  0.00     0.167 HD
ENDBRANCH  61  63
ENDBRANCH  60  61
ENDBRANCH  18  60
BRANCH  14  65
ATOM     65  C   UNK d   0       5.586  13.324  -9.429  0.00  0.00     0.052 C 
BRANCH  65  66
ATOM     66  C   UNK d   0       5.279  14.667  -9.991  0.00  0.00     0.115 C 
BRANCH  66  67
ATOM     67  C   UNK d   0       3.954  14.956 -10.463  0.00  0.00     0.139 C 
ATOM     68  O   UNK d   0       3.474  16.132 -10.264  0.00  0.00    -0.650 OA
BRANCH  67  69
ATOM     69  O   UNK d   0       3.082  14.099 -11.134  0.00  0.00    -0.776 OA
ATOM     70  H   UNK d   0       2.494  13.500 -10.536  0.00  0.00     0.167 HD
ENDBRANCH  67  69
ENDBRANCH  66  67
ENDBRANCH  65  66
ENDBRANCH  14  65
ENDBRANCH   6   7
ENDBRANCH   5   6
ENDBRANCH   2   5
TORSDOF 28
ENDMDL
MODEL 15
REMARK VINA RESULT:      -6.7      9.770     13.719
REMARK  28 active torsions:
REMARK  status: ('A' for Active; 'I' for Inactive)
REMARK    1  A    between atoms: C_2  and  O_3 
REMARK    2  A    between atoms: C_2  and  C_4 
REMARK    3  A    between atoms: C_4  and  C_5 
REMARK    4  A    between atoms: C_5  and  C_6 
REMARK    5  A    between atoms: C_7  and  C_8 
REMARK    6  A    between atoms: C_8  and  C_9 
REMARK    7  A    between atoms: C_9  and  O_11 
REMARK    8  A    between atoms: C_28  and  C_29 
REMARK    9  A    between atoms: C_29  and  C_30 
REMARK   10  A    between atoms: C_30  and  O_32 
REMARK   11  A    between atoms: C_33  and  C_34 
REMARK   12  A    between atoms: C_34  and  C_35 
REMARK   13  A    between atoms: C_35  and  C_36 
REMARK   14  A    between atoms: C_36  and  O_38 
REMARK   15  A    between atoms: C_39  and  C_40 
REMARK   16  A    between atoms: C_40  and  C_41 
REMARK   17  A    between atoms: C_41  and  C_42 
REMARK   18  A    between atoms: C_42  and  O_44 
REMARK   19  A    between atoms: C_45  and  C_46 
REMARK   20  A    between atoms: C_46  and  C_47 
REMARK   21  A    between atoms: C_47  and  O_49 
REMARK   22  A    between atoms: C_50  and  C_51 
REMARK   23  A    between atoms: C_51  and  C_52 
REMARK   24  A    between atoms: C_52  and  O_54 
REMARK   25  A    between atoms: C_55  and  C_56 
REMARK   26  A    between atoms: C_56  and  C_57 
REMARK   27  A    between atoms: C_57  and  C_58 
REMARK   28  A    between atoms: C_58  and  O_60 
ROOT
ATOM      1  O   UNK d   0      14.580   6.313 -23.885  0.00  0.00    -0.650 OA
ATOM      2  C   UNK d   0      13.799   7.270 -23.686  0.00  0.00     0.139 C 
ENDROOT
BRANCH   2   3
ATOM      3  O   UNK d   0      14.309   8.539 -23.551  0.00  0.00    -0.776 OA
ATOM      4  H   UNK d   0      15.071   8.867 -24.148  0.00  0.00     0.167 HD
ENDBRANCH   2   3
BRANCH   2   5
ATOM      5  C   UNK d   0      12.331   7.032 -23.596  0.00  0.00     0.115 C 
BRANCH   5   6
ATOM      6  C   UNK d   0      12.052   5.851 -22.707  0.00  0.00     0.052 C 
BRANCH   6   7
ATOM      7  C   UNK d   0      10.975   6.133 -21.686  0.00  0.00    -0.020 A 
ATOM      8  C   UNK d   0       9.737   5.711 -21.694  0.00  0.00    -0.011 A 
ATOM      9  C   UNK d   0       9.076   6.245 -20.515  0.00  0.00     0.067 A 
ATOM     10  C   UNK d   0       7.798   6.156 -19.943  0.00  0.00     0.062 C 
ATOM     11  N   UNK d   0       9.985   6.988 -19.849  0.00  0.00    -0.248 NA
ATOM     12  C   UNK d   0       7.424   6.519 -18.645  0.00  0.00     0.041 A 
ATOM     13  N   UNK d   0       7.744   7.593 -17.897  0.00  0.00    -0.355 N 
ATOM     14  C   UNK d   0       6.616   5.642 -17.898  0.00  0.00    -0.022 A 
ATOM     15  C   UNK d   0       7.167   7.415 -16.694  0.00  0.00     0.042 A 
ATOM     16  H   UNK d   0       8.349   8.468 -18.221  0.00  0.00     0.166 HD
ATOM     17  C   UNK d   0       7.180   8.231 -15.545  0.00  0.00     0.062 C 
ATOM     18  C   UNK d   0       6.452   6.202 -16.656  0.00  0.00    -0.013 A 
ATOM     19  C   UNK d   0       8.236   8.884 -14.963  0.00  0.00     0.067 A 
ATOM     20  N   UNK d   0       9.375   8.933 -15.659  0.00  0.00    -0.248 NA
ATOM     21  C   UNK d   0       8.474   9.571 -13.704  0.00  0.00    -0.011 A 
ATOM     22  C   UNK d   0      10.341   9.601 -14.946  0.00  0.00     0.066 A 
ATOM     23  C   UNK d   0      11.569   9.759 -15.571  0.00  0.00     0.062 C 
ATOM     24  C   UNK d   0       9.709   9.984 -13.699  0.00  0.00    -0.020 A 
ATOM     25  C   UNK d   0      11.921   9.398 -16.881  0.00  0.00     0.041 A 
ATOM     26  N   UNK d   0      11.615   8.324 -17.618  0.00  0.00    -0.355 N 
ATOM     27  C   UNK d   0      12.727  10.282 -17.631  0.00  0.00    -0.022 A 
ATOM     28  C   UNK d   0      12.196   8.495 -18.816  0.00  0.00     0.042 A 
ATOM     29  H   UNK d   0      11.015   7.440 -17.289  0.00  0.00     0.166 HD
ATOM     30  C   UNK d   0      12.199   7.687 -19.964  0.00  0.00     0.062 C 
ATOM     31  C   UNK d   0      12.906   9.718 -18.857  0.00  0.00    -0.013 A 
ATOM     32  C   UNK d   0      11.148   6.960 -20.501  0.00  0.00     0.066 A 
BRANCH   8  33
ATOM     33  C   UNK d   0       9.102   4.850 -22.710  0.00  0.00     0.151 C 
BRANCH  33  34
ATOM     34  C   UNK d   0       8.427   5.621 -23.769  0.00  0.00     0.143 C 
ATOM     35  O   UNK d   0       8.587   6.846 -23.866  0.00  0.00    -0.650 OA
BRANCH  34  36
ATOM     36  O   UNK d   0       7.608   4.969 -24.661  0.00  0.00    -0.776 OA
ATOM     37  H   UNK d   0       7.041   4.159 -24.373  0.00  0.00     0.167 HD
ENDBRANCH  34  36
ENDBRANCH  33  34
ENDBRANCH   8  33
BRANCH  31  38
ATOM     38  C   UNK d   0      13.691  10.310 -20.004  0.00  0.00     0.151 C 
BRANCH  38  39
ATOM     39  C   UNK d   0      12.849  10.969 -20.980  0.00  0.00     0.143 C 
ATOM     40  O   UNK d   0      12.441  12.134 -20.829  0.00  0.00    -0.650 OA
BRANCH  39  41
ATOM     41  O   UNK d   0      12.475  10.285 -22.136  0.00  0.00    -0.776 OA
ATOM     42  H   UNK d   0      12.096   9.341 -22.012  0.00  0.00     0.167 HD
ENDBRANCH  39  41
ENDBRANCH  38  39
ENDBRANCH  31  38
BRANCH  27  43
ATOM     43  C   UNK d   0      13.321  11.609 -17.231  0.00  0.00     0.052 C 
BRANCH  43  44
ATOM     44  C   UNK d   0      12.414  12.767 -17.497  0.00  0.00     0.115 C 
BRANCH  44  45
ATOM     45  C   UNK d   0      13.285  13.959 -17.666  0.00  0.00     0.139 C 
ATOM     46  O   UNK d   0      14.035  14.005 -18.673  0.00  0.00    -0.650 OA
BRANCH  45  47
ATOM     47  O   UNK d   0      13.297  15.008 -16.773  0.00  0.00    -0.776 OA
ATOM     48  H   UNK d   0      12.435  15.419 -16.379  0.00  0.00     0.167 HD
ENDBRANCH  45  47
ENDBRANCH  44  45
ENDBRANCH  43  44
ENDBRANCH  27  43
BRANCH  24  49
ATOM     49  C   UNK d   0      10.360  10.762 -12.631  0.00  0.00     0.052 C 
BRANCH  49  50
ATOM     50  C   UNK d   0      11.356   9.905 -11.891  0.00  0.00     0.115 C 
BRANCH  50  51
ATOM     51  C   UNK d   0      11.418  10.057 -10.444  0.00  0.00     0.139 C 
ATOM     52  O   UNK d   0      12.062   9.272  -9.709  0.00  0.00    -0.650 OA
BRANCH  51  53
ATOM     53  O   UNK d   0      10.743  11.104  -9.834  0.00  0.00    -0.776 OA
ATOM     54  H   UNK d   0      11.008  11.360  -8.899  0.00  0.00     0.167 HD
ENDBRANCH  51  53
ENDBRANCH  50  51
ENDBRANCH  49  50
ENDBRANCH  24  49
BRANCH  21  55
ATOM     55  C   UNK d   0       7.442   9.747 -12.640  0.00  0.00     0.151 C 
BRANCH  55  56
ATOM     56  C   UNK d   0       7.911   9.264 -11.332  0.00  0.00     0.143 C 
ATOM     57  O   UNK d   0       8.345   8.109 -11.155  0.00  0.00    -0.650 OA
BRANCH  56  58
ATOM     58  O   UNK d   0       7.860  10.150 -10.257  0.00  0.00    -0.776 OA
ATOM     59  H   UNK d   0       8.762  10.297  -9.770  0.00  0.00     0.167 HD
ENDBRANCH  56  58
ENDBRANCH  55  56
ENDBRANCH  21  55
BRANCH  18  60
ATOM     60  C   UNK d   0       5.658   5.589 -15.529  0.00  0.00     0.151 C 
BRANCH  60  61
ATOM     61  C   UNK d   0       4.255   5.950 -15.781  0.00  0.00     0.143 C 
ATOM     62  O   UNK d   0       3.812   7.067 -16.048  0.00  0.00    -0.650 OA
BRANCH  61  63
ATOM     63  O   UNK d   0       3.334   4.877 -15.702  0.00  0.00    -0.776 OA
ATOM     64  H   UNK d   0       2.406   5.017 -15.342  0.00  0.00     0.167 HD
ENDBRANCH  61  63
ENDBRANCH  60  61
ENDBRANCH  18  60
BRANCH  14  65
ATOM     65  C   UNK d   0       5.915   4.374 -18.298  0.00  0.00     0.052 C 
BRANCH  65  66
ATOM     66  C   UNK d   0       6.376   3.187 -17.529  0.00  0.00     0.115 C 
BRANCH  66  67
ATOM     67  C   UNK d   0       5.454   2.126 -17.239  0.00  0.00     0.139 C 
ATOM     68  O   UNK d   0       5.770   0.927 -17.582  0.00  0.00    -0.650 OA
BRANCH  67  69
ATOM     69  O   UNK d   0       4.212   2.222 -16.611  0.00  0.00    -0.776 OA
ATOM     70  H   UNK d   0       4.003   1.489 -15.918  0.00  0.00     0.167 HD
ENDBRANCH  67  69
ENDBRANCH  66  67
ENDBRANCH  65  66
ENDBRANCH  14  65
ENDBRANCH   6   7
ENDBRANCH   5   6
ENDBRANCH   2   5
TORSDOF 28
ENDMDL
MODEL 16
REMARK VINA RESULT:      -6.7     16.225     20.380
REMARK  28 active torsions:
REMARK  status: ('A' for Active; 'I' for Inactive)
REMARK    1  A    between atoms: C_2  and  O_3 
REMARK    2  A    between atoms: C_2  and  C_4 
REMARK    3  A    between atoms: C_4  and  C_5 
REMARK    4  A    between atoms: C_5  and  C_6 
REMARK    5  A    between atoms: C_7  and  C_8 
REMARK    6  A    between atoms: C_8  and  C_9 
REMARK    7  A    between atoms: C_9  and  O_11 
REMARK    8  A    between atoms: C_28  and  C_29 
REMARK    9  A    between atoms: C_29  and  C_30 
REMARK   10  A    between atoms: C_30  and  O_32 
REMARK   11  A    between atoms: C_33  and  C_34 
REMARK   12  A    between atoms: C_34  and  C_35 
REMARK   13  A    between atoms: C_35  and  C_36 
REMARK   14  A    between atoms: C_36  and  O_38 
REMARK   15  A    between atoms: C_39  and  C_40 
REMARK   16  A    between atoms: C_40  and  C_41 
REMARK   17  A    between atoms: C_41  and  C_42 
REMARK   18  A    between atoms: C_42  and  O_44 
REMARK   19  A    between atoms: C_45  and  C_46 
REMARK   20  A    between atoms: C_46  and  C_47 
REMARK   21  A    between atoms: C_47  and  O_49 
REMARK   22  A    between atoms: C_50  and  C_51 
REMARK   23  A    between atoms: C_51  and  C_52 
REMARK   24  A    between atoms: C_52  and  O_54 
REMARK   25  A    between atoms: C_55  and  C_56 
REMARK   26  A    between atoms: C_56  and  C_57 
REMARK   27  A    between atoms: C_57  and  C_58 
REMARK   28  A    between atoms: C_58  and  O_60 
ROOT
ATOM      1  O   UNK d   0      -1.227   0.535 -21.274  0.00  0.00    -0.650 OA
ATOM      2  C   UNK d   0      -0.302   0.327 -20.458  0.00  0.00     0.139 C 
ENDROOT
BRANCH   2   3
ATOM      3  O   UNK d   0      -0.608  -0.047 -19.172  0.00  0.00    -0.776 OA
ATOM      4  H   UNK d   0      -0.857  -1.013 -18.949  0.00  0.00     0.167 HD
ENDBRANCH   2   3
BRANCH   2   5
ATOM      5  C   UNK d   0       1.118   0.486 -20.882  0.00  0.00     0.115 C 
BRANCH   5   6
ATOM      6  C   UNK d   0       1.312   1.817 -21.556  0.00  0.00     0.052 C 
BRANCH   6   7
ATOM      7  C   UNK d   0       1.556   2.937 -20.572  0.00  0.00    -0.020 A 
ATOM      8  C   UNK d   0       2.692   3.285 -20.025  0.00  0.00    -0.011 A 
ATOM      9  C   UNK d   0       2.434   4.409 -19.140  0.00  0.00     0.067 A 
ATOM     10  C   UNK d   0       3.200   5.235 -18.303  0.00  0.00     0.062 C 
ATOM     11  N   UNK d   0       1.113   4.675 -19.205  0.00  0.00    -0.248 NA
ATOM     12  C   UNK d   0       2.817   6.454 -17.735  0.00  0.00     0.041 A 
ATOM     13  N   UNK d   0       1.665   6.837 -17.151  0.00  0.00    -0.355 N 
ATOM     14  C   UNK d   0       3.710   7.540 -17.787  0.00  0.00    -0.022 A 
ATOM     15  C   UNK d   0       1.801   8.140 -16.839  0.00  0.00     0.042 A 
ATOM     16  H   UNK d   0       0.780   6.195 -16.947  0.00  0.00     0.166 HD
ATOM     17  C   UNK d   0       0.903   9.028 -16.215  0.00  0.00     0.062 C 
ATOM     18  C   UNK d   0       3.070   8.616 -17.222  0.00  0.00    -0.013 A 
ATOM     19  C   UNK d   0      -0.437   9.206 -16.450  0.00  0.00     0.067 A 
ATOM     20  N   UNK d   0      -1.040   8.301 -17.224  0.00  0.00    -0.248 NA
ATOM     21  C   UNK d   0      -1.443  10.185 -16.071  0.00  0.00    -0.011 A 
ATOM     22  C   UNK d   0      -2.368   8.618 -17.381  0.00  0.00     0.066 A 
ATOM     23  C   UNK d   0      -3.127   7.736 -18.136  0.00  0.00     0.062 C 
ATOM     24  C   UNK d   0      -2.569   9.837 -16.622  0.00  0.00    -0.020 A 
ATOM     25  C   UNK d   0      -2.725   6.509 -18.687  0.00  0.00     0.041 A 
ATOM     26  N   UNK d   0      -1.586   6.132 -19.280  0.00  0.00    -0.355 N 
ATOM     27  C   UNK d   0      -3.621   5.419 -18.630  0.00  0.00    -0.022 A 
ATOM     28  C   UNK d   0      -1.723   4.836 -19.601  0.00  0.00     0.042 A 
ATOM     29  H   UNK d   0      -0.702   6.782 -19.495  0.00  0.00     0.166 HD
ATOM     30  C   UNK d   0      -0.842   3.943 -20.229  0.00  0.00     0.062 C 
ATOM     31  C   UNK d   0      -2.994   4.356 -19.206  0.00  0.00    -0.013 A 
ATOM     32  C   UNK d   0       0.528   3.825 -20.050  0.00  0.00     0.066 A 
BRANCH   8  33
ATOM     33  C   UNK d   0       4.009   2.660 -20.247  0.00  0.00     0.151 C 
BRANCH  33  34
ATOM     34  C   UNK d   0       4.234   1.483 -19.390  0.00  0.00     0.143 C 
ATOM     35  O   UNK d   0       4.057   1.544 -18.165  0.00  0.00    -0.650 OA
BRANCH  34  36
ATOM     36  O   UNK d   0       4.648   0.301 -19.960  0.00  0.00    -0.776 OA
ATOM     37  H   UNK d   0       4.028  -0.519 -19.999  0.00  0.00     0.167 HD
ENDBRANCH  34  36
ENDBRANCH  33  34
ENDBRANCH   8  33
BRANCH  31  38
ATOM     38  C   UNK d   0      -3.561   2.964 -19.360  0.00  0.00     0.151 C 
BRANCH  38  39
ATOM     39  C   UNK d   0      -4.362   2.814 -20.556  0.00  0.00     0.143 C 
ATOM     40  O   UNK d   0      -4.411   3.688 -21.439  0.00  0.00    -0.650 OA
BRANCH  39  41
ATOM     41  O   UNK d   0      -5.111   1.651 -20.739  0.00  0.00    -0.776 OA
ATOM     42  H   UNK d   0      -6.021   1.610 -20.269  0.00  0.00     0.167 HD
ENDBRANCH  39  41
ENDBRANCH  38  39
ENDBRANCH  31  38
BRANCH  27  43
ATOM     43  C   UNK d   0      -5.017   5.354 -18.065  0.00  0.00     0.052 C 
BRANCH  43  44
ATOM     44  C   UNK d   0      -5.070   4.783 -16.685  0.00  0.00     0.115 C 
BRANCH  44  45
ATOM     45  C   UNK d   0      -5.208   5.934 -15.755  0.00  0.00     0.139 C 
ATOM     46  O   UNK d   0      -4.193   6.300 -15.111  0.00  0.00    -0.650 OA
BRANCH  45  47
ATOM     47  O   UNK d   0      -6.393   6.614 -15.577  0.00  0.00    -0.776 OA
ATOM     48  H   UNK d   0      -6.910   7.052 -16.356  0.00  0.00     0.167 HD
ENDBRANCH  45  47
ENDBRANCH  44  45
ENDBRANCH  43  44
ENDBRANCH  27  43
BRANCH  24  49
ATOM     49  C   UNK d   0      -3.861  10.528 -16.470  0.00  0.00     0.052 C 
BRANCH  49  50
ATOM     50  C   UNK d   0      -4.807   9.695 -15.644  0.00  0.00     0.115 C 
BRANCH  50  51
ATOM     51  C   UNK d   0      -4.560   9.634 -14.209  0.00  0.00     0.139 C 
ATOM     52  O   UNK d   0      -5.032  10.472 -13.405  0.00  0.00    -0.650 OA
BRANCH  51  53
ATOM     53  O   UNK d   0      -3.773   8.617 -13.692  0.00  0.00    -0.776 OA
ATOM     54  H   UNK d   0      -3.230   8.808 -12.868  0.00  0.00     0.167 HD
ENDBRANCH  51  53
ENDBRANCH  50  51
ENDBRANCH  49  50
ENDBRANCH  24  49
BRANCH  21  55
ATOM     55  C   UNK d   0      -1.174  11.362 -15.194  0.00  0.00     0.151 C 
BRANCH  55  56
ATOM     56  C   UNK d   0      -1.427  11.063 -13.776  0.00  0.00     0.143 C 
ATOM     57  O   UNK d   0      -0.903  10.097 -13.186  0.00  0.00    -0.650 OA
BRANCH  56  58
ATOM     58  O   UNK d   0      -2.290  11.906 -13.079  0.00  0.00    -0.776 OA
ATOM     59  H   UNK d   0      -1.842  12.472 -12.336  0.00  0.00     0.167 HD
ENDBRANCH  56  58
ENDBRANCH  55  56
ENDBRANCH  21  55
BRANCH  18  60
ATOM     60  C   UNK d   0       3.663   9.995 -17.078  0.00  0.00     0.151 C 
BRANCH  60  61
ATOM     61  C   UNK d   0       4.227  10.053 -15.721  0.00  0.00     0.143 C 
ATOM     62  O   UNK d   0       3.604  10.090 -14.659  0.00  0.00    -0.650 OA
BRANCH  61  63
ATOM     63  O   UNK d   0       5.641  10.064 -15.657  0.00  0.00    -0.776 OA
ATOM     64  H   UNK d   0       6.151  10.928 -15.612  0.00  0.00     0.167 HD
ENDBRANCH  61  63
ENDBRANCH  60  61
ENDBRANCH  18  60
BRANCH  14  65
ATOM     65  C   UNK d   0       5.142   7.611 -18.235  0.00  0.00     0.052 C 
BRANCH  65  66
ATOM     66  C   UNK d   0       6.022   6.643 -17.527  0.00  0.00     0.115 C 
BRANCH  66  67
ATOM     67  C   UNK d   0       6.059   6.632 -16.092  0.00  0.00     0.139 C 
ATOM     68  O   UNK d   0       6.831   7.468 -15.492  0.00  0.00    -0.650 OA
BRANCH  67  69
ATOM     69  O   UNK d   0       5.344   5.806 -15.226  0.00  0.00    -0.776 OA
ATOM     70  H   UNK d   0       4.874   4.999 -15.662  0.00  0.00     0.167 HD
ENDBRANCH  67  69
ENDBRANCH  66  67
ENDBRANCH  65  66
ENDBRANCH  14  65
ENDBRANCH   6   7
ENDBRANCH   5   6
ENDBRANCH   2   5
TORSDOF 28
ENDMDL
MODEL 17
REMARK VINA RESULT:      -6.6     27.271     31.050
REMARK  28 active torsions:
REMARK  status: ('A' for Active; 'I' for Inactive)
REMARK    1  A    between atoms: C_2  and  O_3 
REMARK    2  A    between atoms: C_2  and  C_4 
REMARK    3  A    between atoms: C_4  and  C_5 
REMARK    4  A    between atoms: C_5  and  C_6 
REMARK    5  A    between atoms: C_7  and  C_8 
REMARK    6  A    between atoms: C_8  and  C_9 
REMARK    7  A    between atoms: C_9  and  O_11 
REMARK    8  A    between atoms: C_28  and  C_29 
REMARK    9  A    between atoms: C_29  and  C_30 
REMARK   10  A    between atoms: C_30  and  O_32 
REMARK   11  A    between atoms: C_33  and  C_34 
REMARK   12  A    between atoms: C_34  and  C_35 
REMARK   13  A    between atoms: C_35  and  C_36 
REMARK   14  A    between atoms: C_36  and  O_38 
REMARK   15  A    between atoms: C_39  and  C_40 
REMARK   16  A    between atoms: C_40  and  C_41 
REMARK   17  A    between atoms: C_41  and  C_42 
REMARK   18  A    between atoms: C_42  and  O_44 
REMARK   19  A    between atoms: C_45  and  C_46 
REMARK   20  A    between atoms: C_46  and  C_47 
REMARK   21  A    between atoms: C_47  and  O_49 
REMARK   22  A    between atoms: C_50  and  C_51 
REMARK   23  A    between atoms: C_51  and  C_52 
REMARK   24  A    between atoms: C_52  and  O_54 
REMARK   25  A    between atoms: C_55  and  C_56 
REMARK   26  A    between atoms: C_56  and  C_57 
REMARK   27  A    between atoms: C_57  and  C_58 
REMARK   28  A    between atoms: C_58  and  O_60 
ROOT
ATOM      1  O   UNK d   0      -4.902  -4.616   6.101  0.00  0.00    -0.650 OA
ATOM      2  C   UNK d   0      -4.590  -4.855   7.289  0.00  0.00     0.139 C 
ENDROOT
BRANCH   2   3
ATOM      3  O   UNK d   0      -3.871  -3.923   7.997  0.00  0.00    -0.776 OA
ATOM      4  H   UNK d   0      -3.182  -3.325   7.535  0.00  0.00     0.167 HD
ENDBRANCH   2   3
BRANCH   2   5
ATOM      5  C   UNK d   0      -4.996  -6.140   7.925  0.00  0.00     0.115 C 
BRANCH   5   6
ATOM      6  C   UNK d   0      -4.284  -7.291   7.267  0.00  0.00     0.052 C 
BRANCH   6   7
ATOM      7  C   UNK d   0      -3.605  -8.200   8.264  0.00  0.00    -0.020 A 
ATOM      8  C   UNK d   0      -3.926  -9.432   8.568  0.00  0.00    -0.011 A 
ATOM      9  C   UNK d   0      -2.994  -9.896   9.582  0.00  0.00     0.067 A 
ATOM     10  C   UNK d   0      -2.783 -11.088  10.293  0.00  0.00     0.062 C 
ATOM     11  N   UNK d   0      -2.144  -8.881   9.841  0.00  0.00    -0.248 NA
ATOM     12  C   UNK d   0      -1.652 -11.442  11.037  0.00  0.00     0.041 A 
ATOM     13  N   UNK d   0      -0.898 -10.730  11.896  0.00  0.00    -0.355 N 
ATOM     14  C   UNK d   0      -1.109 -12.730  10.879  0.00  0.00    -0.022 A 
ATOM     15  C   UNK d   0       0.114 -11.531  12.282  0.00  0.00     0.042 A 
ATOM     16  H   UNK d   0      -1.088  -9.689  12.239  0.00  0.00     0.166 HD
ATOM     17  C   UNK d   0       1.183 -11.290  13.167  0.00  0.00     0.062 C 
ATOM     18  C   UNK d   0       0.015 -12.793  11.664  0.00  0.00    -0.013 A 
ATOM     19  C   UNK d   0       1.996 -10.189  13.257  0.00  0.00     0.067 A 
ATOM     20  N   UNK d   0       1.630  -9.108  12.564  0.00  0.00    -0.248 NA
ATOM     21  C   UNK d   0       3.238  -9.861  13.937  0.00  0.00    -0.011 A 
ATOM     22  C   UNK d   0       2.544  -8.097  12.739  0.00  0.00     0.066 A 
ATOM     23  C   UNK d   0       2.265  -6.898  12.102  0.00  0.00     0.062 C 
ATOM     24  C   UNK d   0       3.555  -8.637  13.627  0.00  0.00    -0.020 A 
ATOM     25  C   UNK d   0       1.117  -6.558  11.370  0.00  0.00     0.041 A 
ATOM     26  N   UNK d   0       0.376  -7.261  10.504  0.00  0.00    -0.355 N 
ATOM     27  C   UNK d   0       0.570  -5.267  11.532  0.00  0.00    -0.022 A 
ATOM     28  C   UNK d   0      -0.629  -6.461  10.112  0.00  0.00     0.042 A 
ATOM     29  H   UNK d   0       0.574  -8.303  10.153  0.00  0.00     0.166 HD
ATOM     30  C   UNK d   0      -1.694  -6.685   9.225  0.00  0.00     0.062 C 
ATOM     31  C   UNK d   0      -0.535  -5.197  10.741  0.00  0.00    -0.013 A 
ATOM     32  C   UNK d   0      -2.458  -7.831   9.079  0.00  0.00     0.066 A 
BRANCH   8  33
ATOM     33  C   UNK d   0      -5.032 -10.224   8.000  0.00  0.00     0.151 C 
BRANCH  33  34
ATOM     34  C   UNK d   0      -5.784 -10.971   9.025  0.00  0.00     0.143 C 
ATOM     35  O   UNK d   0      -6.381 -10.378   9.935  0.00  0.00    -0.650 OA
BRANCH  34  36
ATOM     36  O   UNK d   0      -5.819 -12.345   8.970  0.00  0.00    -0.776 OA
ATOM     37  H   UNK d   0      -6.314 -12.896   9.684  0.00  0.00     0.167 HD
ENDBRANCH  34  36
ENDBRANCH  33  34
ENDBRANCH   8  33
BRANCH  31  38
ATOM     38  C   UNK d   0      -1.455  -4.007  10.598  0.00  0.00     0.151 C 
BRANCH  38  39
ATOM     39  C   UNK d   0      -2.644  -4.115  11.417  0.00  0.00     0.143 C 
ATOM     40  O   UNK d   0      -3.789  -4.118  10.932  0.00  0.00    -0.650 OA
BRANCH  39  41
ATOM     41  O   UNK d   0      -2.515  -4.222  12.802  0.00  0.00    -0.776 OA
ATOM     42  H   UNK d   0      -3.345  -4.526  13.320  0.00  0.00     0.167 HD
ENDBRANCH  39  41
ENDBRANCH  38  39
ENDBRANCH  31  38
BRANCH  27  43
ATOM     43  C   UNK d   0       1.051  -4.124  12.391  0.00  0.00     0.052 C 
BRANCH  43  44
ATOM     44  C   UNK d   0       2.217  -3.395  11.807  0.00  0.00     0.115 C 
BRANCH  44  45
ATOM     45  C   UNK d   0       2.891  -2.700  12.934  0.00  0.00     0.139 C 
ATOM     46  O   UNK d   0       2.199  -2.384  13.933  0.00  0.00    -0.650 OA
BRANCH  45  47
ATOM     47  O   UNK d   0       4.236  -2.397  12.928  0.00  0.00    -0.776 OA
ATOM     48  H   UNK d   0       4.964  -3.074  13.206  0.00  0.00     0.167 HD
ENDBRANCH  45  47
ENDBRANCH  44  45
ENDBRANCH  43  44
ENDBRANCH  27  43
BRANCH  24  49
ATOM     49  C   UNK d   0       4.721  -7.888  14.126  0.00  0.00     0.052 C 
BRANCH  49  50
ATOM     50  C   UNK d   0       4.275  -6.757  15.017  0.00  0.00     0.115 C 
BRANCH  50  51
ATOM     51  C   UNK d   0       4.919  -5.464  14.822  0.00  0.00     0.139 C 
ATOM     52  O   UNK d   0       5.301  -5.061  13.698  0.00  0.00    -0.650 OA
BRANCH  51  53
ATOM     53  O   UNK d   0       5.130  -4.632  15.911  0.00  0.00    -0.776 OA
ATOM     54  H   UNK d   0       5.113  -3.639  15.760  0.00  0.00     0.167 HD
ENDBRANCH  51  53
ENDBRANCH  50  51
ENDBRANCH  49  50
ENDBRANCH  24  49
BRANCH  21  55
ATOM     55  C   UNK d   0       3.976 -10.803  14.830  0.00  0.00     0.151 C 
BRANCH  55  56
ATOM     56  C   UNK d   0       4.902 -11.663  14.078  0.00  0.00     0.143 C 
ATOM     57  O   UNK d   0       4.530 -12.685  13.468  0.00  0.00    -0.650 OA
BRANCH  56  58
ATOM     58  O   UNK d   0       6.249 -11.306  14.058  0.00  0.00    -0.776 OA
ATOM     59  H   UNK d   0       6.493 -10.492  14.650  0.00  0.00     0.167 HD
ENDBRANCH  56  58
ENDBRANCH  55  56
ENDBRANCH  21  55
BRANCH  18  60
ATOM     60  C   UNK d   0       0.915 -13.997  11.790  0.00  0.00     0.151 C 
BRANCH  60  61
ATOM     61  C   UNK d   0       2.065 -13.735  10.911  0.00  0.00     0.143 C 
ATOM     62  O   UNK d   0       2.038 -13.265   9.773  0.00  0.00    -0.650 OA
BRANCH  61  63
ATOM     63  O   UNK d   0       3.329 -14.067  11.458  0.00  0.00    -0.776 OA
ATOM     64  H   UNK d   0       3.614 -15.024  11.558  0.00  0.00     0.167 HD
ENDBRANCH  61  63
ENDBRANCH  60  61
ENDBRANCH  18  60
BRANCH  14  65
ATOM     65  C   UNK d   0      -1.622 -13.925  10.127  0.00  0.00     0.052 C 
BRANCH  65  66
ATOM     66  C   UNK d   0      -1.027 -14.057   8.770  0.00  0.00     0.115 C 
BRANCH  66  67
ATOM     67  C   UNK d   0      -0.524 -15.330   8.334  0.00  0.00     0.139 C 
ATOM     68  O   UNK d   0       0.022 -16.104   9.204  0.00  0.00    -0.650 OA
BRANCH  67  69
ATOM     69  O   UNK d   0      -0.547 -15.861   7.045  0.00  0.00    -0.776 OA
ATOM     70  H   UNK d   0      -1.141 -15.363   6.366  0.00  0.00     0.167 HD
ENDBRANCH  67  69
ENDBRANCH  66  67
ENDBRANCH  65  66
ENDBRANCH  14  65
ENDBRANCH   6   7
ENDBRANCH   5   6
ENDBRANCH   2   5
TORSDOF 28
ENDMDL
MODEL 18
REMARK VINA RESULT:      -6.6      7.553     12.809
REMARK  28 active torsions:
REMARK  status: ('A' for Active; 'I' for Inactive)
REMARK    1  A    between atoms: C_2  and  O_3 
REMARK    2  A    between atoms: C_2  and  C_4 
REMARK    3  A    between atoms: C_4  and  C_5 
REMARK    4  A    between atoms: C_5  and  C_6 
REMARK    5  A    between atoms: C_7  and  C_8 
REMARK    6  A    between atoms: C_8  and  C_9 
REMARK    7  A    between atoms: C_9  and  O_11 
REMARK    8  A    between atoms: C_28  and  C_29 
REMARK    9  A    between atoms: C_29  and  C_30 
REMARK   10  A    between atoms: C_30  and  O_32 
REMARK   11  A    between atoms: C_33  and  C_34 
REMARK   12  A    between atoms: C_34  and  C_35 
REMARK   13  A    between atoms: C_35  and  C_36 
REMARK   14  A    between atoms: C_36  and  O_38 
REMARK   15  A    between atoms: C_39  and  C_40 
REMARK   16  A    between atoms: C_40  and  C_41 
REMARK   17  A    between atoms: C_41  and  C_42 
REMARK   18  A    between atoms: C_42  and  O_44 
REMARK   19  A    between atoms: C_45  and  C_46 
REMARK   20  A    between atoms: C_46  and  C_47 
REMARK   21  A    between atoms: C_47  and  O_49 
REMARK   22  A    between atoms: C_50  and  C_51 
REMARK   23  A    between atoms: C_51  and  C_52 
REMARK   24  A    between atoms: C_52  and  O_54 
REMARK   25  A    between atoms: C_55  and  C_56 
REMARK   26  A    between atoms: C_56  and  C_57 
REMARK   27  A    between atoms: C_57  and  C_58 
REMARK   28  A    between atoms: C_58  and  O_60 
ROOT
ATOM      1  O   UNK d   0      14.243   7.733 -10.402  0.00  0.00    -0.650 OA
ATOM      2  C   UNK d   0      13.053   8.109 -10.308  0.00  0.00     0.139 C 
ENDROOT
BRANCH   2   3
ATOM      3  O   UNK d   0      12.636   8.743  -9.163  0.00  0.00    -0.776 OA
ATOM      4  H   UNK d   0      12.120   8.239  -8.439  0.00  0.00     0.167 HD
ENDBRANCH   2   3
BRANCH   2   5
ATOM      5  C   UNK d   0      12.102   7.870 -11.430  0.00  0.00     0.115 C 
BRANCH   5   6
ATOM      6  C   UNK d   0      12.239   8.952 -12.466  0.00  0.00     0.052 C 
BRANCH   6   7
ATOM      7  C   UNK d   0      11.661  10.270 -12.009  0.00  0.00    -0.020 A 
ATOM      8  C   UNK d   0      10.399  10.613 -11.957  0.00  0.00    -0.011 A 
ATOM      9  C   UNK d   0      10.329  11.978 -11.462  0.00  0.00     0.067 A 
ATOM     10  C   UNK d   0       9.309  12.895 -11.163  0.00  0.00     0.062 C 
ATOM     11  N   UNK d   0      11.595  12.390 -11.243  0.00  0.00    -0.248 NA
ATOM     12  C   UNK d   0       9.424  14.079 -10.426  0.00  0.00     0.041 A 
ATOM     13  N   UNK d   0      10.364  15.043 -10.437  0.00  0.00    -0.355 N 
ATOM     14  C   UNK d   0       8.460  14.363  -9.442  0.00  0.00    -0.022 A 
ATOM     15  C   UNK d   0      10.026  15.927  -9.480  0.00  0.00     0.042 A 
ATOM     16  H   UNK d   0      11.239  15.107 -11.121  0.00  0.00     0.166 HD
ATOM     17  C   UNK d   0      10.660  17.117  -9.071  0.00  0.00     0.062 C 
ATOM     18  C   UNK d   0       8.838  15.535  -8.834  0.00  0.00    -0.013 A 
ATOM     19  C   UNK d   0      11.992  17.350  -8.840  0.00  0.00     0.067 A 
ATOM     20  N   UNK d   0      12.848  16.403  -9.233  0.00  0.00    -0.248 NA
ATOM     21  C   UNK d   0      12.777  18.411  -8.232  0.00  0.00    -0.011 A 
ATOM     22  C   UNK d   0      14.136  16.768  -8.925  0.00  0.00     0.066 A 
ATOM     23  C   UNK d   0      15.135  15.888  -9.313  0.00  0.00     0.062 C 
ATOM     24  C   UNK d   0      14.030  18.062  -8.281  0.00  0.00    -0.020 A 
ATOM     25  C   UNK d   0      15.000  14.710 -10.065  0.00  0.00     0.041 A 
ATOM     26  N   UNK d   0      14.074  13.745 -10.044  0.00  0.00    -0.355 N 
ATOM     27  C   UNK d   0      15.966  14.428 -11.056  0.00  0.00    -0.022 A 
ATOM     28  C   UNK d   0      14.413  12.857 -10.992  0.00  0.00     0.042 A 
ATOM     29  H   UNK d   0      13.201  13.676  -9.349  0.00  0.00     0.166 HD
ATOM     30  C   UNK d   0      13.798  11.664 -11.403  0.00  0.00     0.062 C 
ATOM     31  C   UNK d   0      15.602  13.257 -11.647  0.00  0.00    -0.013 A 
ATOM     32  C   UNK d   0      12.444  11.409 -11.552  0.00  0.00     0.066 A 
BRANCH   8  33
ATOM     33  C   UNK d   0       9.240   9.783 -12.334  0.00  0.00     0.151 C 
BRANCH  33  34
ATOM     34  C   UNK d   0       8.581   9.162 -11.171  0.00  0.00     0.143 C 
ATOM     35  O   UNK d   0       8.693   7.947 -10.950  0.00  0.00    -0.650 OA
BRANCH  34  36
ATOM     36  O   UNK d   0       7.831   9.943 -10.323  0.00  0.00    -0.776 OA
ATOM     37  H   UNK d   0       7.095   9.534  -9.731  0.00  0.00     0.167 HD
ENDBRANCH  34  36
ENDBRANCH  33  34
ENDBRANCH   8  33
BRANCH  31  38
ATOM     38  C   UNK d   0      16.329  12.565 -12.776  0.00  0.00     0.151 C 
BRANCH  38  39
ATOM     39  C   UNK d   0      15.676  12.740 -14.056  0.00  0.00     0.143 C 
ATOM     40  O   UNK d   0      15.305  11.778 -14.751  0.00  0.00    -0.650 OA
BRANCH  39  41
ATOM     41  O   UNK d   0      15.447  14.028 -14.539  0.00  0.00    -0.776 OA
ATOM     42  H   UNK d   0      15.102  14.106 -15.501  0.00  0.00     0.167 HD
ENDBRANCH  39  41
ENDBRANCH  38  39
ENDBRANCH  31  38
BRANCH  27  43
ATOM     43  C   UNK d   0      17.193  15.211 -11.449  0.00  0.00     0.052 C 
BRANCH  43  44
ATOM     44  C   UNK d   0      16.918  16.271 -12.466  0.00  0.00     0.115 C 
BRANCH  44  45
ATOM     45  C   UNK d   0      18.061  16.255 -13.415  0.00  0.00     0.139 C 
ATOM     46  O   UNK d   0      18.944  17.140 -13.293  0.00  0.00    -0.650 OA
BRANCH  45  47
ATOM     47  O   UNK d   0      18.191  15.313 -14.412  0.00  0.00    -0.776 OA
ATOM     48  H   UNK d   0      18.924  15.364 -15.139  0.00  0.00     0.167 HD
ENDBRANCH  45  47
ENDBRANCH  44  45
ENDBRANCH  43  44
ENDBRANCH  27  43
BRANCH  24  49
ATOM     49  C   UNK d   0      15.173  18.863  -7.810  0.00  0.00     0.052 C 
BRANCH  49  50
ATOM     50  C   UNK d   0      15.865  19.525  -8.973  0.00  0.00     0.115 C 
BRANCH  50  51
ATOM     51  C   UNK d   0      17.292  19.278  -9.128  0.00  0.00     0.139 C 
ATOM     52  O   UNK d   0      17.750  18.456  -9.957  0.00  0.00    -0.650 OA
BRANCH  51  53
ATOM     53  O   UNK d   0      18.198  19.965  -8.335  0.00  0.00    -0.776 OA
ATOM     54  H   UNK d   0      18.219  20.968  -8.398  0.00  0.00     0.167 HD
ENDBRANCH  51  53
ENDBRANCH  50  51
ENDBRANCH  49  50
ENDBRANCH  24  49
BRANCH  21  55
ATOM     55  C   UNK d   0      12.193  19.664  -7.669  0.00  0.00     0.151 C 
BRANCH  55  56
ATOM     56  C   UNK d   0      11.753  19.491  -6.276  0.00  0.00     0.143 C 
ATOM     57  O   UNK d   0      11.502  18.374  -5.782  0.00  0.00    -0.650 OA
BRANCH  56  58
ATOM     58  O   UNK d   0      11.617  20.635  -5.491  0.00  0.00    -0.776 OA
ATOM     59  H   UNK d   0      10.959  21.343  -5.863  0.00  0.00     0.167 HD
ENDBRANCH  56  58
ENDBRANCH  55  56
ENDBRANCH  21  55
BRANCH  18  60
ATOM     60  C   UNK d   0       8.089  16.205  -7.709  0.00  0.00     0.151 C 
BRANCH  60  61
ATOM     61  C   UNK d   0       8.689  15.698  -6.465  0.00  0.00     0.143 C 
ATOM     62  O   UNK d   0       8.903  14.522  -6.171  0.00  0.00    -0.650 OA
BRANCH  61  63
ATOM     63  O   UNK d   0       9.051  16.690  -5.522  0.00  0.00    -0.776 OA
ATOM     64  H   UNK d   0       8.915  16.543  -4.538  0.00  0.00     0.167 HD
ENDBRANCH  61  63
ENDBRANCH  60  61
ENDBRANCH  18  60
BRANCH  14  65
ATOM     65  C   UNK d   0       7.170  13.671  -9.103  0.00  0.00     0.052 C 
BRANCH  65  66
ATOM     66  C   UNK d   0       6.062  14.019 -10.032  0.00  0.00     0.115 C 
BRANCH  66  67
ATOM     67  C   UNK d   0       5.393  12.980 -10.763  0.00  0.00     0.139 C 
ATOM     68  O   UNK d   0       4.480  13.313 -11.605  0.00  0.00    -0.650 OA
BRANCH  67  69
ATOM     69  O   UNK d   0       5.607  11.605 -10.680  0.00  0.00    -0.776 OA
ATOM     70  H   UNK d   0       4.766  11.029 -10.532  0.00  0.00     0.167 HD
ENDBRANCH  67  69
ENDBRANCH  66  67
ENDBRANCH  65  66
ENDBRANCH  14  65
ENDBRANCH   6   7
ENDBRANCH   5   6
ENDBRANCH   2   5
TORSDOF 28
ENDMDL
MODEL 19
REMARK VINA RESULT:      -6.6      7.313     13.674
REMARK  28 active torsions:
REMARK  status: ('A' for Active; 'I' for Inactive)
REMARK    1  A    between atoms: C_2  and  O_3 
REMARK    2  A    between atoms: C_2  and  C_4 
REMARK    3  A    between atoms: C_4  and  C_5 
REMARK    4  A    between atoms: C_5  and  C_6 
REMARK    5  A    between atoms: C_7  and  C_8 
REMARK    6  A    between atoms: C_8  and  C_9 
REMARK    7  A    between atoms: C_9  and  O_11 
REMARK    8  A    between atoms: C_28  and  C_29 
REMARK    9  A    between atoms: C_29  and  C_30 
REMARK   10  A    between atoms: C_30  and  O_32 
REMARK   11  A    between atoms: C_33  and  C_34 
REMARK   12  A    between atoms: C_34  and  C_35 
REMARK   13  A    between atoms: C_35  and  C_36 
REMARK   14  A    between atoms: C_36  and  O_38 
REMARK   15  A    between atoms: C_39  and  C_40 
REMARK   16  A    between atoms: C_40  and  C_41 
REMARK   17  A    between atoms: C_41  and  C_42 
REMARK   18  A    between atoms: C_42  and  O_44 
REMARK   19  A    between atoms: C_45  and  C_46 
REMARK   20  A    between atoms: C_46  and  C_47 
REMARK   21  A    between atoms: C_47  and  O_49 
REMARK   22  A    between atoms: C_50  and  C_51 
REMARK   23  A    between atoms: C_51  and  C_52 
REMARK   24  A    between atoms: C_52  and  O_54 
REMARK   25  A    between atoms: C_55  and  C_56 
REMARK   26  A    between atoms: C_56  and  C_57 
REMARK   27  A    between atoms: C_57  and  C_58 
REMARK   28  A    between atoms: C_58  and  O_60 
ROOT
ATOM      1  O   UNK d   0       9.362   9.881 -11.171  0.00  0.00    -0.650 OA
ATOM      2  C   UNK d   0      10.040   8.998 -10.601  0.00  0.00     0.139 C 
ENDROOT
BRANCH   2   3
ATOM      3  O   UNK d   0       9.449   7.801 -10.274  0.00  0.00    -0.776 OA
ATOM      4  H   UNK d   0       9.171   7.595  -9.312  0.00  0.00     0.167 HD
ENDBRANCH   2   3
BRANCH   2   5
ATOM      5  C   UNK d   0      11.474   9.246 -10.280  0.00  0.00     0.115 C 
BRANCH   5   6
ATOM      6  C   UNK d   0      12.150   9.938 -11.432  0.00  0.00     0.052 C 
BRANCH   6   7
ATOM      7  C   UNK d   0      12.963  11.133 -10.996  0.00  0.00    -0.020 A 
ATOM      8  C   UNK d   0      14.267  11.240 -10.957  0.00  0.00    -0.011 A 
ATOM      9  C   UNK d   0      14.589  12.569 -10.463  0.00  0.00     0.067 A 
ATOM     10  C   UNK d   0      15.761  13.299 -10.213  0.00  0.00     0.062 C 
ATOM     11  N   UNK d   0      13.421  13.200 -10.220  0.00  0.00    -0.248 NA
ATOM     12  C   UNK d   0      15.871  14.677  -9.998  0.00  0.00     0.041 A 
ATOM     13  N   UNK d   0      15.122  15.522  -9.264  0.00  0.00    -0.355 N 
ATOM     14  C   UNK d   0      16.879  15.393 -10.670  0.00  0.00    -0.022 A 
ATOM     15  C   UNK d   0      15.624  16.756  -9.458  0.00  0.00     0.042 A 
ATOM     16  H   UNK d   0      14.268  15.249  -8.606  0.00  0.00     0.166 HD
ATOM     17  C   UNK d   0      15.222  18.000  -8.931  0.00  0.00     0.062 C 
ATOM     18  C   UNK d   0      16.727  16.715 -10.334  0.00  0.00    -0.013 A 
ATOM     19  C   UNK d   0      13.957  18.514  -8.805  0.00  0.00     0.067 A 
ATOM     20  N   UNK d   0      12.939  17.677  -9.020  0.00  0.00    -0.248 NA
ATOM     21  C   UNK d   0      13.384  19.813  -8.495  0.00  0.00    -0.011 A 
ATOM     22  C   UNK d   0      11.742  18.334  -8.874  0.00  0.00     0.066 A 
ATOM     23  C   UNK d   0      10.596  17.570  -9.033  0.00  0.00     0.062 C 
ATOM     24  C   UNK d   0      12.088  19.702  -8.541  0.00  0.00    -0.020 A 
ATOM     25  C   UNK d   0      10.507  16.184  -9.236  0.00  0.00     0.041 A 
ATOM     26  N   UNK d   0      11.242  15.346  -9.977  0.00  0.00    -0.355 N 
ATOM     27  C   UNK d   0       9.498  15.466  -8.558  0.00  0.00    -0.022 A 
ATOM     28  C   UNK d   0      10.738  14.116  -9.792  0.00  0.00     0.042 A 
ATOM     29  H   UNK d   0      12.093  15.624 -10.646  0.00  0.00     0.166 HD
ATOM     30  C   UNK d   0      11.122  12.872 -10.317  0.00  0.00     0.062 C 
ATOM     31  C   UNK d   0       9.637  14.157  -8.904  0.00  0.00    -0.013 A 
ATOM     32  C   UNK d   0      12.405  12.390 -10.521  0.00  0.00     0.066 A 
BRANCH   8  33
ATOM     33  C   UNK d   0      15.251  10.210 -11.336  0.00  0.00     0.151 C 
BRANCH  33  34
ATOM     34  C   UNK d   0      15.566   9.287 -10.231  0.00  0.00     0.143 C 
ATOM     35  O   UNK d   0      16.309   9.635  -9.302  0.00  0.00    -0.650 OA
BRANCH  34  36
ATOM     36  O   UNK d   0      15.026   8.021 -10.234  0.00  0.00    -0.776 OA
ATOM     37  H   UNK d   0      14.848   7.519 -11.114  0.00  0.00     0.167 HD
ENDBRANCH  34  36
ENDBRANCH  33  34
ENDBRANCH   8  33
BRANCH  31  38
ATOM     38  C   UNK d   0       8.786  13.009  -8.411  0.00  0.00     0.151 C 
BRANCH  38  39
ATOM     39  C   UNK d   0       7.670  12.721  -9.288  0.00  0.00     0.143 C 
ATOM     40  O   UNK d   0       6.822  13.580  -9.589  0.00  0.00    -0.650 OA
BRANCH  39  41
ATOM     41  O   UNK d   0       7.529  11.440  -9.820  0.00  0.00    -0.776 OA
ATOM     42  H   UNK d   0       7.832  10.659  -9.231  0.00  0.00     0.167 HD
ENDBRANCH  39  41
ENDBRANCH  38  39
ENDBRANCH  31  38
BRANCH  27  43
ATOM     43  C   UNK d   0       8.431  15.968  -7.618  0.00  0.00     0.052 C 
BRANCH  43  44
ATOM     44  C   UNK d   0       8.826  15.889  -6.179  0.00  0.00     0.115 C 
BRANCH  44  45
ATOM     45  C   UNK d   0       8.727  17.269  -5.636  0.00  0.00     0.139 C 
ATOM     46  O   UNK d   0       7.792  18.000  -6.045  0.00  0.00    -0.650 OA
BRANCH  45  47
ATOM     47  O   UNK d   0       9.611  17.770  -4.704  0.00  0.00    -0.776 OA
ATOM     48  H   UNK d   0       9.332  18.446  -3.975  0.00  0.00     0.167 HD
ENDBRANCH  45  47
ENDBRANCH  44  45
ENDBRANCH  43  44
ENDBRANCH  27  43
BRANCH  24  49
ATOM     49  C   UNK d   0      11.114  20.769  -8.254  0.00  0.00     0.052 C 
BRANCH  49  50
ATOM     50  C   UNK d   0      10.702  20.727  -6.805  0.00  0.00     0.115 C 
BRANCH  50  51
ATOM     51  C   UNK d   0       9.331  21.110  -6.492  0.00  0.00     0.139 C 
ATOM     52  O   UNK d   0       8.637  21.821  -7.256  0.00  0.00    -0.650 OA
BRANCH  51  53
ATOM     53  O   UNK d   0       8.754  20.685  -5.306  0.00  0.00    -0.776 OA
ATOM     54  H   UNK d   0       8.902  21.237  -4.480  0.00  0.00     0.167 HD
ENDBRANCH  51  53
ENDBRANCH  50  51
ENDBRANCH  49  50
ENDBRANCH  24  49
BRANCH  21  55
ATOM     55  C   UNK d   0      14.191  21.029  -8.181  0.00  0.00     0.151 C 
BRANCH  55  56
ATOM     56  C   UNK d   0      14.525  21.115  -6.751  0.00  0.00     0.143 C 
ATOM     57  O   UNK d   0      15.314  20.327  -6.194  0.00  0.00    -0.650 OA
BRANCH  56  58
ATOM     58  O   UNK d   0      13.925  22.127  -6.004  0.00  0.00    -0.776 OA
ATOM     59  H   UNK d   0      13.546  21.827  -5.088  0.00  0.00     0.167 HD
ENDBRANCH  56  58
ENDBRANCH  55  56
ENDBRANCH  21  55
BRANCH  18  60
ATOM     60  C   UNK d   0      17.595  17.841 -10.839  0.00  0.00     0.151 C 
BRANCH  60  61
ATOM     61  C   UNK d   0      17.045  18.218 -12.151  0.00  0.00     0.143 C 
ATOM     62  O   UNK d   0      15.880  18.522 -12.407  0.00  0.00    -0.650 OA
BRANCH  61  63
ATOM     63  O   UNK d   0      17.978  18.224 -13.216  0.00  0.00    -0.776 OA
ATOM     64  H   UNK d   0      18.222  19.077 -13.686  0.00  0.00     0.167 HD
ENDBRANCH  61  63
ENDBRANCH  60  61
ENDBRANCH  18  60
BRANCH  14  65
ATOM     65  C   UNK d   0      18.024  14.914 -11.517  0.00  0.00     0.052 C 
BRANCH  65  66
ATOM     66  C   UNK d   0      17.611  14.549 -12.899  0.00  0.00     0.115 C 
BRANCH  66  67
ATOM     67  C   UNK d   0      17.757  13.193 -13.350  0.00  0.00     0.139 C 
ATOM     68  O   UNK d   0      16.706  12.556 -13.727  0.00  0.00    -0.650 OA
BRANCH  67  69
ATOM     69  O   UNK d   0      18.930  12.445 -13.437  0.00  0.00    -0.776 OA
ATOM     70  H   UNK d   0      19.684  12.716 -12.789  0.00  0.00     0.167 HD
ENDBRANCH  67  69
ENDBRANCH  66  67
ENDBRANCH  65  66
ENDBRANCH  14  65
ENDBRANCH   6   7
ENDBRANCH   5   6
ENDBRANCH   2   5
TORSDOF 28
ENDMDL
MODEL 20
REMARK VINA RESULT:      -6.5     11.023     14.310
REMARK  28 active torsions:
REMARK  status: ('A' for Active; 'I' for Inactive)
REMARK    1  A    between atoms: C_2  and  O_3 
REMARK    2  A    between atoms: C_2  and  C_4 
REMARK    3  A    between atoms: C_4  and  C_5 
REMARK    4  A    between atoms: C_5  and  C_6 
REMARK    5  A    between atoms: C_7  and  C_8 
REMARK    6  A    between atoms: C_8  and  C_9 
REMARK    7  A    between atoms: C_9  and  O_11 
REMARK    8  A    between atoms: C_28  and  C_29 
REMARK    9  A    between atoms: C_29  and  C_30 
REMARK   10  A    between atoms: C_30  and  O_32 
REMARK   11  A    between atoms: C_33  and  C_34 
REMARK   12  A    between atoms: C_34  and  C_35 
REMARK   13  A    between atoms: C_35  and  C_36 
REMARK   14  A    between atoms: C_36  and  O_38 
REMARK   15  A    between atoms: C_39  and  C_40 
REMARK   16  A    between atoms: C_40  and  C_41 
REMARK   17  A    between atoms: C_41  and  C_42 
REMARK   18  A    between atoms: C_42  and  O_44 
REMARK   19  A    between atoms: C_45  and  C_46 
REMARK   20  A    between atoms: C_46  and  C_47 
REMARK   21  A    between atoms: C_47  and  O_49 
REMARK   22  A    between atoms: C_50  and  C_51 
REMARK   23  A    between atoms: C_51  and  C_52 
REMARK   24  A    between atoms: C_52  and  O_54 
REMARK   25  A    between atoms: C_55  and  C_56 
REMARK   26  A    between atoms: C_56  and  C_57 
REMARK   27  A    between atoms: C_57  and  C_58 
REMARK   28  A    between atoms: C_58  and  O_60 
ROOT
ATOM      1  O   UNK d   0       5.354   4.271 -23.746  0.00  0.00    -0.650 OA
ATOM      2  C   UNK d   0       6.007   3.339 -23.227  0.00  0.00     0.139 C 
ENDROOT
BRANCH   2   3
ATOM      3  O   UNK d   0       5.359   2.425 -22.431  0.00  0.00    -0.776 OA
ATOM      4  H   UNK d   0       4.342   2.323 -22.464  0.00  0.00     0.167 HD
ENDBRANCH   2   3
BRANCH   2   5
ATOM      5  C   UNK d   0       7.473   3.226 -23.470  0.00  0.00     0.115 C 
BRANCH   5   6
ATOM      6  C   UNK d   0       8.025   4.548 -23.929  0.00  0.00     0.052 C 
BRANCH   6   7
ATOM      7  C   UNK d   0       8.912   5.198 -22.895  0.00  0.00    -0.020 A 
ATOM      8  C   UNK d   0      10.190   5.461 -22.991  0.00  0.00    -0.011 A 
ATOM      9  C   UNK d   0      10.611   6.080 -21.745  0.00  0.00     0.067 A 
ATOM     10  C   UNK d   0      11.807   6.602 -21.228  0.00  0.00     0.062 C 
ATOM     11  N   UNK d   0       9.527   6.150 -20.945  0.00  0.00    -0.248 NA
ATOM     12  C   UNK d   0      11.959   7.417 -20.101  0.00  0.00     0.041 A 
ATOM     13  N   UNK d   0      11.393   7.356 -18.880  0.00  0.00    -0.355 N 
ATOM     14  C   UNK d   0      12.786   8.551 -20.187  0.00  0.00    -0.022 A 
ATOM     15  C   UNK d   0      11.834   8.427 -18.193  0.00  0.00     0.042 A 
ATOM     16  H   UNK d   0      10.710   6.562 -18.506  0.00  0.00     0.166 HD
ATOM     17  C   UNK d   0      11.557   8.844 -16.876  0.00  0.00     0.062 C 
ATOM     18  C   UNK d   0      12.710   9.200 -18.980  0.00  0.00    -0.013 A 
ATOM     19  C   UNK d   0      10.352   8.900 -16.224  0.00  0.00     0.067 A 
ATOM     20  N   UNK d   0       9.315   8.305 -16.819  0.00  0.00    -0.248 NA
ATOM     21  C   UNK d   0       9.860   9.480 -14.986  0.00  0.00    -0.011 A 
ATOM     22  C   UNK d   0       8.180   8.456 -16.061  0.00  0.00     0.066 A 
ATOM     23  C   UNK d   0       7.029   7.852 -16.546  0.00  0.00     0.062 C 
ATOM     24  C   UNK d   0       8.587   9.221 -14.898  0.00  0.00    -0.020 A 
ATOM     25  C   UNK d   0       6.901   7.026 -17.673  0.00  0.00     0.041 A 
ATOM     26  N   UNK d   0       7.452   7.095 -18.891  0.00  0.00    -0.355 N 
ATOM     27  C   UNK d   0       6.074   5.885 -17.584  0.00  0.00    -0.022 A 
ATOM     28  C   UNK d   0       7.007   6.033 -19.582  0.00  0.00     0.042 A 
ATOM     29  H   UNK d   0       8.129   7.899 -19.270  0.00  0.00     0.166 HD
ATOM     30  C   UNK d   0       7.266   5.611 -20.895  0.00  0.00     0.062 C 
ATOM     31  C   UNK d   0       6.135   5.251 -18.787  0.00  0.00    -0.013 A 
ATOM     32  C   UNK d   0       8.471   5.636 -21.578  0.00  0.00     0.066 A 
BRANCH   8  33
ATOM     33  C   UNK d   0      11.066   5.183 -24.143  0.00  0.00     0.151 C 
BRANCH  33  34
ATOM     34  C   UNK d   0      11.176   6.327 -25.066  0.00  0.00     0.143 C 
ATOM     35  O   UNK d   0      10.273   7.172 -25.142  0.00  0.00    -0.650 OA
BRANCH  34  36
ATOM     36  O   UNK d   0      12.297   6.454 -25.854  0.00  0.00    -0.776 OA
ATOM     37  H   UNK d   0      12.224   6.537 -26.877  0.00  0.00     0.167 HD
ENDBRANCH  34  36
ENDBRANCH  33  34
ENDBRANCH   8  33
BRANCH  31  38
ATOM     38  C   UNK d   0       5.421   3.972 -19.158  0.00  0.00     0.151 C 
BRANCH  38  39
ATOM     39  C   UNK d   0       4.077   4.200 -19.646  0.00  0.00     0.143 C 
ATOM     40  O   UNK d   0       3.846   4.559 -20.814  0.00  0.00    -0.650 OA
BRANCH  39  41
ATOM     41  O   UNK d   0       2.995   4.015 -18.787  0.00  0.00    -0.776 OA
ATOM     42  H   UNK d   0       2.071   4.276 -19.145  0.00  0.00     0.167 HD
ENDBRANCH  39  41
ENDBRANCH  38  39
ENDBRANCH  31  38
BRANCH  27  43
ATOM     43  C   UNK d   0       5.245   5.391 -16.425  0.00  0.00     0.052 C 
BRANCH  43  44
ATOM     44  C   UNK d   0       5.726   4.090 -15.868  0.00  0.00     0.115 C 
BRANCH  44  45
ATOM     45  C   UNK d   0       4.518   3.350 -15.417  0.00  0.00     0.139 C 
ATOM     46  O   UNK d   0       3.803   2.798 -16.289  0.00  0.00    -0.650 OA
BRANCH  45  47
ATOM     47  O   UNK d   0       4.160   3.241 -14.091  0.00  0.00    -0.776 OA
ATOM     48  H   UNK d   0       3.478   3.874 -13.641  0.00  0.00     0.167 HD
ENDBRANCH  45  47
ENDBRANCH  44  45
ENDBRANCH  43  44
ENDBRANCH  27  43
BRANCH  24  49
ATOM     49  C   UNK d   0       7.700   9.592 -13.783  0.00  0.00     0.052 C 
BRANCH  49  50
ATOM     50  C   UNK d   0       7.673   8.496 -12.748  0.00  0.00     0.115 C 
BRANCH  50  51
ATOM     51  C   UNK d   0       8.165   8.826 -11.417  0.00  0.00     0.139 C 
ATOM     52  O   UNK d   0       9.075   8.175 -10.851  0.00  0.00    -0.650 OA
BRANCH  51  53
ATOM     53  O   UNK d   0       7.617   9.899 -10.729  0.00  0.00    -0.776 OA
ATOM     54  H   UNK d   0       8.216  10.674 -10.503  0.00  0.00     0.167 HD
ENDBRANCH  51  53
ENDBRANCH  50  51
ENDBRANCH  49  50
ENDBRANCH  24  49
BRANCH  21  55
ATOM     55  C   UNK d   0      10.713  10.230 -14.018  0.00  0.00     0.151 C 
BRANCH  55  56
ATOM     56  C   UNK d   0      11.640   9.343 -13.298  0.00  0.00     0.143 C 
ATOM     57  O   UNK d   0      12.789   9.694 -12.966  0.00  0.00    -0.650 OA
BRANCH  56  58
ATOM     58  O   UNK d   0      11.197   8.060 -12.982  0.00  0.00    -0.776 OA
ATOM     59  H   UNK d   0      10.310   7.780 -13.439  0.00  0.00     0.167 HD
ENDBRANCH  56  58
ENDBRANCH  55  56
ENDBRANCH  21  55
BRANCH  18  60
ATOM     60  C   UNK d   0      13.437  10.476 -18.636  0.00  0.00     0.151 C 
BRANCH  60  61
ATOM     61  C   UNK d   0      12.624  11.567 -19.193  0.00  0.00     0.143 C 
ATOM     62  O   UNK d   0      12.834  12.193 -20.232  0.00  0.00    -0.650 OA
BRANCH  61  63
ATOM     63  O   UNK d   0      11.482  11.916 -18.432  0.00  0.00    -0.776 OA
ATOM     64  H   UNK d   0      10.687  12.355 -18.862  0.00  0.00     0.167 HD
ENDBRANCH  61  63
ENDBRANCH  60  61
ENDBRANCH  18  60
BRANCH  14  65
ATOM     65  C   UNK d   0      13.711   9.010 -21.279  0.00  0.00     0.052 C 
BRANCH  65  66
ATOM     66  C   UNK d   0      13.030   9.162 -22.593  0.00  0.00     0.115 C 
BRANCH  66  67
ATOM     67  C   UNK d   0      13.646   8.637 -23.779  0.00  0.00     0.139 C 
ATOM     68  O   UNK d   0      14.307   7.537 -23.692  0.00  0.00    -0.650 OA
BRANCH  67  69
ATOM     69  O   UNK d   0      13.625   9.179 -25.063  0.00  0.00    -0.776 OA
ATOM     70  H   UNK d   0      14.268   9.967 -25.227  0.00  0.00     0.167 HD
ENDBRANCH  67  69
ENDBRANCH  66  67
ENDBRANCH  65  66
ENDBRANCH  14  65
ENDBRANCH   6   7
ENDBRANCH   5   6
ENDBRANCH   2   5
TORSDOF 28
ENDMDL
