MODEL 1
REMARK VINA RESULT:      -8.0      0.000      0.000
REMARK  16 active torsions:
REMARK  status: ('A' for Active; 'I' for Inactive)
REMARK    1  A    between atoms: C_6  and  C_7 
REMARK    2  A    between atoms: C_7  and  C_8 
REMARK    3  A    between atoms: C_8  and  C_9 
REMARK    4  A    between atoms: C_9  and  O_11 
REMARK    5  A    between atoms: C_16  and  C_17 
REMARK    6  A    between atoms: C_17  and  C_18 
REMARK    7  A    between atoms: C_18  and  C_19 
REMARK    8  A    between atoms: C_19  and  O_21 
REMARK    9  A    between atoms: C_28  and  C_29 
REMARK   10  A    between atoms: C_29  and  C_30 
REMARK   11  A    between atoms: C_30  and  C_31 
REMARK   12  A    between atoms: C_31  and  O_33 
REMARK   13  A    between atoms: C_42  and  C_43 
REMARK   14  A    between atoms: C_43  and  C_44 
REMARK   15  A    between atoms: C_44  and  C_45 
REMARK   16  A    between atoms: C_45  and  O_47 
ROOT
HETATM    1  C   UNK     0      13.111  19.102  -5.080  0.00  0.00     0.051 C 
HETATM    2  C   UNK     0      11.907  18.724  -5.920  0.00  0.00    -0.031 A 
HETATM    3  C   UNK     0      11.856  18.053  -7.132  0.00  0.00     0.021 A 
HETATM    4  N   UNK     0      10.565  17.963  -7.532  0.00  0.00    -0.361 N 
HETATM    5  C   UNK     0       9.793  18.554  -6.598  0.00  0.00     0.022 A 
HETATM    6  C   UNK     0      10.600  19.044  -5.576  0.00  0.00    -0.027 A 
HETATM    7  C   UNK     0       8.301  18.645  -6.514  0.00  0.00     0.115 C 
HETATM    8  C   UNK     0       7.521  17.389  -6.861  0.00  0.00     0.021 A 
HETATM    9  N   UNK     0       7.847  16.109  -6.619  0.00  0.00    -0.361 N 
HETATM   10  C   UNK     0       6.906  15.324  -7.185  0.00  0.00     0.022 A 
HETATM   11  C   UNK     0       5.943  16.119  -7.800  0.00  0.00    -0.027 A 
HETATM   12  C   UNK     0       6.325  17.421  -7.599  0.00  0.00    -0.031 A 
HETATM   13  C   UNK     0       5.572  18.638  -8.090  0.00  0.00     0.051 C 
HETATM   14  C   UNK     0       6.905  13.798  -7.215  0.00  0.00     0.115 C 
HETATM   15  C   UNK     0       8.104  13.195  -7.928  0.00  0.00     0.021 A 
HETATM   16  N   UNK     0       9.406  13.364  -7.632  0.00  0.00    -0.361 N 
HETATM   17  C   UNK     0      10.149  12.724  -8.539  0.00  0.00     0.022 A 
HETATM   18  C   UNK     0       9.289  12.100  -9.464  0.00  0.00    -0.027 A 
HETATM   19  C   UNK     0       8.011  12.401  -9.070  0.00  0.00    -0.031 A 
HETATM   20  C   UNK     0       6.768  11.893  -9.777  0.00  0.00     0.051 C 
HETATM   21  C   UNK     0      11.651  12.664  -8.696  0.00  0.00     0.115 C 
HETATM   22  C   UNK     0      12.443  13.891  -8.313  0.00  0.00     0.022 A 
HETATM   23  N   UNK     0      12.141  15.177  -8.537  0.00  0.00    -0.361 N 
HETATM   24  C   UNK     0      13.049  15.942  -7.898  0.00  0.00     0.021 A 
HETATM   25  C   UNK     0      13.964  15.130  -7.256  0.00  0.00    -0.031 A 
HETATM   26  C   UNK     0      15.183  15.521  -6.447  0.00  0.00     0.051 C 
HETATM   27  C   UNK     0      13.597  13.813  -7.507  0.00  0.00    -0.027 A 
HETATM   28  C   UNK     0      13.072  17.457  -7.783  0.00  0.00     0.115 C 
HETATM   29  H   UNK     0      10.213  17.518  -8.491  0.00  0.00     0.165 HD
HETATM   30  H   UNK     0       8.713  15.758  -6.007  0.00  0.00     0.165 HD
HETATM   31  H   UNK     0       9.810  13.907  -6.738  0.00  0.00     0.165 HD
HETATM   32  H   UNK     0      11.309  15.557  -9.185  0.00  0.00     0.165 HD
ENDROOT
BRANCH   6  33
HETATM   33  C   UNK     0      10.229  19.785  -4.317  0.00  0.00     0.051 C 
BRANCH  33  34
HETATM   34  C   UNK     0       9.678  18.835  -3.280  0.00  0.00     0.114 C 
BRANCH  34  35
HETATM   35  C   UNK     0       8.392  19.409  -2.788  0.00  0.00     0.139 C 
HETATM   36  O   UNK     0       7.826  20.343  -3.427  0.00  0.00    -0.650 OA
BRANCH  35  37
HETATM   37  O   UNK     0       7.764  18.959  -1.633  0.00  0.00    -0.776 OA
HETATM   38  H   UNK     0       8.276  18.766  -0.787  0.00  0.00     0.167 HD
ENDBRANCH  35  37
ENDBRANCH  34  35
ENDBRANCH  33  34
ENDBRANCH   6  33
BRANCH  27  39
HETATM   39  C   UNK     0      14.391  12.646  -7.034  0.00  0.00     0.051 C 
BRANCH  39  40
HETATM   40  C   UNK     0      13.744  11.680  -6.147  0.00  0.00     0.114 C 
BRANCH  40  41
HETATM   41  C   UNK     0      13.705  10.266  -6.445  0.00  0.00     0.139 C 
HETATM   42  O   UNK     0      14.709   9.601  -6.735  0.00  0.00    -0.650 OA
BRANCH  41  43
HETATM   43  O   UNK     0      12.455   9.585  -6.409  0.00  0.00    -0.776 OA
HETATM   44  H   UNK     0      11.822   9.831  -7.161  0.00  0.00     0.167 HD
ENDBRANCH  41  43
ENDBRANCH  40  41
ENDBRANCH  39  40
ENDBRANCH  27  39
BRANCH  11  45
HETATM   45  C   UNK     0       4.708  15.694  -8.547  0.00  0.00     0.051 C 
BRANCH  45  46
HETATM   46  C   UNK     0       4.978  15.134  -9.896  0.00  0.00     0.114 C 
BRANCH  46  47
HETATM   47  C   UNK     0       3.706  14.529 -10.386  0.00  0.00     0.139 C 
HETATM   48  O   UNK     0       3.766  13.635 -11.241  0.00  0.00    -0.650 OA
BRANCH  47  49
HETATM   49  O   UNK     0       2.494  14.953  -9.902  0.00  0.00    -0.776 OA
HETATM   50  H   UNK     0       1.907  15.623 -10.413  0.00  0.00     0.167 HD
ENDBRANCH  47  49
ENDBRANCH  46  47
ENDBRANCH  45  46
ENDBRANCH  11  45
BRANCH  18  51
HETATM   51  C   UNK     0       9.664  11.246 -10.647  0.00  0.00     0.051 C 
BRANCH  51  52
HETATM   52  C   UNK     0       9.512  12.129 -11.876  0.00  0.00     0.114 C 
BRANCH  52  53
HETATM   53  C   UNK     0       8.801  11.436 -12.967  0.00  0.00     0.139 C 
HETATM   54  O   UNK     0       8.913  11.837 -14.136  0.00  0.00    -0.650 OA
BRANCH  53  55
HETATM   55  O   UNK     0       8.012  10.348 -12.680  0.00  0.00    -0.776 OA
HETATM   56  H   UNK     0       7.763   9.624 -13.312  0.00  0.00     0.167 HD
ENDBRANCH  53  55
ENDBRANCH  52  53
ENDBRANCH  51  52
ENDBRANCH  18  51
TORSDOF 16
ENDMDL
MODEL 2
REMARK VINA RESULT:      -7.9     15.365     20.707
REMARK  16 active torsions:
REMARK  status: ('A' for Active; 'I' for Inactive)
REMARK    1  A    between atoms: C_6  and  C_7 
REMARK    2  A    between atoms: C_7  and  C_8 
REMARK    3  A    between atoms: C_8  and  C_9 
REMARK    4  A    between atoms: C_9  and  O_11 
REMARK    5  A    between atoms: C_16  and  C_17 
REMARK    6  A    between atoms: C_17  and  C_18 
REMARK    7  A    between atoms: C_18  and  C_19 
REMARK    8  A    between atoms: C_19  and  O_21 
REMARK    9  A    between atoms: C_28  and  C_29 
REMARK   10  A    between atoms: C_29  and  C_30 
REMARK   11  A    between atoms: C_30  and  C_31 
REMARK   12  A    between atoms: C_31  and  O_33 
REMARK   13  A    between atoms: C_42  and  C_43 
REMARK   14  A    between atoms: C_43  and  C_44 
REMARK   15  A    between atoms: C_44  and  C_45 
REMARK   16  A    between atoms: C_45  and  O_47 
ROOT
HETATM    1  C   UNK     0      -5.626   1.844 -22.336  0.00  0.00     0.051 C 
HETATM    2  C   UNK     0      -5.259   2.534 -21.038  0.00  0.00    -0.031 A 
HETATM    3  C   UNK     0      -4.349   2.152 -20.065  0.00  0.00     0.021 A 
HETATM    4  N   UNK     0      -4.371   3.059 -19.059  0.00  0.00    -0.361 N 
HETATM    5  C   UNK     0      -5.270   4.015 -19.374  0.00  0.00     0.022 A 
HETATM    6  C   UNK     0      -5.846   3.716 -20.604  0.00  0.00    -0.027 A 
HETATM    7  C   UNK     0      -5.606   5.281 -18.650  0.00  0.00     0.115 C 
HETATM    8  C   UNK     0      -4.439   6.075 -18.090  0.00  0.00     0.021 A 
HETATM    9  N   UNK     0      -3.213   6.239 -18.609  0.00  0.00    -0.361 N 
HETATM   10  C   UNK     0      -2.474   6.945 -17.726  0.00  0.00     0.022 A 
HETATM   11  C   UNK     0      -3.250   7.253 -16.612  0.00  0.00    -0.027 A 
HETATM   12  C   UNK     0      -4.489   6.708 -16.834  0.00  0.00    -0.031 A 
HETATM   13  C   UNK     0      -5.665   6.796 -15.888  0.00  0.00     0.051 C 
HETATM   14  C   UNK     0      -1.000   7.311 -17.874  0.00  0.00     0.115 C 
HETATM   15  C   UNK     0      -0.074   6.109 -17.971  0.00  0.00     0.021 A 
HETATM   16  N   UNK     0      -0.103   5.122 -18.886  0.00  0.00    -0.361 N 
HETATM   17  C   UNK     0       0.831   4.217 -18.584  0.00  0.00     0.022 A 
HETATM   18  C   UNK     0       1.507   4.640 -17.423  0.00  0.00    -0.027 A 
HETATM   19  C   UNK     0       0.932   5.827 -17.049  0.00  0.00    -0.031 A 
HETATM   20  C   UNK     0       1.388   6.648 -15.857  0.00  0.00     0.051 C 
HETATM   21  C   UNK     0       1.157   2.899 -19.248  0.00  0.00     0.115 C 
HETATM   22  C   UNK     0       0.011   2.118 -19.849  0.00  0.00     0.022 A 
HETATM   23  N   UNK     0      -1.222   1.942 -19.356  0.00  0.00    -0.361 N 
HETATM   24  C   UNK     0      -1.962   1.304 -20.285  0.00  0.00     0.021 A 
HETATM   25  C   UNK     0      -1.184   1.054 -21.399  0.00  0.00    -0.031 A 
HETATM   26  C   UNK     0      -1.554   0.332 -22.678  0.00  0.00     0.051 C 
HETATM   27  C   UNK     0       0.083   1.566 -21.144  0.00  0.00    -0.027 A 
HETATM   28  C   UNK     0      -3.441   0.965 -20.223  0.00  0.00     0.115 C 
HETATM   29  H   UNK     0      -3.781   2.996 -18.116  0.00  0.00     0.165 HD
HETATM   30  H   UNK     0      -2.880   5.901 -19.621  0.00  0.00     0.165 HD
HETATM   31  H   UNK     0      -0.764   5.086 -19.791  0.00  0.00     0.165 HD
HETATM   32  H   UNK     0      -1.569   2.228 -18.329  0.00  0.00     0.165 HD
ENDROOT
BRANCH   6  33
HETATM   33  C   UNK     0      -6.900   4.457 -21.387  0.00  0.00     0.051 C 
BRANCH  33  34
HETATM   34  C   UNK     0      -8.283   4.077 -20.915  0.00  0.00     0.114 C 
BRANCH  34  35
HETATM   35  C   UNK     0      -9.021   3.529 -22.089  0.00  0.00     0.139 C 
HETATM   36  O   UNK     0      -9.526   4.311 -22.947  0.00  0.00    -0.650 OA
BRANCH  35  37
HETATM   37  O   UNK     0      -9.186   2.165 -22.300  0.00  0.00    -0.776 OA
HETATM   38  H   UNK     0      -9.008   1.737 -23.195  0.00  0.00     0.167 HD
ENDBRANCH  35  37
ENDBRANCH  34  35
ENDBRANCH  33  34
ENDBRANCH   6  33
BRANCH  27  39
HETATM   39  C   UNK     0       1.222   1.422 -22.092  0.00  0.00     0.051 C 
BRANCH  39  40
HETATM   40  C   UNK     0       2.246   0.420 -21.799  0.00  0.00     0.114 C 
BRANCH  40  41
HETATM   41  C   UNK     0       3.512   0.766 -21.194  0.00  0.00     0.139 C 
HETATM   42  O   UNK     0       4.482   1.192 -21.835  0.00  0.00    -0.650 OA
BRANCH  41  43
HETATM   43  O   UNK     0       3.670   0.614 -19.787  0.00  0.00    -0.776 OA
HETATM   44  H   UNK     0       4.359  -0.077 -19.515  0.00  0.00     0.167 HD
ENDBRANCH  41  43
ENDBRANCH  40  41
ENDBRANCH  39  40
ENDBRANCH  27  39
BRANCH  11  45
HETATM   45  C   UNK     0      -2.863   8.027 -15.381  0.00  0.00     0.051 C 
BRANCH  45  46
HETATM   46  C   UNK     0      -3.106   9.489 -15.483  0.00  0.00     0.114 C 
BRANCH  46  47
HETATM   47  C   UNK     0      -3.715   9.926 -14.194  0.00  0.00     0.139 C 
HETATM   48  O   UNK     0      -4.946  10.053 -14.133  0.00  0.00    -0.650 OA
BRANCH  47  49
HETATM   49  O   UNK     0      -2.930  10.185 -13.098  0.00  0.00    -0.776 OA
HETATM   50  H   UNK     0      -1.938  10.434 -13.185  0.00  0.00     0.167 HD
ENDBRANCH  47  49
ENDBRANCH  46  47
ENDBRANCH  45  46
ENDBRANCH  11  45
BRANCH  18  51
HETATM   51  C   UNK     0       2.654   3.961 -16.719  0.00  0.00     0.051 C 
BRANCH  51  52
HETATM   52  C   UNK     0       2.030   3.008 -15.711  0.00  0.00     0.114 C 
BRANCH  52  53
HETATM   53  C   UNK     0       2.462   1.614 -15.931  0.00  0.00     0.139 C 
HETATM   54  O   UNK     0       3.338   1.361 -16.774  0.00  0.00    -0.650 OA
BRANCH  53  55
HETATM   55  O   UNK     0       1.887   0.601 -15.203  0.00  0.00    -0.776 OA
HETATM   56  H   UNK     0       1.999  -0.372 -15.366  0.00  0.00     0.167 HD
ENDBRANCH  53  55
ENDBRANCH  52  53
ENDBRANCH  51  52
ENDBRANCH  18  51
TORSDOF 16
ENDMDL
MODEL 3
REMARK VINA RESULT:      -7.8     15.500     20.990
REMARK  16 active torsions:
REMARK  status: ('A' for Active; 'I' for Inactive)
REMARK    1  A    between atoms: C_6  and  C_7 
REMARK    2  A    between atoms: C_7  and  C_8 
REMARK    3  A    between atoms: C_8  and  C_9 
REMARK    4  A    between atoms: C_9  and  O_11 
REMARK    5  A    between atoms: C_16  and  C_17 
REMARK    6  A    between atoms: C_17  and  C_18 
REMARK    7  A    between atoms: C_18  and  C_19 
REMARK    8  A    between atoms: C_19  and  O_21 
REMARK    9  A    between atoms: C_28  and  C_29 
REMARK   10  A    between atoms: C_29  and  C_30 
REMARK   11  A    between atoms: C_30  and  C_31 
REMARK   12  A    between atoms: C_31  and  O_33 
REMARK   13  A    between atoms: C_42  and  C_43 
REMARK   14  A    between atoms: C_43  and  C_44 
REMARK   15  A    between atoms: C_44  and  C_45 
REMARK   16  A    between atoms: C_45  and  O_47 
ROOT
HETATM    1  C   UNK     0      -5.673   1.691 -22.396  0.00  0.00     0.051 C 
HETATM    2  C   UNK     0      -5.287   2.405 -21.116  0.00  0.00    -0.031 A 
HETATM    3  C   UNK     0      -4.392   2.020 -20.130  0.00  0.00     0.021 A 
HETATM    4  N   UNK     0      -4.387   2.954 -19.150  0.00  0.00    -0.361 N 
HETATM    5  C   UNK     0      -5.253   3.929 -19.493  0.00  0.00     0.022 A 
HETATM    6  C   UNK     0      -5.836   3.616 -20.717  0.00  0.00    -0.027 A 
HETATM    7  C   UNK     0      -5.550   5.225 -18.805  0.00  0.00     0.115 C 
HETATM    8  C   UNK     0      -4.359   5.997 -18.262  0.00  0.00     0.021 A 
HETATM    9  N   UNK     0      -3.127   6.106 -18.782  0.00  0.00    -0.361 N 
HETATM   10  C   UNK     0      -2.368   6.812 -17.917  0.00  0.00     0.022 A 
HETATM   11  C   UNK     0      -3.136   7.174 -16.814  0.00  0.00    -0.027 A 
HETATM   12  C   UNK     0      -4.391   6.664 -17.025  0.00  0.00    -0.031 A 
HETATM   13  C   UNK     0      -5.566   6.816 -16.085  0.00  0.00     0.051 C 
HETATM   14  C   UNK     0      -0.883   7.125 -18.069  0.00  0.00     0.115 C 
HETATM   15  C   UNK     0       0.004   5.892 -18.130  0.00  0.00     0.021 A 
HETATM   16  N   UNK     0      -0.055   4.882 -19.018  0.00  0.00    -0.361 N 
HETATM   17  C   UNK     0       0.849   3.956 -18.689  0.00  0.00     0.022 A 
HETATM   18  C   UNK     0       1.536   4.388 -17.537  0.00  0.00    -0.027 A 
HETATM   19  C   UNK     0       0.998   5.602 -17.198  0.00  0.00    -0.031 A 
HETATM   20  C   UNK     0       1.478   6.440 -16.027  0.00  0.00     0.051 C 
HETATM   21  C   UNK     0       1.133   2.610 -19.316  0.00  0.00     0.115 C 
HETATM   22  C   UNK     0      -0.036   1.851 -19.899  0.00  0.00     0.022 A 
HETATM   23  N   UNK     0      -1.275   1.728 -19.406  0.00  0.00    -0.361 N 
HETATM   24  C   UNK     0      -2.033   1.089 -20.319  0.00  0.00     0.021 A 
HETATM   25  C   UNK     0      -1.261   0.784 -21.424  0.00  0.00    -0.031 A 
HETATM   26  C   UNK     0      -1.651   0.039 -22.684  0.00  0.00     0.051 C 
HETATM   27  C   UNK     0       0.022   1.261 -21.178  0.00  0.00    -0.027 A 
HETATM   28  C   UNK     0      -3.523   0.800 -20.253  0.00  0.00     0.115 C 
HETATM   29  H   UNK     0      -3.801   2.898 -18.203  0.00  0.00     0.165 HD
HETATM   30  H   UNK     0      -2.803   5.730 -19.783  0.00  0.00     0.165 HD
HETATM   31  H   UNK     0      -0.714   4.842 -19.924  0.00  0.00     0.165 HD
HETATM   32  H   UNK     0      -1.615   2.053 -18.388  0.00  0.00     0.165 HD
ENDROOT
BRANCH   6  33
HETATM   33  C   UNK     0      -6.863   4.369 -21.523  0.00  0.00     0.051 C 
BRANCH  33  34
HETATM   34  C   UNK     0      -8.258   4.069 -21.028  0.00  0.00     0.114 C 
BRANCH  34  35
HETATM   35  C   UNK     0      -9.025   3.497 -22.172  0.00  0.00     0.139 C 
HETATM   36  O   UNK     0      -9.166   2.244 -22.282  0.00  0.00    -0.650 OA
BRANCH  35  37
HETATM   37  O   UNK     0      -9.611   4.290 -23.152  0.00  0.00    -0.776 OA
HETATM   38  H   UNK     0      -9.237   5.190 -23.406  0.00  0.00     0.167 HD
ENDBRANCH  35  37
ENDBRANCH  34  35
ENDBRANCH  33  34
ENDBRANCH   6  33
BRANCH  27  39
HETATM   39  C   UNK     0       1.157   1.055 -22.118  0.00  0.00     0.051 C 
BRANCH  39  40
HETATM   40  C   UNK     0       1.587   2.182 -22.945  0.00  0.00     0.114 C 
BRANCH  40  41
HETATM   41  C   UNK     0       0.773   3.365 -23.119  0.00  0.00     0.139 C 
HETATM   42  O   UNK     0      -0.078   3.484 -24.010  0.00  0.00    -0.650 OA
BRANCH  41  43
HETATM   43  O   UNK     0       0.947   4.460 -22.226  0.00  0.00    -0.776 OA
HETATM   44  H   UNK     0       1.263   5.315 -22.669  0.00  0.00     0.167 HD
ENDBRANCH  41  43
ENDBRANCH  40  41
ENDBRANCH  39  40
ENDBRANCH  27  39
BRANCH  11  45
HETATM   45  C   UNK     0      -2.727   7.969 -15.602  0.00  0.00     0.051 C 
BRANCH  45  46
HETATM   46  C   UNK     0      -2.973   9.429 -15.724  0.00  0.00     0.114 C 
BRANCH  46  47
HETATM   47  C   UNK     0      -3.698   9.858 -14.494  0.00  0.00     0.139 C 
HETATM   48  O   UNK     0      -4.926  10.015 -14.554  0.00  0.00    -0.650 OA
BRANCH  47  49
HETATM   49  O   UNK     0      -3.022  10.077 -13.320  0.00  0.00    -0.776 OA
HETATM   50  H   UNK     0      -3.302   9.631 -12.439  0.00  0.00     0.167 HD
ENDBRANCH  47  49
ENDBRANCH  46  47
ENDBRANCH  45  46
ENDBRANCH  11  45
BRANCH  18  51
HETATM   51  C   UNK     0       2.658   3.691 -16.812  0.00  0.00     0.051 C 
BRANCH  51  52
HETATM   52  C   UNK     0       2.008   2.884 -15.698  0.00  0.00     0.114 C 
BRANCH  52  53
HETATM   53  C   UNK     0       2.443   1.474 -15.716  0.00  0.00     0.139 C 
HETATM   54  O   UNK     0       1.767   0.608 -15.139  0.00  0.00    -0.650 OA
BRANCH  53  55
HETATM   55  O   UNK     0       3.599   1.127 -16.372  0.00  0.00    -0.776 OA
HETATM   56  H   UNK     0       3.747   0.296 -16.894  0.00  0.00     0.167 HD
ENDBRANCH  53  55
ENDBRANCH  52  53
ENDBRANCH  51  52
ENDBRANCH  18  51
TORSDOF 16
ENDMDL
MODEL 4
REMARK VINA RESULT:      -7.8     14.069     19.419
REMARK  16 active torsions:
REMARK  status: ('A' for Active; 'I' for Inactive)
REMARK    1  A    between atoms: C_6  and  C_7 
REMARK    2  A    between atoms: C_7  and  C_8 
REMARK    3  A    between atoms: C_8  and  C_9 
REMARK    4  A    between atoms: C_9  and  O_11 
REMARK    5  A    between atoms: C_16  and  C_17 
REMARK    6  A    between atoms: C_17  and  C_18 
REMARK    7  A    between atoms: C_18  and  C_19 
REMARK    8  A    between atoms: C_19  and  O_21 
REMARK    9  A    between atoms: C_28  and  C_29 
REMARK   10  A    between atoms: C_29  and  C_30 
REMARK   11  A    between atoms: C_30  and  C_31 
REMARK   12  A    between atoms: C_31  and  O_33 
REMARK   13  A    between atoms: C_42  and  C_43 
REMARK   14  A    between atoms: C_43  and  C_44 
REMARK   15  A    between atoms: C_44  and  C_45 
REMARK   16  A    between atoms: C_45  and  O_47 
ROOT
HETATM    1  C   UNK     0       2.200   4.691 -18.013  0.00  0.00     0.051 C 
HETATM    2  C   UNK     0       1.094   5.710 -17.824  0.00  0.00    -0.031 A 
HETATM    3  C   UNK     0       0.199   6.220 -18.751  0.00  0.00     0.021 A 
HETATM    4  N   UNK     0      -0.594   7.133 -18.143  0.00  0.00    -0.361 N 
HETATM    5  C   UNK     0      -0.230   7.210 -16.846  0.00  0.00     0.022 A 
HETATM    6  C   UNK     0       0.825   6.335 -16.613  0.00  0.00    -0.027 A 
HETATM    7  C   UNK     0      -0.847   7.993 -15.729  0.00  0.00     0.115 C 
HETATM    8  C   UNK     0      -2.364   8.008 -15.663  0.00  0.00     0.021 A 
HETATM    9  N   UNK     0      -3.223   7.023 -15.966  0.00  0.00    -0.361 N 
HETATM   10  C   UNK     0      -4.477   7.510 -15.849  0.00  0.00     0.022 A 
HETATM   11  C   UNK     0      -4.423   8.842 -15.450  0.00  0.00    -0.027 A 
HETATM   12  C   UNK     0      -3.095   9.162 -15.330  0.00  0.00    -0.031 A 
HETATM   13  C   UNK     0      -2.555  10.511 -14.912  0.00  0.00     0.051 C 
HETATM   14  C   UNK     0      -5.768   6.758 -16.158  0.00  0.00     0.115 C 
HETATM   15  C   UNK     0      -5.882   6.298 -17.603  0.00  0.00     0.021 A 
HETATM   16  N   UNK     0      -5.042   5.490 -18.276  0.00  0.00    -0.361 N 
HETATM   17  C   UNK     0      -5.454   5.385 -19.541  0.00  0.00     0.022 A 
HETATM   18  C   UNK     0      -6.624   6.155 -19.698  0.00  0.00    -0.027 A 
HETATM   19  C   UNK     0      -6.882   6.720 -18.476  0.00  0.00    -0.031 A 
HETATM   20  C   UNK     0      -8.083   7.604 -18.192  0.00  0.00     0.051 C 
HETATM   21  C   UNK     0      -4.827   4.662 -20.711  0.00  0.00     0.115 C 
HETATM   22  C   UNK     0      -3.319   4.601 -20.767  0.00  0.00     0.022 A 
HETATM   23  N   UNK     0      -2.438   5.565 -20.466  0.00  0.00    -0.361 N 
HETATM   24  C   UNK     0      -1.199   5.036 -20.515  0.00  0.00     0.021 A 
HETATM   25  C   UNK     0      -1.283   3.702 -20.865  0.00  0.00    -0.031 A 
HETATM   26  C   UNK     0      -0.166   2.702 -21.084  0.00  0.00     0.051 C 
HETATM   27  C   UNK     0      -2.629   3.401 -21.031  0.00  0.00    -0.027 A 
HETATM   28  C   UNK     0       0.115   5.713 -20.163  0.00  0.00     0.115 C 
HETATM   29  H   UNK     0      -1.380   7.746 -18.643  0.00  0.00     0.165 HD
HETATM   30  H   UNK     0      -2.949   5.969 -16.216  0.00  0.00     0.165 HD
HETATM   31  H   UNK     0      -4.167   4.943 -17.838  0.00  0.00     0.165 HD
HETATM   32  H   UNK     0      -2.680   6.640 -20.260  0.00  0.00     0.165 HD
ENDROOT
BRANCH   6  33
HETATM   33  C   UNK     0       1.589   6.053 -15.344  0.00  0.00     0.051 C 
BRANCH  33  34
HETATM   34  C   UNK     0       2.636   7.115 -15.103  0.00  0.00     0.114 C 
BRANCH  34  35
HETATM   35  C   UNK     0       3.929   6.417 -14.846  0.00  0.00     0.139 C 
HETATM   36  O   UNK     0       4.672   6.077 -15.811  0.00  0.00    -0.650 OA
BRANCH  35  37
HETATM   37  O   UNK     0       4.374   6.113 -13.565  0.00  0.00    -0.776 OA
HETATM   38  H   UNK     0       4.180   6.709 -12.776  0.00  0.00     0.167 HD
ENDBRANCH  35  37
ENDBRANCH  34  35
ENDBRANCH  33  34
ENDBRANCH   6  33
BRANCH  27  39
HETATM   39  C   UNK     0      -3.112   2.067 -21.482  0.00  0.00     0.051 C 
BRANCH  39  40
HETATM   40  C   UNK     0      -3.893   1.259 -20.545  0.00  0.00     0.114 C 
BRANCH  40  41
HETATM   41  C   UNK     0      -3.595   1.215 -19.131  0.00  0.00     0.139 C 
HETATM   42  O   UNK     0      -4.216   1.868 -18.281  0.00  0.00    -0.650 OA
BRANCH  41  43
HETATM   43  O   UNK     0      -2.535   0.382 -18.674  0.00  0.00    -0.776 OA
HETATM   44  H   UNK     0      -2.386  -0.451 -19.231  0.00  0.00     0.167 HD
ENDBRANCH  41  43
ENDBRANCH  40  41
ENDBRANCH  39  40
ENDBRANCH  27  39
BRANCH  11  45
HETATM   45  C   UNK     0      -5.560   9.791 -15.183  0.00  0.00     0.051 C 
BRANCH  45  46
HETATM   46  C   UNK     0      -6.285   9.528 -13.914  0.00  0.00     0.114 C 
BRANCH  46  47
HETATM   47  C   UNK     0      -6.000  10.669 -12.997  0.00  0.00     0.139 C 
HETATM   48  O   UNK     0      -5.727  11.772 -13.492  0.00  0.00    -0.650 OA
BRANCH  47  49
HETATM   49  O   UNK     0      -6.038  10.503 -11.636  0.00  0.00    -0.776 OA
HETATM   50  H   UNK     0      -6.822  10.843 -11.067  0.00  0.00     0.167 HD
ENDBRANCH  47  49
ENDBRANCH  46  47
ENDBRANCH  45  46
ENDBRANCH  11  45
BRANCH  18  51
HETATM   51  C   UNK     0      -7.462   6.325 -20.938  0.00  0.00     0.051 C 
BRANCH  51  52
HETATM   52  C   UNK     0      -8.446   5.164 -20.950  0.00  0.00     0.114 C 
BRANCH  52  53
HETATM   53  C   UNK     0      -9.839   5.626 -21.104  0.00  0.00     0.139 C 
HETATM   54  O   UNK     0     -10.527   5.869 -20.099  0.00  0.00    -0.650 OA
BRANCH  53  55
HETATM   55  O   UNK     0     -10.369   5.782 -22.361  0.00  0.00    -0.776 OA
HETATM   56  H   UNK     0     -10.604   5.051 -22.991  0.00  0.00     0.167 HD
ENDBRANCH  53  55
ENDBRANCH  52  53
ENDBRANCH  51  52
ENDBRANCH  18  51
TORSDOF 16
ENDMDL
MODEL 5
REMARK VINA RESULT:      -7.8     15.896     20.095
REMARK  16 active torsions:
REMARK  status: ('A' for Active; 'I' for Inactive)
REMARK    1  A    between atoms: C_6  and  C_7 
REMARK    2  A    between atoms: C_7  and  C_8 
REMARK    3  A    between atoms: C_8  and  C_9 
REMARK    4  A    between atoms: C_9  and  O_11 
REMARK    5  A    between atoms: C_16  and  C_17 
REMARK    6  A    between atoms: C_17  and  C_18 
REMARK    7  A    between atoms: C_18  and  C_19 
REMARK    8  A    between atoms: C_19  and  O_21 
REMARK    9  A    between atoms: C_28  and  C_29 
REMARK   10  A    between atoms: C_29  and  C_30 
REMARK   11  A    between atoms: C_30  and  C_31 
REMARK   12  A    between atoms: C_31  and  O_33 
REMARK   13  A    between atoms: C_42  and  C_43 
REMARK   14  A    between atoms: C_43  and  C_44 
REMARK   15  A    between atoms: C_44  and  C_45 
REMARK   16  A    between atoms: C_45  and  O_47 
ROOT
HETATM    1  C   UNK     0      -2.229   8.081 -15.165  0.00  0.00     0.051 C 
HETATM    2  C   UNK     0      -2.803   7.441 -16.412  0.00  0.00    -0.031 A 
HETATM    3  C   UNK     0      -2.173   7.109 -17.601  0.00  0.00     0.021 A 
HETATM    4  N   UNK     0      -3.086   6.584 -18.453  0.00  0.00    -0.361 N 
HETATM    5  C   UNK     0      -4.282   6.566 -17.830  0.00  0.00     0.022 A 
HETATM    6  C   UNK     0      -4.142   7.097 -16.552  0.00  0.00    -0.027 A 
HETATM    7  C   UNK     0      -5.590   6.004 -18.294  0.00  0.00     0.115 C 
HETATM    8  C   UNK     0      -5.543   4.655 -18.990  0.00  0.00     0.021 A 
HETATM    9  N   UNK     0      -4.740   3.610 -18.735  0.00  0.00    -0.361 N 
HETATM   10  C   UNK     0      -4.985   2.658 -19.659  0.00  0.00     0.022 A 
HETATM   11  C   UNK     0      -5.979   3.098 -20.528  0.00  0.00    -0.027 A 
HETATM   12  C   UNK     0      -6.335   4.355 -20.112  0.00  0.00    -0.031 A 
HETATM   13  C   UNK     0      -7.390   5.224 -20.759  0.00  0.00     0.051 C 
HETATM   14  C   UNK     0      -4.258   1.323 -19.793  0.00  0.00     0.115 C 
HETATM   15  C   UNK     0      -2.766   1.458 -20.056  0.00  0.00     0.021 A 
HETATM   16  N   UNK     0      -1.851   2.082 -19.291  0.00  0.00    -0.361 N 
HETATM   17  C   UNK     0      -0.665   2.038 -19.903  0.00  0.00     0.022 A 
HETATM   18  C   UNK     0      -0.813   1.345 -21.120  0.00  0.00    -0.027 A 
HETATM   19  C   UNK     0      -2.134   0.985 -21.203  0.00  0.00    -0.031 A 
HETATM   20  C   UNK     0      -2.719   0.183 -22.351  0.00  0.00     0.051 C 
HETATM   21  C   UNK     0       0.659   2.648 -19.501  0.00  0.00     0.115 C 
HETATM   22  C   UNK     0       0.625   3.969 -18.769  0.00  0.00     0.022 A 
HETATM   23  N   UNK     0      -0.166   5.025 -18.999  0.00  0.00    -0.361 N 
HETATM   24  C   UNK     0       0.040   5.929 -18.020  0.00  0.00     0.021 A 
HETATM   25  C   UNK     0       0.994   5.448 -17.144  0.00  0.00    -0.031 A 
HETATM   26  C   UNK     0       1.586   6.113 -15.919  0.00  0.00     0.051 C 
HETATM   27  C   UNK     0       1.384   4.195 -17.603  0.00  0.00    -0.027 A 
HETATM   28  C   UNK     0      -0.690   7.243 -17.800  0.00  0.00     0.115 C 
HETATM   29  H   UNK     0      -2.887   6.267 -19.503  0.00  0.00     0.165 HD
HETATM   30  H   UNK     0      -4.035   3.522 -17.872  0.00  0.00     0.165 HD
HETATM   31  H   UNK     0      -2.034   2.521 -18.275  0.00  0.00     0.165 HD
HETATM   32  H   UNK     0      -0.847   5.161 -19.879  0.00  0.00     0.165 HD
ENDROOT
BRANCH   6  33
HETATM   33  C   UNK     0      -5.170   7.303 -15.469  0.00  0.00     0.051 C 
BRANCH  33  34
HETATM   34  C   UNK     0      -5.871   8.630 -15.641  0.00  0.00     0.114 C 
BRANCH  34  35
HETATM   35  C   UNK     0      -7.160   8.555 -14.894  0.00  0.00     0.139 C 
HETATM   36  O   UNK     0      -7.212   8.902 -13.678  0.00  0.00    -0.650 OA
BRANCH  35  37
HETATM   37  O   UNK     0      -8.340   8.113 -15.479  0.00  0.00    -0.776 OA
HETATM   38  H   UNK     0      -9.136   8.719 -15.600  0.00  0.00     0.167 HD
ENDBRANCH  35  37
ENDBRANCH  34  35
ENDBRANCH  33  34
ENDBRANCH   6  33
BRANCH  27  39
HETATM   39  C   UNK     0       2.455   3.391 -16.954  0.00  0.00     0.051 C 
BRANCH  39  40
HETATM   40  C   UNK     0       2.132   2.670 -15.723  0.00  0.00     0.114 C 
BRANCH  40  41
HETATM   41  C   UNK     0       2.432   1.266 -15.552  0.00  0.00     0.139 C 
HETATM   42  O   UNK     0       3.457   0.727 -15.990  0.00  0.00    -0.650 OA
BRANCH  41  43
HETATM   43  O   UNK     0       1.510   0.443 -14.845  0.00  0.00    -0.776 OA
HETATM   44  H   UNK     0       0.707   0.150 -15.389  0.00  0.00     0.167 HD
ENDBRANCH  41  43
ENDBRANCH  40  41
ENDBRANCH  39  40
ENDBRANCH  27  39
BRANCH  11  45
HETATM   45  C   UNK     0      -6.586   2.381 -21.705  0.00  0.00     0.051 C 
BRANCH  45  46
HETATM   46  C   UNK     0      -5.778   2.466 -22.948  0.00  0.00     0.114 C 
BRANCH  46  47
HETATM   47  C   UNK     0      -6.390   1.532 -23.937  0.00  0.00     0.139 C 
HETATM   48  O   UNK     0      -5.734   0.549 -24.307  0.00  0.00    -0.650 OA
BRANCH  47  49
HETATM   49  O   UNK     0      -7.651   1.757 -24.428  0.00  0.00    -0.776 OA
HETATM   50  H   UNK     0      -8.081   1.141 -25.129  0.00  0.00     0.167 HD
ENDBRANCH  47  49
ENDBRANCH  46  47
ENDBRANCH  45  46
ENDBRANCH  11  45
BRANCH  18  51
HETATM   51  C   UNK     0       0.250   1.023 -22.138  0.00  0.00     0.051 C 
BRANCH  51  52
HETATM   52  C   UNK     0       0.843  -0.316 -21.727  0.00  0.00     0.114 C 
BRANCH  52  53
HETATM   53  C   UNK     0       2.315  -0.262 -21.642  0.00  0.00     0.139 C 
HETATM   54  O   UNK     0       2.952  -1.254 -21.252  0.00  0.00    -0.650 OA
BRANCH  53  55
HETATM   55  O   UNK     0       2.974   0.891 -21.992  0.00  0.00    -0.776 OA
HETATM   56  H   UNK     0       3.922   1.107 -21.789  0.00  0.00     0.167 HD
ENDBRANCH  53  55
ENDBRANCH  52  53
ENDBRANCH  51  52
ENDBRANCH  18  51
TORSDOF 16
ENDMDL
MODEL 6
REMARK VINA RESULT:      -7.7      6.650     11.917
REMARK  16 active torsions:
REMARK  status: ('A' for Active; 'I' for Inactive)
REMARK    1  A    between atoms: C_6  and  C_7 
REMARK    2  A    between atoms: C_7  and  C_8 
REMARK    3  A    between atoms: C_8  and  C_9 
REMARK    4  A    between atoms: C_9  and  O_11 
REMARK    5  A    between atoms: C_16  and  C_17 
REMARK    6  A    between atoms: C_17  and  C_18 
REMARK    7  A    between atoms: C_18  and  C_19 
REMARK    8  A    between atoms: C_19  and  O_21 
REMARK    9  A    between atoms: C_28  and  C_29 
REMARK   10  A    between atoms: C_29  and  C_30 
REMARK   11  A    between atoms: C_30  and  C_31 
REMARK   12  A    between atoms: C_31  and  O_33 
REMARK   13  A    between atoms: C_42  and  C_43 
REMARK   14  A    between atoms: C_43  and  C_44 
REMARK   15  A    between atoms: C_44  and  C_45 
REMARK   16  A    between atoms: C_45  and  O_47 
ROOT
HETATM    1  C   UNK     0      12.772  12.411  -7.202  0.00  0.00     0.051 C 
HETATM    2  C   UNK     0      14.001  11.689  -7.715  0.00  0.00    -0.031 A 
HETATM    3  C   UNK     0      14.870  10.844  -7.043  0.00  0.00     0.021 A 
HETATM    4  N   UNK     0      15.850  10.452  -7.892  0.00  0.00    -0.361 N 
HETATM    5  C   UNK     0      15.620  11.023  -9.093  0.00  0.00     0.022 A 
HETATM    6  C   UNK     0      14.473  11.806  -9.017  0.00  0.00    -0.027 A 
HETATM    7  C   UNK     0      16.348  10.842 -10.388  0.00  0.00     0.115 C 
HETATM    8  C   UNK     0      16.749   9.423 -10.752  0.00  0.00     0.021 A 
HETATM    9  N   UNK     0      16.086   8.281 -10.517  0.00  0.00    -0.361 N 
HETATM   10  C   UNK     0      16.859   7.255 -10.931  0.00  0.00     0.022 A 
HETATM   11  C   UNK     0      18.049   7.751 -11.456  0.00  0.00    -0.027 A 
HETATM   12  C   UNK     0      17.986   9.116 -11.346  0.00  0.00    -0.031 A 
HETATM   13  C   UNK     0      19.061  10.080 -11.796  0.00  0.00     0.051 C 
HETATM   14  C   UNK     0      16.532   5.770 -10.801  0.00  0.00     0.115 C 
HETATM   15  C   UNK     0      16.356   5.302  -9.365  0.00  0.00     0.021 A 
HETATM   16  N   UNK     0      15.474   5.757  -8.455  0.00  0.00    -0.361 N 
HETATM   17  C   UNK     0      15.685   5.138  -7.292  0.00  0.00     0.022 A 
HETATM   18  C   UNK     0      16.750   4.228  -7.454  0.00  0.00    -0.027 A 
HETATM   19  C   UNK     0      17.160   4.340  -8.757  0.00  0.00    -0.031 A 
HETATM   20  C   UNK     0      18.270   3.504  -9.367  0.00  0.00     0.051 C 
HETATM   21  C   UNK     0      15.019   5.338  -5.949  0.00  0.00     0.115 C 
HETATM   22  C   UNK     0      14.575   6.737  -5.593  0.00  0.00     0.022 A 
HETATM   23  N   UNK     0      15.213   7.893  -5.818  0.00  0.00    -0.361 N 
HETATM   24  C   UNK     0      14.392   8.904  -5.470  0.00  0.00     0.021 A 
HETATM   25  C   UNK     0      13.201   8.387  -4.999  0.00  0.00    -0.031 A 
HETATM   26  C   UNK     0      11.992   9.119  -4.456  0.00  0.00     0.051 C 
HETATM   27  C   UNK     0      13.294   7.001  -5.067  0.00  0.00    -0.027 A 
HETATM   28  C   UNK     0      14.635  10.395  -5.629  0.00  0.00     0.115 C 
HETATM   29  H   UNK     0      16.719   9.807  -7.626  0.00  0.00     0.165 HD
HETATM   30  H   UNK     0      15.051   8.197 -10.105  0.00  0.00     0.165 HD
HETATM   31  H   UNK     0      14.654   6.496  -8.650  0.00  0.00     0.165 HD
HETATM   32  H   UNK     0      16.266   8.005  -6.185  0.00  0.00     0.165 HD
ENDROOT
BRANCH   6  33
HETATM   33  C   UNK     0      13.801  12.647 -10.072  0.00  0.00     0.051 C 
BRANCH  33  34
HETATM   34  C   UNK     0      14.616  13.883 -10.370  0.00  0.00     0.114 C 
BRANCH  34  35
HETATM   35  C   UNK     0      13.728  15.064 -10.171  0.00  0.00     0.139 C 
HETATM   36  O   UNK     0      14.140  16.226 -10.453  0.00  0.00    -0.650 OA
BRANCH  35  37
HETATM   37  O   UNK     0      12.432  14.952  -9.681  0.00  0.00    -0.776 OA
HETATM   38  H   UNK     0      11.874  15.760  -9.456  0.00  0.00     0.167 HD
ENDBRANCH  35  37
ENDBRANCH  34  35
ENDBRANCH  33  34
ENDBRANCH   6  33
BRANCH  27  39
HETATM   39  C   UNK     0      12.223   6.091  -4.577  0.00  0.00     0.051 C 
BRANCH  39  40
HETATM   40  C   UNK     0      12.137   5.833  -3.140  0.00  0.00     0.114 C 
BRANCH  40  41
HETATM   41  C   UNK     0      11.548   4.624  -2.609  0.00  0.00     0.139 C 
HETATM   42  O   UNK     0      11.764   3.497  -3.074  0.00  0.00    -0.650 OA
BRANCH  41  43
HETATM   43  O   UNK     0      10.670   4.716  -1.491  0.00  0.00    -0.776 OA
HETATM   44  H   UNK     0      10.855   4.044  -0.757  0.00  0.00     0.167 HD
ENDBRANCH  41  43
ENDBRANCH  40  41
ENDBRANCH  39  40
ENDBRANCH  27  39
BRANCH  11  45
HETATM   45  C   UNK     0      19.208   6.991 -12.043  0.00  0.00     0.051 C 
BRANCH  45  46
HETATM   46  C   UNK     0      20.254   6.623 -11.056  0.00  0.00     0.114 C 
BRANCH  46  47
HETATM   47  C   UNK     0      20.737   5.258 -11.412  0.00  0.00     0.139 C 
HETATM   48  O   UNK     0      20.117   4.616 -12.272  0.00  0.00    -0.650 OA
BRANCH  47  49
HETATM   49  O   UNK     0      21.843   4.722 -10.801  0.00  0.00    -0.776 OA
HETATM   50  H   UNK     0      21.801   3.841 -10.275  0.00  0.00     0.167 HD
ENDBRANCH  47  49
ENDBRANCH  46  47
ENDBRANCH  45  46
ENDBRANCH  11  45
BRANCH  18  51
HETATM   51  C   UNK     0      17.330   3.289  -6.428  0.00  0.00     0.051 C 
BRANCH  51  52
HETATM   52  C   UNK     0      16.375   2.108  -6.344  0.00  0.00     0.114 C 
BRANCH  52  53
HETATM   53  C   UNK     0      17.043   0.836  -6.682  0.00  0.00     0.139 C 
HETATM   54  O   UNK     0      16.372  -0.139  -7.056  0.00  0.00    -0.650 OA
BRANCH  53  55
HETATM   55  O   UNK     0      18.409   0.738  -6.578  0.00  0.00    -0.776 OA
HETATM   56  H   UNK     0      19.033   0.471  -7.304  0.00  0.00     0.167 HD
ENDBRANCH  53  55
ENDBRANCH  52  53
ENDBRANCH  51  52
ENDBRANCH  18  51
TORSDOF 16
ENDMDL
MODEL 7
REMARK VINA RESULT:      -7.6     25.856     29.440
REMARK  16 active torsions:
REMARK  status: ('A' for Active; 'I' for Inactive)
REMARK    1  A    between atoms: C_6  and  C_7 
REMARK    2  A    between atoms: C_7  and  C_8 
REMARK    3  A    between atoms: C_8  and  C_9 
REMARK    4  A    between atoms: C_9  and  O_11 
REMARK    5  A    between atoms: C_16  and  C_17 
REMARK    6  A    between atoms: C_17  and  C_18 
REMARK    7  A    between atoms: C_18  and  C_19 
REMARK    8  A    between atoms: C_19  and  O_21 
REMARK    9  A    between atoms: C_28  and  C_29 
REMARK   10  A    between atoms: C_29  and  C_30 
REMARK   11  A    between atoms: C_30  and  C_31 
REMARK   12  A    between atoms: C_31  and  O_33 
REMARK   13  A    between atoms: C_42  and  C_43 
REMARK   14  A    between atoms: C_43  and  C_44 
REMARK   15  A    between atoms: C_44  and  C_45 
REMARK   16  A    between atoms: C_45  and  O_47 
ROOT
HETATM    1  C   UNK     0     -14.092  17.714   0.871  0.00  0.00     0.051 C 
HETATM    2  C   UNK     0     -14.074  16.450   1.706  0.00  0.00    -0.031 A 
HETATM    3  C   UNK     0     -13.487  16.219   2.940  0.00  0.00     0.021 A 
HETATM    4  N   UNK     0     -13.698  14.929   3.295  0.00  0.00    -0.361 N 
HETATM    5  C   UNK     0     -14.415  14.336   2.318  0.00  0.00     0.022 A 
HETATM    6  C   UNK     0     -14.665  15.258   1.307  0.00  0.00    -0.027 A 
HETATM    7  C   UNK     0     -14.987  12.954   2.263  0.00  0.00     0.115 C 
HETATM    8  C   UNK     0     -15.639  12.435   3.532  0.00  0.00     0.021 A 
HETATM    9  N   UNK     0     -16.353  13.114   4.444  0.00  0.00    -0.361 N 
HETATM   10  C   UNK     0     -16.657  12.270   5.452  0.00  0.00     0.022 A 
HETATM   11  C   UNK     0     -16.133  11.010   5.179  0.00  0.00    -0.027 A 
HETATM   12  C   UNK     0     -15.491  11.107   3.971  0.00  0.00    -0.031 A 
HETATM   13  C   UNK     0     -14.773   9.976   3.269  0.00  0.00     0.051 C 
HETATM   14  C   UNK     0     -17.404  12.629   6.734  0.00  0.00     0.115 C 
HETATM   15  C   UNK     0     -16.707  13.684   7.578  0.00  0.00     0.021 A 
HETATM   16  N   UNK     0     -16.370  14.936   7.215  0.00  0.00    -0.361 N 
HETATM   17  C   UNK     0     -15.711  15.521   8.217  0.00  0.00     0.022 A 
HETATM   18  C   UNK     0     -15.623  14.610   9.289  0.00  0.00    -0.027 A 
HETATM   19  C   UNK     0     -16.252  13.464   8.876  0.00  0.00    -0.031 A 
HETATM   20  C   UNK     0     -16.418  12.232   9.747  0.00  0.00     0.051 C 
HETATM   21  C   UNK     0     -15.062  16.884   8.289  0.00  0.00     0.115 C 
HETATM   22  C   UNK     0     -14.448  17.432   7.022  0.00  0.00     0.022 A 
HETATM   23  N   UNK     0     -13.736  16.778   6.094  0.00  0.00    -0.361 N 
HETATM   24  C   UNK     0     -13.511  17.617   5.063  0.00  0.00     0.021 A 
HETATM   25  C   UNK     0     -14.083  18.845   5.338  0.00  0.00    -0.031 A 
HETATM   26  C   UNK     0     -14.065  20.112   4.509  0.00  0.00     0.051 C 
HETATM   27  C   UNK     0     -14.688  18.751   6.586  0.00  0.00    -0.027 A 
HETATM   28  C   UNK     0     -12.829  17.305   3.743  0.00  0.00     0.115 C 
HETATM   29  H   UNK     0     -13.306  14.437   4.214  0.00  0.00     0.165 HD
HETATM   30  H   UNK     0     -16.686  14.177   4.355  0.00  0.00     0.165 HD
HETATM   31  H   UNK     0     -16.644  15.434   6.248  0.00  0.00     0.165 HD
HETATM   32  H   UNK     0     -13.348  15.729   6.178  0.00  0.00     0.165 HD
ENDROOT
BRANCH   6  33
HETATM   33  C   UNK     0     -15.411  15.094   0.007  0.00  0.00     0.051 C 
BRANCH  33  34
HETATM   34  C   UNK     0     -16.788  15.708   0.099  0.00  0.00     0.114 C 
BRANCH  34  35
HETATM   35  C   UNK     0     -17.347  15.759  -1.283  0.00  0.00     0.139 C 
HETATM   36  O   UNK     0     -16.592  16.013  -2.266  0.00  0.00    -0.650 OA
BRANCH  35  37
HETATM   37  O   UNK     0     -18.690  15.534  -1.556  0.00  0.00    -0.776 OA
HETATM   38  H   UNK     0     -19.086  14.608  -1.565  0.00  0.00     0.167 HD
ENDBRANCH  35  37
ENDBRANCH  34  35
ENDBRANCH  33  34
ENDBRANCH   6  33
BRANCH  27  39
HETATM   39  C   UNK     0     -15.351  19.903   7.254  0.00  0.00     0.051 C 
BRANCH  39  40
HETATM   40  C   UNK     0     -16.793  20.072   7.078  0.00  0.00     0.114 C 
BRANCH  40  41
HETATM   41  C   UNK     0     -17.752  19.547   8.025  0.00  0.00     0.139 C 
HETATM   42  O   UNK     0     -17.483  19.310   9.210  0.00  0.00    -0.650 OA
BRANCH  41  43
HETATM   43  O   UNK     0     -19.081  19.283   7.588  0.00  0.00    -0.776 OA
HETATM   44  H   UNK     0     -19.156  18.545   6.898  0.00  0.00     0.167 HD
ENDBRANCH  41  43
ENDBRANCH  40  41
ENDBRANCH  39  40
ENDBRANCH  27  39
BRANCH  11  45
HETATM   45  C   UNK     0     -16.223   9.754   6.003  0.00  0.00     0.051 C 
BRANCH  45  46
HETATM   46  C   UNK     0     -15.322   9.738   7.184  0.00  0.00     0.114 C 
BRANCH  46  47
HETATM   47  C   UNK     0     -16.028   8.997   8.267  0.00  0.00     0.139 C 
HETATM   48  O   UNK     0     -17.266   9.034   8.301  0.00  0.00    -0.650 OA
BRANCH  47  49
HETATM   49  O   UNK     0     -15.324   8.289   9.209  0.00  0.00    -0.776 OA
HETATM   50  H   UNK     0     -15.226   7.268   9.162  0.00  0.00     0.167 HD
ENDBRANCH  47  49
ENDBRANCH  46  47
ENDBRANCH  45  46
ENDBRANCH  11  45
BRANCH  18  51
HETATM   51  C   UNK     0     -14.993  14.828  10.640  0.00  0.00     0.051 C 
BRANCH  51  52
HETATM   52  C   UNK     0     -13.622  14.170  10.581  0.00  0.00     0.114 C 
BRANCH  52  53
HETATM   53  C   UNK     0     -12.543  15.117  10.924  0.00  0.00     0.139 C 
HETATM   54  O   UNK     0     -12.771  16.337  10.948  0.00  0.00    -0.650 OA
BRANCH  53  55
HETATM   55  O   UNK     0     -11.287  14.640  11.213  0.00  0.00    -0.776 OA
HETATM   56  H   UNK     0     -10.734  14.060  10.628  0.00  0.00     0.167 HD
ENDBRANCH  53  55
ENDBRANCH  52  53
ENDBRANCH  51  52
ENDBRANCH  18  51
TORSDOF 16
ENDMDL
MODEL 8
REMARK VINA RESULT:      -7.6     14.162     19.835
REMARK  16 active torsions:
REMARK  status: ('A' for Active; 'I' for Inactive)
REMARK    1  A    between atoms: C_6  and  C_7 
REMARK    2  A    between atoms: C_7  and  C_8 
REMARK    3  A    between atoms: C_8  and  C_9 
REMARK    4  A    between atoms: C_9  and  O_11 
REMARK    5  A    between atoms: C_16  and  C_17 
REMARK    6  A    between atoms: C_17  and  C_18 
REMARK    7  A    between atoms: C_18  and  C_19 
REMARK    8  A    between atoms: C_19  and  O_21 
REMARK    9  A    between atoms: C_28  and  C_29 
REMARK   10  A    between atoms: C_29  and  C_30 
REMARK   11  A    between atoms: C_30  and  C_31 
REMARK   12  A    between atoms: C_31  and  O_33 
REMARK   13  A    between atoms: C_42  and  C_43 
REMARK   14  A    between atoms: C_43  and  C_44 
REMARK   15  A    between atoms: C_44  and  C_45 
REMARK   16  A    between atoms: C_45  and  O_47 
ROOT
HETATM    1  C   UNK     0      -5.928  10.307 -16.381  0.00  0.00     0.051 C 
HETATM    2  C   UNK     0      -4.792   9.322 -16.191  0.00  0.00    -0.031 A 
HETATM    3  C   UNK     0      -4.829   7.938 -16.127  0.00  0.00     0.021 A 
HETATM    4  N   UNK     0      -3.576   7.472 -15.915  0.00  0.00    -0.361 N 
HETATM    5  C   UNK     0      -2.739   8.528 -15.851  0.00  0.00     0.022 A 
HETATM    6  C   UNK     0      -3.468   9.701 -16.016  0.00  0.00    -0.027 A 
HETATM    7  C   UNK     0      -1.248   8.555 -15.725  0.00  0.00     0.115 C 
HETATM    8  C   UNK     0      -0.475   7.554 -16.565  0.00  0.00     0.021 A 
HETATM    9  N   UNK     0      -0.752   7.108 -17.800  0.00  0.00    -0.361 N 
HETATM   10  C   UNK     0       0.154   6.158 -18.116  0.00  0.00     0.022 A 
HETATM   11  C   UNK     0       1.044   5.994 -17.059  0.00  0.00    -0.027 A 
HETATM   12  C   UNK     0       0.654   6.870 -16.079  0.00  0.00    -0.031 A 
HETATM   13  C   UNK     0       1.337   7.046 -14.741  0.00  0.00     0.051 C 
HETATM   14  C   UNK     0       0.184   5.333 -19.400  0.00  0.00     0.115 C 
HETATM   15  C   UNK     0      -1.059   4.485 -19.616  0.00  0.00     0.021 A 
HETATM   16  N   UNK     0      -2.335   4.904 -19.706  0.00  0.00    -0.361 N 
HETATM   17  C   UNK     0      -3.138   3.845 -19.825  0.00  0.00     0.022 A 
HETATM   18  C   UNK     0      -2.346   2.679 -19.821  0.00  0.00    -0.027 A 
HETATM   19  C   UNK     0      -1.046   3.093 -19.690  0.00  0.00    -0.031 A 
HETATM   20  C   UNK     0       0.143   2.150 -19.678  0.00  0.00     0.051 C 
HETATM   21  C   UNK     0      -4.646   3.771 -19.887  0.00  0.00     0.115 C 
HETATM   22  C   UNK     0      -5.428   4.789 -19.091  0.00  0.00     0.022 A 
HETATM   23  N   UNK     0      -5.173   5.254 -17.861  0.00  0.00    -0.361 N 
HETATM   24  C   UNK     0      -6.040   6.253 -17.598  0.00  0.00     0.021 A 
HETATM   25  C   UNK     0      -6.879   6.429 -18.681  0.00  0.00    -0.031 A 
HETATM   26  C   UNK     0      -8.034   7.395 -18.846  0.00  0.00     0.051 C 
HETATM   27  C   UNK     0      -6.508   5.503 -19.649  0.00  0.00    -0.027 A 
HETATM   28  C   UNK     0      -6.084   7.147 -16.371  0.00  0.00     0.115 C 
HETATM   29  H   UNK     0      -3.297   6.402 -15.773  0.00  0.00     0.165 HD
HETATM   30  H   UNK     0      -1.556   7.498 -18.472  0.00  0.00     0.165 HD
HETATM   31  H   UNK     0      -2.672   5.973 -19.735  0.00  0.00     0.165 HD
HETATM   32  H   UNK     0      -4.407   4.852 -17.149  0.00  0.00     0.165 HD
ENDROOT
BRANCH   6  33
HETATM   33  C   UNK     0      -3.007  11.137 -16.019  0.00  0.00     0.051 C 
BRANCH  33  34
HETATM   34  C   UNK     0      -3.433  11.838 -14.751  0.00  0.00     0.114 C 
BRANCH  34  35
HETATM   35  C   UNK     0      -2.420  11.521 -13.703  0.00  0.00     0.139 C 
HETATM   36  O   UNK     0      -1.249  11.993 -13.785  0.00  0.00    -0.650 OA
BRANCH  35  37
HETATM   37  O   UNK     0      -2.702  10.712 -12.609  0.00  0.00    -0.776 OA
HETATM   38  H   UNK     0      -2.635  11.051 -11.662  0.00  0.00     0.167 HD
ENDBRANCH  35  37
ENDBRANCH  34  35
ENDBRANCH  33  34
ENDBRANCH   6  33
BRANCH  27  39
HETATM   39  C   UNK     0      -7.235   5.341 -20.938  0.00  0.00     0.051 C 
BRANCH  39  40
HETATM   40  C   UNK     0      -8.280   4.322 -21.022  0.00  0.00     0.114 C 
BRANCH  40  41
HETATM   41  C   UNK     0      -8.198   3.208 -21.940  0.00  0.00     0.139 C 
HETATM   42  O   UNK     0      -8.936   3.081 -22.927  0.00  0.00    -0.650 OA
BRANCH  41  43
HETATM   43  O   UNK     0      -7.224   2.195 -21.714  0.00  0.00    -0.776 OA
HETATM   44  H   UNK     0      -7.014   1.627 -22.526  0.00  0.00     0.167 HD
ENDBRANCH  41  43
ENDBRANCH  40  41
ENDBRANCH  39  40
ENDBRANCH  27  39
BRANCH  11  45
HETATM   45  C   UNK     0       2.220   5.061 -16.955  0.00  0.00     0.051 C 
BRANCH  45  46
HETATM   46  C   UNK     0       3.353   5.411 -17.851  0.00  0.00     0.114 C 
BRANCH  46  47
HETATM   47  C   UNK     0       4.255   6.320 -17.087  0.00  0.00     0.139 C 
HETATM   48  O   UNK     0       4.598   5.990 -15.943  0.00  0.00    -0.650 OA
BRANCH  47  49
HETATM   49  O   UNK     0       4.696   7.497 -17.637  0.00  0.00    -0.776 OA
HETATM   50  H   UNK     0       5.178   8.212 -17.080  0.00  0.00     0.167 HD
ENDBRANCH  47  49
ENDBRANCH  46  47
ENDBRANCH  45  46
ENDBRANCH  11  45
BRANCH  18  51
HETATM   51  C   UNK     0      -2.803   1.249 -19.955  0.00  0.00     0.051 C 
BRANCH  51  52
HETATM   52  C   UNK     0      -2.704   0.908 -21.435  0.00  0.00     0.114 C 
BRANCH  52  53
HETATM   53  C   UNK     0      -4.035   0.734 -22.048  0.00  0.00     0.139 C 
HETATM   54  O   UNK     0      -4.581   1.685 -22.629  0.00  0.00    -0.650 OA
BRANCH  53  55
HETATM   55  O   UNK     0      -4.666  -0.484 -21.968  0.00  0.00    -0.776 OA
HETATM   56  H   UNK     0      -4.340  -1.279 -21.472  0.00  0.00     0.167 HD
ENDBRANCH  53  55
ENDBRANCH  52  53
ENDBRANCH  51  52
ENDBRANCH  18  51
TORSDOF 16
ENDMDL
MODEL 9
REMARK VINA RESULT:      -7.6     14.119     19.630
REMARK  16 active torsions:
REMARK  status: ('A' for Active; 'I' for Inactive)
REMARK    1  A    between atoms: C_6  and  C_7 
REMARK    2  A    between atoms: C_7  and  C_8 
REMARK    3  A    between atoms: C_8  and  C_9 
REMARK    4  A    between atoms: C_9  and  O_11 
REMARK    5  A    between atoms: C_16  and  C_17 
REMARK    6  A    between atoms: C_17  and  C_18 
REMARK    7  A    between atoms: C_18  and  C_19 
REMARK    8  A    between atoms: C_19  and  O_21 
REMARK    9  A    between atoms: C_28  and  C_29 
REMARK   10  A    between atoms: C_29  and  C_30 
REMARK   11  A    between atoms: C_30  and  C_31 
REMARK   12  A    between atoms: C_31  and  O_33 
REMARK   13  A    between atoms: C_42  and  C_43 
REMARK   14  A    between atoms: C_43  and  C_44 
REMARK   15  A    between atoms: C_44  and  C_45 
REMARK   16  A    between atoms: C_45  and  O_47 
ROOT
HETATM    1  C   UNK     0       1.571   4.139 -17.642  0.00  0.00     0.051 C 
HETATM    2  C   UNK     0       0.696   5.373 -17.569  0.00  0.00    -0.031 A 
HETATM    3  C   UNK     0      -0.180   5.888 -18.512  0.00  0.00     0.021 A 
HETATM    4  N   UNK     0      -0.728   7.029 -18.029  0.00  0.00    -0.361 N 
HETATM    5  C   UNK     0      -0.227   7.247 -16.796  0.00  0.00     0.022 A 
HETATM    6  C   UNK     0       0.668   6.232 -16.477  0.00  0.00    -0.027 A 
HETATM    7  C   UNK     0      -0.575   8.312 -15.803  0.00  0.00     0.115 C 
HETATM    8  C   UNK     0      -2.049   8.637 -15.639  0.00  0.00     0.021 A 
HETATM    9  N   UNK     0      -3.100   7.805 -15.700  0.00  0.00    -0.361 N 
HETATM   10  C   UNK     0      -4.226   8.542 -15.590  0.00  0.00     0.022 A 
HETATM   11  C   UNK     0      -3.890   9.885 -15.445  0.00  0.00    -0.027 A 
HETATM   12  C   UNK     0      -2.520   9.952 -15.475  0.00  0.00    -0.031 A 
HETATM   13  C   UNK     0      -1.704  11.218 -15.348  0.00  0.00     0.051 C 
HETATM   14  C   UNK     0      -5.657   8.020 -15.670  0.00  0.00     0.115 C 
HETATM   15  C   UNK     0      -5.998   7.357 -16.995  0.00  0.00     0.021 A 
HETATM   16  N   UNK     0      -5.392   6.298 -17.564  0.00  0.00    -0.361 N 
HETATM   17  C   UNK     0      -5.941   6.068 -18.758  0.00  0.00     0.022 A 
HETATM   18  C   UNK     0      -6.960   7.016 -18.975  0.00  0.00    -0.027 A 
HETATM   19  C   UNK     0      -6.986   7.817 -17.862  0.00  0.00    -0.031 A 
HETATM   20  C   UNK     0      -7.971   8.956 -17.666  0.00  0.00     0.051 C 
HETATM   21  C   UNK     0      -5.577   5.050 -19.815  0.00  0.00     0.115 C 
HETATM   22  C   UNK     0      -4.118   4.684 -19.959  0.00  0.00     0.022 A 
HETATM   23  N   UNK     0      -3.051   5.491 -19.899  0.00  0.00    -0.361 N 
HETATM   24  C   UNK     0      -1.940   4.727 -19.932  0.00  0.00     0.021 A 
HETATM   25  C   UNK     0      -2.301   3.397 -20.026  0.00  0.00    -0.031 A 
HETATM   26  C   UNK     0      -1.415   2.173 -20.133  0.00  0.00     0.051 C 
HETATM   27  C   UNK     0      -3.690   3.344 -20.045  0.00  0.00    -0.027 A 
HETATM   28  C   UNK     0      -0.496   5.179 -19.798  0.00  0.00     0.115 C 
HETATM   29  H   UNK     0      -1.434   7.692 -18.580  0.00  0.00     0.165 HD
HETATM   30  H   UNK     0      -3.050   6.690 -15.769  0.00  0.00     0.165 HD
HETATM   31  H   UNK     0      -4.592   5.670 -17.092  0.00  0.00     0.165 HD
HETATM   32  H   UNK     0      -3.071   6.612 -19.877  0.00  0.00     0.165 HD
ENDROOT
BRANCH   6  33
HETATM   33  C   UNK     0       1.492   6.020 -15.232  0.00  0.00     0.051 C 
BRANCH  33  34
HETATM   34  C   UNK     0       2.717   6.903 -15.244  0.00  0.00     0.114 C 
BRANCH  34  35
HETATM   35  C   UNK     0       3.865   6.081 -14.765  0.00  0.00     0.139 C 
HETATM   36  O   UNK     0       4.466   5.302 -15.561  0.00  0.00    -0.650 OA
BRANCH  35  37
HETATM   37  O   UNK     0       4.325   6.127 -13.455  0.00  0.00    -0.776 OA
HETATM   38  H   UNK     0       4.063   5.435 -12.772  0.00  0.00     0.167 HD
ENDBRANCH  35  37
ENDBRANCH  34  35
ENDBRANCH  33  34
ENDBRANCH   6  33
BRANCH  27  39
HETATM   39  C   UNK     0      -4.451   2.076 -20.210  0.00  0.00     0.051 C 
BRANCH  39  40
HETATM   40  C   UNK     0      -4.834   1.667 -21.562  0.00  0.00     0.114 C 
BRANCH  40  41
HETATM   41  C   UNK     0      -5.916   2.301 -22.281  0.00  0.00     0.139 C 
HETATM   42  O   UNK     0      -5.742   3.118 -23.195  0.00  0.00    -0.650 OA
BRANCH  41  43
HETATM   43  O   UNK     0      -7.258   1.980 -21.933  0.00  0.00    -0.776 OA
HETATM   44  H   UNK     0      -7.952   2.615 -22.309  0.00  0.00     0.167 HD
ENDBRANCH  41  43
ENDBRANCH  40  41
ENDBRANCH  39  40
ENDBRANCH  27  39
BRANCH  11  45
HETATM   45  C   UNK     0      -4.801  11.072 -15.282  0.00  0.00     0.051 C 
BRANCH  45  46
HETATM   46  C   UNK     0      -4.750  11.694 -13.934  0.00  0.00     0.114 C 
BRANCH  46  47
HETATM   47  C   UNK     0      -5.604  10.867 -13.033  0.00  0.00     0.139 C 
HETATM   48  O   UNK     0      -6.742  10.559 -13.414  0.00  0.00    -0.650 OA
BRANCH  47  49
HETATM   49  O   UNK     0      -5.141  10.455 -11.809  0.00  0.00    -0.776 OA
HETATM   50  H   UNK     0      -4.342   9.817 -11.715  0.00  0.00     0.167 HD
ENDBRANCH  47  49
ENDBRANCH  46  47
ENDBRANCH  45  46
ENDBRANCH  11  45
BRANCH  18  51
HETATM   51  C   UNK     0      -7.873   7.139 -20.167  0.00  0.00     0.051 C 
BRANCH  51  52
HETATM   52  C   UNK     0      -9.145   6.386 -19.809  0.00  0.00     0.114 C 
BRANCH  52  53
HETATM   53  C   UNK     0      -9.533   5.429 -20.863  0.00  0.00     0.139 C 
HETATM   54  O   UNK     0     -10.559   5.625 -21.534  0.00  0.00    -0.650 OA
BRANCH  53  55
HETATM   55  O   UNK     0      -8.754   4.321 -21.095  0.00  0.00    -0.776 OA
HETATM   56  H   UNK     0      -9.076   3.385 -21.166  0.00  0.00     0.167 HD
ENDBRANCH  53  55
ENDBRANCH  52  53
ENDBRANCH  51  52
ENDBRANCH  18  51
TORSDOF 16
ENDMDL
MODEL 10
REMARK VINA RESULT:      -7.4     29.646     32.136
REMARK  16 active torsions:
REMARK  status: ('A' for Active; 'I' for Inactive)
REMARK    1  A    between atoms: C_6  and  C_7 
REMARK    2  A    between atoms: C_7  and  C_8 
REMARK    3  A    between atoms: C_8  and  C_9 
REMARK    4  A    between atoms: C_9  and  O_11 
REMARK    5  A    between atoms: C_16  and  C_17 
REMARK    6  A    between atoms: C_17  and  C_18 
REMARK    7  A    between atoms: C_18  and  C_19 
REMARK    8  A    between atoms: C_19  and  O_21 
REMARK    9  A    between atoms: C_28  and  C_29 
REMARK   10  A    between atoms: C_29  and  C_30 
REMARK   11  A    between atoms: C_30  and  C_31 
REMARK   12  A    between atoms: C_31  and  O_33 
REMARK   13  A    between atoms: C_42  and  C_43 
REMARK   14  A    between atoms: C_43  and  C_44 
REMARK   15  A    between atoms: C_44  and  C_45 
REMARK   16  A    between atoms: C_45  and  O_47 
ROOT
HETATM    1  C   UNK     0       1.043  -8.899  13.135  0.00  0.00     0.051 C 
HETATM    2  C   UNK     0      -0.346  -8.574  12.624  0.00  0.00    -0.031 A 
HETATM    3  C   UNK     0      -1.466  -8.156  13.326  0.00  0.00     0.021 A 
HETATM    4  N   UNK     0      -2.500  -8.015  12.464  0.00  0.00    -0.361 N 
HETATM    5  C   UNK     0      -2.062  -8.326  11.226  0.00  0.00     0.022 A 
HETATM    6  C   UNK     0      -0.719  -8.683  11.291  0.00  0.00    -0.027 A 
HETATM    7  C   UNK     0      -2.778  -8.244   9.914  0.00  0.00     0.115 C 
HETATM    8  C   UNK     0      -3.629  -7.009   9.678  0.00  0.00     0.021 A 
HETATM    9  N   UNK     0      -3.400  -5.747  10.075  0.00  0.00    -0.361 N 
HETATM   10  C   UNK     0      -4.466  -4.997   9.724  0.00  0.00     0.022 A 
HETATM   11  C   UNK     0      -5.404  -5.796   9.075  0.00  0.00    -0.027 A 
HETATM   12  C   UNK     0      -4.883  -7.064   9.043  0.00  0.00    -0.031 A 
HETATM   13  C   UNK     0      -5.555  -8.270   8.427  0.00  0.00     0.051 C 
HETATM   14  C   UNK     0      -4.667  -3.516  10.032  0.00  0.00     0.115 C 
HETATM   15  C   UNK     0      -4.694  -3.194  11.517  0.00  0.00     0.021 A 
HETATM   16  N   UNK     0      -3.731  -3.434  12.427  0.00  0.00    -0.361 N 
HETATM   17  C   UNK     0      -4.168  -3.068  13.634  0.00  0.00     0.022 A 
HETATM   18  C   UNK     0      -5.473  -2.555  13.503  0.00  0.00    -0.027 A 
HETATM   19  C   UNK     0      -5.791  -2.639  12.172  0.00  0.00    -0.031 A 
HETATM   20  C   UNK     0      -7.105  -2.156  11.586  0.00  0.00     0.051 C 
HETATM   21  C   UNK     0      -3.505  -3.194  14.987  0.00  0.00     0.115 C 
HETATM   22  C   UNK     0      -2.620  -4.396  15.221  0.00  0.00     0.022 A 
HETATM   23  N   UNK     0      -2.821  -5.663  14.834  0.00  0.00    -0.361 N 
HETATM   24  C   UNK     0      -1.713  -6.375  15.124  0.00  0.00     0.021 A 
HETATM   25  C   UNK     0      -0.781  -5.549  15.721  0.00  0.00    -0.031 A 
HETATM   26  C   UNK     0       0.593  -5.895  16.259  0.00  0.00     0.051 C 
HETATM   27  C   UNK     0      -1.338  -4.278  15.794  0.00  0.00    -0.027 A 
HETATM   28  C   UNK     0      -1.431  -7.830  14.793  0.00  0.00     0.115 C 
HETATM   29  H   UNK     0      -3.543  -7.736  12.741  0.00  0.00     0.165 HD
HETATM   30  H   UNK     0      -2.465  -5.373  10.558  0.00  0.00     0.165 HD
HETATM   31  H   UNK     0      -2.704  -3.827  12.207  0.00  0.00     0.165 HD
HETATM   32  H   UNK     0      -3.764  -6.076  14.391  0.00  0.00     0.165 HD
ENDROOT
BRANCH   6  33
HETATM   33  C   UNK     0       0.223  -9.116  10.197  0.00  0.00     0.051 C 
BRANCH  33  34
HETATM   34  C   UNK     0       0.237 -10.621  10.067  0.00  0.00     0.114 C 
BRANCH  34  35
HETATM   35  C   UNK     0       0.946 -10.953   8.798  0.00  0.00     0.139 C 
HETATM   36  O   UNK     0       0.456 -11.803   7.998  0.00  0.00    -0.650 OA
BRANCH  35  37
HETATM   37  O   UNK     0       2.149 -10.361   8.434  0.00  0.00    -0.776 OA
HETATM   38  H   UNK     0       2.855 -10.858   7.917  0.00  0.00     0.167 HD
ENDBRANCH  35  37
ENDBRANCH  34  35
ENDBRANCH  33  34
ENDBRANCH   6  33
BRANCH  27  39
HETATM   39  C   UNK     0      -0.652  -3.128  16.445  0.00  0.00     0.051 C 
BRANCH  39  40
HETATM   40  C   UNK     0      -0.068  -2.095  15.591  0.00  0.00     0.114 C 
BRANCH  40  41
HETATM   41  C   UNK     0       0.950  -2.392  14.608  0.00  0.00     0.139 C 
HETATM   42  O   UNK     0       0.700  -2.649  13.422  0.00  0.00    -0.650 OA
BRANCH  41  43
HETATM   43  O   UNK     0       2.317  -2.394  15.006  0.00  0.00    -0.776 OA
HETATM   44  H   UNK     0       2.472  -2.123  15.970  0.00  0.00     0.167 HD
ENDBRANCH  41  43
ENDBRANCH  40  41
ENDBRANCH  39  40
ENDBRANCH  27  39
BRANCH  11  45
HETATM   45  C   UNK     0      -6.738  -5.403   8.500  0.00  0.00     0.051 C 
BRANCH  45  46
HETATM   46  C   UNK     0      -7.858  -5.461   9.473  0.00  0.00     0.114 C 
BRANCH  46  47
HETATM   47  C   UNK     0      -9.003  -4.718   8.873  0.00  0.00     0.139 C 
HETATM   48  O   UNK     0      -9.133  -3.515   9.139  0.00  0.00    -0.650 OA
BRANCH  47  49
HETATM   49  O   UNK     0      -9.896  -5.352   8.046  0.00  0.00    -0.776 OA
HETATM   50  H   UNK     0     -10.270  -4.902   7.202  0.00  0.00     0.167 HD
ENDBRANCH  47  49
ENDBRANCH  46  47
ENDBRANCH  45  46
ENDBRANCH  11  45
BRANCH  18  51
HETATM   51  C   UNK     0      -6.362  -1.996  14.584  0.00  0.00     0.051 C 
BRANCH  51  52
HETATM   52  C   UNK     0      -5.959  -0.539  14.756  0.00  0.00     0.114 C 
BRANCH  52  53
HETATM   53  C   UNK     0      -7.129   0.332  14.975  0.00  0.00     0.139 C 
HETATM   54  O   UNK     0      -7.768   0.771  14.006  0.00  0.00    -0.650 OA
BRANCH  53  55
HETATM   55  O   UNK     0      -7.504   0.658  16.257  0.00  0.00    -0.776 OA
HETATM   56  H   UNK     0      -7.956   0.055  16.904  0.00  0.00     0.167 HD
ENDBRANCH  53  55
ENDBRANCH  52  53
ENDBRANCH  51  52
ENDBRANCH  18  51
TORSDOF 16
ENDMDL
MODEL 11
REMARK VINA RESULT:      -7.3     15.743     19.999
REMARK  16 active torsions:
REMARK  status: ('A' for Active; 'I' for Inactive)
REMARK    1  A    between atoms: C_6  and  C_7 
REMARK    2  A    between atoms: C_7  and  C_8 
REMARK    3  A    between atoms: C_8  and  C_9 
REMARK    4  A    between atoms: C_9  and  O_11 
REMARK    5  A    between atoms: C_16  and  C_17 
REMARK    6  A    between atoms: C_17  and  C_18 
REMARK    7  A    between atoms: C_18  and  C_19 
REMARK    8  A    between atoms: C_19  and  O_21 
REMARK    9  A    between atoms: C_28  and  C_29 
REMARK   10  A    between atoms: C_29  and  C_30 
REMARK   11  A    between atoms: C_30  and  C_31 
REMARK   12  A    between atoms: C_31  and  O_33 
REMARK   13  A    between atoms: C_42  and  C_43 
REMARK   14  A    between atoms: C_43  and  C_44 
REMARK   15  A    between atoms: C_44  and  C_45 
REMARK   16  A    between atoms: C_45  and  O_47 
ROOT
HETATM    1  C   UNK     0      -0.868   8.262 -15.686  0.00  0.00     0.051 C 
HETATM    2  C   UNK     0      -1.759   7.644 -16.744  0.00  0.00    -0.031 A 
HETATM    3  C   UNK     0      -1.421   7.113 -17.979  0.00  0.00     0.021 A 
HETATM    4  N   UNK     0      -2.549   6.700 -18.605  0.00  0.00    -0.361 N 
HETATM    5  C   UNK     0      -3.597   6.949 -17.793  0.00  0.00     0.022 A 
HETATM    6  C   UNK     0      -3.139   7.542 -16.621  0.00  0.00    -0.027 A 
HETATM    7  C   UNK     0      -5.042   6.602 -17.970  0.00  0.00     0.115 C 
HETATM    8  C   UNK     0      -5.349   5.218 -18.515  0.00  0.00     0.021 A 
HETATM    9  N   UNK     0      -4.698   4.066 -18.286  0.00  0.00    -0.361 N 
HETATM   10  C   UNK     0      -5.263   3.107 -19.049  0.00  0.00     0.022 A 
HETATM   11  C   UNK     0      -6.312   3.653 -19.782  0.00  0.00    -0.027 A 
HETATM   12  C   UNK     0      -6.372   4.983 -19.450  0.00  0.00    -0.031 A 
HETATM   13  C   UNK     0      -7.368   5.978 -20.002  0.00  0.00     0.051 C 
HETATM   14  C   UNK     0      -4.805   1.655 -19.157  0.00  0.00     0.115 C 
HETATM   15  C   UNK     0      -3.386   1.494 -19.677  0.00  0.00     0.021 A 
HETATM   16  N   UNK     0      -2.255   1.997 -19.147  0.00  0.00    -0.361 N 
HETATM   17  C   UNK     0      -1.226   1.690 -19.940  0.00  0.00     0.022 A 
HETATM   18  C   UNK     0      -1.707   0.944 -21.034  0.00  0.00    -0.027 A 
HETATM   19  C   UNK     0      -3.061   0.828 -20.857  0.00  0.00    -0.031 A 
HETATM   20  C   UNK     0      -3.972   0.061 -21.798  0.00  0.00     0.051 C 
HETATM   21  C   UNK     0       0.232   2.076 -19.832  0.00  0.00     0.115 C 
HETATM   22  C   UNK     0       0.554   3.433 -19.251  0.00  0.00     0.022 A 
HETATM   23  N   UNK     0      -0.079   4.596 -19.458  0.00  0.00    -0.361 N 
HETATM   24  C   UNK     0       0.450   5.519 -18.630  0.00  0.00     0.021 A 
HETATM   25  C   UNK     0       1.454   4.940 -17.879  0.00  0.00    -0.031 A 
HETATM   26  C   UNK     0       2.362   5.578 -16.848  0.00  0.00     0.051 C 
HETATM   27  C   UNK     0       1.540   3.605 -18.259  0.00  0.00    -0.027 A 
HETATM   28  C   UNK     0       0.002   6.957 -18.434  0.00  0.00     0.115 C 
HETATM   29  H   UNK     0      -2.601   6.273 -19.633  0.00  0.00     0.165 HD
HETATM   30  H   UNK     0      -3.872   3.916 -17.548  0.00  0.00     0.165 HD
HETATM   31  H   UNK     0      -2.174   2.538 -18.169  0.00  0.00     0.165 HD
HETATM   32  H   UNK     0      -0.877   4.786 -20.222  0.00  0.00     0.165 HD
ENDROOT
BRANCH   6  33
HETATM   33  C   UNK     0      -3.903   8.015 -15.410  0.00  0.00     0.051 C 
BRANCH  33  34
HETATM   34  C   UNK     0      -4.420   9.418 -15.618  0.00  0.00     0.114 C 
BRANCH  34  35
HETATM   35  C   UNK     0      -5.387   9.705 -14.520  0.00  0.00     0.139 C 
HETATM   36  O   UNK     0      -6.587  10.006 -14.790  0.00  0.00    -0.650 OA
BRANCH  35  37
HETATM   37  O   UNK     0      -5.033   9.656 -13.178  0.00  0.00    -0.776 OA
HETATM   38  H   UNK     0      -4.412   8.951 -12.814  0.00  0.00     0.167 HD
ENDBRANCH  35  37
ENDBRANCH  34  35
ENDBRANCH  33  34
ENDBRANCH   6  33
BRANCH  27  39
HETATM   39  C   UNK     0       2.563   2.671 -17.714  0.00  0.00     0.051 C 
BRANCH  39  40
HETATM   40  C   UNK     0       2.525   2.356 -16.286  0.00  0.00     0.114 C 
BRANCH  40  41
HETATM   41  C   UNK     0       2.658   1.005 -15.792  0.00  0.00     0.139 C 
HETATM   42  O   UNK     0       3.617   0.269 -16.062  0.00  0.00    -0.650 OA
BRANCH  41  43
HETATM   43  O   UNK     0       1.641   0.474 -14.948  0.00  0.00    -0.776 OA
HETATM   44  H   UNK     0       1.087  -0.260 -15.370  0.00  0.00     0.167 HD
ENDBRANCH  41  43
ENDBRANCH  40  41
ENDBRANCH  39  40
ENDBRANCH  27  39
BRANCH  11  45
HETATM   45  C   UNK     0      -7.235   2.972 -20.757  0.00  0.00     0.051 C 
BRANCH  45  46
HETATM   46  C   UNK     0      -6.646   2.765 -22.105  0.00  0.00     0.114 C 
BRANCH  46  47
HETATM   47  C   UNK     0      -7.722   2.212 -22.977  0.00  0.00     0.139 C 
HETATM   48  O   UNK     0      -7.423   1.828 -24.116  0.00  0.00    -0.650 OA
BRANCH  47  49
HETATM   49  O   UNK     0      -9.017   2.131 -22.529  0.00  0.00    -0.776 OA
HETATM   50  H   UNK     0      -9.245   1.844 -21.570  0.00  0.00     0.167 HD
ENDBRANCH  47  49
ENDBRANCH  46  47
ENDBRANCH  45  46
ENDBRANCH  11  45
BRANCH  18  51
HETATM   51  C   UNK     0      -0.917   0.357 -22.174  0.00  0.00     0.051 C 
BRANCH  51  52
HETATM   52  C   UNK     0      -0.936   1.396 -23.286  0.00  0.00     0.114 C 
BRANCH  52  53
HETATM   53  C   UNK     0      -1.495   0.850 -24.538  0.00  0.00     0.139 C 
HETATM   54  O   UNK     0      -1.852  -0.337 -24.594  0.00  0.00    -0.650 OA
BRANCH  53  55
HETATM   55  O   UNK     0      -1.613   1.662 -25.640  0.00  0.00    -0.776 OA
HETATM   56  H   UNK     0      -1.055   1.619 -26.459  0.00  0.00     0.167 HD
ENDBRANCH  53  55
ENDBRANCH  52  53
ENDBRANCH  51  52
ENDBRANCH  18  51
TORSDOF 16
ENDMDL
MODEL 12
REMARK VINA RESULT:      -7.3     29.533     32.149
REMARK  16 active torsions:
REMARK  status: ('A' for Active; 'I' for Inactive)
REMARK    1  A    between atoms: C_6  and  C_7 
REMARK    2  A    between atoms: C_7  and  C_8 
REMARK    3  A    between atoms: C_8  and  C_9 
REMARK    4  A    between atoms: C_9  and  O_11 
REMARK    5  A    between atoms: C_16  and  C_17 
REMARK    6  A    between atoms: C_17  and  C_18 
REMARK    7  A    between atoms: C_18  and  C_19 
REMARK    8  A    between atoms: C_19  and  O_21 
REMARK    9  A    between atoms: C_28  and  C_29 
REMARK   10  A    between atoms: C_29  and  C_30 
REMARK   11  A    between atoms: C_30  and  C_31 
REMARK   12  A    between atoms: C_31  and  O_33 
REMARK   13  A    between atoms: C_42  and  C_43 
REMARK   14  A    between atoms: C_43  and  C_44 
REMARK   15  A    between atoms: C_44  and  C_45 
REMARK   16  A    between atoms: C_45  and  O_47 
ROOT
HETATM    1  C   UNK     0       2.007  -8.889  14.830  0.00  0.00     0.051 C 
HETATM    2  C   UNK     0       0.635  -8.736  14.206  0.00  0.00    -0.031 A 
HETATM    3  C   UNK     0      -0.538  -8.256  14.767  0.00  0.00     0.021 A 
HETATM    4  N   UNK     0      -1.529  -8.329  13.847  0.00  0.00    -0.361 N 
HETATM    5  C   UNK     0      -1.011  -8.837  12.709  0.00  0.00     0.022 A 
HETATM    6  C   UNK     0       0.340  -9.105  12.900  0.00  0.00    -0.027 A 
HETATM    7  C   UNK     0      -1.657  -9.033  11.373  0.00  0.00     0.115 C 
HETATM    8  C   UNK     0      -2.546  -7.907  10.875  0.00  0.00     0.021 A 
HETATM    9  N   UNK     0      -2.393  -6.584  11.041  0.00  0.00    -0.361 N 
HETATM   10  C   UNK     0      -3.470  -5.967  10.510  0.00  0.00     0.022 A 
HETATM   11  C   UNK     0      -4.336  -6.918   9.978  0.00  0.00    -0.027 A 
HETATM   12  C   UNK     0      -3.760  -8.143  10.204  0.00  0.00    -0.031 A 
HETATM   13  C   UNK     0      -4.346  -9.474   9.791  0.00  0.00     0.051 C 
HETATM   14  C   UNK     0      -3.751  -4.467  10.529  0.00  0.00     0.115 C 
HETATM   15  C   UNK     0      -3.872  -3.882  11.927  0.00  0.00     0.021 A 
HETATM   16  N   UNK     0      -2.951  -3.902  12.909  0.00  0.00    -0.361 N 
HETATM   17  C   UNK     0      -3.468  -3.344  14.006  0.00  0.00     0.022 A 
HETATM   18  C   UNK     0      -4.786  -2.933  13.723  0.00  0.00    -0.027 A 
HETATM   19  C   UNK     0      -5.026  -3.274  12.417  0.00  0.00    -0.031 A 
HETATM   20  C   UNK     0      -6.326  -2.976  11.692  0.00  0.00     0.051 C 
HETATM   21  C   UNK     0      -2.875  -3.188  15.388  0.00  0.00     0.115 C 
HETATM   22  C   UNK     0      -1.953  -4.279  15.879  0.00  0.00     0.022 A 
HETATM   23  N   UNK     0      -2.079  -5.603  15.724  0.00  0.00    -0.361 N 
HETATM   24  C   UNK     0      -0.959  -6.192  16.191  0.00  0.00     0.021 A 
HETATM   25  C   UNK     0      -0.097  -5.224  16.668  0.00  0.00    -0.031 A 
HETATM   26  C   UNK     0       1.259  -5.393  17.322  0.00  0.00     0.051 C 
HETATM   27  C   UNK     0      -0.711  -3.991  16.479  0.00  0.00    -0.027 A 
HETATM   28  C   UNK     0      -0.597  -7.667  16.148  0.00  0.00     0.115 C 
HETATM   29  H   UNK     0      -2.596  -8.058  14.020  0.00  0.00     0.165 HD
HETATM   30  H   UNK     0      -1.503  -6.079  11.489  0.00  0.00     0.165 HD
HETATM   31  H   UNK     0      -1.898  -4.273  12.812  0.00  0.00     0.165 HD
HETATM   32  H   UNK     0      -2.978  -6.139  15.323  0.00  0.00     0.165 HD
ENDROOT
BRANCH   6  33
HETATM   33  C   UNK     0       1.359  -9.681  11.949  0.00  0.00     0.051 C 
BRANCH  33  34
HETATM   34  C   UNK     0       1.687  -8.693  10.854  0.00  0.00     0.114 C 
BRANCH  34  35
HETATM   35  C   UNK     0       2.809  -7.841  11.343  0.00  0.00     0.139 C 
HETATM   36  O   UNK     0       2.648  -6.593  11.480  0.00  0.00    -0.650 OA
BRANCH  35  37
HETATM   37  O   UNK     0       4.056  -8.359  11.669  0.00  0.00    -0.776 OA
HETATM   38  H   UNK     0       4.900  -7.816  11.578  0.00  0.00     0.167 HD
ENDBRANCH  35  37
ENDBRANCH  34  35
ENDBRANCH  33  34
ENDBRANCH   6  33
BRANCH  27  39
HETATM   39  C   UNK     0      -0.112  -2.708  16.938  0.00  0.00     0.051 C 
BRANCH  39  40
HETATM   40  C   UNK     0       0.574  -1.872  15.953  0.00  0.00     0.114 C 
BRANCH  40  41
HETATM   41  C   UNK     0       1.126  -2.414  14.732  0.00  0.00     0.139 C 
HETATM   42  O   UNK     0       0.533  -2.395  13.645  0.00  0.00    -0.650 OA
BRANCH  41  43
HETATM   43  O   UNK     0       2.421  -3.006  14.763  0.00  0.00    -0.776 OA
HETATM   44  H   UNK     0       3.112  -2.476  15.279  0.00  0.00     0.167 HD
ENDBRANCH  41  43
ENDBRANCH  40  41
ENDBRANCH  39  40
ENDBRANCH  27  39
BRANCH  11  45
HETATM   45  C   UNK     0      -5.652  -6.708   9.279  0.00  0.00     0.051 C 
BRANCH  45  46
HETATM   46  C   UNK     0      -5.536  -6.520   7.811  0.00  0.00     0.114 C 
BRANCH  46  47
HETATM   47  C   UNK     0      -6.060  -5.160   7.496  0.00  0.00     0.139 C 
HETATM   48  O   UNK     0      -7.237  -4.899   7.780  0.00  0.00    -0.650 OA
BRANCH  47  49
HETATM   49  O   UNK     0      -5.258  -4.218   6.903  0.00  0.00    -0.776 OA
HETATM   50  H   UNK     0      -4.367  -3.922   7.318  0.00  0.00     0.167 HD
ENDBRANCH  47  49
ENDBRANCH  46  47
ENDBRANCH  45  46
ENDBRANCH  11  45
BRANCH  18  51
HETATM   51  C   UNK     0      -5.755  -2.234  14.640  0.00  0.00     0.051 C 
BRANCH  51  52
HETATM   52  C   UNK     0      -5.439  -0.749  14.542  0.00  0.00     0.114 C 
BRANCH  52  53
HETATM   53  C   UNK     0      -6.595   0.085  14.924  0.00  0.00     0.139 C 
HETATM   54  O   UNK     0      -7.294   0.618  14.047  0.00  0.00    -0.650 OA
BRANCH  53  55
HETATM   55  O   UNK     0      -6.890   0.271  16.253  0.00  0.00    -0.776 OA
HETATM   56  H   UNK     0      -6.325  -0.008  17.020  0.00  0.00     0.167 HD
ENDBRANCH  53  55
ENDBRANCH  52  53
ENDBRANCH  51  52
ENDBRANCH  18  51
TORSDOF 16
ENDMDL
MODEL 13
REMARK VINA RESULT:      -7.2      2.079      7.181
REMARK  16 active torsions:
REMARK  status: ('A' for Active; 'I' for Inactive)
REMARK    1  A    between atoms: C_6  and  C_7 
REMARK    2  A    between atoms: C_7  and  C_8 
REMARK    3  A    between atoms: C_8  and  C_9 
REMARK    4  A    between atoms: C_9  and  O_11 
REMARK    5  A    between atoms: C_16  and  C_17 
REMARK    6  A    between atoms: C_17  and  C_18 
REMARK    7  A    between atoms: C_18  and  C_19 
REMARK    8  A    between atoms: C_19  and  O_21 
REMARK    9  A    between atoms: C_28  and  C_29 
REMARK   10  A    between atoms: C_29  and  C_30 
REMARK   11  A    between atoms: C_30  and  C_31 
REMARK   12  A    between atoms: C_31  and  O_33 
REMARK   13  A    between atoms: C_42  and  C_43 
REMARK   14  A    between atoms: C_43  and  C_44 
REMARK   15  A    between atoms: C_44  and  C_45 
REMARK   16  A    between atoms: C_45  and  O_47 
ROOT
HETATM    1  C   UNK     0       4.802  15.827  -8.626  0.00  0.00     0.051 C 
HETATM    2  C   UNK     0       5.987  16.129  -7.731  0.00  0.00    -0.031 A 
HETATM    3  C   UNK     0       6.887  15.256  -7.139  0.00  0.00     0.021 A 
HETATM    4  N   UNK     0       7.767  15.968  -6.395  0.00  0.00    -0.361 N 
HETATM    5  C   UNK     0       7.454  17.275  -6.508  0.00  0.00     0.022 A 
HETATM    6  C   UNK     0       6.343  17.411  -7.335  0.00  0.00    -0.027 A 
HETATM    7  C   UNK     0       8.164  18.475  -5.965  0.00  0.00     0.115 C 
HETATM    8  C   UNK     0       9.679  18.474  -6.066  0.00  0.00     0.021 A 
HETATM    9  N   UNK     0      10.451  17.977  -7.045  0.00  0.00    -0.361 N 
HETATM   10  C   UNK     0      11.741  18.115  -6.672  0.00  0.00     0.022 A 
HETATM   11  C   UNK     0      11.802  18.727  -5.423  0.00  0.00    -0.027 A 
HETATM   12  C   UNK     0      10.507  18.956  -5.036  0.00  0.00    -0.031 A 
HETATM   13  C   UNK     0      10.085  19.612  -3.740  0.00  0.00     0.051 C 
HETATM   14  C   UNK     0      12.961  17.630  -7.450  0.00  0.00     0.115 C 
HETATM   15  C   UNK     0      12.992  16.126  -7.672  0.00  0.00     0.021 A 
HETATM   16  N   UNK     0      12.071  15.369  -8.298  0.00  0.00    -0.361 N 
HETATM   17  C   UNK     0      12.432  14.086  -8.221  0.00  0.00     0.022 A 
HETATM   18  C   UNK     0      13.651  14.004  -7.519  0.00  0.00    -0.027 A 
HETATM   19  C   UNK     0      13.991  15.288  -7.182  0.00  0.00    -0.031 A 
HETATM   20  C   UNK     0      15.264  15.657  -6.442  0.00  0.00     0.051 C 
HETATM   21  C   UNK     0      11.713  12.844  -8.696  0.00  0.00     0.115 C 
HETATM   22  C   UNK     0      10.203  12.848  -8.642  0.00  0.00     0.022 A 
HETATM   23  N   UNK     0       9.408  13.340  -7.682  0.00  0.00    -0.361 N 
HETATM   24  C   UNK     0       8.132  13.263  -8.109  0.00  0.00     0.021 A 
HETATM   25  C   UNK     0       8.103  12.698  -9.370  0.00  0.00    -0.031 A 
HETATM   26  C   UNK     0       6.908  12.370 -10.240  0.00  0.00     0.051 C 
HETATM   27  C   UNK     0       9.417  12.424  -9.732  0.00  0.00    -0.027 A 
HETATM   28  C   UNK     0       6.885  13.779  -7.411  0.00  0.00     0.115 C 
HETATM   29  H   UNK     0       8.580  15.539  -5.764  0.00  0.00     0.165 HD
HETATM   30  H   UNK     0      10.090  17.573  -8.022  0.00  0.00     0.165 HD
HETATM   31  H   UNK     0      11.172  15.752  -8.848  0.00  0.00     0.165 HD
HETATM   32  H   UNK     0       9.738  13.707  -6.676  0.00  0.00     0.165 HD
ENDROOT
BRANCH   6  33
HETATM   33  C   UNK     0       5.602  18.651  -7.769  0.00  0.00     0.051 C 
BRANCH  33  34
HETATM   34  C   UNK     0       4.482  18.969  -6.807  0.00  0.00     0.114 C 
BRANCH  34  35
HETATM   35  C   UNK     0       4.917  20.136  -5.986  0.00  0.00     0.139 C 
HETATM   36  O   UNK     0       5.571  21.080  -6.517  0.00  0.00    -0.650 OA
BRANCH  35  37
HETATM   37  O   UNK     0       4.631  20.247  -4.631  0.00  0.00    -0.776 OA
HETATM   38  H   UNK     0       5.173  19.768  -3.929  0.00  0.00     0.167 HD
ENDBRANCH  35  37
ENDBRANCH  34  35
ENDBRANCH  33  34
ENDBRANCH   6  33
BRANCH  27  39
HETATM   39  C   UNK     0       9.782  11.742 -11.003  0.00  0.00     0.051 C 
BRANCH  39  40
HETATM   40  C   UNK     0      10.018  12.565 -12.189  0.00  0.00     0.114 C 
BRANCH  40  41
HETATM   41  C   UNK     0      10.970  13.652 -12.196  0.00  0.00     0.139 C 
HETATM   42  O   UNK     0      10.695  14.804 -11.831  0.00  0.00    -0.650 OA
BRANCH  41  43
HETATM   43  O   UNK     0      12.299  13.404 -12.641  0.00  0.00    -0.776 OA
HETATM   44  H   UNK     0      12.363  12.813 -13.461  0.00  0.00     0.167 HD
ENDBRANCH  41  43
ENDBRANCH  40  41
ENDBRANCH  39  40
ENDBRANCH  27  39
BRANCH  11  45
HETATM   45  C   UNK     0      13.016  19.092  -4.612  0.00  0.00     0.051 C 
BRANCH  45  46
HETATM   46  C   UNK     0      13.638  20.384  -5.000  0.00  0.00     0.114 C 
BRANCH  46  47
HETATM   47  C   UNK     0      13.597  21.271  -3.803  0.00  0.00     0.139 C 
HETATM   48  O   UNK     0      12.574  21.939  -3.595  0.00  0.00    -0.650 OA
BRANCH  47  49
HETATM   49  O   UNK     0      14.668  21.350  -2.949  0.00  0.00    -0.776 OA
HETATM   50  H   UNK     0      15.572  21.737  -3.243  0.00  0.00     0.167 HD
ENDBRANCH  47  49
ENDBRANCH  46  47
ENDBRANCH  45  46
ENDBRANCH  11  45
BRANCH  18  51
HETATM   51  C   UNK     0      14.457  12.771  -7.205  0.00  0.00     0.051 C 
BRANCH  51  52
HETATM   52  C   UNK     0      13.835  12.160  -5.958  0.00  0.00     0.114 C 
BRANCH  52  53
HETATM   53  C   UNK     0      13.488  10.739  -6.157  0.00  0.00     0.139 C 
HETATM   54  O   UNK     0      14.385   9.902  -6.349  0.00  0.00    -0.650 OA
BRANCH  53  55
HETATM   55  O   UNK     0      12.171  10.351  -6.131  0.00  0.00    -0.776 OA
HETATM   56  H   UNK     0      11.661   9.966  -6.891  0.00  0.00     0.167 HD
ENDBRANCH  53  55
ENDBRANCH  52  53
ENDBRANCH  51  52
ENDBRANCH  18  51
TORSDOF 16
ENDMDL
MODEL 14
REMARK VINA RESULT:      -7.1      4.228     11.431
REMARK  16 active torsions:
REMARK  status: ('A' for Active; 'I' for Inactive)
REMARK    1  A    between atoms: C_6  and  C_7 
REMARK    2  A    between atoms: C_7  and  C_8 
REMARK    3  A    between atoms: C_8  and  C_9 
REMARK    4  A    between atoms: C_9  and  O_11 
REMARK    5  A    between atoms: C_16  and  C_17 
REMARK    6  A    between atoms: C_17  and  C_18 
REMARK    7  A    between atoms: C_18  and  C_19 
REMARK    8  A    between atoms: C_19  and  O_21 
REMARK    9  A    between atoms: C_28  and  C_29 
REMARK   10  A    between atoms: C_29  and  C_30 
REMARK   11  A    between atoms: C_30  and  C_31 
REMARK   12  A    between atoms: C_31  and  O_33 
REMARK   13  A    between atoms: C_42  and  C_43 
REMARK   14  A    between atoms: C_43  and  C_44 
REMARK   15  A    between atoms: C_44  and  C_45 
REMARK   16  A    between atoms: C_45  and  O_47 
ROOT
HETATM    1  C   UNK     0       3.814  14.936  -8.601  0.00  0.00     0.051 C 
HETATM    2  C   UNK     0       4.856  15.921  -8.112  0.00  0.00    -0.031 A 
HETATM    3  C   UNK     0       4.779  17.300  -8.000  0.00  0.00     0.021 A 
HETATM    4  N   UNK     0       5.963  17.773  -7.544  0.00  0.00    -0.361 N 
HETATM    5  C   UNK     0       6.790  16.724  -7.355  0.00  0.00     0.022 A 
HETATM    6  C   UNK     0       6.130  15.550  -7.703  0.00  0.00    -0.027 A 
HETATM    7  C   UNK     0       8.172  16.693  -6.780  0.00  0.00     0.115 C 
HETATM    8  C   UNK     0       8.419  17.553  -5.553  0.00  0.00     0.021 A 
HETATM    9  N   UNK     0       7.582  17.822  -4.538  0.00  0.00    -0.361 N 
HETATM   10  C   UNK     0       8.190  18.703  -3.716  0.00  0.00     0.022 A 
HETATM   11  C   UNK     0       9.456  19.003  -4.210  0.00  0.00    -0.027 A 
HETATM   12  C   UNK     0       9.607  18.282  -5.366  0.00  0.00    -0.031 A 
HETATM   13  C   UNK     0      10.836  18.289  -6.247  0.00  0.00     0.051 C 
HETATM   14  C   UNK     0       7.584  19.336  -2.467  0.00  0.00     0.115 C 
HETATM   15  C   UNK     0       6.338  20.164  -2.739  0.00  0.00     0.021 A 
HETATM   16  N   UNK     0       5.187  19.754  -3.305  0.00  0.00    -0.361 N 
HETATM   17  C   UNK     0       4.364  20.798  -3.431  0.00  0.00     0.022 A 
HETATM   18  C   UNK     0       5.006  21.941  -2.913  0.00  0.00    -0.027 A 
HETATM   19  C   UNK     0       6.241  21.530  -2.482  0.00  0.00    -0.031 A 
HETATM   20  C   UNK     0       7.251  22.447  -1.818  0.00  0.00     0.051 C 
HETATM   21  C   UNK     0       2.994  20.885  -4.063  0.00  0.00     0.115 C 
HETATM   22  C   UNK     0       2.720  20.003  -5.258  0.00  0.00     0.022 A 
HETATM   23  N   UNK     0       3.536  19.714  -6.281  0.00  0.00    -0.361 N 
HETATM   24  C   UNK     0       2.941  18.775  -7.045  0.00  0.00     0.021 A 
HETATM   25  C   UNK     0       1.708  18.460  -6.507  0.00  0.00    -0.031 A 
HETATM   26  C   UNK     0       0.660  17.497  -7.025  0.00  0.00     0.051 C 
HETATM   27  C   UNK     0       1.544  19.233  -5.363  0.00  0.00    -0.027 A 
HETATM   28  C   UNK     0       3.513  18.067  -8.261  0.00  0.00     0.115 C 
HETATM   29  H   UNK     0       6.219  18.848  -7.398  0.00  0.00     0.165 HD
HETATM   30  H   UNK     0       6.581  17.353  -4.373  0.00  0.00     0.165 HD
HETATM   31  H   UNK     0       4.930  18.698  -3.578  0.00  0.00     0.165 HD
HETATM   32  H   UNK     0       4.521  20.202  -6.497  0.00  0.00     0.165 HD
ENDROOT
BRANCH   6  33
HETATM   33  C   UNK     0       6.614  14.122  -7.679  0.00  0.00     0.051 C 
BRANCH  33  34
HETATM   34  C   UNK     0       7.367  13.791  -8.946  0.00  0.00     0.114 C 
BRANCH  34  35
HETATM   35  C   UNK     0       8.487  12.880  -8.574  0.00  0.00     0.139 C 
HETATM   36  O   UNK     0       9.056  12.996  -7.449  0.00  0.00    -0.650 OA
BRANCH  35  37
HETATM   37  O   UNK     0       8.952  11.880  -9.419  0.00  0.00    -0.776 OA
HETATM   38  H   UNK     0       8.896  11.959 -10.421  0.00  0.00     0.167 HD
ENDBRANCH  35  37
ENDBRANCH  34  35
ENDBRANCH  33  34
ENDBRANCH   6  33
BRANCH  27  39
HETATM   39  C   UNK     0       0.299  19.220  -4.547  0.00  0.00     0.051 C 
BRANCH  39  40
HETATM   40  C   UNK     0      -0.053  17.990  -3.838  0.00  0.00     0.114 C 
BRANCH  40  41
HETATM   41  C   UNK     0      -0.573  18.001  -2.489  0.00  0.00     0.139 C 
HETATM   42  O   UNK     0      -1.662  18.504  -2.181  0.00  0.00    -0.650 OA
BRANCH  41  43
HETATM   43  O   UNK     0       0.193  17.406  -1.448  0.00  0.00    -0.776 OA
HETATM   44  H   UNK     0       0.735  16.599  -1.735  0.00  0.00     0.167 HD
ENDBRANCH  41  43
ENDBRANCH  40  41
ENDBRANCH  39  40
ENDBRANCH  27  39
BRANCH  11  45
HETATM   45  C   UNK     0      10.498  19.924  -3.633  0.00  0.00     0.051 C 
BRANCH  45  46
HETATM   46  C   UNK     0      10.389  21.330  -4.099  0.00  0.00     0.114 C 
BRANCH  46  47
HETATM   47  C   UNK     0      11.204  22.167  -3.173  0.00  0.00     0.139 C 
HETATM   48  O   UNK     0      10.642  22.703  -2.208  0.00  0.00    -0.650 OA
BRANCH  47  49
HETATM   49  O   UNK     0      12.549  22.341  -3.383  0.00  0.00    -0.776 OA
HETATM   50  H   UNK     0      13.079  21.755  -4.040  0.00  0.00     0.167 HD
ENDBRANCH  47  49
ENDBRANCH  46  47
ENDBRANCH  45  46
ENDBRANCH  11  45
BRANCH  18  51
HETATM   51  C   UNK     0       4.465  23.343  -2.815  0.00  0.00     0.051 C 
BRANCH  51  52
HETATM   52  C   UNK     0       4.903  24.059  -4.085  0.00  0.00     0.114 C 
BRANCH  52  53
HETATM   53  C   UNK     0       5.644  25.300  -3.788  0.00  0.00     0.139 C 
HETATM   54  O   UNK     0       5.617  25.781  -2.644  0.00  0.00    -0.650 OA
BRANCH  53  55
HETATM   55  O   UNK     0       6.359  25.919  -4.784  0.00  0.00    -0.776 OA
HETATM   56  H   UNK     0       6.963  25.473  -5.433  0.00  0.00     0.167 HD
ENDBRANCH  53  55
ENDBRANCH  52  53
ENDBRANCH  51  52
ENDBRANCH  18  51
TORSDOF 16
ENDMDL
MODEL 15
REMARK VINA RESULT:      -7.1     29.191     31.963
REMARK  16 active torsions:
REMARK  status: ('A' for Active; 'I' for Inactive)
REMARK    1  A    between atoms: C_6  and  C_7 
REMARK    2  A    between atoms: C_7  and  C_8 
REMARK    3  A    between atoms: C_8  and  C_9 
REMARK    4  A    between atoms: C_9  and  O_11 
REMARK    5  A    between atoms: C_16  and  C_17 
REMARK    6  A    between atoms: C_17  and  C_18 
REMARK    7  A    between atoms: C_18  and  C_19 
REMARK    8  A    between atoms: C_19  and  O_21 
REMARK    9  A    between atoms: C_28  and  C_29 
REMARK   10  A    between atoms: C_29  and  C_30 
REMARK   11  A    between atoms: C_30  and  C_31 
REMARK   12  A    between atoms: C_31  and  O_33 
REMARK   13  A    between atoms: C_42  and  C_43 
REMARK   14  A    between atoms: C_43  and  C_44 
REMARK   15  A    between atoms: C_44  and  C_45 
REMARK   16  A    between atoms: C_45  and  O_47 
ROOT
HETATM    1  C   UNK     0      -7.485  -4.200  13.743  0.00  0.00     0.051 C 
HETATM    2  C   UNK     0      -6.053  -4.526  14.117  0.00  0.00    -0.031 A 
HETATM    3  C   UNK     0      -5.319  -5.675  13.867  0.00  0.00     0.021 A 
HETATM    4  N   UNK     0      -4.087  -5.538  14.414  0.00  0.00    -0.361 N 
HETATM    5  C   UNK     0      -4.018  -4.324  14.998  0.00  0.00     0.022 A 
HETATM    6  C   UNK     0      -5.232  -3.666  14.834  0.00  0.00    -0.027 A 
HETATM    7  C   UNK     0      -2.856  -3.649  15.657  0.00  0.00     0.115 C 
HETATM    8  C   UNK     0      -1.512  -3.773  14.961  0.00  0.00     0.021 A 
HETATM    9  N   UNK     0      -1.251  -3.799  13.644  0.00  0.00    -0.361 N 
HETATM   10  C   UNK     0       0.071  -4.016  13.483  0.00  0.00     0.022 A 
HETATM   11  C   UNK     0       0.681  -4.123  14.730  0.00  0.00    -0.027 A 
HETATM   12  C   UNK     0      -0.311  -3.972  15.665  0.00  0.00    -0.031 A 
HETATM   13  C   UNK     0      -0.112  -4.010  17.164  0.00  0.00     0.051 C 
HETATM   14  C   UNK     0       0.802  -4.182  12.154  0.00  0.00     0.115 C 
HETATM   15  C   UNK     0       0.318  -5.364  11.329  0.00  0.00     0.021 A 
HETATM   16  N   UNK     0      -0.929  -5.593  10.875  0.00  0.00    -0.361 N 
HETATM   17  C   UNK     0      -0.958  -6.774  10.253  0.00  0.00     0.022 A 
HETATM   18  C   UNK     0       0.333  -7.337  10.295  0.00  0.00    -0.027 A 
HETATM   19  C   UNK     0       1.123  -6.443  10.970  0.00  0.00    -0.031 A 
HETATM   20  C   UNK     0       2.608  -6.644  11.211  0.00  0.00     0.051 C 
HETATM   21  C   UNK     0      -2.121  -7.518   9.636  0.00  0.00     0.115 C 
HETATM   22  C   UNK     0      -3.473  -7.368  10.292  0.00  0.00     0.022 A 
HETATM   23  N   UNK     0      -3.761  -7.336  11.600  0.00  0.00    -0.361 N 
HETATM   24  C   UNK     0      -5.070  -7.041  11.738  0.00  0.00     0.021 A 
HETATM   25  C   UNK     0      -5.640  -6.890  10.488  0.00  0.00    -0.031 A 
HETATM   26  C   UNK     0      -7.082  -6.598  10.127  0.00  0.00     0.051 C 
HETATM   27  C   UNK     0      -4.638  -7.095   9.547  0.00  0.00    -0.027 A 
HETATM   28  C   UNK     0      -5.839  -6.805  13.026  0.00  0.00     0.115 C 
HETATM   29  H   UNK     0      -3.289  -6.316  14.417  0.00  0.00     0.165 HD
HETATM   30  H   UNK     0      -1.990  -3.614  12.827  0.00  0.00     0.165 HD
HETATM   31  H   UNK     0      -1.795  -4.886  10.953  0.00  0.00     0.165 HD
HETATM   32  H   UNK     0      -3.053  -7.563  12.438  0.00  0.00     0.165 HD
ENDROOT
BRANCH   6  33
HETATM   33  C   UNK     0      -5.666  -2.300  15.302  0.00  0.00     0.051 C 
BRANCH  33  34
HETATM   34  C   UNK     0      -5.228  -1.235  14.325  0.00  0.00     0.114 C 
BRANCH  34  35
HETATM   35  C   UNK     0      -6.108  -0.049  14.533  0.00  0.00     0.139 C 
HETATM   36  O   UNK     0      -6.625   0.543  13.541  0.00  0.00    -0.650 OA
BRANCH  35  37
HETATM   37  O   UNK     0      -6.401   0.454  15.795  0.00  0.00    -0.776 OA
HETATM   38  H   UNK     0      -7.054  -0.000  16.413  0.00  0.00     0.167 HD
ENDBRANCH  35  37
ENDBRANCH  34  35
ENDBRANCH  33  34
ENDBRANCH   6  33
BRANCH  27  39
HETATM   39  C   UNK     0      -4.889  -7.085   8.080  0.00  0.00     0.051 C 
BRANCH  39  40
HETATM   40  C   UNK     0      -4.500  -5.899   7.318  0.00  0.00     0.114 C 
BRANCH  40  41
HETATM   41  C   UNK     0      -5.472  -4.965   6.795  0.00  0.00     0.139 C 
HETATM   42  O   UNK     0      -6.584  -4.778   7.308  0.00  0.00    -0.650 OA
BRANCH  41  43
HETATM   43  O   UNK     0      -5.151  -4.213   5.630  0.00  0.00    -0.776 OA
HETATM   44  H   UNK     0      -4.578  -3.396   5.803  0.00  0.00     0.167 HD
ENDBRANCH  41  43
ENDBRANCH  40  41
ENDBRANCH  39  40
ENDBRANCH  27  39
BRANCH  11  45
HETATM   45  C   UNK     0       2.133  -4.356  15.051  0.00  0.00     0.051 C 
BRANCH  45  46
HETATM   46  C   UNK     0       2.508  -5.790  15.153  0.00  0.00     0.114 C 
BRANCH  46  47
HETATM   47  C   UNK     0       3.338  -5.942  16.383  0.00  0.00     0.139 C 
HETATM   48  O   UNK     0       3.441  -4.976  17.151  0.00  0.00    -0.650 OA
BRANCH  47  49
HETATM   49  O   UNK     0       3.975  -7.126  16.658  0.00  0.00    -0.776 OA
HETATM   50  H   UNK     0       4.997  -7.218  16.616  0.00  0.00     0.167 HD
ENDBRANCH  47  49
ENDBRANCH  46  47
ENDBRANCH  45  46
ENDBRANCH  11  45
BRANCH  18  51
HETATM   51  C   UNK     0       0.793  -8.644   9.705  0.00  0.00     0.051 C 
BRANCH  51  52
HETATM   52  C   UNK     0       0.378  -9.726  10.691  0.00  0.00     0.114 C 
BRANCH  52  53
HETATM   53  C   UNK     0      -0.494 -10.737  10.063  0.00  0.00     0.139 C 
HETATM   54  O   UNK     0      -1.386 -11.289  10.728  0.00  0.00    -0.650 OA
BRANCH  53  55
HETATM   55  O   UNK     0      -0.310 -11.066   8.742  0.00  0.00    -0.776 OA
HETATM   56  H   UNK     0       0.032 -10.463   8.032  0.00  0.00     0.167 HD
ENDBRANCH  53  55
ENDBRANCH  52  53
ENDBRANCH  51  52
ENDBRANCH  18  51
TORSDOF 16
ENDMDL
MODEL 16
REMARK VINA RESULT:      -7.0     32.233     34.633
REMARK  16 active torsions:
REMARK  status: ('A' for Active; 'I' for Inactive)
REMARK    1  A    between atoms: C_6  and  C_7 
REMARK    2  A    between atoms: C_7  and  C_8 
REMARK    3  A    between atoms: C_8  and  C_9 
REMARK    4  A    between atoms: C_9  and  O_11 
REMARK    5  A    between atoms: C_16  and  C_17 
REMARK    6  A    between atoms: C_17  and  C_18 
REMARK    7  A    between atoms: C_18  and  C_19 
REMARK    8  A    between atoms: C_19  and  O_21 
REMARK    9  A    between atoms: C_28  and  C_29 
REMARK   10  A    between atoms: C_29  and  C_30 
REMARK   11  A    between atoms: C_30  and  C_31 
REMARK   12  A    between atoms: C_31  and  O_33 
REMARK   13  A    between atoms: C_42  and  C_43 
REMARK   14  A    between atoms: C_43  and  C_44 
REMARK   15  A    between atoms: C_44  and  C_45 
REMARK   16  A    between atoms: C_45  and  O_47 
ROOT
HETATM    1  C   UNK     0      -2.860 -15.671   7.001  0.00  0.00     0.051 C 
HETATM    2  C   UNK     0      -1.412 -16.117   6.964  0.00  0.00    -0.031 A 
HETATM    3  C   UNK     0      -0.723 -16.785   5.965  0.00  0.00     0.021 A 
HETATM    4  N   UNK     0       0.547 -17.007   6.377  0.00  0.00    -0.361 N 
HETATM    5  C   UNK     0       0.685 -16.488   7.615  0.00  0.00     0.022 A 
HETATM    6  C   UNK     0      -0.523 -15.925   8.013  0.00  0.00    -0.027 A 
HETATM    7  C   UNK     0       1.907 -16.385   8.473  0.00  0.00     0.115 C 
HETATM    8  C   UNK     0       3.194 -15.972   7.781  0.00  0.00     0.021 A 
HETATM    9  N   UNK     0       3.358 -15.108   6.768  0.00  0.00    -0.361 N 
HETATM   10  C   UNK     0       4.660 -15.120   6.413  0.00  0.00     0.022 A 
HETATM   11  C   UNK     0       5.356 -16.010   7.226  0.00  0.00    -0.027 A 
HETATM   12  C   UNK     0       4.438 -16.550   8.090  0.00  0.00    -0.031 A 
HETATM   13  C   UNK     0       4.743 -17.569   9.165  0.00  0.00     0.051 C 
HETATM   14  C   UNK     0       5.289 -14.338   5.263  0.00  0.00     0.115 C 
HETATM   15  C   UNK     0       4.721 -14.687   3.897  0.00  0.00     0.021 A 
HETATM   16  N   UNK     0       3.440 -14.596   3.493  0.00  0.00    -0.361 N 
HETATM   17  C   UNK     0       3.339 -15.065   2.247  0.00  0.00     0.022 A 
HETATM   18  C   UNK     0       4.618 -15.472   1.815  0.00  0.00    -0.027 A 
HETATM   19  C   UNK     0       5.474 -15.229   2.858  0.00  0.00    -0.031 A 
HETATM   20  C   UNK     0       6.968 -15.492   2.801  0.00  0.00     0.051 C 
HETATM   21  C   UNK     0       2.119 -15.247   1.372  0.00  0.00     0.115 C 
HETATM   22  C   UNK     0       0.822 -15.614   2.053  0.00  0.00     0.022 A 
HETATM   23  N   UNK     0       0.629 -16.468   3.067  0.00  0.00    -0.361 N 
HETATM   24  C   UNK     0      -0.659 -16.382   3.455  0.00  0.00     0.021 A 
HETATM   25  C   UNK     0      -1.315 -15.457   2.665  0.00  0.00    -0.031 A 
HETATM   26  C   UNK     0      -2.772 -15.044   2.690  0.00  0.00     0.051 C 
HETATM   27  C   UNK     0      -0.388 -14.952   1.760  0.00  0.00    -0.027 A 
HETATM   28  C   UNK     0      -1.328 -17.087   4.622  0.00  0.00     0.115 C 
HETATM   29  H   UNK     0       1.327 -17.565   5.808  0.00  0.00     0.165 HD
HETATM   30  H   UNK     0       2.566 -14.450   6.333  0.00  0.00     0.165 HD
HETATM   31  H   UNK     0       2.597 -14.148   4.080  0.00  0.00     0.165 HD
HETATM   32  H   UNK     0       1.392 -17.173   3.490  0.00  0.00     0.165 HD
ENDROOT
BRANCH   6  33
HETATM   33  C   UNK     0      -0.892 -15.231   9.300  0.00  0.00     0.051 C 
BRANCH  33  34
HETATM   34  C   UNK     0      -0.884 -13.732   9.120  0.00  0.00     0.114 C 
BRANCH  34  35
HETATM   35  C   UNK     0       0.512 -13.261   9.349  0.00  0.00     0.139 C 
HETATM   36  O   UNK     0       0.952 -13.120  10.527  0.00  0.00    -0.650 OA
BRANCH  35  37
HETATM   37  O   UNK     0       1.382 -12.964   8.307  0.00  0.00    -0.776 OA
HETATM   38  H   UNK     0       2.310 -12.606   8.471  0.00  0.00     0.167 HD
ENDBRANCH  35  37
ENDBRANCH  34  35
ENDBRANCH  33  34
ENDBRANCH   6  33
BRANCH  27  39
HETATM   39  C   UNK     0      -0.743 -13.977   0.694  0.00  0.00     0.051 C 
BRANCH  39  40
HETATM   40  C   UNK     0      -0.871 -14.466  -0.679  0.00  0.00     0.114 C 
BRANCH  40  41
HETATM   41  C   UNK     0      -1.002 -15.872  -0.987  0.00  0.00     0.139 C 
HETATM   42  O   UNK     0      -2.082 -16.479  -0.963  0.00  0.00    -0.650 OA
BRANCH  41  43
HETATM   43  O   UNK     0       0.161 -16.614  -1.339  0.00  0.00    -0.776 OA
HETATM   44  H   UNK     0       0.751 -16.865  -0.555  0.00  0.00     0.167 HD
ENDBRANCH  41  43
ENDBRANCH  40  41
ENDBRANCH  39  40
ENDBRANCH  27  39
BRANCH  11  45
HETATM   45  C   UNK     0       6.822 -16.352   7.211  0.00  0.00     0.051 C 
BRANCH  45  46
HETATM   46  C   UNK     0       7.708 -15.239   7.638  0.00  0.00     0.114 C 
BRANCH  46  47
HETATM   47  C   UNK     0       8.745 -15.070   6.581  0.00  0.00     0.139 C 
HETATM   48  O   UNK     0       9.598 -15.958   6.440  0.00  0.00    -0.650 OA
BRANCH  47  49
HETATM   49  O   UNK     0       8.758 -13.955   5.781  0.00  0.00    -0.776 OA
HETATM   50  H   UNK     0       8.635 -13.009   6.162  0.00  0.00     0.167 HD
ENDBRANCH  47  49
ENDBRANCH  46  47
ENDBRANCH  45  46
ENDBRANCH  11  45
BRANCH  18  51
HETATM   51  C   UNK     0       5.005 -16.041   0.475  0.00  0.00     0.051 C 
BRANCH  51  52
HETATM   52  C   UNK     0       4.536 -17.489   0.476  0.00  0.00     0.114 C 
BRANCH  52  53
HETATM   53  C   UNK     0       3.777 -17.821  -0.745  0.00  0.00     0.139 C 
HETATM   54  O   UNK     0       3.686 -19.001  -1.118  0.00  0.00    -0.650 OA
BRANCH  53  55
HETATM   55  O   UNK     0       3.176 -16.818  -1.466  0.00  0.00    -0.776 OA
HETATM   56  H   UNK     0       2.463 -16.210  -1.138  0.00  0.00     0.167 HD
ENDBRANCH  53  55
ENDBRANCH  52  53
ENDBRANCH  51  52
ENDBRANCH  18  51
TORSDOF 16
ENDMDL
MODEL 17
REMARK VINA RESULT:      -7.0     29.326     31.244
REMARK  16 active torsions:
REMARK  status: ('A' for Active; 'I' for Inactive)
REMARK    1  A    between atoms: C_6  and  C_7 
REMARK    2  A    between atoms: C_7  and  C_8 
REMARK    3  A    between atoms: C_8  and  C_9 
REMARK    4  A    between atoms: C_9  and  O_11 
REMARK    5  A    between atoms: C_16  and  C_17 
REMARK    6  A    between atoms: C_17  and  C_18 
REMARK    7  A    between atoms: C_18  and  C_19 
REMARK    8  A    between atoms: C_19  and  O_21 
REMARK    9  A    between atoms: C_28  and  C_29 
REMARK   10  A    between atoms: C_29  and  C_30 
REMARK   11  A    between atoms: C_30  and  C_31 
REMARK   12  A    between atoms: C_31  and  O_33 
REMARK   13  A    between atoms: C_42  and  C_43 
REMARK   14  A    between atoms: C_43  and  C_44 
REMARK   15  A    between atoms: C_44  and  C_45 
REMARK   16  A    between atoms: C_45  and  O_47 
ROOT
HETATM    1  C   UNK     0       2.124  -5.649  14.584  0.00  0.00     0.051 C 
HETATM    2  C   UNK     0       0.817  -5.029  14.132  0.00  0.00    -0.031 A 
HETATM    3  C   UNK     0       0.314  -4.873  12.850  0.00  0.00     0.021 A 
HETATM    4  N   UNK     0      -0.878  -4.234  12.918  0.00  0.00    -0.361 N 
HETATM    5  C   UNK     0      -1.150  -3.988  14.217  0.00  0.00     0.022 A 
HETATM    6  C   UNK     0      -0.109  -4.469  15.003  0.00  0.00    -0.027 A 
HETATM    7  C   UNK     0      -2.376  -3.393  14.836  0.00  0.00     0.115 C 
HETATM    8  C   UNK     0      -3.712  -3.860  14.287  0.00  0.00     0.021 A 
HETATM    9  N   UNK     0      -4.054  -5.080  13.844  0.00  0.00    -0.361 N 
HETATM   10  C   UNK     0      -5.313  -5.014  13.363  0.00  0.00     0.022 A 
HETATM   11  C   UNK     0      -5.799  -3.718  13.508  0.00  0.00    -0.027 A 
HETATM   12  C   UNK     0      -4.796  -2.986  14.089  0.00  0.00    -0.031 A 
HETATM   13  C   UNK     0      -4.877  -1.518  14.443  0.00  0.00     0.051 C 
HETATM   14  C   UNK     0      -6.086  -6.151  12.701  0.00  0.00     0.115 C 
HETATM   15  C   UNK     0      -5.432  -6.687  11.438  0.00  0.00     0.021 A 
HETATM   16  N   UNK     0      -4.200  -7.215  11.311  0.00  0.00    -0.361 N 
HETATM   17  C   UNK     0      -3.976  -7.501  10.027  0.00  0.00     0.022 A 
HETATM   18  C   UNK     0      -5.120  -7.153   9.282  0.00  0.00    -0.027 A 
HETATM   19  C   UNK     0      -6.026  -6.645  10.178  0.00  0.00    -0.031 A 
HETATM   20  C   UNK     0      -7.419  -6.179   9.797  0.00  0.00     0.051 C 
HETATM   21  C   UNK     0      -2.733  -8.038   9.353  0.00  0.00     0.115 C 
HETATM   22  C   UNK     0      -1.397  -7.616   9.917  0.00  0.00     0.022 A 
HETATM   23  N   UNK     0      -1.030  -6.410  10.369  0.00  0.00    -0.361 N 
HETATM   24  C   UNK     0       0.199  -6.518  10.915  0.00  0.00     0.021 A 
HETATM   25  C   UNK     0       0.637  -7.823  10.802  0.00  0.00    -0.031 A 
HETATM   26  C   UNK     0       1.961  -8.424  11.228  0.00  0.00     0.051 C 
HETATM   27  C   UNK     0      -0.366  -8.545  10.167  0.00  0.00    -0.027 A 
HETATM   28  C   UNK     0       0.992  -5.443  11.636  0.00  0.00     0.115 C 
HETATM   29  H   UNK     0      -1.500  -3.927  12.046  0.00  0.00     0.165 HD
HETATM   30  H   UNK     0      -3.427  -6.002  13.916  0.00  0.00     0.165 HD
HETATM   31  H   UNK     0      -3.491  -7.434  12.151  0.00  0.00     0.165 HD
HETATM   32  H   UNK     0      -1.617  -5.461  10.268  0.00  0.00     0.165 HD
ENDROOT
BRANCH   6  33
HETATM   33  C   UNK     0       0.072  -4.436  16.500  0.00  0.00     0.051 C 
BRANCH  33  34
HETATM   34  C   UNK     0       0.415  -3.041  16.966  0.00  0.00     0.114 C 
BRANCH  34  35
HETATM   35  C   UNK     0       1.811  -2.754  16.526  0.00  0.00     0.139 C 
HETATM   36  O   UNK     0       2.027  -1.922  15.597  0.00  0.00    -0.650 OA
BRANCH  35  37
HETATM   37  O   UNK     0       2.918  -3.366  17.099  0.00  0.00    -0.776 OA
HETATM   38  H   UNK     0       3.566  -2.862  17.682  0.00  0.00     0.167 HD
ENDBRANCH  35  37
ENDBRANCH  34  35
ENDBRANCH  33  34
ENDBRANCH   6  33
BRANCH  27  39
HETATM   39  C   UNK     0      -0.226  -9.982   9.805  0.00  0.00     0.051 C 
BRANCH  39  40
HETATM   40  C   UNK     0      -0.671 -10.987  10.770  0.00  0.00     0.114 C 
BRANCH  40  41
HETATM   41  C   UNK     0      -1.503 -10.652  11.904  0.00  0.00     0.139 C 
HETATM   42  O   UNK     0      -1.053 -10.374  13.023  0.00  0.00    -0.650 OA
BRANCH  41  43
HETATM   43  O   UNK     0      -2.917 -10.637  11.743  0.00  0.00    -0.776 OA
HETATM   44  H   UNK     0      -3.409 -10.059  12.413  0.00  0.00     0.167 HD
ENDBRANCH  41  43
ENDBRANCH  40  41
ENDBRANCH  39  40
ENDBRANCH  27  39
BRANCH  11  45
HETATM   45  C   UNK     0      -7.148  -3.170  13.125  0.00  0.00     0.051 C 
BRANCH  45  46
HETATM   46  C   UNK     0      -7.377  -3.091  11.660  0.00  0.00     0.114 C 
BRANCH  46  47
HETATM   47  C   UNK     0      -6.611  -1.914  11.156  0.00  0.00     0.139 C 
HETATM   48  O   UNK     0      -6.968  -0.781  11.507  0.00  0.00    -0.650 OA
BRANCH  47  49
HETATM   49  O   UNK     0      -5.535  -2.081  10.322  0.00  0.00    -0.776 OA
HETATM   50  H   UNK     0      -5.514  -2.809   9.597  0.00  0.00     0.167 HD
ENDBRANCH  47  49
ENDBRANCH  46  47
ENDBRANCH  45  46
ENDBRANCH  11  45
BRANCH  18  51
HETATM   51  C   UNK     0      -5.347  -7.314   7.801  0.00  0.00     0.051 C 
BRANCH  51  52
HETATM   52  C   UNK     0      -4.585  -6.182   7.128  0.00  0.00     0.114 C 
BRANCH  52  53
HETATM   53  C   UNK     0      -5.280  -4.888   7.276  0.00  0.00     0.139 C 
HETATM   54  O   UNK     0      -6.303  -4.653   6.612  0.00  0.00    -0.650 OA
BRANCH  53  55
HETATM   55  O   UNK     0      -4.787  -3.948   8.147  0.00  0.00    -0.776 OA
HETATM   56  H   UNK     0      -3.835  -3.683   8.243  0.00  0.00     0.167 HD
ENDBRANCH  53  55
ENDBRANCH  52  53
ENDBRANCH  51  52
ENDBRANCH  18  51
TORSDOF 16
ENDMDL
MODEL 18
REMARK VINA RESULT:      -6.9     13.694     19.230
REMARK  16 active torsions:
REMARK  status: ('A' for Active; 'I' for Inactive)
REMARK    1  A    between atoms: C_6  and  C_7 
REMARK    2  A    between atoms: C_7  and  C_8 
REMARK    3  A    between atoms: C_8  and  C_9 
REMARK    4  A    between atoms: C_9  and  O_11 
REMARK    5  A    between atoms: C_16  and  C_17 
REMARK    6  A    between atoms: C_17  and  C_18 
REMARK    7  A    between atoms: C_18  and  C_19 
REMARK    8  A    between atoms: C_19  and  O_21 
REMARK    9  A    between atoms: C_28  and  C_29 
REMARK   10  A    between atoms: C_29  and  C_30 
REMARK   11  A    between atoms: C_30  and  C_31 
REMARK   12  A    between atoms: C_31  and  O_33 
REMARK   13  A    between atoms: C_42  and  C_43 
REMARK   14  A    between atoms: C_43  and  C_44 
REMARK   15  A    between atoms: C_44  and  C_45 
REMARK   16  A    between atoms: C_45  and  O_47 
ROOT
HETATM    1  C   UNK     0       1.441   4.198 -17.996  0.00  0.00     0.051 C 
HETATM    2  C   UNK     0       0.662   5.489 -17.853  0.00  0.00    -0.031 A 
HETATM    3  C   UNK     0      -0.332   6.012 -18.665  0.00  0.00     0.021 A 
HETATM    4  N   UNK     0      -0.723   7.209 -18.168  0.00  0.00    -0.361 N 
HETATM    5  C   UNK     0      -0.007   7.457 -17.052  0.00  0.00     0.022 A 
HETATM    6  C   UNK     0       0.872   6.403 -16.827  0.00  0.00    -0.027 A 
HETATM    7  C   UNK     0      -0.117   8.592 -16.082  0.00  0.00     0.115 C 
HETATM    8  C   UNK     0      -1.521   9.021 -15.693  0.00  0.00     0.021 A 
HETATM    9  N   UNK     0      -2.612   8.259 -15.524  0.00  0.00    -0.361 N 
HETATM   10  C   UNK     0      -3.658   9.074 -15.271  0.00  0.00     0.022 A 
HETATM   11  C   UNK     0      -3.227  10.397 -15.269  0.00  0.00    -0.027 A 
HETATM   12  C   UNK     0      -1.881  10.371 -15.533  0.00  0.00    -0.031 A 
HETATM   13  C   UNK     0      -0.985  11.586 -15.623  0.00  0.00     0.051 C 
HETATM   14  C   UNK     0      -5.109   8.644 -15.076  0.00  0.00     0.115 C 
HETATM   15  C   UNK     0      -5.709   7.938 -16.282  0.00  0.00     0.021 A 
HETATM   16  N   UNK     0      -5.271   6.814 -16.878  0.00  0.00    -0.361 N 
HETATM   17  C   UNK     0      -6.030   6.560 -17.947  0.00  0.00     0.022 A 
HETATM   18  C   UNK     0      -7.016   7.561 -18.046  0.00  0.00    -0.027 A 
HETATM   19  C   UNK     0      -6.805   8.418 -16.997  0.00  0.00    -0.031 A 
HETATM   20  C   UNK     0      -7.675   9.628 -16.707  0.00  0.00     0.051 C 
HETATM   21  C   UNK     0      -5.911   5.467 -18.985  0.00  0.00     0.115 C 
HETATM   22  C   UNK     0      -4.522   4.999 -19.350  0.00  0.00     0.022 A 
HETATM   23  N   UNK     0      -3.417   5.735 -19.521  0.00  0.00    -0.361 N 
HETATM   24  C   UNK     0      -2.373   4.899 -19.694  0.00  0.00     0.021 A 
HETATM   25  C   UNK     0      -2.820   3.592 -19.643  0.00  0.00    -0.031 A 
HETATM   26  C   UNK     0      -2.035   2.309 -19.822  0.00  0.00     0.051 C 
HETATM   27  C   UNK     0      -4.192   3.631 -19.424  0.00  0.00    -0.027 A 
HETATM   28  C   UNK     0      -0.905   5.261 -19.833  0.00  0.00     0.115 C 
HETATM   29  H   UNK     0      -1.475   7.889 -18.631  0.00  0.00     0.165 HD
HETATM   30  H   UNK     0      -2.638   7.141 -15.532  0.00  0.00     0.165 HD
HETATM   31  H   UNK     0      -4.439   6.159 -16.511  0.00  0.00     0.165 HD
HETATM   32  H   UNK     0      -3.369   6.855 -19.564  0.00  0.00     0.165 HD
ENDROOT
BRANCH   6  33
HETATM   33  C   UNK     0       1.884   6.200 -15.728  0.00  0.00     0.051 C 
BRANCH  33  34
HETATM   34  C   UNK     0       3.086   7.091 -15.937  0.00  0.00     0.114 C 
BRANCH  34  35
HETATM   35  C   UNK     0       4.209   6.224 -16.397  0.00  0.00     0.139 C 
HETATM   36  O   UNK     0       4.363   5.067 -15.906  0.00  0.00    -0.650 OA
BRANCH  35  37
HETATM   37  O   UNK     0       5.120   6.629 -17.364  0.00  0.00    -0.776 OA
HETATM   38  H   UNK     0       4.834   6.874 -18.298  0.00  0.00     0.167 HD
ENDBRANCH  35  37
ENDBRANCH  34  35
ENDBRANCH  33  34
ENDBRANCH   6  33
BRANCH  27  39
HETATM   39  C   UNK     0      -5.040   2.409 -19.381  0.00  0.00     0.051 C 
BRANCH  39  40
HETATM   40  C   UNK     0      -5.915   2.130 -20.520  0.00  0.00     0.114 C 
BRANCH  40  41
HETATM   41  C   UNK     0      -5.836   2.880 -21.753  0.00  0.00     0.139 C 
HETATM   42  O   UNK     0      -4.853   2.858 -22.505  0.00  0.00    -0.650 OA
BRANCH  41  43
HETATM   43  O   UNK     0      -6.940   3.693 -22.139  0.00  0.00    -0.776 OA
HETATM   44  H   UNK     0      -7.650   3.803 -21.424  0.00  0.00     0.167 HD
ENDBRANCH  41  43
ENDBRANCH  40  41
ENDBRANCH  39  40
ENDBRANCH  27  39
BRANCH  11  45
HETATM   45  C   UNK     0      -4.028  11.648 -15.027  0.00  0.00     0.051 C 
BRANCH  45  46
HETATM   46  C   UNK     0      -4.401  11.864 -13.605  0.00  0.00     0.114 C 
BRANCH  46  47
HETATM   47  C   UNK     0      -3.136  11.885 -12.816  0.00  0.00     0.139 C 
HETATM   48  O   UNK     0      -2.762  10.838 -12.268  0.00  0.00    -0.650 OA
BRANCH  47  49
HETATM   49  O   UNK     0      -2.402  13.037 -12.695  0.00  0.00    -0.776 OA
HETATM   50  H   UNK     0      -2.798  13.897 -12.297  0.00  0.00     0.167 HD
ENDBRANCH  47  49
ENDBRANCH  46  47
ENDBRANCH  45  46
ENDBRANCH  11  45
BRANCH  18  51
HETATM   51  C   UNK     0      -8.112   7.684 -19.072  0.00  0.00     0.051 C 
BRANCH  51  52
HETATM   52  C   UNK     0      -7.522   8.467 -20.235  0.00  0.00     0.114 C 
BRANCH  52  53
HETATM   53  C   UNK     0      -7.804   7.822 -21.532  0.00  0.00     0.139 C 
HETATM   54  O   UNK     0      -7.821   8.500 -22.572  0.00  0.00    -0.650 OA
BRANCH  53  55
HETATM   55  O   UNK     0      -8.051   6.472 -21.580  0.00  0.00    -0.776 OA
HETATM   56  H   UNK     0      -8.213   5.880 -20.800  0.00  0.00     0.167 HD
ENDBRANCH  53  55
ENDBRANCH  52  53
ENDBRANCH  51  52
ENDBRANCH  18  51
TORSDOF 16
ENDMDL
MODEL 19
REMARK VINA RESULT:      -6.9      3.670      8.644
REMARK  16 active torsions:
REMARK  status: ('A' for Active; 'I' for Inactive)
REMARK    1  A    between atoms: C_6  and  C_7 
REMARK    2  A    between atoms: C_7  and  C_8 
REMARK    3  A    between atoms: C_8  and  C_9 
REMARK    4  A    between atoms: C_9  and  O_11 
REMARK    5  A    between atoms: C_16  and  C_17 
REMARK    6  A    between atoms: C_17  and  C_18 
REMARK    7  A    between atoms: C_18  and  C_19 
REMARK    8  A    between atoms: C_19  and  O_21 
REMARK    9  A    between atoms: C_28  and  C_29 
REMARK   10  A    between atoms: C_29  and  C_30 
REMARK   11  A    between atoms: C_30  and  C_31 
REMARK   12  A    between atoms: C_31  and  O_33 
REMARK   13  A    between atoms: C_42  and  C_43 
REMARK   14  A    between atoms: C_43  and  C_44 
REMARK   15  A    between atoms: C_44  and  C_45 
REMARK   16  A    between atoms: C_45  and  O_47 
ROOT
HETATM    1  C   UNK     0      14.305  13.610 -11.532  0.00  0.00     0.051 C 
HETATM    2  C   UNK     0      13.379  13.853 -10.358  0.00  0.00    -0.031 A 
HETATM    3  C   UNK     0      13.687  14.196  -9.051  0.00  0.00     0.021 A 
HETATM    4  N   UNK     0      12.541  14.280  -8.334  0.00  0.00    -0.361 N 
HETATM    5  C   UNK     0      11.508  14.006  -9.159  0.00  0.00     0.022 A 
HETATM    6  C   UNK     0      11.997  13.732 -10.431  0.00  0.00    -0.027 A 
HETATM    7  C   UNK     0      10.036  14.055  -8.890  0.00  0.00     0.115 C 
HETATM    8  C   UNK     0       9.530  15.238  -8.083  0.00  0.00     0.021 A 
HETATM    9  N   UNK     0       9.963  16.508  -8.099  0.00  0.00    -0.361 N 
HETATM   10  C   UNK     0       9.285  17.194  -7.155  0.00  0.00     0.022 A 
HETATM   11  C   UNK     0       8.384  16.344  -6.520  0.00  0.00    -0.027 A 
HETATM   12  C   UNK     0       8.532  15.111  -7.100  0.00  0.00    -0.031 A 
HETATM   13  C   UNK     0       7.749  13.871  -6.730  0.00  0.00     0.051 C 
HETATM   14  C   UNK     0       9.496  18.657  -6.778  0.00  0.00     0.115 C 
HETATM   15  C   UNK     0      10.893  18.966  -6.265  0.00  0.00     0.021 A 
HETATM   16  N   UNK     0      12.063  18.778  -6.904  0.00  0.00    -0.361 N 
HETATM   17  C   UNK     0      13.067  19.108  -6.088  0.00  0.00     0.022 A 
HETATM   18  C   UNK     0      12.524  19.540  -4.861  0.00  0.00    -0.027 A 
HETATM   19  C   UNK     0      11.162  19.448  -4.986  0.00  0.00    -0.031 A 
HETATM   20  C   UNK     0      10.186  19.854  -3.897  0.00  0.00     0.051 C 
HETATM   21  C   UNK     0      14.561  19.011  -6.296  0.00  0.00     0.115 C 
HETATM   22  C   UNK     0      15.076  17.864  -7.133  0.00  0.00     0.022 A 
HETATM   23  N   UNK     0      14.661  16.590  -7.141  0.00  0.00    -0.361 N 
HETATM   24  C   UNK     0      15.294  15.945  -8.141  0.00  0.00     0.021 A 
HETATM   25  C   UNK     0      16.145  16.821  -8.787  0.00  0.00    -0.031 A 
HETATM   26  C   UNK     0      17.092  16.556  -9.939  0.00  0.00     0.051 C 
HETATM   27  C   UNK     0      16.023  18.056  -8.159  0.00  0.00    -0.027 A 
HETATM   28  C   UNK     0      15.085  14.512  -8.601  0.00  0.00     0.115 C 
HETATM   29  H   UNK     0      12.472  14.493  -7.243  0.00  0.00     0.165 HD
HETATM   30  H   UNK     0      10.712  16.935  -8.810  0.00  0.00     0.165 HD
HETATM   31  H   UNK     0      12.183  18.451  -7.969  0.00  0.00     0.165 HD
HETATM   32  H   UNK     0      13.948  16.124  -6.412  0.00  0.00     0.165 HD
ENDROOT
BRANCH   6  33
HETATM   33  C   UNK     0      11.261  13.366 -11.695  0.00  0.00     0.051 C 
BRANCH  33  34
HETATM   34  C   UNK     0      10.838  14.606 -12.447  0.00  0.00     0.114 C 
BRANCH  34  35
HETATM   35  C   UNK     0      11.531  14.586 -13.767  0.00  0.00     0.139 C 
HETATM   36  O   UNK     0      12.543  15.319 -13.966  0.00  0.00    -0.650 OA
BRANCH  35  37
HETATM   37  O   UNK     0      11.114  13.780 -14.820  0.00  0.00    -0.776 OA
HETATM   38  H   UNK     0      10.629  14.154 -15.619  0.00  0.00     0.167 HD
ENDBRANCH  35  37
ENDBRANCH  34  35
ENDBRANCH  33  34
ENDBRANCH   6  33
BRANCH  27  39
HETATM   39  C   UNK     0      16.843  19.240  -8.534  0.00  0.00     0.051 C 
BRANCH  39  40
HETATM   40  C   UNK     0      16.216  20.295  -9.330  0.00  0.00     0.114 C 
BRANCH  40  41
HETATM   41  C   UNK     0      15.771  20.074 -10.687  0.00  0.00     0.139 C 
HETATM   42  O   UNK     0      14.603  19.793 -10.986  0.00  0.00    -0.650 OA
BRANCH  41  43
HETATM   43  O   UNK     0      16.713  20.182 -11.750  0.00  0.00    -0.776 OA
HETATM   44  H   UNK     0      16.299  20.320 -12.664  0.00  0.00     0.167 HD
ENDBRANCH  41  43
ENDBRANCH  40  41
ENDBRANCH  39  40
ENDBRANCH  27  39
BRANCH  11  45
HETATM   45  C   UNK     0       7.412  16.659  -5.414  0.00  0.00     0.051 C 
BRANCH  45  46
HETATM   46  C   UNK     0       8.035  16.758  -4.070  0.00  0.00     0.114 C 
BRANCH  46  47
HETATM   47  C   UNK     0       7.244  17.751  -3.288  0.00  0.00     0.139 C 
HETATM   48  O   UNK     0       6.902  18.804  -3.843  0.00  0.00    -0.650 OA
BRANCH  47  49
HETATM   49  O   UNK     0       6.904  17.507  -1.982  0.00  0.00    -0.776 OA
HETATM   50  H   UNK     0       6.480  16.620  -1.685  0.00  0.00     0.167 HD
ENDBRANCH  47  49
ENDBRANCH  46  47
ENDBRANCH  45  46
ENDBRANCH  11  45
BRANCH  18  51
HETATM   51  C   UNK     0      13.263  20.035  -3.645  0.00  0.00     0.051 C 
BRANCH  51  52
HETATM   52  C   UNK     0      13.511  21.519  -3.872  0.00  0.00     0.114 C 
BRANCH  52  53
HETATM   53  C   UNK     0      14.952  21.833  -3.931  0.00  0.00     0.139 C 
HETATM   54  O   UNK     0      15.669  21.651  -2.934  0.00  0.00    -0.650 OA
BRANCH  53  55
HETATM   55  O   UNK     0      15.492  22.329  -5.092  0.00  0.00    -0.776 OA
HETATM   56  H   UNK     0      14.986  22.601  -5.902  0.00  0.00     0.167 HD
ENDBRANCH  53  55
ENDBRANCH  52  53
ENDBRANCH  51  52
ENDBRANCH  18  51
TORSDOF 16
ENDMDL
MODEL 20
REMARK VINA RESULT:      -6.9     29.812     32.686
REMARK  16 active torsions:
REMARK  status: ('A' for Active; 'I' for Inactive)
REMARK    1  A    between atoms: C_6  and  C_7 
REMARK    2  A    between atoms: C_7  and  C_8 
REMARK    3  A    between atoms: C_8  and  C_9 
REMARK    4  A    between atoms: C_9  and  O_11 
REMARK    5  A    between atoms: C_16  and  C_17 
REMARK    6  A    between atoms: C_17  and  C_18 
REMARK    7  A    between atoms: C_18  and  C_19 
REMARK    8  A    between atoms: C_19  and  O_21 
REMARK    9  A    between atoms: C_28  and  C_29 
REMARK   10  A    between atoms: C_29  and  C_30 
REMARK   11  A    between atoms: C_30  and  C_31 
REMARK   12  A    between atoms: C_31  and  O_33 
REMARK   13  A    between atoms: C_42  and  C_43 
REMARK   14  A    between atoms: C_43  and  C_44 
REMARK   15  A    between atoms: C_44  and  C_45 
REMARK   16  A    between atoms: C_45  and  O_47 
ROOT
HETATM    1  C   UNK     0      -6.616  -5.686   8.614  0.00  0.00     0.051 C 
HETATM    2  C   UNK     0      -5.195  -5.880   9.100  0.00  0.00    -0.031 A 
HETATM    3  C   UNK     0      -4.345  -4.977   9.718  0.00  0.00     0.021 A 
HETATM    4  N   UNK     0      -3.154  -5.579   9.949  0.00  0.00    -0.361 N 
HETATM    5  C   UNK     0      -3.229  -6.848   9.499  0.00  0.00     0.022 A 
HETATM    6  C   UNK     0      -4.491  -7.070   8.959  0.00  0.00    -0.027 A 
HETATM    7  C   UNK     0      -2.225  -7.954   9.597  0.00  0.00     0.115 C 
HETATM    8  C   UNK     0      -1.500  -8.101  10.923  0.00  0.00     0.021 A 
HETATM    9  N   UNK     0      -1.973  -7.896  12.162  0.00  0.00    -0.361 N 
HETATM   10  C   UNK     0      -0.954  -8.055  13.032  0.00  0.00     0.022 A 
HETATM   11  C   UNK     0       0.206  -8.381  12.335  0.00  0.00    -0.027 A 
HETATM   12  C   UNK     0      -0.131  -8.411  11.006  0.00  0.00    -0.031 A 
HETATM   13  C   UNK     0       0.817  -8.729   9.871  0.00  0.00     0.051 C 
HETATM   14  C   UNK     0      -1.019  -7.856  14.544  0.00  0.00     0.115 C 
HETATM   15  C   UNK     0      -1.403  -6.445  14.962  0.00  0.00     0.021 A 
HETATM   16  N   UNK     0      -2.524  -5.771  14.647  0.00  0.00    -0.361 N 
HETATM   17  C   UNK     0      -2.450  -4.537  15.150  0.00  0.00     0.022 A 
HETATM   18  C   UNK     0      -1.226  -4.404  15.834  0.00  0.00    -0.027 A 
HETATM   19  C   UNK     0      -0.580  -5.606  15.710  0.00  0.00    -0.031 A 
HETATM   20  C   UNK     0       0.769  -5.908  16.337  0.00  0.00     0.051 C 
HETATM   21  C   UNK     0      -3.408  -3.375  15.018  0.00  0.00     0.115 C 
HETATM   22  C   UNK     0      -4.169  -3.241  13.720  0.00  0.00     0.022 A 
HETATM   23  N   UNK     0      -3.724  -3.443  12.473  0.00  0.00    -0.361 N 
HETATM   24  C   UNK     0      -4.773  -3.356  11.630  0.00  0.00     0.021 A 
HETATM   25  C   UNK     0      -5.919  -3.081  12.351  0.00  0.00    -0.031 A 
HETATM   26  C   UNK     0      -7.330  -2.855  11.848  0.00  0.00     0.051 C 
HETATM   27  C   UNK     0      -5.558  -3.003  13.691  0.00  0.00    -0.027 A 
HETATM   28  C   UNK     0      -4.783  -3.600  10.131  0.00  0.00     0.115 C 
HETATM   29  H   UNK     0      -2.255  -5.090  10.392  0.00  0.00     0.165 HD
HETATM   30  H   UNK     0      -3.038  -7.688  12.430  0.00  0.00     0.165 HD
HETATM   31  H   UNK     0      -3.408  -6.189  14.098  0.00  0.00     0.165 HD
HETATM   32  H   UNK     0      -2.657  -3.606  12.171  0.00  0.00     0.165 HD
ENDROOT
BRANCH   6  33
HETATM   33  C   UNK     0      -5.071  -8.309   8.325  0.00  0.00     0.051 C 
BRANCH  33  34
HETATM   34  C   UNK     0      -5.726  -9.186   9.366  0.00  0.00     0.114 C 
BRANCH  34  35
HETATM   35  C   UNK     0      -6.495 -10.239   8.642  0.00  0.00     0.139 C 
HETATM   36  O   UNK     0      -6.583 -10.210   7.380  0.00  0.00    -0.650 OA
BRANCH  35  37
HETATM   37  O   UNK     0      -7.137 -11.282   9.299  0.00  0.00    -0.776 OA
HETATM   38  H   UNK     0      -8.131 -11.427   9.228  0.00  0.00     0.167 HD
ENDBRANCH  35  37
ENDBRANCH  34  35
ENDBRANCH  33  34
ENDBRANCH   6  33
BRANCH  27  39
HETATM   39  C   UNK     0      -6.520  -2.650  14.770  0.00  0.00     0.051 C 
BRANCH  39  40
HETATM   40  C   UNK     0      -6.232  -1.481  15.601  0.00  0.00     0.114 C 
BRANCH  40  41
HETATM   41  C   UNK     0      -6.531  -0.135  15.168  0.00  0.00     0.139 C 
HETATM   42  O   UNK     0      -6.144   0.339  14.091  0.00  0.00    -0.650 OA
BRANCH  41  43
HETATM   43  O   UNK     0      -7.312   0.705  16.012  0.00  0.00    -0.776 OA
HETATM   44  H   UNK     0      -6.772   1.345  16.581  0.00  0.00     0.167 HD
ENDBRANCH  41  43
ENDBRANCH  40  41
ENDBRANCH  39  40
ENDBRANCH  27  39
BRANCH  11  45
HETATM   45  C   UNK     0       1.583  -8.658  12.876  0.00  0.00     0.051 C 
BRANCH  45  46
HETATM   46  C   UNK     0       2.327  -7.442  13.293  0.00  0.00     0.114 C 
BRANCH  46  47
HETATM   47  C   UNK     0       3.055  -6.937  12.093  0.00  0.00     0.139 C 
HETATM   48  O   UNK     0       3.989  -7.612  11.639  0.00  0.00    -0.650 OA
BRANCH  47  49
HETATM   49  O   UNK     0       2.700  -5.750  11.504  0.00  0.00    -0.776 OA
HETATM   50  H   UNK     0       2.669  -4.868  12.030  0.00  0.00     0.167 HD
ENDBRANCH  47  49
ENDBRANCH  46  47
ENDBRANCH  45  46
ENDBRANCH  11  45
BRANCH  18  51
HETATM   51  C   UNK     0      -0.709  -3.203  16.584  0.00  0.00     0.051 C 
BRANCH  51  52
HETATM   52  C   UNK     0       0.071  -2.374  15.574  0.00  0.00     0.114 C 
BRANCH  52  53
HETATM   53  C   UNK     0       1.527  -2.466  15.795  0.00  0.00     0.139 C 
HETATM   54  O   UNK     0       1.970  -2.677  16.935  0.00  0.00    -0.650 OA
BRANCH  53  55
HETATM   55  O   UNK     0       2.386  -2.315  14.734  0.00  0.00    -0.776 OA
HETATM   56  H   UNK     0       2.149  -2.399  13.774  0.00  0.00     0.167 HD
ENDBRANCH  53  55
ENDBRANCH  52  53
ENDBRANCH  51  52
ENDBRANCH  18  51
TORSDOF 16
ENDMDL
