MODEL 1
REMARK VINA RESULT:     -10.0      0.000      0.000
REMARK  16 active torsions:
REMARK  status: ('A' for Active; 'I' for Inactive)
REMARK    1  A    between atoms: C_6  and  C_7 
REMARK    2  A    between atoms: C_7  and  C_8 
REMARK    3  A    between atoms: C_8  and  C_9 
REMARK    4  A    between atoms: C_9  and  O_11 
REMARK    5  A    between atoms: C_16  and  C_17 
REMARK    6  A    between atoms: C_17  and  C_18 
REMARK    7  A    between atoms: C_18  and  C_19 
REMARK    8  A    between atoms: C_19  and  O_21 
REMARK    9  A    between atoms: C_28  and  C_29 
REMARK   10  A    between atoms: C_29  and  C_30 
REMARK   11  A    between atoms: C_30  and  C_31 
REMARK   12  A    between atoms: C_31  and  O_33 
REMARK   13  A    between atoms: C_42  and  C_43 
REMARK   14  A    between atoms: C_43  and  C_44 
REMARK   15  A    between atoms: C_44  and  C_45 
REMARK   16  A    between atoms: C_45  and  O_47 
ROOT
HETATM    1  C   UNK     0     -23.722 -25.886  19.415  0.00  0.00     0.051 C 
HETATM    2  C   UNK     0     -23.828 -24.748  20.410  0.00  0.00    -0.031 A 
HETATM    3  C   UNK     0     -23.690 -24.769  21.789  0.00  0.00     0.021 A 
HETATM    4  N   UNK     0     -23.898 -23.522  22.272  0.00  0.00    -0.361 N 
HETATM    5  C   UNK     0     -24.158 -22.704  21.231  0.00  0.00     0.022 A 
HETATM    6  C   UNK     0     -24.125 -23.440  20.051  0.00  0.00    -0.027 A 
HETATM    7  C   UNK     0     -24.365 -21.222  21.213  0.00  0.00     0.115 C 
HETATM    8  C   UNK     0     -23.431 -20.393  22.077  0.00  0.00     0.021 A 
HETATM    9  N   UNK     0     -22.132 -20.600  22.342  0.00  0.00    -0.361 N 
HETATM   10  C   UNK     0     -21.730 -19.667  23.230  0.00  0.00     0.022 A 
HETATM   11  C   UNK     0     -22.798 -18.829  23.539  0.00  0.00    -0.027 A 
HETATM   12  C   UNK     0     -23.873 -19.281  22.816  0.00  0.00    -0.031 A 
HETATM   13  C   UNK     0     -25.256 -18.670  22.831  0.00  0.00     0.051 C 
HETATM   14  C   UNK     0     -20.345 -19.559  23.861  0.00  0.00     0.115 C 
HETATM   15  C   UNK     0     -19.945 -20.777  24.678  0.00  0.00     0.021 A 
HETATM   16  N   UNK     0     -19.848 -22.053  24.258  0.00  0.00    -0.361 N 
HETATM   17  C   UNK     0     -19.537 -22.834  25.294  0.00  0.00     0.022 A 
HETATM   18  C   UNK     0     -19.415 -22.027  26.443  0.00  0.00    -0.027 A 
HETATM   19  C   UNK     0     -19.671 -20.742  26.044  0.00  0.00    -0.031 A 
HETATM   20  C   UNK     0     -19.610 -19.542  26.971  0.00  0.00     0.051 C 
HETATM   21  C   UNK     0     -19.385 -24.336  25.368  0.00  0.00     0.115 C 
HETATM   22  C   UNK     0     -20.277 -25.172  24.481  0.00  0.00     0.022 A 
HETATM   23  N   UNK     0     -21.573 -24.987  24.196  0.00  0.00    -0.361 N 
HETATM   24  C   UNK     0     -21.931 -25.879  23.251  0.00  0.00     0.021 A 
HETATM   25  C   UNK     0     -20.841 -26.665  22.926  0.00  0.00    -0.031 A 
HETATM   26  C   UNK     0     -20.758 -27.823  21.954  0.00  0.00     0.051 C 
HETATM   27  C   UNK     0     -19.771 -26.231  23.701  0.00  0.00    -0.027 A 
HETATM   28  C   UNK     0     -23.270 -25.998  22.544  0.00  0.00     0.115 C 
HETATM   29  H   UNK     0     -23.900 -23.235  23.350  0.00  0.00     0.165 HD
HETATM   30  H   UNK     0     -21.482 -21.374  21.865  0.00  0.00     0.165 HD
HETATM   31  H   UNK     0     -19.955 -22.404  23.198  0.00  0.00     0.165 HD
HETATM   32  H   UNK     0     -22.259 -24.252  24.692  0.00  0.00     0.165 HD
ENDROOT
BRANCH   6  33
HETATM   33  C   UNK     0     -24.353 -22.999  18.627  0.00  0.00     0.051 C 
BRANCH  33  34
HETATM   34  C   UNK     0     -23.041 -22.691  17.945  0.00  0.00     0.114 C 
BRANCH  34  35
HETATM   35  C   UNK     0     -23.144 -21.316  17.378  0.00  0.00     0.139 C 
HETATM   36  O   UNK     0     -24.010 -20.507  17.823  0.00  0.00    -0.650 OA
BRANCH  35  37
HETATM   37  O   UNK     0     -22.315 -20.861  16.360  0.00  0.00    -0.776 OA
HETATM   38  H   UNK     0     -21.684 -20.087  16.491  0.00  0.00     0.167 HD
ENDBRANCH  35  37
ENDBRANCH  34  35
ENDBRANCH  33  34
ENDBRANCH   6  33
BRANCH  27  39
HETATM   39  C   UNK     0     -18.437 -26.889  23.680  0.00  0.00     0.051 C 
BRANCH  39  40
HETATM   40  C   UNK     0     -18.033 -27.677  24.844  0.00  0.00     0.114 C 
BRANCH  40  41
HETATM   41  C   UNK     0     -17.107 -27.172  25.833  0.00  0.00     0.139 C 
HETATM   42  O   UNK     0     -16.177 -26.398  25.566  0.00  0.00    -0.650 OA
BRANCH  41  43
HETATM   43  O   UNK     0     -17.257 -27.576  27.190  0.00  0.00    -0.776 OA
HETATM   44  H   UNK     0     -17.750 -26.911  27.773  0.00  0.00     0.167 HD
ENDBRANCH  41  43
ENDBRANCH  40  41
ENDBRANCH  39  40
ENDBRANCH  27  39
BRANCH  11  45
HETATM   45  C   UNK     0     -22.829 -17.647  24.470  0.00  0.00     0.051 C 
BRANCH  45  46
HETATM   46  C   UNK     0     -22.556 -16.346  23.807  0.00  0.00     0.114 C 
BRANCH  46  47
HETATM   47  C   UNK     0     -23.178 -15.283  24.647  0.00  0.00     0.139 C 
HETATM   48  O   UNK     0     -23.834 -15.622  25.641  0.00  0.00    -0.650 OA
BRANCH  47  49
HETATM   49  O   UNK     0     -23.030 -13.957  24.326  0.00  0.00    -0.776 OA
HETATM   50  H   UNK     0     -23.297 -13.206  24.973  0.00  0.00     0.167 HD
ENDBRANCH  47  49
ENDBRANCH  46  47
ENDBRANCH  45  46
ENDBRANCH  11  45
BRANCH  18  51
HETATM   51  C   UNK     0     -19.052 -22.456  27.842  0.00  0.00     0.051 C 
BRANCH  51  52
HETATM   52  C   UNK     0     -17.549 -22.261  27.971  0.00  0.00     0.114 C 
BRANCH  52  53
HETATM   53  C   UNK     0     -16.806 -23.496  27.654  0.00  0.00     0.139 C 
HETATM   54  O   UNK     0     -17.156 -24.578  28.153  0.00  0.00    -0.650 OA
BRANCH  53  55
HETATM   55  O   UNK     0     -15.724 -23.440  26.809  0.00  0.00    -0.776 OA
HETATM   56  H   UNK     0     -15.685 -23.804  25.886  0.00  0.00     0.167 HD
ENDBRANCH  53  55
ENDBRANCH  52  53
ENDBRANCH  51  52
ENDBRANCH  18  51
TORSDOF 16
ENDMDL
MODEL 2
REMARK VINA RESULT:      -9.6      2.355      7.577
REMARK  16 active torsions:
REMARK  status: ('A' for Active; 'I' for Inactive)
REMARK    1  A    between atoms: C_6  and  C_7 
REMARK    2  A    between atoms: C_7  and  C_8 
REMARK    3  A    between atoms: C_8  and  C_9 
REMARK    4  A    between atoms: C_9  and  O_11 
REMARK    5  A    between atoms: C_16  and  C_17 
REMARK    6  A    between atoms: C_17  and  C_18 
REMARK    7  A    between atoms: C_18  and  C_19 
REMARK    8  A    between atoms: C_19  and  O_21 
REMARK    9  A    between atoms: C_28  and  C_29 
REMARK   10  A    between atoms: C_29  and  C_30 
REMARK   11  A    between atoms: C_30  and  C_31 
REMARK   12  A    between atoms: C_31  and  O_33 
REMARK   13  A    between atoms: C_42  and  C_43 
REMARK   14  A    between atoms: C_43  and  C_44 
REMARK   15  A    between atoms: C_44  and  C_45 
REMARK   16  A    between atoms: C_45  and  O_47 
ROOT
HETATM    1  C   UNK     0     -19.391 -24.577  25.932  0.00  0.00     0.051 C 
HETATM    2  C   UNK     0     -19.674 -23.220  25.319  0.00  0.00    -0.031 A 
HETATM    3  C   UNK     0     -19.906 -22.885  23.994  0.00  0.00     0.021 A 
HETATM    4  N   UNK     0     -20.082 -21.545  23.903  0.00  0.00    -0.361 N 
HETATM    5  C   UNK     0     -19.976 -21.021  25.141  0.00  0.00     0.022 A 
HETATM    6  C   UNK     0     -19.718 -22.041  26.051  0.00  0.00    -0.027 A 
HETATM    7  C   UNK     0     -20.180 -19.610  25.599  0.00  0.00     0.115 C 
HETATM    8  C   UNK     0     -21.366 -18.868  25.010  0.00  0.00     0.021 A 
HETATM    9  N   UNK     0     -22.576 -19.349  24.685  0.00  0.00    -0.361 N 
HETATM   10  C   UNK     0     -23.283 -18.353  24.109  0.00  0.00     0.022 A 
HETATM   11  C   UNK     0     -22.509 -17.196  24.070  0.00  0.00    -0.027 A 
HETATM   12  C   UNK     0     -21.301 -17.513  24.636  0.00  0.00    -0.031 A 
HETATM   13  C   UNK     0     -20.142 -16.559  24.814  0.00  0.00     0.051 C 
HETATM   14  C   UNK     0     -24.689 -18.465  23.527  0.00  0.00     0.115 C 
HETATM   15  C   UNK     0     -24.804 -19.460  22.383  0.00  0.00     0.021 A 
HETATM   16  N   UNK     0     -24.517 -20.776  22.407  0.00  0.00    -0.361 N 
HETATM   17  C   UNK     0     -24.682 -21.282  21.183  0.00  0.00     0.022 A 
HETATM   18  C   UNK     0     -25.106 -20.250  20.323  0.00  0.00    -0.027 A 
HETATM   19  C   UNK     0     -25.179 -19.114  21.087  0.00  0.00    -0.031 A 
HETATM   20  C   UNK     0     -25.634 -17.768  20.555  0.00  0.00     0.051 C 
HETATM   21  C   UNK     0     -24.425 -22.680  20.667  0.00  0.00     0.115 C 
HETATM   22  C   UNK     0     -23.274 -23.447  21.275  0.00  0.00     0.022 A 
HETATM   23  N   UNK     0     -22.060 -22.993  21.613  0.00  0.00    -0.361 N 
HETATM   24  C   UNK     0     -21.403 -23.980  22.255  0.00  0.00     0.021 A 
HETATM   25  C   UNK     0     -22.209 -25.099  22.323  0.00  0.00    -0.031 A 
HETATM   26  C   UNK     0     -21.901 -26.462  22.909  0.00  0.00     0.051 C 
HETATM   27  C   UNK     0     -23.412 -24.783  21.703  0.00  0.00    -0.027 A 
HETATM   28  C   UNK     0     -20.032 -23.913  22.906  0.00  0.00     0.115 C 
HETATM   29  H   UNK     0     -20.240 -20.974  22.958  0.00  0.00     0.165 HD
HETATM   30  H   UNK     0     -22.953 -20.377  24.907  0.00  0.00     0.165 HD
HETATM   31  H   UNK     0     -24.238 -21.369  23.316  0.00  0.00     0.165 HD
HETATM   32  H   UNK     0     -21.639 -21.985  21.362  0.00  0.00     0.165 HD
ENDROOT
BRANCH   6  33
HETATM   33  C   UNK     0     -19.511 -21.981  27.543  0.00  0.00     0.051 C 
BRANCH  33  34
HETATM   34  C   UNK     0     -18.042 -22.057  27.883  0.00  0.00     0.114 C 
BRANCH  34  35
HETATM   35  C   UNK     0     -17.661 -20.761  28.514  0.00  0.00     0.139 C 
HETATM   36  O   UNK     0     -17.485 -20.688  29.765  0.00  0.00    -0.650 OA
BRANCH  35  37
HETATM   37  O   UNK     0     -17.481 -19.595  27.780  0.00  0.00    -0.776 OA
HETATM   38  H   UNK     0     -18.258 -19.056  27.433  0.00  0.00     0.167 HD
ENDBRANCH  35  37
ENDBRANCH  34  35
ENDBRANCH  33  34
ENDBRANCH   6  33
BRANCH  27  39
HETATM   39  C   UNK     0     -24.512 -25.768  21.518  0.00  0.00     0.051 C 
BRANCH  39  40
HETATM   40  C   UNK     0     -25.530 -25.876  22.562  0.00  0.00     0.114 C 
BRANCH  40  41
HETATM   41  C   UNK     0     -26.058 -24.717  23.247  0.00  0.00     0.139 C 
HETATM   42  O   UNK     0     -25.566 -24.254  24.285  0.00  0.00    -0.650 OA
BRANCH  41  43
HETATM   43  O   UNK     0     -27.204 -24.062  22.714  0.00  0.00    -0.776 OA
HETATM   44  H   UNK     0     -27.811 -23.646  23.410  0.00  0.00     0.167 HD
ENDBRANCH  41  43
ENDBRANCH  40  41
ENDBRANCH  39  40
ENDBRANCH  27  39
BRANCH  11  45
HETATM   45  C   UNK     0     -22.872 -15.839  23.531  0.00  0.00     0.051 C 
BRANCH  45  46
HETATM   46  C   UNK     0     -23.065 -14.802  24.577  0.00  0.00     0.114 C 
BRANCH  46  47
HETATM   47  C   UNK     0     -24.425 -15.003  25.153  0.00  0.00     0.139 C 
HETATM   48  O   UNK     0     -25.392 -15.068  24.381  0.00  0.00    -0.650 OA
BRANCH  47  49
HETATM   49  O   UNK     0     -24.605 -15.113  26.509  0.00  0.00    -0.776 OA
HETATM   50  H   UNK     0     -23.894 -15.530  27.122  0.00  0.00     0.167 HD
ENDBRANCH  47  49
ENDBRANCH  46  47
ENDBRANCH  45  46
ENDBRANCH  11  45
BRANCH  18  51
HETATM   51  C   UNK     0     -25.443 -20.345  18.857  0.00  0.00     0.051 C 
BRANCH  51  52
HETATM   52  C   UNK     0     -24.188 -19.929  18.104  0.00  0.00     0.114 C 
BRANCH  52  53
HETATM   53  C   UNK     0     -23.604 -21.053  17.346  0.00  0.00     0.139 C 
HETATM   54  O   UNK     0     -24.243 -22.109  17.209  0.00  0.00    -0.650 OA
BRANCH  53  55
HETATM   55  O   UNK     0     -22.351 -20.925  16.799  0.00  0.00    -0.776 OA
HETATM   56  H   UNK     0     -21.595 -20.410  17.185  0.00  0.00     0.167 HD
ENDBRANCH  53  55
ENDBRANCH  52  53
ENDBRANCH  51  52
ENDBRANCH  18  51
TORSDOF 16
ENDMDL
MODEL 3
REMARK VINA RESULT:      -9.4      2.371      7.272
REMARK  16 active torsions:
REMARK  status: ('A' for Active; 'I' for Inactive)
REMARK    1  A    between atoms: C_6  and  C_7 
REMARK    2  A    between atoms: C_7  and  C_8 
REMARK    3  A    between atoms: C_8  and  C_9 
REMARK    4  A    between atoms: C_9  and  O_11 
REMARK    5  A    between atoms: C_16  and  C_17 
REMARK    6  A    between atoms: C_17  and  C_18 
REMARK    7  A    between atoms: C_18  and  C_19 
REMARK    8  A    between atoms: C_19  and  O_21 
REMARK    9  A    between atoms: C_28  and  C_29 
REMARK   10  A    between atoms: C_29  and  C_30 
REMARK   11  A    between atoms: C_30  and  C_31 
REMARK   12  A    between atoms: C_31  and  O_33 
REMARK   13  A    between atoms: C_42  and  C_43 
REMARK   14  A    between atoms: C_43  and  C_44 
REMARK   15  A    between atoms: C_44  and  C_45 
REMARK   16  A    between atoms: C_45  and  O_47 
ROOT
HETATM    1  C   UNK     0     -20.153 -16.209  27.036  0.00  0.00     0.051 C 
HETATM    2  C   UNK     0     -20.863 -16.693  25.788  0.00  0.00    -0.031 A 
HETATM    3  C   UNK     0     -20.458 -17.634  24.854  0.00  0.00     0.021 A 
HETATM    4  N   UNK     0     -21.399 -17.726  23.884  0.00  0.00    -0.361 N 
HETATM    5  C   UNK     0     -22.398 -16.871  24.185  0.00  0.00     0.022 A 
HETATM    6  C   UNK     0     -22.094 -16.207  25.368  0.00  0.00    -0.027 A 
HETATM    7  C   UNK     0     -23.708 -16.658  23.492  0.00  0.00     0.115 C 
HETATM    8  C   UNK     0     -24.446 -17.902  23.029  0.00  0.00     0.021 A 
HETATM    9  N   UNK     0     -24.512 -19.104  23.623  0.00  0.00    -0.361 N 
HETATM   10  C   UNK     0     -25.200 -19.935  22.811  0.00  0.00     0.022 A 
HETATM   11  C   UNK     0     -25.595 -19.247  21.668  0.00  0.00    -0.027 A 
HETATM   12  C   UNK     0     -25.123 -17.965  21.799  0.00  0.00    -0.031 A 
HETATM   13  C   UNK     0     -25.319 -16.854  20.792  0.00  0.00     0.051 C 
HETATM   14  C   UNK     0     -25.465 -21.417  23.055  0.00  0.00     0.115 C 
HETATM   15  C   UNK     0     -24.204 -22.260  23.158  0.00  0.00     0.021 A 
HETATM   16  N   UNK     0     -23.189 -22.117  24.031  0.00  0.00    -0.361 N 
HETATM   17  C   UNK     0     -22.238 -23.009  23.748  0.00  0.00     0.022 A 
HETATM   18  C   UNK     0     -22.657 -23.777  22.643  0.00  0.00    -0.027 A 
HETATM   19  C   UNK     0     -23.890 -23.299  22.284  0.00  0.00    -0.031 A 
HETATM   20  C   UNK     0     -24.721 -23.874  21.152  0.00  0.00     0.051 C 
HETATM   21  C   UNK     0     -20.879 -23.213  24.378  0.00  0.00     0.115 C 
HETATM   22  C   UNK     0     -20.153 -21.988  24.882  0.00  0.00     0.022 A 
HETATM   23  N   UNK     0     -20.073 -20.778  24.315  0.00  0.00    -0.361 N 
HETATM   24  C   UNK     0     -19.451 -19.946  25.175  0.00  0.00     0.021 A 
HETATM   25  C   UNK     0     -19.114 -20.641  26.321  0.00  0.00    -0.031 A 
HETATM   26  C   UNK     0     -18.372 -20.153  27.548  0.00  0.00     0.051 C 
HETATM   27  C   UNK     0     -19.552 -21.950  26.157  0.00  0.00    -0.027 A 
HETATM   28  C   UNK     0     -19.210 -18.455  25.017  0.00  0.00     0.115 C 
HETATM   29  H   UNK     0     -21.331 -18.366  22.974  0.00  0.00     0.165 HD
HETATM   30  H   UNK     0     -24.118 -19.355  24.638  0.00  0.00     0.165 HD
HETATM   31  H   UNK     0     -23.164 -21.403  24.895  0.00  0.00     0.165 HD
HETATM   32  H   UNK     0     -20.416 -20.509  23.282  0.00  0.00     0.165 HD
ENDROOT
BRANCH   6  33
HETATM   33  C   UNK     0     -22.874 -15.157  26.119  0.00  0.00     0.051 C 
BRANCH  33  34
HETATM   34  C   UNK     0     -23.480 -14.156  25.164  0.00  0.00     0.114 C 
BRANCH  34  35
HETATM   35  C   UNK     0     -24.670 -13.561  25.838  0.00  0.00     0.139 C 
HETATM   36  O   UNK     0     -25.779 -14.170  25.827  0.00  0.00    -0.650 OA
BRANCH  35  37
HETATM   37  O   UNK     0     -24.624 -12.339  26.498  0.00  0.00    -0.776 OA
HETATM   38  H   UNK     0     -24.541 -12.275  27.499  0.00  0.00     0.167 HD
ENDBRANCH  35  37
ENDBRANCH  34  35
ENDBRANCH  33  34
ENDBRANCH   6  33
BRANCH  27  39
HETATM   39  C   UNK     0     -19.303 -23.020  27.161  0.00  0.00     0.051 C 
BRANCH  39  40
HETATM   40  C   UNK     0     -20.346 -23.304  28.146  0.00  0.00     0.114 C 
BRANCH  40  41
HETATM   41  C   UNK     0     -20.039 -23.717  29.497  0.00  0.00     0.139 C 
HETATM   42  O   UNK     0     -19.708 -24.871  29.801  0.00  0.00    -0.650 OA
BRANCH  41  43
HETATM   43  O   UNK     0     -20.116 -22.758  30.547  0.00  0.00    -0.776 OA
HETATM   44  H   UNK     0     -19.654 -21.879  30.346  0.00  0.00     0.167 HD
ENDBRANCH  41  43
ENDBRANCH  40  41
ENDBRANCH  39  40
ENDBRANCH  27  39
BRANCH  11  45
HETATM   45  C   UNK     0     -26.386 -19.752  20.491  0.00  0.00     0.051 C 
BRANCH  45  46
HETATM   46  C   UNK     0     -25.663 -19.672  19.196  0.00  0.00     0.114 C 
BRANCH  46  47
HETATM   47  C   UNK     0     -24.960 -20.973  19.001  0.00  0.00     0.139 C 
HETATM   48  O   UNK     0     -25.580 -21.908  18.476  0.00  0.00    -0.650 OA
BRANCH  47  49
HETATM   49  O   UNK     0     -23.656 -21.133  19.397  0.00  0.00    -0.776 OA
HETATM   50  H   UNK     0     -23.367 -21.890  20.028  0.00  0.00     0.167 HD
ENDBRANCH  47  49
ENDBRANCH  46  47
ENDBRANCH  45  46
ENDBRANCH  11  45
BRANCH  18  51
HETATM   51  C   UNK     0     -21.930 -24.918  21.980  0.00  0.00     0.051 C 
BRANCH  51  52
HETATM   52  C   UNK     0     -22.321 -26.174  22.745  0.00  0.00     0.114 C 
BRANCH  52  53
HETATM   53  C   UNK     0     -21.151 -26.832  23.357  0.00  0.00     0.139 C 
HETATM   54  O   UNK     0     -21.309 -27.797  24.122  0.00  0.00    -0.650 OA
BRANCH  53  55
HETATM   55  O   UNK     0     -19.888 -26.368  23.079  0.00  0.00    -0.776 OA
HETATM   56  H   UNK     0     -19.530 -26.153  22.178  0.00  0.00     0.167 HD
ENDBRANCH  53  55
ENDBRANCH  52  53
ENDBRANCH  51  52
ENDBRANCH  18  51
TORSDOF 16
ENDMDL
MODEL 4
REMARK VINA RESULT:      -9.4      3.979      8.929
REMARK  16 active torsions:
REMARK  status: ('A' for Active; 'I' for Inactive)
REMARK    1  A    between atoms: C_6  and  C_7 
REMARK    2  A    between atoms: C_7  and  C_8 
REMARK    3  A    between atoms: C_8  and  C_9 
REMARK    4  A    between atoms: C_9  and  O_11 
REMARK    5  A    between atoms: C_16  and  C_17 
REMARK    6  A    between atoms: C_17  and  C_18 
REMARK    7  A    between atoms: C_18  and  C_19 
REMARK    8  A    between atoms: C_19  and  O_21 
REMARK    9  A    between atoms: C_28  and  C_29 
REMARK   10  A    between atoms: C_29  and  C_30 
REMARK   11  A    between atoms: C_30  and  C_31 
REMARK   12  A    between atoms: C_31  and  O_33 
REMARK   13  A    between atoms: C_42  and  C_43 
REMARK   14  A    between atoms: C_43  and  C_44 
REMARK   15  A    between atoms: C_44  and  C_45 
REMARK   16  A    between atoms: C_45  and  O_47 
ROOT
HETATM    1  C   UNK     0     -25.206 -20.740  17.466  0.00  0.00     0.051 C 
HETATM    2  C   UNK     0     -24.265 -21.926  17.424  0.00  0.00    -0.031 A 
HETATM    3  C   UNK     0     -23.177 -22.216  18.233  0.00  0.00     0.021 A 
HETATM    4  N   UNK     0     -22.608 -23.369  17.810  0.00  0.00    -0.361 N 
HETATM    5  C   UNK     0     -23.314 -23.826  16.755  0.00  0.00     0.022 A 
HETATM    6  C   UNK     0     -24.356 -22.945  16.484  0.00  0.00    -0.027 A 
HETATM    7  C   UNK     0     -23.159 -25.100  15.986  0.00  0.00     0.115 C 
HETATM    8  C   UNK     0     -22.897 -26.358  16.796  0.00  0.00     0.021 A 
HETATM    9  N   UNK     0     -23.380 -26.690  18.003  0.00  0.00    -0.361 N 
HETATM   10  C   UNK     0     -22.808 -27.854  18.377  0.00  0.00     0.022 A 
HETATM   11  C   UNK     0     -21.941 -28.289  17.379  0.00  0.00    -0.027 A 
HETATM   12  C   UNK     0     -21.993 -27.351  16.379  0.00  0.00    -0.031 A 
HETATM   13  C   UNK     0     -21.214 -27.409  15.085  0.00  0.00     0.051 C 
HETATM   14  C   UNK     0     -23.015 -28.574  19.707  0.00  0.00     0.115 C 
HETATM   15  C   UNK     0     -22.590 -27.761  20.919  0.00  0.00     0.021 A 
HETATM   16  N   UNK     0     -23.047 -26.553  21.299  0.00  0.00    -0.361 N 
HETATM   17  C   UNK     0     -22.372 -26.148  22.377  0.00  0.00     0.022 A 
HETATM   18  C   UNK     0     -21.436 -27.143  22.721  0.00  0.00    -0.027 A 
HETATM   19  C   UNK     0     -21.584 -28.149  21.801  0.00  0.00    -0.031 A 
HETATM   20  C   UNK     0     -20.786 -29.440  21.827  0.00  0.00     0.051 C 
HETATM   21  C   UNK     0     -22.451 -24.845  23.141  0.00  0.00     0.115 C 
HETATM   22  C   UNK     0     -22.754 -23.592  22.354  0.00  0.00     0.022 A 
HETATM   23  N   UNK     0     -22.292 -23.237  21.148  0.00  0.00    -0.361 N 
HETATM   24  C   UNK     0     -22.933 -22.116  20.762  0.00  0.00     0.021 A 
HETATM   25  C   UNK     0     -23.822 -21.733  21.747  0.00  0.00    -0.031 A 
HETATM   26  C   UNK     0     -24.734 -20.524  21.792  0.00  0.00     0.051 C 
HETATM   27  C   UNK     0     -23.726 -22.662  22.777  0.00  0.00    -0.027 A 
HETATM   28  C   UNK     0     -22.815 -21.388  19.433  0.00  0.00     0.115 C 
HETATM   29  H   UNK     0     -21.687 -23.832  18.236  0.00  0.00     0.165 HD
HETATM   30  H   UNK     0     -24.161 -26.130  18.573  0.00  0.00     0.165 HD
HETATM   31  H   UNK     0     -23.897 -25.995  20.826  0.00  0.00     0.165 HD
HETATM   32  H   UNK     0     -21.477 -23.752  20.576  0.00  0.00     0.165 HD
ENDROOT
BRANCH   6  33
HETATM   33  C   UNK     0     -25.416 -22.997  15.414  0.00  0.00     0.051 C 
BRANCH  33  34
HETATM   34  C   UNK     0     -25.117 -22.004  14.316  0.00  0.00     0.114 C 
BRANCH  34  35
HETATM   35  C   UNK     0     -23.967 -22.538  13.532  0.00  0.00     0.139 C 
HETATM   36  O   UNK     0     -24.079 -23.628  12.898  0.00  0.00    -0.650 OA
BRANCH  35  37
HETATM   37  O   UNK     0     -22.744 -21.883  13.455  0.00  0.00    -0.776 OA
HETATM   38  H   UNK     0     -22.024 -22.169  12.812  0.00  0.00     0.167 HD
ENDBRANCH  35  37
ENDBRANCH  34  35
ENDBRANCH  33  34
ENDBRANCH   6  33
BRANCH  27  39
HETATM   39  C   UNK     0     -24.486 -22.543  24.051  0.00  0.00     0.051 C 
BRANCH  39  40
HETATM   40  C   UNK     0     -25.605 -23.457  24.279  0.00  0.00     0.114 C 
BRANCH  40  41
HETATM   41  C   UNK     0     -26.586 -23.746  23.257  0.00  0.00     0.139 C 
HETATM   42  O   UNK     0     -26.439 -24.627  22.399  0.00  0.00    -0.650 OA
BRANCH  41  43
HETATM   43  O   UNK     0     -27.789 -22.986  23.220  0.00  0.00    -0.776 OA
HETATM   44  H   UNK     0     -27.667 -21.998  23.408  0.00  0.00     0.167 HD
ENDBRANCH  41  43
ENDBRANCH  40  41
ENDBRANCH  39  40
ENDBRANCH  27  39
BRANCH  11  45
HETATM   45  C   UNK     0     -21.093 -29.532  17.344  0.00  0.00     0.051 C 
BRANCH  45  46
HETATM   46  C   UNK     0     -21.728 -30.680  16.649  0.00  0.00     0.114 C 
BRANCH  46  47
HETATM   47  C   UNK     0     -20.891 -31.882  16.926  0.00  0.00     0.139 C 
HETATM   48  O   UNK     0     -20.893 -32.808  16.102  0.00  0.00    -0.650 OA
BRANCH  47  49
HETATM   49  O   UNK     0     -20.134 -31.964  18.067  0.00  0.00    -0.776 OA
HETATM   50  H   UNK     0     -20.042 -32.837  18.599  0.00  0.00     0.167 HD
ENDBRANCH  47  49
ENDBRANCH  46  47
ENDBRANCH  45  46
ENDBRANCH  11  45
BRANCH  18  51
HETATM   51  C   UNK     0     -20.469 -27.146  23.877  0.00  0.00     0.051 C 
BRANCH  51  52
HETATM   52  C   UNK     0     -19.275 -26.313  23.434  0.00  0.00     0.114 C 
BRANCH  52  53
HETATM   53  C   UNK     0     -18.038 -27.116  23.374  0.00  0.00     0.139 C 
HETATM   54  O   UNK     0     -16.986 -26.606  22.954  0.00  0.00    -0.650 OA
BRANCH  53  55
HETATM   55  O   UNK     0     -18.058 -28.427  23.781  0.00  0.00    -0.776 OA
HETATM   56  H   UNK     0     -18.629 -28.807  24.500  0.00  0.00     0.167 HD
ENDBRANCH  53  55
ENDBRANCH  52  53
ENDBRANCH  51  52
ENDBRANCH  18  51
TORSDOF 16
ENDMDL
MODEL 5
REMARK VINA RESULT:      -9.2      2.488      7.177
REMARK  16 active torsions:
REMARK  status: ('A' for Active; 'I' for Inactive)
REMARK    1  A    between atoms: C_6  and  C_7 
REMARK    2  A    between atoms: C_7  and  C_8 
REMARK    3  A    between atoms: C_8  and  C_9 
REMARK    4  A    between atoms: C_9  and  O_11 
REMARK    5  A    between atoms: C_16  and  C_17 
REMARK    6  A    between atoms: C_17  and  C_18 
REMARK    7  A    between atoms: C_18  and  C_19 
REMARK    8  A    between atoms: C_19  and  O_21 
REMARK    9  A    between atoms: C_28  and  C_29 
REMARK   10  A    between atoms: C_29  and  C_30 
REMARK   11  A    between atoms: C_30  and  C_31 
REMARK   12  A    between atoms: C_31  and  O_33 
REMARK   13  A    between atoms: C_42  and  C_43 
REMARK   14  A    between atoms: C_43  and  C_44 
REMARK   15  A    between atoms: C_44  and  C_45 
REMARK   16  A    between atoms: C_45  and  O_47 
ROOT
HETATM    1  C   UNK     0     -22.774 -18.340  24.622  0.00  0.00     0.051 C 
HETATM    2  C   UNK     0     -22.608 -19.414  23.566  0.00  0.00    -0.031 A 
HETATM    3  C   UNK     0     -21.494 -20.177  23.255  0.00  0.00     0.021 A 
HETATM    4  N   UNK     0     -21.794 -20.993  22.216  0.00  0.00    -0.361 N 
HETATM    5  C   UNK     0     -23.077 -20.773  21.865  0.00  0.00     0.022 A 
HETATM    6  C   UNK     0     -23.616 -19.789  22.687  0.00  0.00    -0.027 A 
HETATM    7  C   UNK     0     -23.920 -21.475  20.846  0.00  0.00     0.115 C 
HETATM    8  C   UNK     0     -23.801 -22.988  20.790  0.00  0.00     0.021 A 
HETATM    9  N   UNK     0     -23.617 -23.851  21.801  0.00  0.00    -0.361 N 
HETATM   10  C   UNK     0     -23.478 -25.087  21.278  0.00  0.00     0.022 A 
HETATM   11  C   UNK     0     -23.586 -25.021  19.892  0.00  0.00    -0.027 A 
HETATM   12  C   UNK     0     -23.790 -23.701  19.578  0.00  0.00    -0.031 A 
HETATM   13  C   UNK     0     -23.970 -23.153  18.180  0.00  0.00     0.051 C 
HETATM   14  C   UNK     0     -23.186 -26.368  22.055  0.00  0.00     0.115 C 
HETATM   15  C   UNK     0     -21.871 -26.340  22.817  0.00  0.00     0.021 A 
HETATM   16  N   UNK     0     -21.491 -25.466  23.768  0.00  0.00    -0.361 N 
HETATM   17  C   UNK     0     -20.238 -25.738  24.138  0.00  0.00     0.022 A 
HETATM   18  C   UNK     0     -19.783 -26.849  23.400  0.00  0.00    -0.027 A 
HETATM   19  C   UNK     0     -20.816 -27.217  22.577  0.00  0.00    -0.031 A 
HETATM   20  C   UNK     0     -20.759 -28.402  21.631  0.00  0.00     0.051 C 
HETATM   21  C   UNK     0     -19.333 -25.016  25.111  0.00  0.00     0.115 C 
HETATM   22  C   UNK     0     -19.471 -23.515  25.209  0.00  0.00     0.022 A 
HETATM   23  N   UNK     0     -19.659 -22.633  24.220  0.00  0.00    -0.361 N 
HETATM   24  C   UNK     0     -19.872 -21.420  24.769  0.00  0.00     0.021 A 
HETATM   25  C   UNK     0     -19.809 -21.522  26.145  0.00  0.00    -0.031 A 
HETATM   26  C   UNK     0     -19.943 -20.433  27.189  0.00  0.00     0.051 C 
HETATM   27  C   UNK     0     -19.553 -22.854  26.451  0.00  0.00    -0.027 A 
HETATM   28  C   UNK     0     -20.224 -20.125  24.056  0.00  0.00     0.115 C 
HETATM   29  H   UNK     0     -21.085 -21.691  21.713  0.00  0.00     0.165 HD
HETATM   30  H   UNK     0     -23.633 -23.597  22.890  0.00  0.00     0.165 HD
HETATM   31  H   UNK     0     -22.136 -24.669  24.222  0.00  0.00     0.165 HD
HETATM   32  H   UNK     0     -19.601 -22.850  23.121  0.00  0.00     0.165 HD
ENDROOT
BRANCH   6  33
HETATM   33  C   UNK     0     -24.997 -19.184  22.700  0.00  0.00     0.051 C 
BRANCH  33  34
HETATM   34  C   UNK     0     -25.855 -19.830  23.762  0.00  0.00     0.114 C 
BRANCH  34  35
HETATM   35  C   UNK     0     -27.111 -20.290  23.102  0.00  0.00     0.139 C 
HETATM   36  O   UNK     0     -27.676 -19.566  22.233  0.00  0.00    -0.650 OA
BRANCH  35  37
HETATM   37  O   UNK     0     -27.710 -21.509  23.399  0.00  0.00    -0.776 OA
HETATM   38  H   UNK     0     -27.330 -22.138  24.088  0.00  0.00     0.167 HD
ENDBRANCH  35  37
ENDBRANCH  34  35
ENDBRANCH  33  34
ENDBRANCH   6  33
BRANCH  27  39
HETATM   39  C   UNK     0     -19.345 -23.341  27.842  0.00  0.00     0.051 C 
BRANCH  39  40
HETATM   40  C   UNK     0     -17.974 -23.554  28.305  0.00  0.00     0.114 C 
BRANCH  40  41
HETATM   41  C   UNK     0     -16.924 -22.587  28.077  0.00  0.00     0.139 C 
HETATM   42  O   UNK     0     -16.826 -21.524  28.705  0.00  0.00    -0.650 OA
BRANCH  41  43
HETATM   43  O   UNK     0     -15.943 -22.854  27.080  0.00  0.00    -0.776 OA
HETATM   44  H   UNK     0     -15.974 -22.229  26.284  0.00  0.00     0.167 HD
ENDBRANCH  41  43
ENDBRANCH  40  41
ENDBRANCH  39  40
ENDBRANCH  27  39
BRANCH  11  45
HETATM   45  C   UNK     0     -23.506 -26.138  18.887  0.00  0.00     0.051 C 
BRANCH  45  46
HETATM   46  C   UNK     0     -24.142 -27.403  19.335  0.00  0.00     0.114 C 
BRANCH  46  47
HETATM   47  C   UNK     0     -23.518 -28.511  18.556  0.00  0.00     0.139 C 
HETATM   48  O   UNK     0     -22.284 -28.536  18.446  0.00  0.00    -0.650 OA
BRANCH  47  49
HETATM   49  O   UNK     0     -24.292 -29.482  17.973  0.00  0.00    -0.776 OA
HETATM   50  H   UNK     0     -23.963 -30.449  17.864  0.00  0.00     0.167 HD
ENDBRANCH  47  49
ENDBRANCH  46  47
ENDBRANCH  45  46
ENDBRANCH  11  45
BRANCH  18  51
HETATM   51  C   UNK     0     -18.444 -27.535  23.489  0.00  0.00     0.051 C 
BRANCH  51  52
HETATM   52  C   UNK     0     -17.719 -27.225  22.189  0.00  0.00     0.114 C 
BRANCH  52  53
HETATM   53  C   UNK     0     -16.498 -26.427  22.418  0.00  0.00     0.139 C 
HETATM   54  O   UNK     0     -15.556 -26.488  21.612  0.00  0.00    -0.650 OA
BRANCH  53  55
HETATM   55  O   UNK     0     -16.411 -25.621  23.527  0.00  0.00    -0.776 OA
HETATM   56  H   UNK     0     -15.999 -24.719  23.562  0.00  0.00     0.167 HD
ENDBRANCH  53  55
ENDBRANCH  52  53
ENDBRANCH  51  52
ENDBRANCH  18  51
TORSDOF 16
ENDMDL
MODEL 6
REMARK VINA RESULT:      -9.2      2.758      8.433
REMARK  16 active torsions:
REMARK  status: ('A' for Active; 'I' for Inactive)
REMARK    1  A    between atoms: C_6  and  C_7 
REMARK    2  A    between atoms: C_7  and  C_8 
REMARK    3  A    between atoms: C_8  and  C_9 
REMARK    4  A    between atoms: C_9  and  O_11 
REMARK    5  A    between atoms: C_16  and  C_17 
REMARK    6  A    between atoms: C_17  and  C_18 
REMARK    7  A    between atoms: C_18  and  C_19 
REMARK    8  A    between atoms: C_19  and  O_21 
REMARK    9  A    between atoms: C_28  and  C_29 
REMARK   10  A    between atoms: C_29  and  C_30 
REMARK   11  A    between atoms: C_30  and  C_31 
REMARK   12  A    between atoms: C_31  and  O_33 
REMARK   13  A    between atoms: C_42  and  C_43 
REMARK   14  A    between atoms: C_43  and  C_44 
REMARK   15  A    between atoms: C_44  and  C_45 
REMARK   16  A    between atoms: C_45  and  O_47 
ROOT
HETATM    1  C   UNK     0     -23.546 -23.231  21.289  0.00  0.00     0.051 C 
HETATM    2  C   UNK     0     -22.240 -23.452  22.025  0.00  0.00    -0.031 A 
HETATM    3  C   UNK     0     -21.184 -22.576  22.226  0.00  0.00     0.021 A 
HETATM    4  N   UNK     0     -20.208 -23.213  22.915  0.00  0.00    -0.361 N 
HETATM    5  C   UNK     0     -20.621 -24.472  23.165  0.00  0.00     0.022 A 
HETATM    6  C   UNK     0     -21.888 -24.656  22.620  0.00  0.00    -0.027 A 
HETATM    7  C   UNK     0     -19.961 -25.549  23.968  0.00  0.00     0.115 C 
HETATM    8  C   UNK     0     -19.325 -25.127  25.281  0.00  0.00     0.021 A 
HETATM    9  N   UNK     0     -19.743 -24.196  26.152  0.00  0.00    -0.361 N 
HETATM   10  C   UNK     0     -18.820 -24.093  27.131  0.00  0.00     0.022 A 
HETATM   11  C   UNK     0     -17.783 -24.989  26.890  0.00  0.00    -0.027 A 
HETATM   12  C   UNK     0     -18.095 -25.645  25.726  0.00  0.00    -0.031 A 
HETATM   13  C   UNK     0     -17.253 -26.719  25.075  0.00  0.00     0.051 C 
HETATM   14  C   UNK     0     -18.852 -23.112  28.300  0.00  0.00     0.115 C 
HETATM   15  C   UNK     0     -18.840 -21.652  27.879  0.00  0.00     0.021 A 
HETATM   16  N   UNK     0     -19.728 -21.016  27.092  0.00  0.00    -0.361 N 
HETATM   17  C   UNK     0     -19.326 -19.757  26.904  0.00  0.00     0.022 A 
HETATM   18  C   UNK     0     -18.123 -19.560  27.610  0.00  0.00    -0.027 A 
HETATM   19  C   UNK     0     -17.830 -20.753  28.217  0.00  0.00    -0.031 A 
HETATM   20  C   UNK     0     -16.625 -20.970  29.115  0.00  0.00     0.051 C 
HETATM   21  C   UNK     0     -19.926 -18.663  26.051  0.00  0.00     0.115 C 
HETATM   22  C   UNK     0     -20.601 -19.072  24.763  0.00  0.00     0.022 A 
HETATM   23  N   UNK     0     -20.209 -19.999  23.879  0.00  0.00    -0.361 N 
HETATM   24  C   UNK     0     -21.181 -20.140  22.955  0.00  0.00     0.021 A 
HETATM   25  C   UNK     0     -22.219 -19.276  23.245  0.00  0.00    -0.031 A 
HETATM   26  C   UNK     0     -23.505 -19.040  22.481  0.00  0.00     0.051 C 
HETATM   27  C   UNK     0     -21.871 -18.581  24.398  0.00  0.00    -0.027 A 
HETATM   28  C   UNK     0     -21.235 -21.134  21.807  0.00  0.00     0.115 C 
HETATM   29  H   UNK     0     -19.217 -22.780  23.185  0.00  0.00     0.165 HD
HETATM   30  H   UNK     0     -20.714 -23.644  26.104  0.00  0.00     0.165 HD
HETATM   31  H   UNK     0     -20.684 -21.451  26.699  0.00  0.00     0.165 HD
HETATM   32  H   UNK     0     -19.223 -20.532  23.875  0.00  0.00     0.165 HD
ENDROOT
BRANCH   6  33
HETATM   33  C   UNK     0     -22.776 -25.875  22.620  0.00  0.00     0.051 C 
BRANCH  33  34
HETATM   34  C   UNK     0     -23.812 -25.782  23.714  0.00  0.00     0.114 C 
BRANCH  34  35
HETATM   35  C   UNK     0     -25.062 -26.414  23.200  0.00  0.00     0.139 C 
HETATM   36  O   UNK     0     -25.546 -26.055  22.087  0.00  0.00    -0.650 OA
BRANCH  35  37
HETATM   37  O   UNK     0     -25.741 -27.405  23.897  0.00  0.00    -0.776 OA
HETATM   38  H   UNK     0     -25.888 -27.355  24.892  0.00  0.00     0.167 HD
ENDBRANCH  35  37
ENDBRANCH  34  35
ENDBRANCH  33  34
ENDBRANCH   6  33
BRANCH  27  39
HETATM   39  C   UNK     0     -22.715 -17.503  24.981  0.00  0.00     0.051 C 
BRANCH  39  40
HETATM   40  C   UNK     0     -22.545 -16.140  24.479  0.00  0.00     0.114 C 
BRANCH  40  41
HETATM   41  C   UNK     0     -23.242 -15.013  25.057  0.00  0.00     0.139 C 
HETATM   42  O   UNK     0     -23.875 -15.073  26.120  0.00  0.00    -0.650 OA
BRANCH  41  43
HETATM   43  O   UNK     0     -23.209 -13.760  24.382  0.00  0.00    -0.776 OA
HETATM   44  H   UNK     0     -22.281 -13.443  24.132  0.00  0.00     0.167 HD
ENDBRANCH  41  43
ENDBRANCH  40  41
ENDBRANCH  39  40
ENDBRANCH  27  39
BRANCH  11  45
HETATM   45  C   UNK     0     -16.544 -25.238  27.707  0.00  0.00     0.051 C 
BRANCH  45  46
HETATM   46  C   UNK     0     -16.646 -26.401  28.625  0.00  0.00     0.114 C 
BRANCH  46  47
HETATM   47  C   UNK     0     -15.357 -27.145  28.541  0.00  0.00     0.139 C 
HETATM   48  O   UNK     0     -14.491 -26.927  29.400  0.00  0.00    -0.650 OA
BRANCH  47  49
HETATM   49  O   UNK     0     -15.133 -28.051  27.536  0.00  0.00    -0.776 OA
HETATM   50  H   UNK     0     -15.680 -28.916  27.449  0.00  0.00     0.167 HD
ENDBRANCH  47  49
ENDBRANCH  46  47
ENDBRANCH  45  46
ENDBRANCH  11  45
BRANCH  18  51
HETATM   51  C   UNK     0     -17.308 -18.297  27.718  0.00  0.00     0.051 C 
BRANCH  51  52
HETATM   52  C   UNK     0     -18.196 -17.276  28.414  0.00  0.00     0.114 C 
BRANCH  52  53
HETATM   53  C   UNK     0     -18.095 -15.943  27.788  0.00  0.00     0.139 C 
HETATM   54  O   UNK     0     -18.510 -14.941  28.391  0.00  0.00    -0.650 OA
BRANCH  53  55
HETATM   55  O   UNK     0     -17.542 -15.820  26.537  0.00  0.00    -0.776 OA
HETATM   56  H   UNK     0     -16.676 -16.204  26.240  0.00  0.00     0.167 HD
ENDBRANCH  53  55
ENDBRANCH  52  53
ENDBRANCH  51  52
ENDBRANCH  18  51
TORSDOF 16
ENDMDL
MODEL 7
REMARK VINA RESULT:      -9.2     29.117     32.038
REMARK  16 active torsions:
REMARK  status: ('A' for Active; 'I' for Inactive)
REMARK    1  A    between atoms: C_6  and  C_7 
REMARK    2  A    between atoms: C_7  and  C_8 
REMARK    3  A    between atoms: C_8  and  C_9 
REMARK    4  A    between atoms: C_9  and  O_11 
REMARK    5  A    between atoms: C_16  and  C_17 
REMARK    6  A    between atoms: C_17  and  C_18 
REMARK    7  A    between atoms: C_18  and  C_19 
REMARK    8  A    between atoms: C_19  and  O_21 
REMARK    9  A    between atoms: C_28  and  C_29 
REMARK   10  A    between atoms: C_29  and  C_30 
REMARK   11  A    between atoms: C_30  and  C_31 
REMARK   12  A    between atoms: C_31  and  O_33 
REMARK   13  A    between atoms: C_42  and  C_43 
REMARK   14  A    between atoms: C_43  and  C_44 
REMARK   15  A    between atoms: C_44  and  C_45 
REMARK   16  A    between atoms: C_45  and  O_47 
ROOT
HETATM    1  C   UNK     0      11.091 -17.878  16.883  0.00  0.00     0.051 C 
HETATM    2  C   UNK     0      10.611 -16.727  17.743  0.00  0.00    -0.031 A 
HETATM    3  C   UNK     0      10.596 -15.369  17.466  0.00  0.00     0.021 A 
HETATM    4  N   UNK     0      10.108 -14.705  18.541  0.00  0.00    -0.361 N 
HETATM    5  C   UNK     0       9.804 -15.610  19.493  0.00  0.00     0.022 A 
HETATM    6  C   UNK     0      10.110 -16.885  19.029  0.00  0.00    -0.027 A 
HETATM    7  C   UNK     0       9.153 -15.408  20.826  0.00  0.00     0.115 C 
HETATM    8  C   UNK     0       7.973 -14.453  20.870  0.00  0.00     0.021 A 
HETATM    9  N   UNK     0       7.027 -14.250  19.941  0.00  0.00    -0.361 N 
HETATM   10  C   UNK     0       6.233 -13.244  20.365  0.00  0.00     0.022 A 
HETATM   11  C   UNK     0       6.674 -12.793  21.605  0.00  0.00    -0.027 A 
HETATM   12  C   UNK     0       7.771 -13.551  21.930  0.00  0.00    -0.031 A 
HETATM   13  C   UNK     0       8.581 -13.417  23.200  0.00  0.00     0.051 C 
HETATM   14  C   UNK     0       5.063 -12.634  19.597  0.00  0.00     0.115 C 
HETATM   15  C   UNK     0       5.457 -12.012  18.267  0.00  0.00     0.021 A 
HETATM   16  N   UNK     0       6.057 -12.615  17.224  0.00  0.00    -0.361 N 
HETATM   17  C   UNK     0       6.297 -11.710  16.273  0.00  0.00     0.022 A 
HETATM   18  C   UNK     0       5.822 -10.459  16.713  0.00  0.00    -0.027 A 
HETATM   19  C   UNK     0       5.297 -10.662  17.963  0.00  0.00    -0.031 A 
HETATM   20  C   UNK     0       4.640  -9.572  18.790  0.00  0.00     0.051 C 
HETATM   21  C   UNK     0       7.008 -11.859  14.947  0.00  0.00     0.115 C 
HETATM   22  C   UNK     0       8.156 -12.839  14.877  0.00  0.00     0.022 A 
HETATM   23  N   UNK     0       9.111 -13.065  15.788  0.00  0.00    -0.361 N 
HETATM   24  C   UNK     0       9.843 -14.122  15.382  0.00  0.00     0.021 A 
HETATM   25  C   UNK     0       9.354 -14.581  14.174  0.00  0.00    -0.031 A 
HETATM   26  C   UNK     0       9.864 -15.713  13.307  0.00  0.00     0.051 C 
HETATM   27  C   UNK     0       8.274 -13.775  13.830  0.00  0.00    -0.027 A 
HETATM   28  C   UNK     0      10.976 -14.809  16.124  0.00  0.00     0.115 C 
HETATM   29  H   UNK     0      10.018 -13.597  18.633  0.00  0.00     0.165 HD
HETATM   30  H   UNK     0       6.886 -14.848  19.008  0.00  0.00     0.165 HD
HETATM   31  H   UNK     0       6.274 -13.712  17.137  0.00  0.00     0.165 HD
HETATM   32  H   UNK     0       9.304 -12.453  16.708  0.00  0.00     0.165 HD
ENDROOT
BRANCH   6  33
HETATM   33  C   UNK     0       9.965 -18.225  19.705  0.00  0.00     0.051 C 
BRANCH  33  34
HETATM   34  C   UNK     0      11.185 -18.537  20.540  0.00  0.00     0.114 C 
BRANCH  34  35
HETATM   35  C   UNK     0      10.708 -18.929  21.898  0.00  0.00     0.139 C 
HETATM   36  O   UNK     0      10.329 -18.044  22.720  0.00  0.00    -0.650 OA
BRANCH  35  37
HETATM   37  O   UNK     0      10.653 -20.251  22.320  0.00  0.00    -0.776 OA
HETATM   38  H   UNK     0      10.912 -21.016  21.717  0.00  0.00     0.167 HD
ENDBRANCH  35  37
ENDBRANCH  34  35
ENDBRANCH  33  34
ENDBRANCH   6  33
BRANCH  27  39
HETATM   39  C   UNK     0       7.529 -13.921  12.550  0.00  0.00     0.051 C 
BRANCH  39  40
HETATM   40  C   UNK     0       6.390 -14.837  12.510  0.00  0.00     0.114 C 
BRANCH  40  41
HETATM   41  C   UNK     0       5.577 -15.005  11.326  0.00  0.00     0.139 C 
HETATM   42  O   UNK     0       4.557 -14.341  11.097  0.00  0.00    -0.650 OA
BRANCH  41  43
HETATM   43  O   UNK     0       5.956 -15.981  10.361  0.00  0.00    -0.776 OA
HETATM   44  H   UNK     0       6.309 -15.597   9.493  0.00  0.00     0.167 HD
ENDBRANCH  41  43
ENDBRANCH  40  41
ENDBRANCH  39  40
ENDBRANCH  27  39
BRANCH  11  45
HETATM   45  C   UNK     0       6.103 -11.700  22.468  0.00  0.00     0.051 C 
BRANCH  45  46
HETATM   46  C   UNK     0       6.146 -10.352  21.846  0.00  0.00     0.114 C 
BRANCH  46  47
HETATM   47  C   UNK     0       7.560 -10.095  21.448  0.00  0.00     0.139 C 
HETATM   48  O   UNK     0       7.836 -10.045  20.242  0.00  0.00    -0.650 OA
BRANCH  47  49
HETATM   49  O   UNK     0       8.536  -9.918  22.397  0.00  0.00    -0.776 OA
HETATM   50  H   UNK     0       8.753 -10.638  23.096  0.00  0.00     0.167 HD
ENDBRANCH  47  49
ENDBRANCH  46  47
ENDBRANCH  45  46
ENDBRANCH  11  45
BRANCH  18  51
HETATM   51  C   UNK     0       5.847  -9.146  15.974  0.00  0.00     0.051 C 
BRANCH  51  52
HETATM   52  C   UNK     0       7.093  -8.414  16.448  0.00  0.00     0.114 C 
BRANCH  52  53
HETATM   53  C   UNK     0       8.103  -8.299  15.379  0.00  0.00     0.139 C 
HETATM   54  O   UNK     0       9.123  -9.006  15.407  0.00  0.00    -0.650 OA
BRANCH  53  55
HETATM   55  O   UNK     0       7.909  -7.403  14.355  0.00  0.00    -0.776 OA
HETATM   56  H   UNK     0       8.621  -6.920  13.859  0.00  0.00     0.167 HD
ENDBRANCH  53  55
ENDBRANCH  52  53
ENDBRANCH  51  52
ENDBRANCH  18  51
TORSDOF 16
ENDMDL
MODEL 8
REMARK VINA RESULT:      -9.0      3.647      6.139
REMARK  16 active torsions:
REMARK  status: ('A' for Active; 'I' for Inactive)
REMARK    1  A    between atoms: C_6  and  C_7 
REMARK    2  A    between atoms: C_7  and  C_8 
REMARK    3  A    between atoms: C_8  and  C_9 
REMARK    4  A    between atoms: C_9  and  O_11 
REMARK    5  A    between atoms: C_16  and  C_17 
REMARK    6  A    between atoms: C_17  and  C_18 
REMARK    7  A    between atoms: C_18  and  C_19 
REMARK    8  A    between atoms: C_19  and  O_21 
REMARK    9  A    between atoms: C_28  and  C_29 
REMARK   10  A    between atoms: C_29  and  C_30 
REMARK   11  A    between atoms: C_30  and  C_31 
REMARK   12  A    between atoms: C_31  and  O_33 
REMARK   13  A    between atoms: C_42  and  C_43 
REMARK   14  A    between atoms: C_43  and  C_44 
REMARK   15  A    between atoms: C_44  and  C_45 
REMARK   16  A    between atoms: C_45  and  O_47 
ROOT
HETATM    1  C   UNK     0     -21.260 -29.348  17.050  0.00  0.00     0.051 C 
HETATM    2  C   UNK     0     -22.120 -28.108  17.184  0.00  0.00    -0.031 A 
HETATM    3  C   UNK     0     -22.985 -27.744  18.203  0.00  0.00     0.021 A 
HETATM    4  N   UNK     0     -23.569 -26.564  17.886  0.00  0.00    -0.361 N 
HETATM    5  C   UNK     0     -23.089 -26.165  16.690  0.00  0.00     0.022 A 
HETATM    6  C   UNK     0     -22.182 -27.109  16.221  0.00  0.00    -0.027 A 
HETATM    7  C   UNK     0     -23.339 -24.894  15.940  0.00  0.00     0.115 C 
HETATM    8  C   UNK     0     -23.346 -23.612  16.754  0.00  0.00     0.021 A 
HETATM    9  N   UNK     0     -22.592 -23.293  17.818  0.00  0.00    -0.361 N 
HETATM   10  C   UNK     0     -23.002 -22.091  18.277  0.00  0.00     0.022 A 
HETATM   11  C   UNK     0     -24.042 -21.619  17.482  0.00  0.00    -0.027 A 
HETATM   12  C   UNK     0     -24.264 -22.572  16.520  0.00  0.00    -0.031 A 
HETATM   13  C   UNK     0     -25.305 -22.485  15.427  0.00  0.00     0.051 C 
HETATM   14  C   UNK     0     -22.469 -21.368  19.510  0.00  0.00     0.115 C 
HETATM   15  C   UNK     0     -22.660 -22.138  20.807  0.00  0.00     0.021 A 
HETATM   16  N   UNK     0     -22.198 -23.365  21.109  0.00  0.00    -0.361 N 
HETATM   17  C   UNK     0     -22.641 -23.715  22.319  0.00  0.00     0.022 A 
HETATM   18  C   UNK     0     -23.421 -22.661  22.834  0.00  0.00    -0.027 A 
HETATM   19  C   UNK     0     -23.425 -21.679  21.878  0.00  0.00    -0.031 A 
HETATM   20  C   UNK     0     -24.124 -20.342  22.043  0.00  0.00     0.051 C 
HETATM   21  C   UNK     0     -22.467 -25.009  23.081  0.00  0.00     0.115 C 
HETATM   22  C   UNK     0     -22.414 -26.289  22.279  0.00  0.00     0.022 A 
HETATM   23  N   UNK     0     -23.149 -26.632  21.214  0.00  0.00    -0.361 N 
HETATM   24  C   UNK     0     -22.672 -27.795  20.726  0.00  0.00     0.021 A 
HETATM   25  C   UNK     0     -21.610 -28.216  21.503  0.00  0.00    -0.031 A 
HETATM   26  C   UNK     0     -20.779 -29.476  21.379  0.00  0.00     0.051 C 
HETATM   27  C   UNK     0     -21.426 -27.269  22.504  0.00  0.00    -0.027 A 
HETATM   28  C   UNK     0     -23.120 -28.532  19.476  0.00  0.00     0.115 C 
HETATM   29  H   UNK     0     -24.347 -26.041  18.490  0.00  0.00     0.165 HD
HETATM   30  H   UNK     0     -21.736 -23.890  18.217  0.00  0.00     0.165 HD
HETATM   31  H   UNK     0     -21.505 -23.979  20.476  0.00  0.00     0.165 HD
HETATM   32  H   UNK     0     -24.041 -26.077  20.821  0.00  0.00     0.165 HD
ENDROOT
BRANCH   6  33
HETATM   33  C   UNK     0     -21.382 -27.135  14.943  0.00  0.00     0.051 C 
BRANCH  33  34
HETATM   34  C   UNK     0     -22.157 -27.818  13.841  0.00  0.00     0.114 C 
BRANCH  34  35
HETATM   35  C   UNK     0     -22.657 -26.755  12.923  0.00  0.00     0.139 C 
HETATM   36  O   UNK     0     -23.800 -26.860  12.390  0.00  0.00    -0.650 OA
BRANCH  35  37
HETATM   37  O   UNK     0     -21.915 -25.621  12.614  0.00  0.00    -0.776 OA
HETATM   38  H   UNK     0     -22.331 -24.704  12.576  0.00  0.00     0.167 HD
ENDBRANCH  35  37
ENDBRANCH  34  35
ENDBRANCH  33  34
ENDBRANCH   6  33
BRANCH  27  39
HETATM   39  C   UNK     0     -20.412 -27.416  23.583  0.00  0.00     0.051 C 
BRANCH  39  40
HETATM   40  C   UNK     0     -19.199 -26.601  23.512  0.00  0.00     0.114 C 
BRANCH  40  41
HETATM   41  C   UNK     0     -17.933 -27.141  23.072  0.00  0.00     0.139 C 
HETATM   42  O   UNK     0     -17.816 -28.236  22.504  0.00  0.00    -0.650 OA
BRANCH  41  43
HETATM   43  O   UNK     0     -16.745 -26.388  23.294  0.00  0.00    -0.776 OA
HETATM   44  H   UNK     0     -16.210 -26.679  24.103  0.00  0.00     0.167 HD
ENDBRANCH  41  43
ENDBRANCH  40  41
ENDBRANCH  39  40
ENDBRANCH  27  39
BRANCH  11  45
HETATM   45  C   UNK     0     -24.808 -20.329  17.601  0.00  0.00     0.051 C 
BRANCH  45  46
HETATM   46  C   UNK     0     -26.007 -20.414  18.473  0.00  0.00     0.114 C 
BRANCH  46  47
HETATM   47  C   UNK     0     -26.057 -19.160  19.279  0.00  0.00     0.139 C 
HETATM   48  O   UNK     0     -25.128 -18.347  19.167  0.00  0.00    -0.650 OA
BRANCH  47  49
HETATM   49  O   UNK     0     -27.106 -18.912  20.128  0.00  0.00    -0.776 OA
HETATM   50  H   UNK     0     -27.195 -19.382  21.036  0.00  0.00     0.167 HD
ENDBRANCH  47  49
ENDBRANCH  46  47
ENDBRANCH  45  46
ENDBRANCH  11  45
BRANCH  18  51
HETATM   51  C   UNK     0     -24.109 -22.585  24.172  0.00  0.00     0.051 C 
BRANCH  51  52
HETATM   52  C   UNK     0     -25.408 -23.365  24.029  0.00  0.00     0.114 C 
BRANCH  52  53
HETATM   53  C   UNK     0     -26.574 -22.470  23.903  0.00  0.00     0.139 C 
HETATM   54  O   UNK     0     -26.550 -21.341  24.419  0.00  0.00    -0.650 OA
BRANCH  53  55
HETATM   55  O   UNK     0     -27.686 -22.895  23.218  0.00  0.00    -0.776 OA
HETATM   56  H   UNK     0     -27.903 -23.834  22.981  0.00  0.00     0.167 HD
ENDBRANCH  53  55
ENDBRANCH  52  53
ENDBRANCH  51  52
ENDBRANCH  18  51
TORSDOF 16
ENDMDL
MODEL 9
REMARK VINA RESULT:      -8.9      2.368      7.496
REMARK  16 active torsions:
REMARK  status: ('A' for Active; 'I' for Inactive)
REMARK    1  A    between atoms: C_6  and  C_7 
REMARK    2  A    between atoms: C_7  and  C_8 
REMARK    3  A    between atoms: C_8  and  C_9 
REMARK    4  A    between atoms: C_9  and  O_11 
REMARK    5  A    between atoms: C_16  and  C_17 
REMARK    6  A    between atoms: C_17  and  C_18 
REMARK    7  A    between atoms: C_18  and  C_19 
REMARK    8  A    between atoms: C_19  and  O_21 
REMARK    9  A    between atoms: C_28  and  C_29 
REMARK   10  A    between atoms: C_29  and  C_30 
REMARK   11  A    between atoms: C_30  and  C_31 
REMARK   12  A    between atoms: C_31  and  O_33 
REMARK   13  A    between atoms: C_42  and  C_43 
REMARK   14  A    between atoms: C_43  and  C_44 
REMARK   15  A    between atoms: C_44  and  C_45 
REMARK   16  A    between atoms: C_45  and  O_47 
ROOT
HETATM    1  C   UNK     0     -18.953 -24.119  26.609  0.00  0.00     0.051 C 
HETATM    2  C   UNK     0     -19.389 -22.916  25.798  0.00  0.00    -0.031 A 
HETATM    3  C   UNK     0     -19.572 -22.798  24.429  0.00  0.00     0.021 A 
HETATM    4  N   UNK     0     -19.937 -21.526  24.142  0.00  0.00    -0.361 N 
HETATM    5  C   UNK     0     -20.000 -20.834  25.298  0.00  0.00     0.022 A 
HETATM    6  C   UNK     0     -19.660 -21.672  26.354  0.00  0.00    -0.027 A 
HETATM    7  C   UNK     0     -20.442 -19.424  25.541  0.00  0.00     0.115 C 
HETATM    8  C   UNK     0     -21.680 -18.960  24.794  0.00  0.00     0.021 A 
HETATM    9  N   UNK     0     -22.779 -19.663  24.479  0.00  0.00    -0.361 N 
HETATM   10  C   UNK     0     -23.582 -18.874  23.733  0.00  0.00     0.022 A 
HETATM   11  C   UNK     0     -22.988 -17.626  23.572  0.00  0.00    -0.027 A 
HETATM   12  C   UNK     0     -21.790 -17.673  24.238  0.00  0.00    -0.031 A 
HETATM   13  C   UNK     0     -20.800 -16.534  24.338  0.00  0.00     0.051 C 
HETATM   14  C   UNK     0     -24.910 -19.281  23.101  0.00  0.00     0.115 C 
HETATM   15  C   UNK     0     -24.794 -20.423  22.105  0.00  0.00     0.021 A 
HETATM   16  N   UNK     0     -24.318 -21.663  22.328  0.00  0.00    -0.361 N 
HETATM   17  C   UNK     0     -24.318 -22.345  21.181  0.00  0.00     0.022 A 
HETATM   18  C   UNK     0     -24.827 -21.514  20.163  0.00  0.00    -0.027 A 
HETATM   19  C   UNK     0     -25.122 -20.313  20.755  0.00  0.00    -0.031 A 
HETATM   20  C   UNK     0     -25.732 -19.136  20.017  0.00  0.00     0.051 C 
HETATM   21  C   UNK     0     -23.820 -23.741  20.881  0.00  0.00     0.115 C 
HETATM   22  C   UNK     0     -22.616 -24.232  21.648  0.00  0.00     0.022 A 
HETATM   23  N   UNK     0     -21.510 -23.553  21.980  0.00  0.00    -0.361 N 
HETATM   24  C   UNK     0     -20.761 -24.332  22.787  0.00  0.00     0.021 A 
HETATM   25  C   UNK     0     -21.396 -25.545  22.971  0.00  0.00    -0.031 A 
HETATM   26  C   UNK     0     -20.932 -26.754  23.758  0.00  0.00     0.051 C 
HETATM   27  C   UNK     0     -22.585 -25.505  22.252  0.00  0.00    -0.027 A 
HETATM   28  C   UNK     0     -19.466 -23.966  23.491  0.00  0.00     0.115 C 
HETATM   29  H   UNK     0     -20.110 -21.116  23.119  0.00  0.00     0.165 HD
HETATM   30  H   UNK     0     -23.015 -20.700  24.824  0.00  0.00     0.165 HD
HETATM   31  H   UNK     0     -24.021 -22.081  23.325  0.00  0.00     0.165 HD
HETATM   32  H   UNK     0     -21.226 -22.533  21.612  0.00  0.00     0.165 HD
ENDROOT
BRANCH   6  33
HETATM   33  C   UNK     0     -19.572 -21.385  27.831  0.00  0.00     0.051 C 
BRANCH  33  34
HETATM   34  C   UNK     0     -18.141 -21.462  28.307  0.00  0.00     0.114 C 
BRANCH  34  35
HETATM   35  C   UNK     0     -17.617 -20.068  28.376  0.00  0.00     0.139 C 
HETATM   36  O   UNK     0     -18.285 -19.112  27.884  0.00  0.00    -0.650 OA
BRANCH  35  37
HETATM   37  O   UNK     0     -16.402 -19.752  28.971  0.00  0.00    -0.776 OA
HETATM   38  H   UNK     0     -15.603 -20.363  28.912  0.00  0.00     0.167 HD
ENDBRANCH  35  37
ENDBRANCH  34  35
ENDBRANCH  33  34
ENDBRANCH   6  33
BRANCH  27  39
HETATM   39  C   UNK     0     -23.511 -26.666  22.151  0.00  0.00     0.051 C 
BRANCH  39  40
HETATM   40  C   UNK     0     -23.156 -27.760  21.248  0.00  0.00     0.114 C 
BRANCH  40  41
HETATM   41  C   UNK     0     -23.261 -27.638  19.811  0.00  0.00     0.139 C 
HETATM   42  O   UNK     0     -23.998 -26.818  19.247  0.00  0.00    -0.650 OA
BRANCH  41  43
HETATM   43  O   UNK     0     -22.484 -28.499  18.985  0.00  0.00    -0.776 OA
HETATM   44  H   UNK     0     -23.028 -29.101  18.379  0.00  0.00     0.167 HD
ENDBRANCH  41  43
ENDBRANCH  40  41
ENDBRANCH  39  40
ENDBRANCH  27  39
BRANCH  11  45
HETATM   45  C   UNK     0     -23.508 -16.425  22.829  0.00  0.00     0.051 C 
BRANCH  45  46
HETATM   46  C   UNK     0     -24.651 -15.749  23.494  0.00  0.00     0.114 C 
BRANCH  46  47
HETATM   47  C   UNK     0     -24.096 -14.959  24.630  0.00  0.00     0.139 C 
HETATM   48  O   UNK     0     -24.462 -15.238  25.781  0.00  0.00    -0.650 OA
BRANCH  47  49
HETATM   49  O   UNK     0     -23.201 -13.943  24.409  0.00  0.00    -0.776 OA
HETATM   50  H   UNK     0     -22.334 -14.086  23.877  0.00  0.00     0.167 HD
ENDBRANCH  47  49
ENDBRANCH  46  47
ENDBRANCH  45  46
ENDBRANCH  11  45
BRANCH  18  51
HETATM   51  C   UNK     0     -25.040 -21.852  18.711  0.00  0.00     0.051 C 
BRANCH  51  52
HETATM   52  C   UNK     0     -23.702 -21.630  18.021  0.00  0.00     0.114 C 
BRANCH  52  53
HETATM   53  C   UNK     0     -23.798 -20.624  16.946  0.00  0.00     0.139 C 
HETATM   54  O   UNK     0     -24.138 -20.967  15.802  0.00  0.00    -0.650 OA
BRANCH  53  55
HETATM   55  O   UNK     0     -23.508 -19.309  17.217  0.00  0.00    -0.776 OA
HETATM   56  H   UNK     0     -22.750 -18.980  17.768  0.00  0.00     0.167 HD
ENDBRANCH  53  55
ENDBRANCH  52  53
ENDBRANCH  51  52
ENDBRANCH  18  51
TORSDOF 16
ENDMDL
MODEL 10
REMARK VINA RESULT:      -8.9      2.042      7.067
REMARK  16 active torsions:
REMARK  status: ('A' for Active; 'I' for Inactive)
REMARK    1  A    between atoms: C_6  and  C_7 
REMARK    2  A    between atoms: C_7  and  C_8 
REMARK    3  A    between atoms: C_8  and  C_9 
REMARK    4  A    between atoms: C_9  and  O_11 
REMARK    5  A    between atoms: C_16  and  C_17 
REMARK    6  A    between atoms: C_17  and  C_18 
REMARK    7  A    between atoms: C_18  and  C_19 
REMARK    8  A    between atoms: C_19  and  O_21 
REMARK    9  A    between atoms: C_28  and  C_29 
REMARK   10  A    between atoms: C_29  and  C_30 
REMARK   11  A    between atoms: C_30  and  C_31 
REMARK   12  A    between atoms: C_31  and  O_33 
REMARK   13  A    between atoms: C_42  and  C_43 
REMARK   14  A    between atoms: C_43  and  C_44 
REMARK   15  A    between atoms: C_44  and  C_45 
REMARK   16  A    between atoms: C_45  and  O_47 
ROOT
HETATM    1  C   UNK     0     -21.841 -16.449  25.694  0.00  0.00     0.051 C 
HETATM    2  C   UNK     0     -22.019 -17.528  24.646  0.00  0.00    -0.031 A 
HETATM    3  C   UNK     0     -21.094 -18.431  24.147  0.00  0.00     0.021 A 
HETATM    4  N   UNK     0     -21.687 -19.193  23.198  0.00  0.00    -0.361 N 
HETATM    5  C   UNK     0     -22.973 -18.801  23.087  0.00  0.00     0.022 A 
HETATM    6  C   UNK     0     -23.214 -17.759  23.976  0.00  0.00    -0.027 A 
HETATM    7  C   UNK     0     -24.076 -19.378  22.255  0.00  0.00     0.115 C 
HETATM    8  C   UNK     0     -24.172 -20.892  22.205  0.00  0.00     0.021 A 
HETATM    9  N   UNK     0     -23.918 -21.778  23.181  0.00  0.00    -0.361 N 
HETATM   10  C   UNK     0     -24.045 -23.019  22.663  0.00  0.00     0.022 A 
HETATM   11  C   UNK     0     -24.399 -22.929  21.320  0.00  0.00    -0.027 A 
HETATM   12  C   UNK     0     -24.481 -21.592  21.025  0.00  0.00    -0.031 A 
HETATM   13  C   UNK     0     -24.844 -21.016  19.675  0.00  0.00     0.051 C 
HETATM   14  C   UNK     0     -23.786 -24.332  23.397  0.00  0.00     0.115 C 
HETATM   15  C   UNK     0     -22.360 -24.485  23.901  0.00  0.00     0.021 A 
HETATM   16  N   UNK     0     -21.697 -23.676  24.748  0.00  0.00    -0.361 N 
HETATM   17  C   UNK     0     -20.444 -24.116  24.885  0.00  0.00     0.022 A 
HETATM   18  C   UNK     0     -20.286 -25.273  24.095  0.00  0.00    -0.027 A 
HETATM   19  C   UNK     0     -21.493 -25.494  23.485  0.00  0.00    -0.031 A 
HETATM   20  C   UNK     0     -21.772 -26.670  22.567  0.00  0.00     0.051 C 
HETATM   21  C   UNK     0     -19.286 -23.529  25.659  0.00  0.00     0.115 C 
HETATM   22  C   UNK     0     -19.203 -22.023  25.754  0.00  0.00     0.022 A 
HETATM   23  N   UNK     0     -19.454 -21.117  24.800  0.00  0.00    -0.361 N 
HETATM   24  C   UNK     0     -19.398 -19.890  25.357  0.00  0.00     0.021 A 
HETATM   25  C   UNK     0     -19.094 -20.009  26.699  0.00  0.00    -0.031 A 
HETATM   26  C   UNK     0     -18.885 -18.919  27.730  0.00  0.00     0.051 C 
HETATM   27  C   UNK     0     -18.964 -21.365  26.977  0.00  0.00    -0.027 A 
HETATM   28  C   UNK     0     -19.701 -18.555  24.698  0.00  0.00     0.115 C 
HETATM   29  H   UNK     0     -21.183 -19.976  22.585  0.00  0.00     0.165 HD
HETATM   30  H   UNK     0     -23.698 -21.532  24.248  0.00  0.00     0.165 HD
HETATM   31  H   UNK     0     -22.135 -22.804  25.299  0.00  0.00     0.165 HD
HETATM   32  H   UNK     0     -19.630 -21.332  23.714  0.00  0.00     0.165 HD
ENDROOT
BRANCH   6  33
HETATM   33  C   UNK     0     -24.476 -16.975  24.233  0.00  0.00     0.051 C 
BRANCH  33  34
HETATM   34  C   UNK     0     -24.562 -15.782  23.312  0.00  0.00     0.114 C 
BRANCH  34  35
HETATM   35  C   UNK     0     -25.137 -14.652  24.096  0.00  0.00     0.139 C 
HETATM   36  O   UNK     0     -24.841 -14.510  25.319  0.00  0.00    -0.650 OA
BRANCH  35  37
HETATM   37  O   UNK     0     -26.002 -13.718  23.541  0.00  0.00    -0.776 OA
HETATM   38  H   UNK     0     -26.798 -13.990  22.987  0.00  0.00     0.167 HD
ENDBRANCH  35  37
ENDBRANCH  34  35
ENDBRANCH  33  34
ENDBRANCH   6  33
BRANCH  27  39
HETATM   39  C   UNK     0     -18.567 -21.884  28.314  0.00  0.00     0.051 C 
BRANCH  39  40
HETATM   40  C   UNK     0     -19.623 -22.296  29.240  0.00  0.00     0.114 C 
BRANCH  40  41
HETATM   41  C   UNK     0     -20.274 -23.583  29.142  0.00  0.00     0.139 C 
HETATM   42  O   UNK     0     -21.438 -23.731  28.746  0.00  0.00    -0.650 OA
BRANCH  41  43
HETATM   43  O   UNK     0     -19.554 -24.752  29.518  0.00  0.00    -0.776 OA
HETATM   44  H   UNK     0     -20.074 -25.394  30.104  0.00  0.00     0.167 HD
ENDBRANCH  41  43
ENDBRANCH  40  41
ENDBRANCH  39  40
ENDBRANCH  27  39
BRANCH  11  45
HETATM   45  C   UNK     0     -24.657 -24.040  20.338  0.00  0.00     0.051 C 
BRANCH  45  46
HETATM   46  C   UNK     0     -23.431 -24.573  19.690  0.00  0.00     0.114 C 
BRANCH  46  47
HETATM   47  C   UNK     0     -23.700 -25.997  19.340  0.00  0.00     0.139 C 
HETATM   48  O   UNK     0     -23.318 -26.419  18.239  0.00  0.00    -0.650 OA
BRANCH  47  49
HETATM   49  O   UNK     0     -24.357 -26.824  20.216  0.00  0.00    -0.776 OA
HETATM   50  H   UNK     0     -24.140 -26.838  21.220  0.00  0.00     0.167 HD
ENDBRANCH  47  49
ENDBRANCH  46  47
ENDBRANCH  45  46
ENDBRANCH  11  45
BRANCH  18  51
HETATM   51  C   UNK     0     -19.057 -26.133  23.948  0.00  0.00     0.051 C 
BRANCH  51  52
HETATM   52  C   UNK     0     -18.081 -25.337  23.094  0.00  0.00     0.114 C 
BRANCH  52  53
HETATM   53  C   UNK     0     -16.679 -25.688  23.392  0.00  0.00     0.139 C 
HETATM   54  O   UNK     0     -16.272 -25.680  24.565  0.00  0.00    -0.650 OA
BRANCH  53  55
HETATM   55  O   UNK     0     -15.828 -26.019  22.366  0.00  0.00    -0.776 OA
HETATM   56  H   UNK     0     -15.099 -25.449  22.004  0.00  0.00     0.167 HD
ENDBRANCH  53  55
ENDBRANCH  52  53
ENDBRANCH  51  52
ENDBRANCH  18  51
TORSDOF 16
ENDMDL
MODEL 11
REMARK VINA RESULT:      -8.5      6.089      9.535
REMARK  16 active torsions:
REMARK  status: ('A' for Active; 'I' for Inactive)
REMARK    1  A    between atoms: C_6  and  C_7 
REMARK    2  A    between atoms: C_7  and  C_8 
REMARK    3  A    between atoms: C_8  and  C_9 
REMARK    4  A    between atoms: C_9  and  O_11 
REMARK    5  A    between atoms: C_16  and  C_17 
REMARK    6  A    between atoms: C_17  and  C_18 
REMARK    7  A    between atoms: C_18  and  C_19 
REMARK    8  A    between atoms: C_19  and  O_21 
REMARK    9  A    between atoms: C_28  and  C_29 
REMARK   10  A    between atoms: C_29  and  C_30 
REMARK   11  A    between atoms: C_30  and  C_31 
REMARK   12  A    between atoms: C_31  and  O_33 
REMARK   13  A    between atoms: C_42  and  C_43 
REMARK   14  A    between atoms: C_43  and  C_44 
REMARK   15  A    between atoms: C_44  and  C_45 
REMARK   16  A    between atoms: C_45  and  O_47 
ROOT
HETATM    1  C   UNK     0     -23.412 -28.354  24.536  0.00  0.00     0.051 C 
HETATM    2  C   UNK     0     -23.010 -27.686  23.237  0.00  0.00    -0.031 A 
HETATM    3  C   UNK     0     -21.774 -27.652  22.610  0.00  0.00     0.021 A 
HETATM    4  N   UNK     0     -21.871 -26.909  21.482  0.00  0.00    -0.361 N 
HETATM    5  C   UNK     0     -23.144 -26.476  21.372  0.00  0.00     0.022 A 
HETATM    6  C   UNK     0     -23.883 -26.941  22.454  0.00  0.00    -0.027 A 
HETATM    7  C   UNK     0     -23.794 -25.703  20.267  0.00  0.00     0.115 C 
HETATM    8  C   UNK     0     -23.447 -26.119  18.848  0.00  0.00     0.021 A 
HETATM    9  N   UNK     0     -23.211 -27.351  18.372  0.00  0.00    -0.361 N 
HETATM   10  C   UNK     0     -22.851 -27.238  17.076  0.00  0.00     0.022 A 
HETATM   11  C   UNK     0     -22.865 -25.897  16.704  0.00  0.00    -0.027 A 
HETATM   12  C   UNK     0     -23.239 -25.186  17.816  0.00  0.00    -0.031 A 
HETATM   13  C   UNK     0     -23.395 -23.684  17.881  0.00  0.00     0.051 C 
HETATM   14  C   UNK     0     -22.430 -28.380  16.155  0.00  0.00     0.115 C 
HETATM   15  C   UNK     0     -21.193 -29.128  16.627  0.00  0.00     0.021 A 
HETATM   16  N   UNK     0     -21.019 -29.772  17.796  0.00  0.00    -0.361 N 
HETATM   17  C   UNK     0     -19.770 -30.239  17.858  0.00  0.00     0.022 A 
HETATM   18  C   UNK     0     -19.101 -29.891  16.668  0.00  0.00    -0.027 A 
HETATM   19  C   UNK     0     -20.004 -29.196  15.905  0.00  0.00    -0.031 A 
HETATM   20  C   UNK     0     -19.701 -28.663  14.516  0.00  0.00     0.051 C 
HETATM   21  C   UNK     0     -19.058 -30.963  18.977  0.00  0.00     0.115 C 
HETATM   22  C   UNK     0     -19.425 -30.590  20.395  0.00  0.00     0.022 A 
HETATM   23  N   UNK     0     -19.670 -29.373  20.895  0.00  0.00    -0.361 N 
HETATM   24  C   UNK     0     -20.102 -29.516  22.165  0.00  0.00     0.021 A 
HETATM   25  C   UNK     0     -20.126 -30.858  22.492  0.00  0.00    -0.031 A 
HETATM   26  C   UNK     0     -20.498 -31.511  23.807  0.00  0.00     0.051 C 
HETATM   27  C   UNK     0     -19.697 -31.565  21.376  0.00  0.00    -0.027 A 
HETATM   28  C   UNK     0     -20.589 -28.430  23.109  0.00  0.00     0.115 C 
HETATM   29  H   UNK     0     -21.031 -26.664  20.792  0.00  0.00     0.165 HD
HETATM   30  H   UNK     0     -23.346 -28.307  18.935  0.00  0.00     0.165 HD
HETATM   31  H   UNK     0     -21.808 -29.942  18.574  0.00  0.00     0.165 HD
HETATM   32  H   UNK     0     -19.498 -28.397  20.371  0.00  0.00     0.165 HD
ENDROOT
BRANCH   6  33
HETATM   33  C   UNK     0     -25.336 -26.732  22.799  0.00  0.00     0.051 C 
BRANCH  33  34
HETATM   34  C   UNK     0     -25.552 -25.363  23.397  0.00  0.00     0.114 C 
BRANCH  34  35
HETATM   35  C   UNK     0     -26.587 -24.674  22.574  0.00  0.00     0.139 C 
HETATM   36  O   UNK     0     -26.874 -25.106  21.419  0.00  0.00    -0.650 OA
BRANCH  35  37
HETATM   37  O   UNK     0     -27.276 -23.552  23.020  0.00  0.00    -0.776 OA
HETATM   38  H   UNK     0     -27.963 -23.604  23.754  0.00  0.00     0.167 HD
ENDBRANCH  35  37
ENDBRANCH  34  35
ENDBRANCH  33  34
ENDBRANCH   6  33
BRANCH  27  39
HETATM   39  C   UNK     0     -19.523 -33.043  21.370  0.00  0.00     0.051 C 
BRANCH  39  40
HETATM   40  C   UNK     0     -18.250 -33.594  21.836  0.00  0.00     0.114 C 
BRANCH  40  41
HETATM   41  C   UNK     0     -16.997 -33.301  21.178  0.00  0.00     0.139 C 
HETATM   42  O   UNK     0     -16.804 -33.477  19.967  0.00  0.00    -0.650 OA
BRANCH  41  43
HETATM   43  O   UNK     0     -15.916 -32.783  21.947  0.00  0.00    -0.776 OA
HETATM   44  H   UNK     0     -15.010 -32.863  21.502  0.00  0.00     0.167 HD
ENDBRANCH  41  43
ENDBRANCH  40  41
ENDBRANCH  39  40
ENDBRANCH  27  39
BRANCH  11  45
HETATM   45  C   UNK     0     -22.545 -25.288  15.366  0.00  0.00     0.051 C 
BRANCH  45  46
HETATM   46  C   UNK     0     -23.733 -25.058  14.505  0.00  0.00     0.114 C 
BRANCH  46  47
HETATM   47  C   UNK     0     -23.579 -23.708  13.890  0.00  0.00     0.139 C 
HETATM   48  O   UNK     0     -23.106 -22.794  14.580  0.00  0.00    -0.650 OA
BRANCH  47  49
HETATM   49  O   UNK     0     -23.954 -23.482  12.590  0.00  0.00    -0.776 OA
HETATM   50  H   UNK     0     -23.724 -22.609  12.101  0.00  0.00     0.167 HD
ENDBRANCH  47  49
ENDBRANCH  46  47
ENDBRANCH  45  46
ENDBRANCH  11  45
BRANCH  18  51
HETATM   51  C   UNK     0     -17.686 -30.220  16.270  0.00  0.00     0.051 C 
BRANCH  51  52
HETATM   52  C   UNK     0     -17.761 -31.499  15.450  0.00  0.00     0.114 C 
BRANCH  52  53
HETATM   53  C   UNK     0     -17.101 -32.629  16.132  0.00  0.00     0.139 C 
HETATM   54  O   UNK     0     -17.147 -33.767  15.637  0.00  0.00    -0.650 OA
BRANCH  53  55
HETATM   55  O   UNK     0     -16.441 -32.415  17.318  0.00  0.00    -0.776 OA
HETATM   56  H   UNK     0     -15.547 -32.773  17.561  0.00  0.00     0.167 HD
ENDBRANCH  53  55
ENDBRANCH  52  53
ENDBRANCH  51  52
ENDBRANCH  18  51
TORSDOF 16
ENDMDL
MODEL 12
REMARK VINA RESULT:      -8.4      5.133     10.483
REMARK  16 active torsions:
REMARK  status: ('A' for Active; 'I' for Inactive)
REMARK    1  A    between atoms: C_6  and  C_7 
REMARK    2  A    between atoms: C_7  and  C_8 
REMARK    3  A    between atoms: C_8  and  C_9 
REMARK    4  A    between atoms: C_9  and  O_11 
REMARK    5  A    between atoms: C_16  and  C_17 
REMARK    6  A    between atoms: C_17  and  C_18 
REMARK    7  A    between atoms: C_18  and  C_19 
REMARK    8  A    between atoms: C_19  and  O_21 
REMARK    9  A    between atoms: C_28  and  C_29 
REMARK   10  A    between atoms: C_29  and  C_30 
REMARK   11  A    between atoms: C_30  and  C_31 
REMARK   12  A    between atoms: C_31  and  O_33 
REMARK   13  A    between atoms: C_42  and  C_43 
REMARK   14  A    between atoms: C_43  and  C_44 
REMARK   15  A    between atoms: C_44  and  C_45 
REMARK   16  A    between atoms: C_45  and  O_47 
ROOT
HETATM    1  C   UNK     0     -20.616 -29.489  20.549  0.00  0.00     0.051 C 
HETATM    2  C   UNK     0     -21.540 -29.078  19.421  0.00  0.00    -0.031 A 
HETATM    3  C   UNK     0     -22.721 -28.354  19.471  0.00  0.00     0.021 A 
HETATM    4  N   UNK     0     -23.228 -28.250  18.219  0.00  0.00    -0.361 N 
HETATM    5  C   UNK     0     -22.392 -28.885  17.372  0.00  0.00     0.022 A 
HETATM    6  C   UNK     0     -21.327 -29.417  18.091  0.00  0.00    -0.027 A 
HETATM    7  C   UNK     0     -22.444 -28.984  15.879  0.00  0.00     0.115 C 
HETATM    8  C   UNK     0     -22.802 -27.716  15.125  0.00  0.00     0.021 A 
HETATM    9  N   UNK     0     -22.476 -26.447  15.419  0.00  0.00    -0.361 N 
HETATM   10  C   UNK     0     -23.086 -25.640  14.525  0.00  0.00     0.022 A 
HETATM   11  C   UNK     0     -23.818 -26.410  13.626  0.00  0.00    -0.027 A 
HETATM   12  C   UNK     0     -23.643 -27.718  13.997  0.00  0.00    -0.031 A 
HETATM   13  C   UNK     0     -24.251 -28.914  13.299  0.00  0.00     0.051 C 
HETATM   14  C   UNK     0     -23.048 -24.114  14.516  0.00  0.00     0.115 C 
HETATM   15  C   UNK     0     -23.626 -23.476  15.769  0.00  0.00     0.021 A 
HETATM   16  N   UNK     0     -23.225 -23.655  17.042  0.00  0.00    -0.361 N 
HETATM   17  C   UNK     0     -24.034 -22.973  17.856  0.00  0.00     0.022 A 
HETATM   18  C   UNK     0     -25.002 -22.310  17.076  0.00  0.00    -0.027 A 
HETATM   19  C   UNK     0     -24.735 -22.633  15.771  0.00  0.00    -0.031 A 
HETATM   20  C   UNK     0     -25.525 -22.097  14.590  0.00  0.00     0.051 C 
HETATM   21  C   UNK     0     -24.056 -22.900  19.366  0.00  0.00     0.115 C 
HETATM   22  C   UNK     0     -23.660 -24.142  20.130  0.00  0.00     0.022 A 
HETATM   23  N   UNK     0     -23.966 -25.417  19.858  0.00  0.00    -0.361 N 
HETATM   24  C   UNK     0     -23.285 -26.207  20.712  0.00  0.00     0.021 A 
HETATM   25  C   UNK     0     -22.530 -25.422  21.561  0.00  0.00    -0.031 A 
HETATM   26  C   UNK     0     -21.636 -25.845  22.708  0.00  0.00     0.051 C 
HETATM   27  C   UNK     0     -22.753 -24.096  21.208  0.00  0.00    -0.027 A 
HETATM   28  C   UNK     0     -23.236 -27.725  20.735  0.00  0.00     0.115 C 
HETATM   29  H   UNK     0     -24.193 -27.763  17.949  0.00  0.00     0.165 HD
HETATM   30  H   UNK     0     -21.775 -26.122  16.226  0.00  0.00     0.165 HD
HETATM   31  H   UNK     0     -22.324 -24.236  17.370  0.00  0.00     0.165 HD
HETATM   32  H   UNK     0     -24.701 -25.769  19.088  0.00  0.00     0.165 HD
ENDROOT
BRANCH   6  33
HETATM   33  C   UNK     0     -20.139 -30.215  17.617  0.00  0.00     0.051 C 
BRANCH  33  34
HETATM   34  C   UNK     0     -20.471 -31.687  17.561  0.00  0.00     0.114 C 
BRANCH  34  35
HETATM   35  C   UNK     0     -20.076 -32.183  16.211  0.00  0.00     0.139 C 
HETATM   36  O   UNK     0     -20.822 -32.992  15.586  0.00  0.00    -0.650 OA
BRANCH  35  37
HETATM   37  O   UNK     0     -18.899 -31.793  15.584  0.00  0.00    -0.776 OA
HETATM   38  H   UNK     0     -18.870 -31.547  14.608  0.00  0.00     0.167 HD
ENDBRANCH  35  37
ENDBRANCH  34  35
ENDBRANCH  33  34
ENDBRANCH   6  33
BRANCH  27  39
HETATM   39  C   UNK     0     -22.161 -22.949  21.950  0.00  0.00     0.051 C 
BRANCH  39  40
HETATM   40  C   UNK     0     -23.063 -22.042  22.659  0.00  0.00     0.114 C 
BRANCH  40  41
HETATM   41  C   UNK     0     -24.264 -22.507  23.316  0.00  0.00     0.139 C 
HETATM   42  O   UNK     0     -24.281 -22.965  24.466  0.00  0.00    -0.650 OA
BRANCH  41  43
HETATM   43  O   UNK     0     -25.503 -22.442  22.617  0.00  0.00    -0.776 OA
HETATM   44  H   UNK     0     -25.522 -22.963  21.748  0.00  0.00     0.167 HD
ENDBRANCH  41  43
ENDBRANCH  40  41
ENDBRANCH  39  40
ENDBRANCH  27  39
BRANCH  11  45
HETATM   45  C   UNK     0     -24.651 -25.956  12.457  0.00  0.00     0.051 C 
BRANCH  45  46
HETATM   46  C   UNK     0     -26.021 -25.516  12.825  0.00  0.00     0.114 C 
BRANCH  46  47
HETATM   47  C   UNK     0     -26.963 -26.575  12.363  0.00  0.00     0.139 C 
HETATM   48  O   UNK     0     -26.948 -26.901  11.168  0.00  0.00    -0.650 OA
BRANCH  47  49
HETATM   49  O   UNK     0     -27.830 -27.175  13.240  0.00  0.00    -0.776 OA
HETATM   50  H   UNK     0     -28.757 -27.509  12.949  0.00  0.00     0.167 HD
ENDBRANCH  47  49
ENDBRANCH  46  47
ENDBRANCH  45  46
ENDBRANCH  11  45
BRANCH  18  51
HETATM   51  C   UNK     0     -26.108 -21.402  17.547  0.00  0.00     0.051 C 
BRANCH  51  52
HETATM   52  C   UNK     0     -25.435 -20.128  18.035  0.00  0.00     0.114 C 
BRANCH  52  53
HETATM   53  C   UNK     0     -26.056 -19.617  19.272  0.00  0.00     0.139 C 
HETATM   54  O   UNK     0     -26.846 -18.661  19.222  0.00  0.00    -0.650 OA
BRANCH  53  55
HETATM   55  O   UNK     0     -25.753 -20.203  20.477  0.00  0.00    -0.776 OA
HETATM   56  H   UNK     0     -25.840 -19.780  21.371  0.00  0.00     0.167 HD
ENDBRANCH  53  55
ENDBRANCH  52  53
ENDBRANCH  51  52
ENDBRANCH  18  51
TORSDOF 16
ENDMDL
MODEL 13
REMARK VINA RESULT:      -8.2      4.090      9.107
REMARK  16 active torsions:
REMARK  status: ('A' for Active; 'I' for Inactive)
REMARK    1  A    between atoms: C_6  and  C_7 
REMARK    2  A    between atoms: C_7  and  C_8 
REMARK    3  A    between atoms: C_8  and  C_9 
REMARK    4  A    between atoms: C_9  and  O_11 
REMARK    5  A    between atoms: C_16  and  C_17 
REMARK    6  A    between atoms: C_17  and  C_18 
REMARK    7  A    between atoms: C_18  and  C_19 
REMARK    8  A    between atoms: C_19  and  O_21 
REMARK    9  A    between atoms: C_28  and  C_29 
REMARK   10  A    between atoms: C_29  and  C_30 
REMARK   11  A    between atoms: C_30  and  C_31 
REMARK   12  A    between atoms: C_31  and  O_33 
REMARK   13  A    between atoms: C_42  and  C_43 
REMARK   14  A    between atoms: C_43  and  C_44 
REMARK   15  A    between atoms: C_44  and  C_45 
REMARK   16  A    between atoms: C_45  and  O_47 
ROOT
HETATM    1  C   UNK     0     -25.031 -21.037  15.837  0.00  0.00     0.051 C 
HETATM    2  C   UNK     0     -24.110 -22.209  16.105  0.00  0.00    -0.031 A 
HETATM    3  C   UNK     0     -23.123 -22.351  17.068  0.00  0.00     0.021 A 
HETATM    4  N   UNK     0     -22.528 -23.557  16.916  0.00  0.00    -0.361 N 
HETATM    5  C   UNK     0     -23.119 -24.192  15.882  0.00  0.00     0.022 A 
HETATM    6  C   UNK     0     -24.112 -23.375  15.350  0.00  0.00    -0.027 A 
HETATM    7  C   UNK     0     -22.900 -25.579  15.365  0.00  0.00     0.115 C 
HETATM    8  C   UNK     0     -22.749 -26.677  16.403  0.00  0.00     0.021 A 
HETATM    9  N   UNK     0     -23.367 -26.798  17.588  0.00  0.00    -0.361 N 
HETATM   10  C   UNK     0     -22.859 -27.879  18.218  0.00  0.00     0.022 A 
HETATM   11  C   UNK     0     -21.893 -28.475  17.412  0.00  0.00    -0.027 A 
HETATM   12  C   UNK     0     -21.819 -27.724  16.267  0.00  0.00    -0.031 A 
HETATM   13  C   UNK     0     -20.902 -28.001  15.097  0.00  0.00     0.051 C 
HETATM   14  C   UNK     0     -23.222 -28.359  19.620  0.00  0.00     0.115 C 
HETATM   15  C   UNK     0     -22.922 -27.348  20.714  0.00  0.00     0.021 A 
HETATM   16  N   UNK     0     -23.400 -26.095  20.828  0.00  0.00    -0.361 N 
HETATM   17  C   UNK     0     -22.842 -25.507  21.889  0.00  0.00     0.022 A 
HETATM   18  C   UNK     0     -21.966 -26.425  22.501  0.00  0.00    -0.027 A 
HETATM   19  C   UNK     0     -22.026 -27.574  21.757  0.00  0.00    -0.031 A 
HETATM   20  C   UNK     0     -21.256 -28.839  22.093  0.00  0.00     0.051 C 
HETATM   21  C   UNK     0     -22.986 -24.093  22.404  0.00  0.00     0.115 C 
HETATM   22  C   UNK     0     -23.181 -22.995  21.385  0.00  0.00     0.022 A 
HETATM   23  N   UNK     0     -22.582 -22.852  20.195  0.00  0.00    -0.361 N 
HETATM   24  C   UNK     0     -23.159 -21.816  19.553  0.00  0.00     0.021 A 
HETATM   25  C   UNK     0     -24.146 -21.273  20.353  0.00  0.00    -0.031 A 
HETATM   26  C   UNK     0     -25.038 -20.078  20.088  0.00  0.00     0.051 C 
HETATM   27  C   UNK     0     -24.179 -22.011  21.531  0.00  0.00    -0.027 A 
HETATM   28  C   UNK     0     -22.883 -21.327  18.142  0.00  0.00     0.115 C 
HETATM   29  H   UNK     0     -21.668 -23.937  17.514  0.00  0.00     0.165 HD
HETATM   30  H   UNK     0     -24.199 -26.152  17.962  0.00  0.00     0.165 HD
HETATM   31  H   UNK     0     -24.184 -25.630  20.174  0.00  0.00     0.165 HD
HETATM   32  H   UNK     0     -21.716 -23.454  19.815  0.00  0.00     0.165 HD
ENDROOT
BRANCH   6  33
HETATM   33  C   UNK     0     -25.048 -23.615  14.192  0.00  0.00     0.051 C 
BRANCH  33  34
HETATM   34  C   UNK     0     -24.441 -23.116  12.902  0.00  0.00     0.114 C 
BRANCH  34  35
HETATM   35  C   UNK     0     -25.555 -22.928  11.929  0.00  0.00     0.139 C 
HETATM   36  O   UNK     0     -26.210 -23.927  11.509  0.00  0.00    -0.650 OA
BRANCH  35  37
HETATM   37  O   UNK     0     -25.925 -21.679  11.446  0.00  0.00    -0.776 OA
HETATM   38  H   UNK     0     -26.458 -21.029  12.000  0.00  0.00     0.167 HD
ENDBRANCH  35  37
ENDBRANCH  34  35
ENDBRANCH  33  34
ENDBRANCH   6  33
BRANCH  27  39
HETATM   39  C   UNK     0     -25.073 -21.677  22.672  0.00  0.00     0.051 C 
BRANCH  39  40
HETATM   40  C   UNK     0     -24.529 -20.878  23.770  0.00  0.00     0.114 C 
BRANCH  40  41
HETATM   41  C   UNK     0     -23.321 -20.097  23.630  0.00  0.00     0.139 C 
HETATM   42  O   UNK     0     -22.201 -20.501  23.971  0.00  0.00    -0.650 OA
BRANCH  41  43
HETATM   43  O   UNK     0     -23.405 -18.790  23.071  0.00  0.00    -0.776 OA
HETATM   44  H   UNK     0     -24.223 -18.632  22.496  0.00  0.00     0.167 HD
ENDBRANCH  41  43
ENDBRANCH  40  41
ENDBRANCH  39  40
ENDBRANCH  27  39
BRANCH  11  45
HETATM   45  C   UNK     0     -21.065 -29.702  17.686  0.00  0.00     0.051 C 
BRANCH  45  46
HETATM   46  C   UNK     0     -21.630 -30.953  17.119  0.00  0.00     0.114 C 
BRANCH  46  47
HETATM   47  C   UNK     0     -20.608 -32.023  17.305  0.00  0.00     0.139 C 
HETATM   48  O   UNK     0     -19.853 -31.957  18.285  0.00  0.00    -0.650 OA
BRANCH  47  49
HETATM   49  O   UNK     0     -20.503 -33.058  16.410  0.00  0.00    -0.776 OA
HETATM   50  H   UNK     0     -20.923 -33.014  15.474  0.00  0.00     0.167 HD
ENDBRANCH  47  49
ENDBRANCH  46  47
ENDBRANCH  45  46
ENDBRANCH  11  45
BRANCH  18  51
HETATM   51  C   UNK     0     -21.133 -26.224  23.741  0.00  0.00     0.051 C 
BRANCH  51  52
HETATM   52  C   UNK     0     -19.868 -25.508  23.292  0.00  0.00     0.114 C 
BRANCH  52  53
HETATM   53  C   UNK     0     -18.752 -25.723  24.234  0.00  0.00     0.139 C 
HETATM   54  O   UNK     0     -18.983 -26.076  25.401  0.00  0.00    -0.650 OA
BRANCH  53  55
HETATM   55  O   UNK     0     -17.459 -25.527  23.812  0.00  0.00    -0.776 OA
HETATM   56  H   UNK     0     -17.182 -25.128  22.946  0.00  0.00     0.167 HD
ENDBRANCH  53  55
ENDBRANCH  52  53
ENDBRANCH  51  52
ENDBRANCH  18  51
TORSDOF 16
ENDMDL
MODEL 14
REMARK VINA RESULT:      -8.1      1.760      2.017
REMARK  16 active torsions:
REMARK  status: ('A' for Active; 'I' for Inactive)
REMARK    1  A    between atoms: C_6  and  C_7 
REMARK    2  A    between atoms: C_7  and  C_8 
REMARK    3  A    between atoms: C_8  and  C_9 
REMARK    4  A    between atoms: C_9  and  O_11 
REMARK    5  A    between atoms: C_16  and  C_17 
REMARK    6  A    between atoms: C_17  and  C_18 
REMARK    7  A    between atoms: C_18  and  C_19 
REMARK    8  A    between atoms: C_19  and  O_21 
REMARK    9  A    between atoms: C_28  and  C_29 
REMARK   10  A    between atoms: C_29  and  C_30 
REMARK   11  A    between atoms: C_30  and  C_31 
REMARK   12  A    between atoms: C_31  and  O_33 
REMARK   13  A    between atoms: C_42  and  C_43 
REMARK   14  A    between atoms: C_43  and  C_44 
REMARK   15  A    between atoms: C_44  and  C_45 
REMARK   16  A    between atoms: C_45  and  O_47 
ROOT
HETATM    1  C   UNK     0     -23.520 -26.125  20.241  0.00  0.00     0.051 C 
HETATM    2  C   UNK     0     -23.724 -24.831  21.002  0.00  0.00    -0.031 A 
HETATM    3  C   UNK     0     -23.587 -24.576  22.358  0.00  0.00     0.021 A 
HETATM    4  N   UNK     0     -23.900 -23.281  22.597  0.00  0.00    -0.361 N 
HETATM    5  C   UNK     0     -24.225 -22.702  21.423  0.00  0.00     0.022 A 
HETATM    6  C   UNK     0     -24.127 -23.644  20.404  0.00  0.00    -0.027 A 
HETATM    7  C   UNK     0     -24.554 -21.272  21.125  0.00  0.00     0.115 C 
HETATM    8  C   UNK     0     -23.695 -20.219  21.803  0.00  0.00     0.021 A 
HETATM    9  N   UNK     0     -22.384 -20.265  22.085  0.00  0.00    -0.361 N 
HETATM   10  C   UNK     0     -22.064 -19.149  22.774  0.00  0.00     0.022 A 
HETATM   11  C   UNK     0     -23.199 -18.358  22.932  0.00  0.00    -0.027 A 
HETATM   12  C   UNK     0     -24.230 -19.027  22.323  0.00  0.00    -0.031 A 
HETATM   13  C   UNK     0     -25.659 -18.540  22.240  0.00  0.00     0.051 C 
HETATM   14  C   UNK     0     -20.694 -18.809  23.354  0.00  0.00     0.115 C 
HETATM   15  C   UNK     0     -20.195 -19.812  24.383  0.00  0.00     0.021 A 
HETATM   16  N   UNK     0     -19.992 -21.131  24.212  0.00  0.00    -0.361 N 
HETATM   17  C   UNK     0     -19.619 -21.672  25.374  0.00  0.00     0.022 A 
HETATM   18  C   UNK     0     -19.567 -20.653  26.347  0.00  0.00    -0.027 A 
HETATM   19  C   UNK     0     -19.929 -19.493  25.713  0.00  0.00    -0.031 A 
HETATM   20  C   UNK     0     -19.971 -18.137  26.393  0.00  0.00     0.051 C 
HETATM   21  C   UNK     0     -19.343 -23.115  25.731  0.00  0.00     0.115 C 
HETATM   22  C   UNK     0     -20.160 -24.175  25.031  0.00  0.00     0.022 A 
HETATM   23  N   UNK     0     -21.466 -24.155  24.734  0.00  0.00    -0.361 N 
HETATM   24  C   UNK     0     -21.745 -25.238  23.981  0.00  0.00     0.021 A 
HETATM   25  C   UNK     0     -20.594 -25.979  23.797  0.00  0.00    -0.031 A 
HETATM   26  C   UNK     0     -20.411 -27.290  23.062  0.00  0.00     0.051 C 
HETATM   27  C   UNK     0     -19.565 -25.319  24.460  0.00  0.00    -0.027 A 
HETATM   28  C   UNK     0     -23.068 -25.599  23.328  0.00  0.00     0.115 C 
HETATM   29  H   UNK     0     -23.929 -22.795  23.600  0.00  0.00     0.165 HD
HETATM   30  H   UNK     0     -21.670 -21.060  21.756  0.00  0.00     0.165 HD
HETATM   31  H   UNK     0     -20.067 -21.686  23.240  0.00  0.00     0.165 HD
HETATM   32  H   UNK     0     -22.212 -23.398  25.089  0.00  0.00     0.165 HD
ENDROOT
BRANCH   6  33
HETATM   33  C   UNK     0     -24.388 -23.504  18.926  0.00  0.00     0.051 C 
BRANCH  33  34
HETATM   34  C   UNK     0     -23.132 -23.083  18.199  0.00  0.00     0.114 C 
BRANCH  34  35
HETATM   35  C   UNK     0     -23.369 -23.293  16.741  0.00  0.00     0.139 C 
HETATM   36  O   UNK     0     -24.341 -22.724  16.165  0.00  0.00    -0.650 OA
BRANCH  35  37
HETATM   37  O   UNK     0     -22.553 -24.101  15.959  0.00  0.00    -0.776 OA
HETATM   38  H   UNK     0     -22.479 -23.980  14.962  0.00  0.00     0.167 HD
ENDBRANCH  35  37
ENDBRANCH  34  35
ENDBRANCH  33  34
ENDBRANCH   6  33
BRANCH  27  39
HETATM   39  C   UNK     0     -18.180 -25.856  24.547  0.00  0.00     0.051 C 
BRANCH  39  40
HETATM   40  C   UNK     0     -17.197 -25.403  23.564  0.00  0.00     0.114 C 
BRANCH  40  41
HETATM   41  C   UNK     0     -16.625 -26.293  22.579  0.00  0.00     0.139 C 
HETATM   42  O   UNK     0     -17.195 -27.313  22.166  0.00  0.00    -0.650 OA
BRANCH  41  43
HETATM   43  O   UNK     0     -15.338 -25.998  22.045  0.00  0.00    -0.776 OA
HETATM   44  H   UNK     0     -14.565 -26.346  22.599  0.00  0.00     0.167 HD
ENDBRANCH  41  43
ENDBRANCH  40  41
ENDBRANCH  39  40
ENDBRANCH  27  39
BRANCH  11  45
HETATM   45  C   UNK     0     -23.330 -17.027  23.621  0.00  0.00     0.051 C 
BRANCH  45  46
HETATM   46  C   UNK     0     -22.727 -16.984  24.977  0.00  0.00     0.114 C 
BRANCH  46  47
HETATM   47  C   UNK     0     -22.777 -15.566  25.438  0.00  0.00     0.139 C 
HETATM   48  O   UNK     0     -22.868 -15.342  26.653  0.00  0.00    -0.650 OA
BRANCH  47  49
HETATM   49  O   UNK     0     -22.726 -14.533  24.538  0.00  0.00    -0.776 OA
HETATM   50  H   UNK     0     -21.978 -13.828  24.558  0.00  0.00     0.167 HD
ENDBRANCH  47  49
ENDBRANCH  46  47
ENDBRANCH  45  46
ENDBRANCH  11  45
BRANCH  18  51
HETATM   51  C   UNK     0     -19.174 -20.776  27.796  0.00  0.00     0.051 C 
BRANCH  51  52
HETATM   52  C   UNK     0     -17.660 -20.634  27.840  0.00  0.00     0.114 C 
BRANCH  52  53
HETATM   53  C   UNK     0     -17.192 -20.137  29.148  0.00  0.00     0.139 C 
HETATM   54  O   UNK     0     -16.355 -19.222  29.202  0.00  0.00    -0.650 OA
BRANCH  53  55
HETATM   55  O   UNK     0     -17.686 -20.694  30.303  0.00  0.00    -0.776 OA
HETATM   56  H   UNK     0     -17.275 -21.440  30.813  0.00  0.00     0.167 HD
ENDBRANCH  53  55
ENDBRANCH  52  53
ENDBRANCH  51  52
ENDBRANCH  18  51
TORSDOF 16
ENDMDL
MODEL 15
REMARK VINA RESULT:      -8.1      2.049      7.276
REMARK  16 active torsions:
REMARK  status: ('A' for Active; 'I' for Inactive)
REMARK    1  A    between atoms: C_6  and  C_7 
REMARK    2  A    between atoms: C_7  and  C_8 
REMARK    3  A    between atoms: C_8  and  C_9 
REMARK    4  A    between atoms: C_9  and  O_11 
REMARK    5  A    between atoms: C_16  and  C_17 
REMARK    6  A    between atoms: C_17  and  C_18 
REMARK    7  A    between atoms: C_18  and  C_19 
REMARK    8  A    between atoms: C_19  and  O_21 
REMARK    9  A    between atoms: C_28  and  C_29 
REMARK   10  A    between atoms: C_29  and  C_30 
REMARK   11  A    between atoms: C_30  and  C_31 
REMARK   12  A    between atoms: C_31  and  O_33 
REMARK   13  A    between atoms: C_42  and  C_43 
REMARK   14  A    between atoms: C_43  and  C_44 
REMARK   15  A    between atoms: C_44  and  C_45 
REMARK   16  A    between atoms: C_45  and  O_47 
ROOT
HETATM    1  C   UNK     0     -21.442 -16.625  26.237  0.00  0.00     0.051 C 
HETATM    2  C   UNK     0     -21.710 -17.523  25.046  0.00  0.00    -0.031 A 
HETATM    3  C   UNK     0     -20.890 -18.472  24.458  0.00  0.00     0.021 A 
HETATM    4  N   UNK     0     -21.532 -19.013  23.395  0.00  0.00    -0.361 N 
HETATM    5  C   UNK     0     -22.747 -18.435  23.299  0.00  0.00     0.022 A 
HETATM    6  C   UNK     0     -22.891 -17.495  24.315  0.00  0.00    -0.027 A 
HETATM    7  C   UNK     0     -23.875 -18.738  22.362  0.00  0.00     0.115 C 
HETATM    8  C   UNK     0     -24.169 -20.205  22.103  0.00  0.00     0.021 A 
HETATM    9  N   UNK     0     -24.085 -21.238  22.956  0.00  0.00    -0.361 N 
HETATM   10  C   UNK     0     -24.350 -22.370  22.270  0.00  0.00     0.022 A 
HETATM   11  C   UNK     0     -24.622 -22.057  20.941  0.00  0.00    -0.027 A 
HETATM   12  C   UNK     0     -24.510 -20.695  20.829  0.00  0.00    -0.031 A 
HETATM   13  C   UNK     0     -24.726 -19.902  19.560  0.00  0.00     0.051 C 
HETATM   14  C   UNK     0     -24.306 -23.791  22.825  0.00  0.00     0.115 C 
HETATM   15  C   UNK     0     -22.940 -24.206  23.347  0.00  0.00     0.021 A 
HETATM   16  N   UNK     0     -22.217 -23.616  24.317  0.00  0.00    -0.361 N 
HETATM   17  C   UNK     0     -21.043 -24.240  24.431  0.00  0.00     0.022 A 
HETATM   18  C   UNK     0     -21.002 -25.293  23.497  0.00  0.00    -0.027 A 
HETATM   19  C   UNK     0     -22.196 -25.263  22.825  0.00  0.00    -0.031 A 
HETATM   20  C   UNK     0     -22.584 -26.257  21.746  0.00  0.00     0.051 C 
HETATM   21  C   UNK     0     -19.857 -23.925  25.315  0.00  0.00     0.115 C 
HETATM   22  C   UNK     0     -19.578 -22.472  25.616  0.00  0.00     0.022 A 
HETATM   23  N   UNK     0     -19.658 -21.422  24.788  0.00  0.00    -0.361 N 
HETATM   24  C   UNK     0     -19.467 -20.298  25.509  0.00  0.00     0.021 A 
HETATM   25  C   UNK     0     -19.248 -20.634  26.832  0.00  0.00    -0.031 A 
HETATM   26  C   UNK     0     -18.947 -19.728  28.007  0.00  0.00     0.051 C 
HETATM   27  C   UNK     0     -19.314 -22.019  26.925  0.00  0.00    -0.027 A 
HETATM   28  C   UNK     0     -19.556 -18.860  25.030  0.00  0.00     0.115 C 
HETATM   29  H   UNK     0     -21.108 -19.771  22.697  0.00  0.00     0.165 HD
HETATM   30  H   UNK     0     -23.887 -21.167  24.053  0.00  0.00     0.165 HD
HETATM   31  H   UNK     0     -22.562 -22.771  24.969  0.00  0.00     0.165 HD
HETATM   32  H   UNK     0     -19.807 -21.467  23.678  0.00  0.00     0.165 HD
ENDROOT
BRANCH   6  33
HETATM   33  C   UNK     0     -24.048 -16.584  24.637  0.00  0.00     0.051 C 
BRANCH  33  34
HETATM   34  C   UNK     0     -23.660 -15.137  24.443  0.00  0.00     0.114 C 
BRANCH  34  35
HETATM   35  C   UNK     0     -24.271 -14.358  25.557  0.00  0.00     0.139 C 
HETATM   36  O   UNK     0     -24.678 -13.176  25.360  0.00  0.00    -0.650 OA
BRANCH  35  37
HETATM   37  O   UNK     0     -24.425 -14.875  26.838  0.00  0.00    -0.776 OA
HETATM   38  H   UNK     0     -23.639 -15.029  27.450  0.00  0.00     0.167 HD
ENDBRANCH  35  37
ENDBRANCH  34  35
ENDBRANCH  33  34
ENDBRANCH   6  33
BRANCH  27  39
HETATM   39  C   UNK     0     -19.057 -22.759  28.190  0.00  0.00     0.051 C 
BRANCH  39  40
HETATM   40  C   UNK     0     -20.132 -22.837  29.179  0.00  0.00     0.114 C 
BRANCH  40  41
HETATM   41  C   UNK     0     -20.072 -22.134  30.441  0.00  0.00     0.139 C 
HETATM   42  O   UNK     0     -19.087 -21.481  30.812  0.00  0.00    -0.650 OA
BRANCH  41  43
HETATM   43  O   UNK     0     -21.195 -22.184  31.314  0.00  0.00    -0.776 OA
HETATM   44  H   UNK     0     -20.995 -21.910  32.269  0.00  0.00     0.167 HD
ENDBRANCH  41  43
ENDBRANCH  40  41
ENDBRANCH  39  40
ENDBRANCH  27  39
BRANCH  11  45
HETATM   45  C   UNK     0     -24.978 -22.983  19.809  0.00  0.00     0.051 C 
BRANCH  45  46
HETATM   46  C   UNK     0     -23.816 -23.703  19.227  0.00  0.00     0.114 C 
BRANCH  46  47
HETATM   47  C   UNK     0     -23.383 -22.940  18.021  0.00  0.00     0.139 C 
HETATM   48  O   UNK     0     -22.265 -22.406  18.028  0.00  0.00    -0.650 OA
BRANCH  47  49
HETATM   49  O   UNK     0     -24.204 -22.830  16.928  0.00  0.00    -0.776 OA
HETATM   50  H   UNK     0     -24.602 -23.654  16.460  0.00  0.00     0.167 HD
ENDBRANCH  47  49
ENDBRANCH  46  47
ENDBRANCH  45  46
ENDBRANCH  11  45
BRANCH  18  51
HETATM   51  C   UNK     0     -19.893 -26.289  23.271  0.00  0.00     0.051 C 
BRANCH  51  52
HETATM   52  C   UNK     0     -20.174 -27.458  24.204  0.00  0.00     0.114 C 
BRANCH  52  53
HETATM   53  C   UNK     0     -20.357 -28.721  23.462  0.00  0.00     0.139 C 
HETATM   54  O   UNK     0     -21.447 -29.313  23.503  0.00  0.00    -0.650 OA
BRANCH  53  55
HETATM   55  O   UNK     0     -19.314 -29.237  22.732  0.00  0.00    -0.776 OA
HETATM   56  H   UNK     0     -18.643 -29.893  23.055  0.00  0.00     0.167 HD
ENDBRANCH  53  55
ENDBRANCH  52  53
ENDBRANCH  51  52
ENDBRANCH  18  51
TORSDOF 16
ENDMDL
MODEL 16
REMARK VINA RESULT:      -7.8      5.002     10.445
REMARK  16 active torsions:
REMARK  status: ('A' for Active; 'I' for Inactive)
REMARK    1  A    between atoms: C_6  and  C_7 
REMARK    2  A    between atoms: C_7  and  C_8 
REMARK    3  A    between atoms: C_8  and  C_9 
REMARK    4  A    between atoms: C_9  and  O_11 
REMARK    5  A    between atoms: C_16  and  C_17 
REMARK    6  A    between atoms: C_17  and  C_18 
REMARK    7  A    between atoms: C_18  and  C_19 
REMARK    8  A    between atoms: C_19  and  O_21 
REMARK    9  A    between atoms: C_28  and  C_29 
REMARK   10  A    between atoms: C_29  and  C_30 
REMARK   11  A    between atoms: C_30  and  C_31 
REMARK   12  A    between atoms: C_31  and  O_33 
REMARK   13  A    between atoms: C_42  and  C_43 
REMARK   14  A    between atoms: C_43  and  C_44 
REMARK   15  A    between atoms: C_44  and  C_45 
REMARK   16  A    between atoms: C_45  and  O_47 
ROOT
HETATM    1  C   UNK     0     -24.775 -24.227  11.971  0.00  0.00     0.051 C 
HETATM    2  C   UNK     0     -23.905 -24.996  12.944  0.00  0.00    -0.031 A 
HETATM    3  C   UNK     0     -23.117 -24.524  13.982  0.00  0.00     0.021 A 
HETATM    4  N   UNK     0     -22.488 -25.570  14.569  0.00  0.00    -0.361 N 
HETATM    5  C   UNK     0     -22.864 -26.698  13.933  0.00  0.00     0.022 A 
HETATM    6  C   UNK     0     -23.748 -26.376  12.909  0.00  0.00    -0.027 A 
HETATM    7  C   UNK     0     -22.532 -28.124  14.247  0.00  0.00     0.115 C 
HETATM    8  C   UNK     0     -22.566 -28.525  15.712  0.00  0.00     0.021 A 
HETATM    9  N   UNK     0     -23.395 -28.098  16.676  0.00  0.00    -0.361 N 
HETATM   10  C   UNK     0     -23.001 -28.651  17.843  0.00  0.00     0.022 A 
HETATM   11  C   UNK     0     -21.892 -29.463  17.622  0.00  0.00    -0.027 A 
HETATM   12  C   UNK     0     -21.613 -29.388  16.282  0.00  0.00    -0.031 A 
HETATM   13  C   UNK     0     -20.487 -30.116  15.581  0.00  0.00     0.051 C 
HETATM   14  C   UNK     0     -23.617 -28.395  19.216  0.00  0.00     0.115 C 
HETATM   15  C   UNK     0     -23.544 -26.944  19.663  0.00  0.00     0.021 A 
HETATM   16  N   UNK     0     -24.051 -25.865  19.038  0.00  0.00    -0.361 N 
HETATM   17  C   UNK     0     -23.712 -24.766  19.715  0.00  0.00     0.022 A 
HETATM   18  C   UNK     0     -22.956 -25.148  20.841  0.00  0.00    -0.027 A 
HETATM   19  C   UNK     0     -22.858 -26.514  20.797  0.00  0.00    -0.031 A 
HETATM   20  C   UNK     0     -22.149 -27.344  21.852  0.00  0.00     0.051 C 
HETATM   21  C   UNK     0     -23.970 -23.310  19.398  0.00  0.00     0.115 C 
HETATM   22  C   UNK     0     -23.983 -22.905  17.942  0.00  0.00     0.022 A 
HETATM   23  N   UNK     0     -23.172 -23.317  16.959  0.00  0.00    -0.361 N 
HETATM   24  C   UNK     0     -23.630 -22.816  15.794  0.00  0.00     0.021 A 
HETATM   25  C   UNK     0     -24.758 -22.055  16.035  0.00  0.00    -0.031 A 
HETATM   26  C   UNK     0     -25.600 -21.263  15.056  0.00  0.00     0.051 C 
HETATM   27  C   UNK     0     -25.004 -22.097  17.402  0.00  0.00    -0.027 A 
HETATM   28  C   UNK     0     -23.099 -23.080  14.396  0.00  0.00     0.115 C 
HETATM   29  H   UNK     0     -21.751 -25.498  15.403  0.00  0.00     0.165 HD
HETATM   30  H   UNK     0     -24.291 -27.447  16.529  0.00  0.00     0.165 HD
HETATM   31  H   UNK     0     -24.703 -25.882  18.126  0.00  0.00     0.165 HD
HETATM   32  H   UNK     0     -22.241 -23.930  17.084  0.00  0.00     0.165 HD
ENDROOT
BRANCH   6  33
HETATM   33  C   UNK     0     -24.445 -27.267  11.912  0.00  0.00     0.051 C 
BRANCH  33  34
HETATM   34  C   UNK     0     -25.760 -27.762  12.464  0.00  0.00     0.114 C 
BRANCH  34  35
HETATM   35  C   UNK     0     -26.827 -27.362  11.503  0.00  0.00     0.139 C 
HETATM   36  O   UNK     0     -27.060 -28.069  10.479  0.00  0.00    -0.650 OA
BRANCH  35  37
HETATM   37  O   UNK     0     -27.603 -26.222  11.676  0.00  0.00    -0.776 OA
HETATM   38  H   UNK     0     -28.607 -26.265  11.749  0.00  0.00     0.167 HD
ENDBRANCH  35  37
ENDBRANCH  34  35
ENDBRANCH  33  34
ENDBRANCH   6  33
BRANCH  27  39
HETATM   39  C   UNK     0     -26.103 -21.333  18.052  0.00  0.00     0.051 C 
BRANCH  39  40
HETATM   40  C   UNK     0     -25.800 -20.010  18.598  0.00  0.00     0.114 C 
BRANCH  40  41
HETATM   41  C   UNK     0     -25.891 -19.720  20.011  0.00  0.00     0.139 C 
HETATM   42  O   UNK     0     -25.520 -20.504  20.895  0.00  0.00    -0.650 OA
BRANCH  41  43
HETATM   43  O   UNK     0     -26.433 -18.471  20.427  0.00  0.00    -0.776 OA
HETATM   44  H   UNK     0     -26.184 -18.199  21.370  0.00  0.00     0.167 HD
ENDBRANCH  41  43
ENDBRANCH  40  41
ENDBRANCH  39  40
ENDBRANCH  27  39
BRANCH  11  45
HETATM   45  C   UNK     0     -21.115 -30.285  18.614  0.00  0.00     0.051 C 
BRANCH  45  46
HETATM   46  C   UNK     0     -20.218 -29.489  19.491  0.00  0.00     0.114 C 
BRANCH  46  47
HETATM   47  C   UNK     0     -19.354 -30.453  20.231  0.00  0.00     0.139 C 
HETATM   48  O   UNK     0     -19.394 -31.650  19.912  0.00  0.00    -0.650 OA
BRANCH  47  49
HETATM   49  O   UNK     0     -18.534 -30.027  21.245  0.00  0.00    -0.776 OA
HETATM   50  H   UNK     0     -18.549 -30.460  22.176  0.00  0.00     0.167 HD
ENDBRANCH  47  49
ENDBRANCH  46  47
ENDBRANCH  45  46
ENDBRANCH  11  45
BRANCH  18  51
HETATM   51  C   UNK     0     -22.375 -24.260  21.911  0.00  0.00     0.051 C 
BRANCH  51  52
HETATM   52  C   UNK     0     -23.359 -24.293  23.072  0.00  0.00     0.114 C 
BRANCH  52  53
HETATM   53  C   UNK     0     -24.128 -23.039  23.176  0.00  0.00     0.139 C 
HETATM   54  O   UNK     0     -23.692 -22.096  23.856  0.00  0.00    -0.650 OA
BRANCH  53  55
HETATM   55  O   UNK     0     -25.330 -22.922  22.520  0.00  0.00    -0.776 OA
HETATM   56  H   UNK     0     -25.470 -22.514  21.626  0.00  0.00     0.167 HD
ENDBRANCH  53  55
ENDBRANCH  52  53
ENDBRANCH  51  52
ENDBRANCH  18  51
TORSDOF 16
ENDMDL
MODEL 17
REMARK VINA RESULT:      -7.8      5.156     12.296
REMARK  16 active torsions:
REMARK  status: ('A' for Active; 'I' for Inactive)
REMARK    1  A    between atoms: C_6  and  C_7 
REMARK    2  A    between atoms: C_7  and  C_8 
REMARK    3  A    between atoms: C_8  and  C_9 
REMARK    4  A    between atoms: C_9  and  O_11 
REMARK    5  A    between atoms: C_16  and  C_17 
REMARK    6  A    between atoms: C_17  and  C_18 
REMARK    7  A    between atoms: C_18  and  C_19 
REMARK    8  A    between atoms: C_19  and  O_21 
REMARK    9  A    between atoms: C_28  and  C_29 
REMARK   10  A    between atoms: C_29  and  C_30 
REMARK   11  A    between atoms: C_30  and  C_31 
REMARK   12  A    between atoms: C_31  and  O_33 
REMARK   13  A    between atoms: C_42  and  C_43 
REMARK   14  A    between atoms: C_43  and  C_44 
REMARK   15  A    between atoms: C_44  and  C_45 
REMARK   16  A    between atoms: C_45  and  O_47 
ROOT
HETATM    1  C   UNK     0     -20.952 -27.350  23.016  0.00  0.00     0.051 C 
HETATM    2  C   UNK     0     -21.315 -28.021  21.707  0.00  0.00    -0.031 A 
HETATM    3  C   UNK     0     -22.393 -27.788  20.868  0.00  0.00     0.021 A 
HETATM    4  N   UNK     0     -22.332 -28.646  19.822  0.00  0.00    -0.361 N 
HETATM    5  C   UNK     0     -21.234 -29.416  19.972  0.00  0.00     0.022 A 
HETATM    6  C   UNK     0     -20.576 -29.053  21.143  0.00  0.00    -0.027 A 
HETATM    7  C   UNK     0     -20.663 -30.449  19.053  0.00  0.00     0.115 C 
HETATM    8  C   UNK     0     -20.647 -30.111  17.572  0.00  0.00     0.021 A 
HETATM    9  N   UNK     0     -20.445 -28.919  16.990  0.00  0.00    -0.361 N 
HETATM   10  C   UNK     0     -20.611 -29.069  15.659  0.00  0.00     0.022 A 
HETATM   11  C   UNK     0     -20.920 -30.397  15.375  0.00  0.00    -0.027 A 
HETATM   12  C   UNK     0     -20.944 -31.058  16.577  0.00  0.00    -0.031 A 
HETATM   13  C   UNK     0     -21.233 -32.531  16.757  0.00  0.00     0.051 C 
HETATM   14  C   UNK     0     -20.539 -27.963  14.610  0.00  0.00     0.115 C 
HETATM   15  C   UNK     0     -21.571 -26.863  14.803  0.00  0.00     0.021 A 
HETATM   16  N   UNK     0     -21.739 -26.074  15.881  0.00  0.00    -0.361 N 
HETATM   17  C   UNK     0     -22.797 -25.285  15.685  0.00  0.00     0.022 A 
HETATM   18  C   UNK     0     -23.339 -25.566  14.416  0.00  0.00    -0.027 A 
HETATM   19  C   UNK     0     -22.561 -26.555  13.873  0.00  0.00    -0.031 A 
HETATM   20  C   UNK     0     -22.777 -27.134  12.486  0.00  0.00     0.051 C 
HETATM   21  C   UNK     0     -23.444 -24.279  16.611  0.00  0.00     0.115 C 
HETATM   22  C   UNK     0     -23.428 -24.582  18.091  0.00  0.00     0.022 A 
HETATM   23  N   UNK     0     -23.622 -25.760  18.699  0.00  0.00    -0.361 N 
HETATM   24  C   UNK     0     -23.375 -25.603  20.015  0.00  0.00     0.021 A 
HETATM   25  C   UNK     0     -23.023 -24.290  20.262  0.00  0.00    -0.031 A 
HETATM   26  C   UNK     0     -22.696 -23.623  21.582  0.00  0.00     0.051 C 
HETATM   27  C   UNK     0     -23.050 -23.617  19.046  0.00  0.00    -0.027 A 
HETATM   28  C   UNK     0     -23.373 -26.671  21.094  0.00  0.00     0.115 C 
HETATM   29  H   UNK     0     -23.087 -28.730  19.006  0.00  0.00     0.165 HD
HETATM   30  H   UNK     0     -20.136 -27.979  17.510  0.00  0.00     0.165 HD
HETATM   31  H   UNK     0     -21.069 -26.040  16.779  0.00  0.00     0.165 HD
HETATM   32  H   UNK     0     -23.977 -26.704  18.210  0.00  0.00     0.165 HD
ENDROOT
BRANCH   6  33
HETATM   33  C   UNK     0     -19.316 -29.607  21.759  0.00  0.00     0.051 C 
BRANCH  33  34
HETATM   34  C   UNK     0     -19.631 -30.778  22.658  0.00  0.00     0.114 C 
BRANCH  34  35
HETATM   35  C   UNK     0     -19.173 -30.423  24.032  0.00  0.00     0.139 C 
HETATM   36  O   UNK     0     -19.990 -30.430  24.998  0.00  0.00    -0.650 OA
BRANCH  35  37
HETATM   37  O   UNK     0     -17.858 -30.075  24.317  0.00  0.00    -0.776 OA
HETATM   38  H   UNK     0     -17.146 -30.768  24.481  0.00  0.00     0.167 HD
ENDBRANCH  35  37
ENDBRANCH  34  35
ENDBRANCH  33  34
ENDBRANCH   6  33
BRANCH  27  39
HETATM   39  C   UNK     0     -22.795 -22.156  18.922  0.00  0.00     0.051 C 
BRANCH  39  40
HETATM   40  C   UNK     0     -23.659 -21.373  18.038  0.00  0.00     0.114 C 
BRANCH  40  41
HETATM   41  C   UNK     0     -23.128 -20.448  17.063  0.00  0.00     0.139 C 
HETATM   42  O   UNK     0     -23.394 -19.239  17.052  0.00  0.00    -0.650 OA
BRANCH  41  43
HETATM   43  O   UNK     0     -22.249 -20.936  16.054  0.00  0.00    -0.776 OA
HETATM   44  H   UNK     0     -21.296 -21.081  16.363  0.00  0.00     0.167 HD
ENDBRANCH  41  43
ENDBRANCH  40  41
ENDBRANCH  39  40
ENDBRANCH  27  39
BRANCH  11  45
HETATM   45  C   UNK     0     -21.181 -31.038  14.039  0.00  0.00     0.051 C 
BRANCH  45  46
HETATM   46  C   UNK     0     -20.023 -30.998  13.110  0.00  0.00     0.114 C 
BRANCH  46  47
HETATM   47  C   UNK     0     -18.957 -31.860  13.697  0.00  0.00     0.139 C 
HETATM   48  O   UNK     0     -17.847 -31.358  13.922  0.00  0.00    -0.650 OA
BRANCH  47  49
HETATM   49  O   UNK     0     -19.198 -33.181  13.981  0.00  0.00    -0.776 OA
HETATM   50  H   UNK     0     -20.037 -33.667  13.643  0.00  0.00     0.167 HD
ENDBRANCH  47  49
ENDBRANCH  46  47
ENDBRANCH  45  46
ENDBRANCH  11  45
BRANCH  18  51
HETATM   51  C   UNK     0     -24.521 -24.912  13.747  0.00  0.00     0.051 C 
BRANCH  51  52
HETATM   52  C   UNK     0     -23.952 -23.838  12.833  0.00  0.00     0.114 C 
BRANCH  52  53
HETATM   53  C   UNK     0     -23.747 -22.562  13.546  0.00  0.00     0.139 C 
HETATM   54  O   UNK     0     -24.649 -22.096  14.260  0.00  0.00    -0.650 OA
BRANCH  53  55
HETATM   55  O   UNK     0     -22.554 -21.893  13.411  0.00  0.00    -0.776 OA
HETATM   56  H   UNK     0     -21.740 -22.036  13.960  0.00  0.00     0.167 HD
ENDBRANCH  53  55
ENDBRANCH  52  53
ENDBRANCH  51  52
ENDBRANCH  18  51
TORSDOF 16
ENDMDL
MODEL 18
REMARK VINA RESULT:      -7.8      6.787      9.995
REMARK  16 active torsions:
REMARK  status: ('A' for Active; 'I' for Inactive)
REMARK    1  A    between atoms: C_6  and  C_7 
REMARK    2  A    between atoms: C_7  and  C_8 
REMARK    3  A    between atoms: C_8  and  C_9 
REMARK    4  A    between atoms: C_9  and  O_11 
REMARK    5  A    between atoms: C_16  and  C_17 
REMARK    6  A    between atoms: C_17  and  C_18 
REMARK    7  A    between atoms: C_18  and  C_19 
REMARK    8  A    between atoms: C_19  and  O_21 
REMARK    9  A    between atoms: C_28  and  C_29 
REMARK   10  A    between atoms: C_29  and  C_30 
REMARK   11  A    between atoms: C_30  and  C_31 
REMARK   12  A    between atoms: C_31  and  O_33 
REMARK   13  A    between atoms: C_42  and  C_43 
REMARK   14  A    between atoms: C_43  and  C_44 
REMARK   15  A    between atoms: C_44  and  C_45 
REMARK   16  A    between atoms: C_45  and  O_47 
ROOT
HETATM    1  C   UNK     0     -22.855 -28.133   9.259  0.00  0.00     0.051 C 
HETATM    2  C   UNK     0     -23.571 -27.386  10.366  0.00  0.00    -0.031 A 
HETATM    3  C   UNK     0     -24.156 -27.877  11.523  0.00  0.00     0.021 A 
HETATM    4  N   UNK     0     -24.709 -26.849  12.209  0.00  0.00    -0.361 N 
HETATM    5  C   UNK     0     -24.481 -25.712  11.519  0.00  0.00     0.022 A 
HETATM    6  C   UNK     0     -23.774 -26.012  10.359  0.00  0.00    -0.027 A 
HETATM    7  C   UNK     0     -24.800 -24.296  11.885  0.00  0.00     0.115 C 
HETATM    8  C   UNK     0     -24.530 -23.887  13.323  0.00  0.00     0.021 A 
HETATM    9  N   UNK     0     -23.535 -24.283  14.132  0.00  0.00    -0.361 N 
HETATM   10  C   UNK     0     -23.743 -23.737  15.349  0.00  0.00     0.022 A 
HETATM   11  C   UNK     0     -24.898 -22.961  15.320  0.00  0.00    -0.027 A 
HETATM   12  C   UNK     0     -25.399 -23.051  14.047  0.00  0.00    -0.031 A 
HETATM   13  C   UNK     0     -26.649 -22.362  13.548  0.00  0.00     0.051 C 
HETATM   14  C   UNK     0     -22.895 -23.967  16.597  0.00  0.00     0.115 C 
HETATM   15  C   UNK     0     -22.846 -25.417  17.049  0.00  0.00     0.021 A 
HETATM   16  N   UNK     0     -22.418 -26.483  16.347  0.00  0.00    -0.361 N 
HETATM   17  C   UNK     0     -22.602 -27.589  17.071  0.00  0.00     0.022 A 
HETATM   18  C   UNK     0     -23.168 -27.225  18.309  0.00  0.00    -0.027 A 
HETATM   19  C   UNK     0     -23.314 -25.862  18.283  0.00  0.00    -0.031 A 
HETATM   20  C   UNK     0     -23.859 -25.050  19.444  0.00  0.00     0.051 C 
HETATM   21  C   UNK     0     -22.357 -29.037  16.714  0.00  0.00     0.115 C 
HETATM   22  C   UNK     0     -22.579 -29.449  15.278  0.00  0.00     0.022 A 
HETATM   23  N   UNK     0     -23.558 -29.067  14.447  0.00  0.00    -0.361 N 
HETATM   24  C   UNK     0     -23.289 -29.559  13.221  0.00  0.00     0.021 A 
HETATM   25  C   UNK     0     -22.113 -30.284  13.265  0.00  0.00    -0.031 A 
HETATM   26  C   UNK     0     -21.426 -31.055  12.158  0.00  0.00     0.051 C 
HETATM   27  C   UNK     0     -21.640 -30.228  14.572  0.00  0.00    -0.027 A 
HETATM   28  C   UNK     0     -24.058 -29.319  11.933  0.00  0.00     0.115 C 
HETATM   29  H   UNK     0     -25.290 -26.938  13.155  0.00  0.00     0.165 HD
HETATM   30  H   UNK     0     -22.658 -24.907  13.834  0.00  0.00     0.165 HD
HETATM   31  H   UNK     0     -21.932 -26.451  15.337  0.00  0.00     0.165 HD
HETATM   32  H   UNK     0     -24.472 -28.483  14.729  0.00  0.00     0.165 HD
ENDROOT
BRANCH   6  33
HETATM   33  C   UNK     0     -23.286 -25.105   9.258  0.00  0.00     0.051 C 
BRANCH  33  34
HETATM   34  C   UNK     0     -24.357 -24.908   8.212  0.00  0.00     0.114 C 
BRANCH  34  35
HETATM   35  C   UNK     0     -24.822 -23.494   8.310  0.00  0.00     0.139 C 
HETATM   36  O   UNK     0     -26.019 -23.238   8.631  0.00  0.00    -0.650 OA
BRANCH  35  37
HETATM   37  O   UNK     0     -23.986 -22.412   8.062  0.00  0.00    -0.776 OA
HETATM   38  H   UNK     0     -23.826 -22.063   7.131  0.00  0.00     0.167 HD
ENDBRANCH  35  37
ENDBRANCH  34  35
ENDBRANCH  33  34
ENDBRANCH   6  33
BRANCH  27  39
HETATM   39  C   UNK     0     -20.423 -30.954  15.025  0.00  0.00     0.051 C 
BRANCH  39  40
HETATM   40  C   UNK     0     -20.563 -32.349  15.442  0.00  0.00     0.114 C 
BRANCH  40  41
HETATM   41  C   UNK     0     -20.921 -32.717  16.794  0.00  0.00     0.139 C 
HETATM   42  O   UNK     0     -20.583 -32.066  17.792  0.00  0.00    -0.650 OA
BRANCH  41  43
HETATM   43  O   UNK     0     -21.705 -33.887  17.007  0.00  0.00    -0.776 OA
HETATM   44  H   UNK     0     -21.231 -34.754  16.786  0.00  0.00     0.167 HD
ENDBRANCH  41  43
ENDBRANCH  40  41
ENDBRANCH  39  40
ENDBRANCH  27  39
BRANCH  11  45
HETATM   45  C   UNK     0     -25.521 -22.158  16.430  0.00  0.00     0.051 C 
BRANCH  45  46
HETATM   46  C   UNK     0     -24.854 -20.855  16.684  0.00  0.00     0.114 C 
BRANCH  46  47
HETATM   47  C   UNK     0     -24.851 -20.640  18.160  0.00  0.00     0.139 C 
HETATM   48  O   UNK     0     -25.604 -19.778  18.634  0.00  0.00    -0.650 OA
BRANCH  47  49
HETATM   49  O   UNK     0     -24.033 -21.379  18.976  0.00  0.00    -0.776 OA
HETATM   50  H   UNK     0     -24.218 -21.487  19.980  0.00  0.00     0.167 HD
ENDBRANCH  47  49
ENDBRANCH  46  47
ENDBRANCH  45  46
ENDBRANCH  11  45
BRANCH  18  51
HETATM   51  C   UNK     0     -23.530 -28.125  19.463  0.00  0.00     0.051 C 
BRANCH  51  52
HETATM   52  C   UNK     0     -22.276 -28.251  20.315  0.00  0.00     0.114 C 
BRANCH  52  53
HETATM   53  C   UNK     0     -22.542 -27.942  21.733  0.00  0.00     0.139 C 
HETATM   54  O   UNK     0     -23.574 -27.331  22.053  0.00  0.00    -0.650 OA
BRANCH  53  55
HETATM   55  O   UNK     0     -21.640 -28.331  22.694  0.00  0.00    -0.776 OA
HETATM   56  H   UNK     0     -20.834 -27.826  22.977  0.00  0.00     0.167 HD
ENDBRANCH  53  55
ENDBRANCH  52  53
ENDBRANCH  51  52
ENDBRANCH  18  51
TORSDOF 16
ENDMDL
MODEL 19
REMARK VINA RESULT:      -7.6      5.418     10.964
REMARK  16 active torsions:
REMARK  status: ('A' for Active; 'I' for Inactive)
REMARK    1  A    between atoms: C_6  and  C_7 
REMARK    2  A    between atoms: C_7  and  C_8 
REMARK    3  A    between atoms: C_8  and  C_9 
REMARK    4  A    between atoms: C_9  and  O_11 
REMARK    5  A    between atoms: C_16  and  C_17 
REMARK    6  A    between atoms: C_17  and  C_18 
REMARK    7  A    between atoms: C_18  and  C_19 
REMARK    8  A    between atoms: C_19  and  O_21 
REMARK    9  A    between atoms: C_28  and  C_29 
REMARK   10  A    between atoms: C_29  and  C_30 
REMARK   11  A    between atoms: C_30  and  C_31 
REMARK   12  A    between atoms: C_31  and  O_33 
REMARK   13  A    between atoms: C_42  and  C_43 
REMARK   14  A    between atoms: C_43  and  C_44 
REMARK   15  A    between atoms: C_44  and  C_45 
REMARK   16  A    between atoms: C_45  and  O_47 
ROOT
HETATM    1  C   UNK     0     -21.500 -30.087  12.485  0.00  0.00     0.051 C 
HETATM    2  C   UNK     0     -21.068 -29.725  13.892  0.00  0.00    -0.031 A 
HETATM    3  C   UNK     0     -20.723 -28.489  14.416  0.00  0.00     0.021 A 
HETATM    4  N   UNK     0     -20.371 -28.644  15.715  0.00  0.00    -0.361 N 
HETATM    5  C   UNK     0     -20.493 -29.949  16.032  0.00  0.00     0.022 A 
HETATM    6  C   UNK     0     -20.924 -30.655  14.913  0.00  0.00    -0.027 A 
HETATM    7  C   UNK     0     -20.317 -30.628  17.354  0.00  0.00     0.115 C 
HETATM    8  C   UNK     0     -20.904 -29.923  18.565  0.00  0.00     0.021 A 
HETATM    9  N   UNK     0     -22.031 -29.200  18.647  0.00  0.00    -0.361 N 
HETATM   10  C   UNK     0     -22.110 -28.686  19.893  0.00  0.00     0.022 A 
HETATM   11  C   UNK     0     -21.008 -29.098  20.636  0.00  0.00    -0.027 A 
HETATM   12  C   UNK     0     -20.244 -29.878  19.806  0.00  0.00    -0.031 A 
HETATM   13  C   UNK     0     -18.945 -30.551  20.189  0.00  0.00     0.051 C 
HETATM   14  C   UNK     0     -23.194 -27.747  20.413  0.00  0.00     0.115 C 
HETATM   15  C   UNK     0     -23.279 -26.428  19.663  0.00  0.00     0.021 A 
HETATM   16  N   UNK     0     -23.504 -26.244  18.348  0.00  0.00    -0.361 N 
HETATM   17  C   UNK     0     -23.433 -24.941  18.069  0.00  0.00     0.022 A 
HETATM   18  C   UNK     0     -23.159 -24.241  19.261  0.00  0.00    -0.027 A 
HETATM   19  C   UNK     0     -23.066 -25.183  20.252  0.00  0.00    -0.031 A 
HETATM   20  C   UNK     0     -22.815 -24.852  21.711  0.00  0.00     0.051 C 
HETATM   21  C   UNK     0     -23.538 -24.223  16.743  0.00  0.00     0.115 C 
HETATM   22  C   UNK     0     -22.998 -24.932  15.522  0.00  0.00     0.022 A 
HETATM   23  N   UNK     0     -21.881 -25.663  15.413  0.00  0.00    -0.361 N 
HETATM   24  C   UNK     0     -21.863 -26.228  14.189  0.00  0.00     0.021 A 
HETATM   25  C   UNK     0     -22.991 -25.843  13.489  0.00  0.00    -0.031 A 
HETATM   26  C   UNK     0     -23.394 -26.184  12.070  0.00  0.00     0.051 C 
HETATM   27  C   UNK     0     -23.733 -25.013  14.322  0.00  0.00    -0.027 A 
HETATM   28  C   UNK     0     -20.847 -27.212  13.635  0.00  0.00     0.115 C 
HETATM   29  H   UNK     0     -20.002 -27.835  16.387  0.00  0.00     0.165 HD
HETATM   30  H   UNK     0     -22.799 -29.090  17.842  0.00  0.00     0.165 HD
HETATM   31  H   UNK     0     -23.764 -27.046  17.609  0.00  0.00     0.165 HD
HETATM   32  H   UNK     0     -21.072 -25.752  16.184  0.00  0.00     0.165 HD
ENDROOT
BRANCH   6  33
HETATM   33  C   UNK     0     -21.203 -32.127  14.744  0.00  0.00     0.051 C 
BRANCH  33  34
HETATM   34  C   UNK     0     -20.134 -32.781  13.900  0.00  0.00     0.114 C 
BRANCH  34  35
HETATM   35  C   UNK     0     -18.913 -32.906  14.746  0.00  0.00     0.139 C 
HETATM   36  O   UNK     0     -17.821 -32.390  14.370  0.00  0.00    -0.650 OA
BRANCH  35  37
HETATM   37  O   UNK     0     -18.910 -33.578  15.963  0.00  0.00    -0.776 OA
HETATM   38  H   UNK     0     -19.754 -33.940  16.376  0.00  0.00     0.167 HD
ENDBRANCH  35  37
ENDBRANCH  34  35
ENDBRANCH  33  34
ENDBRANCH   6  33
BRANCH  27  39
HETATM   39  C   UNK     0     -24.988 -24.342  13.887  0.00  0.00     0.051 C 
BRANCH  39  40
HETATM   40  C   UNK     0     -24.899 -22.982  13.357  0.00  0.00     0.114 C 
BRANCH  40  41
HETATM   41  C   UNK     0     -23.964 -22.011  13.878  0.00  0.00     0.139 C 
HETATM   42  O   UNK     0     -24.257 -21.175  14.744  0.00  0.00    -0.650 OA
BRANCH  41  43
HETATM   43  O   UNK     0     -22.630 -21.999  13.380  0.00  0.00    -0.776 OA
HETATM   44  H   UNK     0     -22.138 -22.879  13.479  0.00  0.00     0.167 HD
ENDBRANCH  41  43
ENDBRANCH  40  41
ENDBRANCH  39  40
ENDBRANCH  27  39
BRANCH  11  45
HETATM   45  C   UNK     0     -20.669 -28.785  22.069  0.00  0.00     0.051 C 
BRANCH  45  46
HETATM   46  C   UNK     0     -20.026 -27.460  22.265  0.00  0.00     0.114 C 
BRANCH  46  47
HETATM   47  C   UNK     0     -20.361 -27.008  23.646  0.00  0.00     0.139 C 
HETATM   48  O   UNK     0     -21.005 -27.770  24.380  0.00  0.00    -0.650 OA
BRANCH  47  49
HETATM   49  O   UNK     0     -19.965 -25.773  24.095  0.00  0.00    -0.776 OA
HETATM   50  H   UNK     0     -19.038 -25.387  23.883  0.00  0.00     0.167 HD
ENDBRANCH  47  49
ENDBRANCH  46  47
ENDBRANCH  45  46
ENDBRANCH  11  45
BRANCH  18  51
HETATM   51  C   UNK     0     -23.015 -22.753  19.449  0.00  0.00     0.051 C 
BRANCH  51  52
HETATM   52  C   UNK     0     -24.422 -22.209  19.644  0.00  0.00     0.114 C 
BRANCH  52  53
HETATM   53  C   UNK     0     -24.908 -21.499  18.445  0.00  0.00     0.139 C 
HETATM   54  O   UNK     0     -26.087 -21.630  18.080  0.00  0.00    -0.650 OA
BRANCH  53  55
HETATM   55  O   UNK     0     -24.048 -20.698  17.735  0.00  0.00    -0.776 OA
HETATM   56  H   UNK     0     -23.181 -20.977  17.339  0.00  0.00     0.167 HD
ENDBRANCH  53  55
ENDBRANCH  52  53
ENDBRANCH  51  52
ENDBRANCH  18  51
TORSDOF 16
ENDMDL
MODEL 20
REMARK VINA RESULT:      -7.5     28.234     34.269
REMARK  16 active torsions:
REMARK  status: ('A' for Active; 'I' for Inactive)
REMARK    1  A    between atoms: C_6  and  C_7 
REMARK    2  A    between atoms: C_7  and  C_8 
REMARK    3  A    between atoms: C_8  and  C_9 
REMARK    4  A    between atoms: C_9  and  O_11 
REMARK    5  A    between atoms: C_16  and  C_17 
REMARK    6  A    between atoms: C_17  and  C_18 
REMARK    7  A    between atoms: C_18  and  C_19 
REMARK    8  A    between atoms: C_19  and  O_21 
REMARK    9  A    between atoms: C_28  and  C_29 
REMARK   10  A    between atoms: C_29  and  C_30 
REMARK   11  A    between atoms: C_30  and  C_31 
REMARK   12  A    between atoms: C_31  and  O_33 
REMARK   13  A    between atoms: C_42  and  C_43 
REMARK   14  A    between atoms: C_43  and  C_44 
REMARK   15  A    between atoms: C_44  and  C_45 
REMARK   16  A    between atoms: C_45  and  O_47 
ROOT
HETATM    1  C   UNK     0     -13.464  14.900  21.740  0.00  0.00     0.051 C 
HETATM    2  C   UNK     0     -13.670  13.400  21.798  0.00  0.00    -0.031 A 
HETATM    3  C   UNK     0     -12.743  12.379  21.668  0.00  0.00     0.021 A 
HETATM    4  N   UNK     0     -13.382  11.188  21.756  0.00  0.00    -0.361 N 
HETATM    5  C   UNK     0     -14.695  11.428  21.949  0.00  0.00     0.022 A 
HETATM    6  C   UNK     0     -14.911  12.802  21.977  0.00  0.00    -0.027 A 
HETATM    7  C   UNK     0     -15.812  10.465  22.202  0.00  0.00     0.115 C 
HETATM    8  C   UNK     0     -15.525   9.326  23.165  0.00  0.00     0.021 A 
HETATM    9  N   UNK     0     -14.766   9.338  24.271  0.00  0.00    -0.361 N 
HETATM   10  C   UNK     0     -14.721   8.082  24.763  0.00  0.00     0.022 A 
HETATM   11  C   UNK     0     -15.480   7.239  23.956  0.00  0.00    -0.027 A 
HETATM   12  C   UNK     0     -15.990   8.017  22.948  0.00  0.00    -0.031 A 
HETATM   13  C   UNK     0     -16.885   7.525  21.832  0.00  0.00     0.051 C 
HETATM   14  C   UNK     0     -13.921   7.617  25.976  0.00  0.00     0.115 C 
HETATM   15  C   UNK     0     -12.420   7.816  25.837  0.00  0.00     0.021 A 
HETATM   16  N   UNK     0     -11.761   8.970  25.624  0.00  0.00    -0.361 N 
HETATM   17  C   UNK     0     -10.458   8.712  25.492  0.00  0.00     0.022 A 
HETATM   18  C   UNK     0     -10.257   7.325  25.636  0.00  0.00    -0.027 A 
HETATM   19  C   UNK     0     -11.494   6.775  25.853  0.00  0.00    -0.031 A 
HETATM   20  C   UNK     0     -11.728   5.296  26.098  0.00  0.00     0.051 C 
HETATM   21  C   UNK     0      -9.311   9.644  25.171  0.00  0.00     0.115 C 
HETATM   22  C   UNK     0      -9.593  10.806  24.249  0.00  0.00     0.022 A 
HETATM   23  N   UNK     0     -10.348  10.824  23.143  0.00  0.00    -0.361 N 
HETATM   24  C   UNK     0     -10.442  12.099  22.715  0.00  0.00     0.021 A 
HETATM   25  C   UNK     0      -9.721  12.921  23.560  0.00  0.00    -0.031 A 
HETATM   26  C   UNK     0      -9.495  14.416  23.471  0.00  0.00     0.051 C 
HETATM   27  C   UNK     0      -9.168  12.116  24.549  0.00  0.00    -0.027 A 
HETATM   28  C   UNK     0     -11.266  12.632  21.555  0.00  0.00     0.115 C 
HETATM   29  H   UNK     0     -12.906  10.186  21.643  0.00  0.00     0.165 HD
HETATM   30  H   UNK     0     -14.300  10.242  24.736  0.00  0.00     0.165 HD
HETATM   31  H   UNK     0     -12.218   9.993  25.613  0.00  0.00     0.165 HD
HETATM   32  H   UNK     0     -10.787   9.930  22.629  0.00  0.00     0.165 HD
ENDROOT
BRANCH   6  33
HETATM   33  C   UNK     0     -16.190  13.579  22.156  0.00  0.00     0.051 C 
BRANCH  33  34
HETATM   34  C   UNK     0     -16.755  13.996  20.819  0.00  0.00     0.114 C 
BRANCH  34  35
HETATM   35  C   UNK     0     -16.867  15.483  20.825  0.00  0.00     0.139 C 
HETATM   36  O   UNK     0     -16.846  16.119  21.919  0.00  0.00    -0.650 OA
BRANCH  35  37
HETATM   37  O   UNK     0     -16.994  16.230  19.660  0.00  0.00    -0.776 OA
HETATM   38  H   UNK     0     -16.242  16.797  19.304  0.00  0.00     0.167 HD
ENDBRANCH  35  37
ENDBRANCH  34  35
ENDBRANCH  33  34
ENDBRANCH   6  33
BRANCH  27  39
HETATM   39  C   UNK     0      -8.261  12.640  25.607  0.00  0.00     0.051 C 
BRANCH  39  40
HETATM   40  C   UNK     0      -6.884  12.967  25.240  0.00  0.00     0.114 C 
BRANCH  40  41
HETATM   41  C   UNK     0      -5.953  11.967  24.768  0.00  0.00     0.139 C 
HETATM   42  O   UNK     0      -6.016  10.771  25.085  0.00  0.00    -0.650 OA
BRANCH  41  43
HETATM   43  O   UNK     0      -4.902  12.359  23.891  0.00  0.00    -0.776 OA
HETATM   44  H   UNK     0      -4.708  11.699  23.148  0.00  0.00     0.167 HD
ENDBRANCH  41  43
ENDBRANCH  40  41
ENDBRANCH  39  40
ENDBRANCH  27  39
BRANCH  11  45
HETATM   45  C   UNK     0     -15.732   5.763  24.110  0.00  0.00     0.051 C 
BRANCH  45  46
HETATM   46  C   UNK     0     -14.558   4.912  23.791  0.00  0.00     0.114 C 
BRANCH  46  47
HETATM   47  C   UNK     0     -15.062   3.729  23.035  0.00  0.00     0.139 C 
HETATM   48  O   UNK     0     -16.276   3.486  23.058  0.00  0.00    -0.650 OA
BRANCH  47  49
HETATM   49  O   UNK     0     -14.201   2.927  22.330  0.00  0.00    -0.776 OA
HETATM   50  H   UNK     0     -13.322   3.283  21.936  0.00  0.00     0.167 HD
ENDBRANCH  47  49
ENDBRANCH  46  47
ENDBRANCH  45  46
ENDBRANCH  11  45
BRANCH  18  51
HETATM   51  C   UNK     0      -8.955   6.568  25.590  0.00  0.00     0.051 C 
BRANCH  51  52
HETATM   52  C   UNK     0      -8.170   6.995  26.821  0.00  0.00     0.114 C 
BRANCH  52  53
HETATM   53  C   UNK     0      -6.714   6.874  26.614  0.00  0.00     0.139 C 
HETATM   54  O   UNK     0      -6.072   5.998  27.214  0.00  0.00    -0.650 OA
BRANCH  53  55
HETATM   55  O   UNK     0      -6.076   7.738  25.757  0.00  0.00    -0.776 OA
HETATM   56  H   UNK     0      -5.513   7.480  24.980  0.00  0.00     0.167 HD
ENDBRANCH  53  55
ENDBRANCH  52  53
ENDBRANCH  51  52
ENDBRANCH  18  51
TORSDOF 16
ENDMDL
