MODEL 1
REMARK VINA RESULT:      -8.9      0.000      0.000
REMARK  16 active torsions:
REMARK  status: ('A' for Active; 'I' for Inactive)
REMARK    1  A    between atoms: C_6  and  C_7 
REMARK    2  A    between atoms: C_7  and  C_8 
REMARK    3  A    between atoms: C_8  and  C_9 
REMARK    4  A    between atoms: C_9  and  O_11 
REMARK    5  A    between atoms: C_16  and  C_17 
REMARK    6  A    between atoms: C_17  and  C_18 
REMARK    7  A    between atoms: C_18  and  C_19 
REMARK    8  A    between atoms: C_19  and  O_21 
REMARK    9  A    between atoms: C_28  and  C_29 
REMARK   10  A    between atoms: C_29  and  C_30 
REMARK   11  A    between atoms: C_30  and  C_31 
REMARK   12  A    between atoms: C_31  and  O_33 
REMARK   13  A    between atoms: C_42  and  C_43 
REMARK   14  A    between atoms: C_43  and  C_44 
REMARK   15  A    between atoms: C_44  and  C_45 
REMARK   16  A    between atoms: C_45  and  O_47 
ROOT
HETATM    1  C   UNK     0      -5.170  12.006 -37.083  0.00  0.00     0.051 C 
HETATM    2  C   UNK     0      -4.181  11.174 -36.292  0.00  0.00    -0.031 A 
HETATM    3  C   UNK     0      -4.377   9.980 -35.617  0.00  0.00     0.021 A 
HETATM    4  N   UNK     0      -3.216   9.613 -35.024  0.00  0.00    -0.361 N 
HETATM    5  C   UNK     0      -2.282  10.543 -35.313  0.00  0.00     0.022 A 
HETATM    6  C   UNK     0      -2.853  11.535 -36.103  0.00  0.00    -0.027 A 
HETATM    7  C   UNK     0      -0.823  10.562 -34.981  0.00  0.00     0.115 C 
HETATM    8  C   UNK     0      -0.069   9.254 -35.145  0.00  0.00     0.021 A 
HETATM    9  N   UNK     0      -0.243   8.299 -36.072  0.00  0.00    -0.361 N 
HETATM   10  C   UNK     0       0.584   7.274 -35.778  0.00  0.00     0.022 A 
HETATM   11  C   UNK     0       1.318   7.580 -34.636  0.00  0.00    -0.027 A 
HETATM   12  C   UNK     0       0.912   8.827 -34.232  0.00  0.00    -0.031 A 
HETATM   13  C   UNK     0       1.444   9.573 -33.030  0.00  0.00     0.051 C 
HETATM   14  C   UNK     0       0.677   5.948 -36.527  0.00  0.00     0.115 C 
HETATM   15  C   UNK     0      -0.616   5.149 -36.528  0.00  0.00     0.021 A 
HETATM   16  N   UNK     0      -1.818   5.532 -36.998  0.00  0.00    -0.361 N 
HETATM   17  C   UNK     0      -2.713   4.573 -36.749  0.00  0.00     0.022 A 
HETATM   18  C   UNK     0      -2.060   3.509 -36.094  0.00  0.00    -0.027 A 
HETATM   19  C   UNK     0      -0.747   3.882 -35.963  0.00  0.00    -0.031 A 
HETATM   20  C   UNK     0       0.321   3.003 -35.340  0.00  0.00     0.051 C 
HETATM   21  C   UNK     0      -4.202   4.542 -37.007  0.00  0.00     0.115 C 
HETATM   22  C   UNK     0      -4.957   5.845 -36.890  0.00  0.00     0.022 A 
HETATM   23  N   UNK     0      -4.802   6.815 -35.980  0.00  0.00    -0.361 N 
HETATM   24  C   UNK     0      -5.579   7.858 -36.337  0.00  0.00     0.021 A 
HETATM   25  C   UNK     0      -6.259   7.547 -37.499  0.00  0.00    -0.031 A 
HETATM   26  C   UNK     0      -7.273   8.375 -38.261  0.00  0.00     0.051 C 
HETATM   27  C   UNK     0      -5.878   6.264 -37.872  0.00  0.00    -0.027 A 
HETATM   28  C   UNK     0      -5.672   9.219 -35.670  0.00  0.00     0.115 C 
HETATM   29  H   UNK     0      -3.075   8.720 -34.371  0.00  0.00     0.165 HD
HETATM   30  H   UNK     0      -0.914   8.367 -36.964  0.00  0.00     0.165 HD
HETATM   31  H   UNK     0      -2.031   6.479 -37.559  0.00  0.00     0.165 HD
HETATM   32  H   UNK     0      -4.175   6.757 -35.053  0.00  0.00     0.165 HD
ENDROOT
BRANCH   6  33
HETATM   33  C   UNK     0      -2.241  12.786 -36.682  0.00  0.00     0.051 C 
BRANCH  33  34
HETATM   34  C   UNK     0      -2.264  13.909 -35.673  0.00  0.00     0.114 C 
BRANCH  34  35
HETATM   35  C   UNK     0      -1.374  14.989 -36.187  0.00  0.00     0.139 C 
HETATM   36  O   UNK     0      -1.515  16.179 -35.780  0.00  0.00    -0.650 OA
BRANCH  35  37
HETATM   37  O   UNK     0      -0.366  14.752 -37.114  0.00  0.00    -0.776 OA
HETATM   38  H   UNK     0       0.054  15.495 -37.649  0.00  0.00     0.167 HD
ENDBRANCH  35  37
ENDBRANCH  34  35
ENDBRANCH  33  34
ENDBRANCH   6  33
BRANCH  27  39
HETATM   39  C   UNK     0      -6.458   5.554 -39.045  0.00  0.00     0.051 C 
BRANCH  39  40
HETATM   40  C   UNK     0      -5.581   5.246 -40.174  0.00  0.00     0.114 C 
BRANCH  40  41
HETATM   41  C   UNK     0      -5.282   6.215 -41.204  0.00  0.00     0.139 C 
HETATM   42  O   UNK     0      -5.177   7.431 -40.990  0.00  0.00    -0.650 OA
BRANCH  41  43
HETATM   43  O   UNK     0      -5.096   5.766 -42.542  0.00  0.00    -0.776 OA
HETATM   44  H   UNK     0      -4.950   4.768 -42.633  0.00  0.00     0.167 HD
ENDBRANCH  41  43
ENDBRANCH  40  41
ENDBRANCH  39  40
ENDBRANCH  27  39
BRANCH  11  45
HETATM   45  C   UNK     0       2.364   6.753 -33.939  0.00  0.00     0.051 C 
BRANCH  45  46
HETATM   46  C   UNK     0       3.757   7.205 -34.185  0.00  0.00     0.114 C 
BRANCH  46  47
HETATM   47  C   UNK     0       4.388   6.212 -35.101  0.00  0.00     0.139 C 
HETATM   48  O   UNK     0       3.830   5.118 -35.264  0.00  0.00    -0.650 OA
BRANCH  47  49
HETATM   49  O   UNK     0       5.562   6.502 -35.750  0.00  0.00    -0.776 OA
HETATM   50  H   UNK     0       6.177   5.766 -36.117  0.00  0.00     0.167 HD
ENDBRANCH  47  49
ENDBRANCH  46  47
ENDBRANCH  45  46
ENDBRANCH  11  45
BRANCH  18  51
HETATM   51  C   UNK     0      -2.651   2.200 -35.637  0.00  0.00     0.051 C 
BRANCH  51  52
HETATM   52  C   UNK     0      -3.070   2.404 -34.189  0.00  0.00     0.114 C 
BRANCH  52  53
HETATM   53  C   UNK     0      -4.464   1.979 -33.956  0.00  0.00     0.139 C 
HETATM   54  O   UNK     0      -5.244   1.853 -34.913  0.00  0.00    -0.650 OA
BRANCH  53  55
HETATM   55  O   UNK     0      -4.892   1.729 -32.675  0.00  0.00    -0.776 OA
HETATM   56  H   UNK     0      -5.349   2.375 -32.075  0.00  0.00     0.167 HD
ENDBRANCH  53  55
ENDBRANCH  52  53
ENDBRANCH  51  52
ENDBRANCH  18  51
TORSDOF 16
ENDMDL
MODEL 2
REMARK VINA RESULT:      -8.8      4.948     10.283
REMARK  16 active torsions:
REMARK  status: ('A' for Active; 'I' for Inactive)
REMARK    1  A    between atoms: C_6  and  C_7 
REMARK    2  A    between atoms: C_7  and  C_8 
REMARK    3  A    between atoms: C_8  and  C_9 
REMARK    4  A    between atoms: C_9  and  O_11 
REMARK    5  A    between atoms: C_16  and  C_17 
REMARK    6  A    between atoms: C_17  and  C_18 
REMARK    7  A    between atoms: C_18  and  C_19 
REMARK    8  A    between atoms: C_19  and  O_21 
REMARK    9  A    between atoms: C_28  and  C_29 
REMARK   10  A    between atoms: C_29  and  C_30 
REMARK   11  A    between atoms: C_30  and  C_31 
REMARK   12  A    between atoms: C_31  and  O_33 
REMARK   13  A    between atoms: C_42  and  C_43 
REMARK   14  A    between atoms: C_43  and  C_44 
REMARK   15  A    between atoms: C_44  and  C_45 
REMARK   16  A    between atoms: C_45  and  O_47 
ROOT
HETATM    1  C   UNK     0     -12.077   6.957 -39.209  0.00  0.00     0.051 C 
HETATM    2  C   UNK     0     -11.642   8.062 -38.268  0.00  0.00    -0.031 A 
HETATM    3  C   UNK     0     -10.711   8.028 -37.242  0.00  0.00     0.021 A 
HETATM    4  N   UNK     0     -10.668   9.242 -36.645  0.00  0.00    -0.361 N 
HETATM    5  C   UNK     0     -11.544  10.052 -37.274  0.00  0.00     0.022 A 
HETATM    6  C   UNK     0     -12.173   9.345 -38.293  0.00  0.00    -0.027 A 
HETATM    7  C   UNK     0     -11.811  11.511 -37.066  0.00  0.00     0.115 C 
HETATM    8  C   UNK     0     -10.599  12.403 -36.864  0.00  0.00     0.021 A 
HETATM    9  N   UNK     0      -9.387  12.308 -37.432  0.00  0.00    -0.361 N 
HETATM   10  C   UNK     0      -8.594  13.257 -36.890  0.00  0.00     0.022 A 
HETATM   11  C   UNK     0      -9.319  13.990 -35.954  0.00  0.00    -0.027 A 
HETATM   12  C   UNK     0     -10.583  13.457 -35.933  0.00  0.00    -0.031 A 
HETATM   13  C   UNK     0     -11.721  13.942 -35.064  0.00  0.00     0.051 C 
HETATM   14  C   UNK     0      -7.114  13.476 -37.192  0.00  0.00     0.115 C 
HETATM   15  C   UNK     0      -6.234  12.284 -36.854  0.00  0.00     0.021 A 
HETATM   16  N   UNK     0      -6.328  11.030 -37.335  0.00  0.00    -0.361 N 
HETATM   17  C   UNK     0      -5.416  10.261 -36.738  0.00  0.00     0.022 A 
HETATM   18  C   UNK     0      -4.685  11.053 -35.831  0.00  0.00    -0.027 A 
HETATM   19  C   UNK     0      -5.206  12.318 -35.913  0.00  0.00    -0.031 A 
HETATM   20  C   UNK     0      -4.680  13.501 -35.121  0.00  0.00     0.051 C 
HETATM   21  C   UNK     0      -5.158   8.777 -36.871  0.00  0.00     0.115 C 
HETATM   22  C   UNK     0      -6.350   7.882 -37.116  0.00  0.00     0.022 A 
HETATM   23  N   UNK     0      -7.570   7.955 -36.568  0.00  0.00    -0.361 N 
HETATM   24  C   UNK     0      -8.364   7.052 -37.178  0.00  0.00     0.021 A 
HETATM   25  C   UNK     0      -7.634   6.373 -38.135  0.00  0.00    -0.031 A 
HETATM   26  C   UNK     0      -8.073   5.246 -39.046  0.00  0.00     0.051 C 
HETATM   27  C   UNK     0      -6.342   6.886 -38.114  0.00  0.00    -0.027 A 
HETATM   28  C   UNK     0      -9.851   6.827 -36.965  0.00  0.00     0.115 C 
HETATM   29  H   UNK     0     -10.047   9.507 -35.757  0.00  0.00     0.165 HD
HETATM   30  H   UNK     0      -9.101  11.604 -38.251  0.00  0.00     0.165 HD
HETATM   31  H   UNK     0      -7.022  10.691 -38.149  0.00  0.00     0.165 HD
HETATM   32  H   UNK     0      -7.872   8.617 -35.714  0.00  0.00     0.165 HD
ENDROOT
BRANCH   6  33
HETATM   33  C   UNK     0     -13.227   9.790 -39.274  0.00  0.00     0.051 C 
BRANCH  33  34
HETATM   34  C   UNK     0     -14.371  10.469 -38.559  0.00  0.00     0.114 C 
BRANCH  34  35
HETATM   35  C   UNK     0     -14.669  11.733 -39.293  0.00  0.00     0.139 C 
HETATM   36  O   UNK     0     -15.809  12.273 -39.196  0.00  0.00    -0.650 OA
BRANCH  35  37
HETATM   37  O   UNK     0     -13.733  12.369 -40.100  0.00  0.00    -0.776 OA
HETATM   38  H   UNK     0     -13.827  12.403 -41.102  0.00  0.00     0.167 HD
ENDBRANCH  35  37
ENDBRANCH  34  35
ENDBRANCH  33  34
ENDBRANCH   6  33
BRANCH  27  39
HETATM   39  C   UNK     0      -5.244   6.351 -38.963  0.00  0.00     0.051 C 
BRANCH  39  40
HETATM   40  C   UNK     0      -5.118   6.851 -40.332  0.00  0.00     0.114 C 
BRANCH  40  41
HETATM   41  C   UNK     0      -4.782   8.227 -40.622  0.00  0.00     0.139 C 
HETATM   42  O   UNK     0      -5.588   9.162 -40.525  0.00  0.00    -0.650 OA
BRANCH  41  43
HETATM   43  O   UNK     0      -3.458   8.541 -41.042  0.00  0.00    -0.776 OA
HETATM   44  H   UNK     0      -3.276   8.361 -42.022  0.00  0.00     0.167 HD
ENDBRANCH  41  43
ENDBRANCH  40  41
ENDBRANCH  39  40
ENDBRANCH  27  39
BRANCH  11  45
HETATM   45  C   UNK     0      -8.863  15.147 -35.107  0.00  0.00     0.051 C 
BRANCH  45  46
HETATM   46  C   UNK     0      -9.008  16.472 -35.762  0.00  0.00     0.114 C 
BRANCH  46  47
HETATM   47  C   UNK     0     -10.197  17.137 -35.156  0.00  0.00     0.139 C 
HETATM   48  O   UNK     0     -10.172  17.407 -33.947  0.00  0.00    -0.650 OA
BRANCH  47  49
HETATM   49  O   UNK     0     -11.295  17.444 -35.918  0.00  0.00    -0.776 OA
HETATM   50  H   UNK     0     -11.628  18.408 -36.031  0.00  0.00     0.167 HD
ENDBRANCH  47  49
ENDBRANCH  46  47
ENDBRANCH  45  46
ENDBRANCH  11  45
BRANCH  18  51
HETATM   51  C   UNK     0      -3.538  10.633 -34.948  0.00  0.00     0.051 C 
BRANCH  51  52
HETATM   52  C   UNK     0      -2.348  10.418 -35.871  0.00  0.00     0.114 C 
BRANCH  52  53
HETATM   53  C   UNK     0      -1.723  11.694 -36.268  0.00  0.00     0.139 C 
HETATM   54  O   UNK     0      -1.540  11.950 -37.469  0.00  0.00    -0.650 OA
BRANCH  53  55
HETATM   55  O   UNK     0      -1.342  12.594 -35.302  0.00  0.00    -0.776 OA
HETATM   56  H   UNK     0      -1.153  13.558 -35.444  0.00  0.00     0.167 HD
ENDBRANCH  53  55
ENDBRANCH  52  53
ENDBRANCH  51  52
ENDBRANCH  18  51
TORSDOF 16
ENDMDL
MODEL 3
REMARK VINA RESULT:      -8.7      4.695      9.937
REMARK  16 active torsions:
REMARK  status: ('A' for Active; 'I' for Inactive)
REMARK    1  A    between atoms: C_6  and  C_7 
REMARK    2  A    between atoms: C_7  and  C_8 
REMARK    3  A    between atoms: C_8  and  C_9 
REMARK    4  A    between atoms: C_9  and  O_11 
REMARK    5  A    between atoms: C_16  and  C_17 
REMARK    6  A    between atoms: C_17  and  C_18 
REMARK    7  A    between atoms: C_18  and  C_19 
REMARK    8  A    between atoms: C_19  and  O_21 
REMARK    9  A    between atoms: C_28  and  C_29 
REMARK   10  A    between atoms: C_29  and  C_30 
REMARK   11  A    between atoms: C_30  and  C_31 
REMARK   12  A    between atoms: C_31  and  O_33 
REMARK   13  A    between atoms: C_42  and  C_43 
REMARK   14  A    between atoms: C_43  and  C_44 
REMARK   15  A    between atoms: C_44  and  C_45 
REMARK   16  A    between atoms: C_45  and  O_47 
ROOT
HETATM    1  C   UNK     0      -8.735  14.988 -35.051  0.00  0.00     0.051 C 
HETATM    2  C   UNK     0      -9.191  13.839 -35.927  0.00  0.00    -0.031 A 
HETATM    3  C   UNK     0      -8.507  13.173 -36.931  0.00  0.00     0.021 A 
HETATM    4  N   UNK     0      -9.318  12.230 -37.468  0.00  0.00    -0.361 N 
HETATM    5  C   UNK     0     -10.501  12.276 -36.822  0.00  0.00     0.022 A 
HETATM    6  C   UNK     0     -10.457  13.273 -35.853  0.00  0.00    -0.027 A 
HETATM    7  C   UNK     0     -11.699  11.390 -36.966  0.00  0.00     0.115 C 
HETATM    8  C   UNK     0     -11.434   9.900 -37.095  0.00  0.00     0.021 A 
HETATM    9  N   UNK     0     -10.478   9.167 -36.503  0.00  0.00    -0.361 N 
HETATM   10  C   UNK     0     -10.561   7.907 -36.980  0.00  0.00     0.022 A 
HETATM   11  C   UNK     0     -11.605   7.824 -37.896  0.00  0.00    -0.027 A 
HETATM   12  C   UNK     0     -12.159   9.076 -37.973  0.00  0.00    -0.031 A 
HETATM   13  C   UNK     0     -13.333   9.460 -38.845  0.00  0.00     0.051 C 
HETATM   14  C   UNK     0      -9.631   6.748 -36.632  0.00  0.00     0.115 C 
HETATM   15  C   UNK     0      -8.177   6.992 -37.006  0.00  0.00     0.021 A 
HETATM   16  N   UNK     0      -7.378   7.992 -36.587  0.00  0.00    -0.361 N 
HETATM   17  C   UNK     0      -6.196   7.893 -37.199  0.00  0.00     0.022 A 
HETATM   18  C   UNK     0      -6.222   6.770 -38.050  0.00  0.00    -0.027 A 
HETATM   19  C   UNK     0      -7.468   6.214 -37.919  0.00  0.00    -0.031 A 
HETATM   20  C   UNK     0      -7.910   4.954 -38.640  0.00  0.00     0.051 C 
HETATM   21  C   UNK     0      -4.988   8.800 -37.132  0.00  0.00     0.115 C 
HETATM   22  C   UNK     0      -5.237  10.280 -36.959  0.00  0.00     0.022 A 
HETATM   23  N   UNK     0      -6.183  11.035 -37.532  0.00  0.00    -0.361 N 
HETATM   24  C   UNK     0      -6.131  12.267 -36.985  0.00  0.00     0.021 A 
HETATM   25  C   UNK     0      -5.120  12.308 -36.045  0.00  0.00    -0.031 A 
HETATM   26  C   UNK     0      -4.651  13.475 -35.200  0.00  0.00     0.051 C 
HETATM   27  C   UNK     0      -4.533  11.049 -36.010  0.00  0.00    -0.027 A 
HETATM   28  C   UNK     0      -7.061  13.439 -37.245  0.00  0.00     0.115 C 
HETATM   29  H   UNK     0      -9.062  11.567 -38.326  0.00  0.00     0.165 HD
HETATM   30  H   UNK     0      -9.774   9.524 -35.712  0.00  0.00     0.165 HD
HETATM   31  H   UNK     0      -7.637   8.755 -35.809  0.00  0.00     0.165 HD
HETATM   32  H   UNK     0      -6.870  10.718 -38.360  0.00  0.00     0.165 HD
ENDROOT
BRANCH   6  33
HETATM   33  C   UNK     0     -11.514  13.724 -34.877  0.00  0.00     0.051 C 
BRANCH  33  34
HETATM   34  C   UNK     0     -12.510  14.637 -35.552  0.00  0.00     0.114 C 
BRANCH  34  35
HETATM   35  C   UNK     0     -12.138  16.039 -35.205  0.00  0.00     0.139 C 
HETATM   36  O   UNK     0     -12.322  16.475 -34.031  0.00  0.00    -0.650 OA
BRANCH  35  37
HETATM   37  O   UNK     0     -11.582  16.916 -36.128  0.00  0.00    -0.776 OA
HETATM   38  H   UNK     0     -12.148  17.444 -36.772  0.00  0.00     0.167 HD
ENDBRANCH  35  37
ENDBRANCH  34  35
ENDBRANCH  33  34
ENDBRANCH   6  33
BRANCH  27  39
HETATM   39  C   UNK     0      -3.353  10.727 -35.162  0.00  0.00     0.051 C 
BRANCH  39  40
HETATM   40  C   UNK     0      -2.029  10.733 -35.783  0.00  0.00     0.114 C 
BRANCH  40  41
HETATM   41  C   UNK     0      -1.410  11.947 -36.267  0.00  0.00     0.139 C 
HETATM   42  O   UNK     0      -1.307  12.978 -35.590  0.00  0.00    -0.650 OA
BRANCH  41  43
HETATM   43  O   UNK     0      -0.886  11.975 -37.591  0.00  0.00    -0.776 OA
HETATM   44  H   UNK     0      -0.329  12.793 -37.803  0.00  0.00     0.167 HD
ENDBRANCH  41  43
ENDBRANCH  40  41
ENDBRANCH  39  40
ENDBRANCH  27  39
BRANCH  11  45
HETATM   45  C   UNK     0     -12.082   6.627 -38.676  0.00  0.00     0.051 C 
BRANCH  45  46
HETATM   46  C   UNK     0     -11.333   6.388 -39.936  0.00  0.00     0.114 C 
BRANCH  46  47
HETATM   47  C   UNK     0     -12.326   5.969 -40.967  0.00  0.00     0.139 C 
HETATM   48  O   UNK     0     -12.253   4.821 -41.426  0.00  0.00    -0.650 OA
BRANCH  47  49
HETATM   49  O   UNK     0     -13.298   6.835 -41.399  0.00  0.00    -0.776 OA
HETATM   50  H   UNK     0     -14.128   7.049 -40.833  0.00  0.00     0.167 HD
ENDBRANCH  47  49
ENDBRANCH  46  47
ENDBRANCH  45  46
ENDBRANCH  11  45
BRANCH  18  51
HETATM   51  C   UNK     0      -5.114   6.243 -38.923  0.00  0.00     0.051 C 
BRANCH  51  52
HETATM   52  C   UNK     0      -5.435   6.697 -40.340  0.00  0.00     0.114 C 
BRANCH  52  53
HETATM   53  C   UNK     0      -4.929   8.056 -40.610  0.00  0.00     0.139 C 
HETATM   54  O   UNK     0      -5.691   9.032 -40.523  0.00  0.00    -0.650 OA
BRANCH  53  55
HETATM   55  O   UNK     0      -3.612   8.233 -40.960  0.00  0.00    -0.776 OA
HETATM   56  H   UNK     0      -3.143   7.786 -41.712  0.00  0.00     0.167 HD
ENDBRANCH  53  55
ENDBRANCH  52  53
ENDBRANCH  51  52
ENDBRANCH  18  51
TORSDOF 16
ENDMDL
MODEL 4
REMARK VINA RESULT:      -8.3     32.461     35.721
REMARK  16 active torsions:
REMARK  status: ('A' for Active; 'I' for Inactive)
REMARK    1  A    between atoms: C_6  and  C_7 
REMARK    2  A    between atoms: C_7  and  C_8 
REMARK    3  A    between atoms: C_8  and  C_9 
REMARK    4  A    between atoms: C_9  and  O_11 
REMARK    5  A    between atoms: C_16  and  C_17 
REMARK    6  A    between atoms: C_17  and  C_18 
REMARK    7  A    between atoms: C_18  and  C_19 
REMARK    8  A    between atoms: C_19  and  O_21 
REMARK    9  A    between atoms: C_28  and  C_29 
REMARK   10  A    between atoms: C_29  and  C_30 
REMARK   11  A    between atoms: C_30  and  C_31 
REMARK   12  A    between atoms: C_31  and  O_33 
REMARK   13  A    between atoms: C_42  and  C_43 
REMARK   14  A    between atoms: C_43  and  C_44 
REMARK   15  A    between atoms: C_44  and  C_45 
REMARK   16  A    between atoms: C_45  and  O_47 
ROOT
HETATM    1  C   UNK     0      -9.372  17.016  -3.330  0.00  0.00     0.051 C 
HETATM    2  C   UNK     0      -8.390  18.029  -2.777  0.00  0.00    -0.031 A 
HETATM    3  C   UNK     0      -7.102  17.838  -2.303  0.00  0.00     0.021 A 
HETATM    4  N   UNK     0      -6.608  19.025  -1.877  0.00  0.00    -0.361 N 
HETATM    5  C   UNK     0      -7.550  19.969  -2.076  0.00  0.00     0.022 A 
HETATM    6  C   UNK     0      -8.679  19.380  -2.635  0.00  0.00    -0.027 A 
HETATM    7  C   UNK     0      -7.474  21.449  -1.864  0.00  0.00     0.115 C 
HETATM    8  C   UNK     0      -6.197  22.137  -2.311  0.00  0.00     0.021 A 
HETATM    9  N   UNK     0      -5.423  21.857  -3.371  0.00  0.00    -0.361 N 
HETATM   10  C   UNK     0      -4.341  22.664  -3.325  0.00  0.00     0.022 A 
HETATM   11  C   UNK     0      -4.426  23.493  -2.210  0.00  0.00    -0.027 A 
HETATM   12  C   UNK     0      -5.592  23.166  -1.566  0.00  0.00    -0.031 A 
HETATM   13  C   UNK     0      -6.103  23.816  -0.300  0.00  0.00     0.051 C 
HETATM   14  C   UNK     0      -3.165  22.650  -4.296  0.00  0.00     0.115 C 
HETATM   15  C   UNK     0      -2.411  21.330  -4.331  0.00  0.00     0.021 A 
HETATM   16  N   UNK     0      -2.900  20.112  -4.630  0.00  0.00    -0.361 N 
HETATM   17  C   UNK     0      -1.935  19.202  -4.478  0.00  0.00     0.022 A 
HETATM   18  C   UNK     0      -0.758  19.860  -4.071  0.00  0.00    -0.027 A 
HETATM   19  C   UNK     0      -1.068  21.193  -3.984  0.00  0.00    -0.031 A 
HETATM   20  C   UNK     0      -0.067  22.270  -3.609  0.00  0.00     0.051 C 
HETATM   21  C   UNK     0      -1.987  17.698  -4.618  0.00  0.00     0.115 C 
HETATM   22  C   UNK     0      -3.268  17.004  -4.218  0.00  0.00     0.022 A 
HETATM   23  N   UNK     0      -4.061  17.264  -3.171  0.00  0.00    -0.361 N 
HETATM   24  C   UNK     0      -5.169  16.504  -3.279  0.00  0.00     0.021 A 
HETATM   25  C   UNK     0      -5.083  15.728  -4.419  0.00  0.00    -0.031 A 
HETATM   26  C   UNK     0      -6.057  14.693  -4.943  0.00  0.00     0.051 C 
HETATM   27  C   UNK     0      -3.875  16.030  -5.037  0.00  0.00    -0.027 A 
HETATM   28  C   UNK     0      -6.395  16.514  -2.382  0.00  0.00     0.115 C 
HETATM   29  H   UNK     0      -5.611  19.179  -1.402  0.00  0.00     0.165 HD
HETATM   30  H   UNK     0      -5.662  21.126  -4.181  0.00  0.00     0.165 HD
HETATM   31  H   UNK     0      -3.936  19.895  -5.001  0.00  0.00     0.165 HD
HETATM   32  H   UNK     0      -3.826  17.956  -2.321  0.00  0.00     0.165 HD
ENDROOT
BRANCH   6  33
HETATM   33  C   UNK     0      -9.996  19.995  -3.037  0.00  0.00     0.051 C 
BRANCH  33  34
HETATM   34  C   UNK     0      -9.915  20.566  -4.433  0.00  0.00     0.114 C 
BRANCH  34  35
HETATM   35  C   UNK     0     -10.593  21.894  -4.412  0.00  0.00     0.139 C 
HETATM   36  O   UNK     0     -11.464  22.179  -5.285  0.00  0.00    -0.650 OA
BRANCH  35  37
HETATM   37  O   UNK     0     -10.313  22.863  -3.456  0.00  0.00    -0.776 OA
HETATM   38  H   UNK     0     -11.012  23.512  -3.133  0.00  0.00     0.167 HD
ENDBRANCH  35  37
ENDBRANCH  34  35
ENDBRANCH  33  34
ENDBRANCH   6  33
BRANCH  27  39
HETATM   39  C   UNK     0      -3.396  15.337  -6.263  0.00  0.00     0.051 C 
BRANCH  39  40
HETATM   40  C   UNK     0      -2.192  14.512  -6.169  0.00  0.00     0.114 C 
BRANCH  40  41
HETATM   41  C   UNK     0      -1.971  13.592  -5.076  0.00  0.00     0.139 C 
HETATM   42  O   UNK     0      -2.224  12.381  -5.140  0.00  0.00    -0.650 OA
BRANCH  41  43
HETATM   43  O   UNK     0      -1.436  14.087  -3.853  0.00  0.00    -0.776 OA
HETATM   44  H   UNK     0      -1.468  13.428  -3.084  0.00  0.00     0.167 HD
ENDBRANCH  41  43
ENDBRANCH  40  41
ENDBRANCH  39  40
ENDBRANCH  27  39
BRANCH  11  45
HETATM   45  C   UNK     0      -3.463  24.555  -1.751  0.00  0.00     0.051 C 
BRANCH  45  46
HETATM   46  C   UNK     0      -3.527  25.812  -2.540  0.00  0.00     0.114 C 
BRANCH  46  47
HETATM   47  C   UNK     0      -2.139  26.127  -2.983  0.00  0.00     0.139 C 
HETATM   48  O   UNK     0      -1.978  26.978  -3.868  0.00  0.00    -0.650 OA
BRANCH  47  49
HETATM   49  O   UNK     0      -1.061  25.487  -2.424  0.00  0.00    -0.776 OA
HETATM   50  H   UNK     0      -1.168  24.783  -1.685  0.00  0.00     0.167 HD
ENDBRANCH  47  49
ENDBRANCH  46  47
ENDBRANCH  45  46
ENDBRANCH  11  45
BRANCH  18  51
HETATM   51  C   UNK     0       0.596  19.255  -3.801  0.00  0.00     0.051 C 
BRANCH  51  52
HETATM   52  C   UNK     0       0.718  19.145  -2.288  0.00  0.00     0.114 C 
BRANCH  52  53
HETATM   53  C   UNK     0      -0.015  17.978  -1.761  0.00  0.00     0.139 C 
HETATM   54  O   UNK     0       0.333  16.830  -2.080  0.00  0.00    -0.650 OA
BRANCH  53  55
HETATM   55  O   UNK     0      -1.084  18.170  -0.920  0.00  0.00    -0.776 OA
HETATM   56  H   UNK     0      -1.189  17.785  -0.011  0.00  0.00     0.167 HD
ENDBRANCH  53  55
ENDBRANCH  52  53
ENDBRANCH  51  52
ENDBRANCH  18  51
TORSDOF 16
ENDMDL
MODEL 5
REMARK VINA RESULT:      -8.2     22.542     25.311
REMARK  16 active torsions:
REMARK  status: ('A' for Active; 'I' for Inactive)
REMARK    1  A    between atoms: C_6  and  C_7 
REMARK    2  A    between atoms: C_7  and  C_8 
REMARK    3  A    between atoms: C_8  and  C_9 
REMARK    4  A    between atoms: C_9  and  O_11 
REMARK    5  A    between atoms: C_16  and  C_17 
REMARK    6  A    between atoms: C_17  and  C_18 
REMARK    7  A    between atoms: C_18  and  C_19 
REMARK    8  A    between atoms: C_19  and  O_21 
REMARK    9  A    between atoms: C_28  and  C_29 
REMARK   10  A    between atoms: C_29  and  C_30 
REMARK   11  A    between atoms: C_30  and  C_31 
REMARK   12  A    between atoms: C_31  and  O_33 
REMARK   13  A    between atoms: C_42  and  C_43 
REMARK   14  A    between atoms: C_43  and  C_44 
REMARK   15  A    between atoms: C_44  and  C_45 
REMARK   16  A    between atoms: C_45  and  O_47 
ROOT
HETATM    1  C   UNK     0     -11.369  13.409 -13.310  0.00  0.00     0.051 C 
HETATM    2  C   UNK     0     -12.041  12.092 -13.643  0.00  0.00    -0.031 A 
HETATM    3  C   UNK     0     -13.289  11.621 -13.267  0.00  0.00     0.021 A 
HETATM    4  N   UNK     0     -13.460  10.375 -13.769  0.00  0.00    -0.361 N 
HETATM    5  C   UNK     0     -12.352  10.045 -14.464  0.00  0.00     0.022 A 
HETATM    6  C   UNK     0     -11.442  11.095 -14.403  0.00  0.00    -0.027 A 
HETATM    7  C   UNK     0     -12.071   8.826 -15.286  0.00  0.00     0.115 C 
HETATM    8  C   UNK     0     -13.197   8.331 -16.177  0.00  0.00     0.021 A 
HETATM    9  N   UNK     0     -14.110   9.049 -16.849  0.00  0.00    -0.361 N 
HETATM   10  C   UNK     0     -14.972   8.191 -17.433  0.00  0.00     0.022 A 
HETATM   11  C   UNK     0     -14.599   6.883 -17.138  0.00  0.00    -0.027 A 
HETATM   12  C   UNK     0     -13.481   6.964 -16.347  0.00  0.00    -0.031 A 
HETATM   13  C   UNK     0     -12.720   5.784 -15.786  0.00  0.00     0.051 C 
HETATM   14  C   UNK     0     -16.207   8.568 -18.246  0.00  0.00     0.115 C 
HETATM   15  C   UNK     0     -17.239   9.364 -17.464  0.00  0.00     0.021 A 
HETATM   16  N   UNK     0     -17.068  10.548 -16.845  0.00  0.00    -0.361 N 
HETATM   17  C   UNK     0     -18.195  10.879 -16.211  0.00  0.00     0.022 A 
HETATM   18  C   UNK     0     -19.150   9.867 -16.435  0.00  0.00    -0.027 A 
HETATM   19  C   UNK     0     -18.540   8.925 -17.222  0.00  0.00    -0.031 A 
HETATM   20  C   UNK     0     -19.232   7.675 -17.732  0.00  0.00     0.051 C 
HETATM   21  C   UNK     0     -18.497  12.062 -15.320  0.00  0.00     0.115 C 
HETATM   22  C   UNK     0     -17.374  12.593 -14.461  0.00  0.00     0.022 A 
HETATM   23  N   UNK     0     -16.448  11.901 -13.784  0.00  0.00    -0.361 N 
HETATM   24  C   UNK     0     -15.555  12.774 -13.275  0.00  0.00     0.021 A 
HETATM   25  C   UNK     0     -15.920  14.060 -13.623  0.00  0.00    -0.031 A 
HETATM   26  C   UNK     0     -15.259  15.372 -13.255  0.00  0.00     0.051 C 
HETATM   27  C   UNK     0     -17.082  13.970 -14.383  0.00  0.00    -0.027 A 
HETATM   28  C   UNK     0     -14.280  12.460 -12.511  0.00  0.00     0.115 C 
HETATM   29  H   UNK     0     -14.347   9.722 -13.596  0.00  0.00     0.165 HD
HETATM   30  H   UNK     0     -14.119  10.162 -16.953  0.00  0.00     0.165 HD
HETATM   31  H   UNK     0     -16.148  11.186 -16.896  0.00  0.00     0.165 HD
HETATM   32  H   UNK     0     -16.440  10.792 -13.623  0.00  0.00     0.165 HD
ENDROOT
BRANCH   6  33
HETATM   33  C   UNK     0     -10.064  11.222 -15.003  0.00  0.00     0.051 C 
BRANCH  33  34
HETATM   34  C   UNK     0     -10.144  11.710 -16.430  0.00  0.00     0.114 C 
BRANCH  34  35
HETATM   35  C   UNK     0      -8.846  12.368 -16.750  0.00  0.00     0.139 C 
HETATM   36  O   UNK     0      -8.350  13.220 -15.956  0.00  0.00    -0.650 OA
BRANCH  35  37
HETATM   37  O   UNK     0      -8.127  12.086 -17.906  0.00  0.00    -0.776 OA
HETATM   38  H   UNK     0      -7.206  12.460 -18.067  0.00  0.00     0.167 HD
ENDBRANCH  35  37
ENDBRANCH  34  35
ENDBRANCH  33  34
ENDBRANCH   6  33
BRANCH  27  39
HETATM   39  C   UNK     0     -17.818  15.163 -14.882  0.00  0.00     0.051 C 
BRANCH  39  40
HETATM   40  C   UNK     0     -17.610  15.576 -16.270  0.00  0.00     0.114 C 
BRANCH  40  41
HETATM   41  C   UNK     0     -16.378  15.308 -16.977  0.00  0.00     0.139 C 
HETATM   42  O   UNK     0     -16.234  14.366 -17.768  0.00  0.00    -0.650 OA
BRANCH  41  43
HETATM   43  O   UNK     0     -15.260  16.164 -16.766  0.00  0.00    -0.776 OA
HETATM   44  H   UNK     0     -15.446  16.956 -16.162  0.00  0.00     0.167 HD
ENDBRANCH  41  43
ENDBRANCH  40  41
ENDBRANCH  39  40
ENDBRANCH  27  39
BRANCH  11  45
HETATM   45  C   UNK     0     -15.249   5.597 -17.572  0.00  0.00     0.051 C 
BRANCH  45  46
HETATM   46  C   UNK     0     -14.987   5.234 -18.988  0.00  0.00     0.114 C 
BRANCH  46  47
HETATM   47  C   UNK     0     -16.178   4.482 -19.479  0.00  0.00     0.139 C 
HETATM   48  O   UNK     0     -17.222   5.109 -19.705  0.00  0.00    -0.650 OA
BRANCH  47  49
HETATM   49  O   UNK     0     -16.120   3.125 -19.675  0.00  0.00    -0.776 OA
HETATM   50  H   UNK     0     -16.137   2.460 -18.893  0.00  0.00     0.167 HD
ENDBRANCH  47  49
ENDBRANCH  46  47
ENDBRANCH  45  46
ENDBRANCH  11  45
BRANCH  18  51
HETATM   51  C   UNK     0     -20.573   9.812 -15.944  0.00  0.00     0.051 C 
BRANCH  51  52
HETATM   52  C   UNK     0     -20.606   8.752 -14.853  0.00  0.00     0.114 C 
BRANCH  52  53
HETATM   53  C   UNK     0     -20.385   9.333 -13.515  0.00  0.00     0.139 C 
HETATM   54  O   UNK     0     -21.333   9.838 -12.892  0.00  0.00    -0.650 OA
BRANCH  53  55
HETATM   55  O   UNK     0     -19.126   9.316 -12.966  0.00  0.00    -0.776 OA
HETATM   56  H   UNK     0     -18.424  10.006 -13.093  0.00  0.00     0.167 HD
ENDBRANCH  53  55
ENDBRANCH  52  53
ENDBRANCH  51  52
ENDBRANCH  18  51
TORSDOF 16
ENDMDL
MODEL 6
REMARK VINA RESULT:      -8.2      1.576      1.774
REMARK  16 active torsions:
REMARK  status: ('A' for Active; 'I' for Inactive)
REMARK    1  A    between atoms: C_6  and  C_7 
REMARK    2  A    between atoms: C_7  and  C_8 
REMARK    3  A    between atoms: C_8  and  C_9 
REMARK    4  A    between atoms: C_9  and  O_11 
REMARK    5  A    between atoms: C_16  and  C_17 
REMARK    6  A    between atoms: C_17  and  C_18 
REMARK    7  A    between atoms: C_18  and  C_19 
REMARK    8  A    between atoms: C_19  and  O_21 
REMARK    9  A    between atoms: C_28  and  C_29 
REMARK   10  A    between atoms: C_29  and  C_30 
REMARK   11  A    between atoms: C_30  and  C_31 
REMARK   12  A    between atoms: C_31  and  O_33 
REMARK   13  A    between atoms: C_42  and  C_43 
REMARK   14  A    between atoms: C_43  and  C_44 
REMARK   15  A    between atoms: C_44  and  C_45 
REMARK   16  A    between atoms: C_45  and  O_47 
ROOT
HETATM    1  C   UNK     0      -6.121  11.625 -37.333  0.00  0.00     0.051 C 
HETATM    2  C   UNK     0      -5.065  10.917 -36.509  0.00  0.00    -0.031 A 
HETATM    3  C   UNK     0      -5.210   9.903 -35.576  0.00  0.00     0.021 A 
HETATM    4  N   UNK     0      -3.995   9.598 -35.062  0.00  0.00    -0.361 N 
HETATM    5  C   UNK     0      -3.077  10.390 -35.654  0.00  0.00     0.022 A 
HETATM    6  C   UNK     0      -3.712  11.229 -36.562  0.00  0.00    -0.027 A 
HETATM    7  C   UNK     0      -1.587  10.390 -35.512  0.00  0.00     0.115 C 
HETATM    8  C   UNK     0      -0.905   9.034 -35.483  0.00  0.00     0.021 A 
HETATM    9  N   UNK     0      -1.230   7.920 -36.157  0.00  0.00    -0.361 N 
HETATM   10  C   UNK     0      -0.406   6.930 -35.753  0.00  0.00     0.022 A 
HETATM   11  C   UNK     0       0.481   7.422 -34.800  0.00  0.00    -0.027 A 
HETATM   12  C   UNK     0       0.172   8.747 -34.625  0.00  0.00    -0.031 A 
HETATM   13  C   UNK     0       0.882   9.693 -33.682  0.00  0.00     0.051 C 
HETATM   14  C   UNK     0      -0.455   5.474 -36.208  0.00  0.00     0.115 C 
HETATM   15  C   UNK     0      -1.763   4.771 -35.882  0.00  0.00     0.021 A 
HETATM   16  N   UNK     0      -3.003   5.120 -36.274  0.00  0.00    -0.361 N 
HETATM   17  C   UNK     0      -3.888   4.289 -35.721  0.00  0.00     0.022 A 
HETATM   18  C   UNK     0      -3.191   3.347 -34.938  0.00  0.00    -0.027 A 
HETATM   19  C   UNK     0      -1.861   3.659 -35.049  0.00  0.00    -0.031 A 
HETATM   20  C   UNK     0      -0.750   2.866 -34.385  0.00  0.00     0.051 C 
HETATM   21  C   UNK     0      -5.399   4.294 -35.785  0.00  0.00     0.115 C 
HETATM   22  C   UNK     0      -6.089   5.636 -35.858  0.00  0.00     0.022 A 
HETATM   23  N   UNK     0      -5.784   6.763 -35.202  0.00  0.00    -0.361 N 
HETATM   24  C   UNK     0      -6.566   7.754 -35.677  0.00  0.00     0.021 A 
HETATM   25  C   UNK     0      -7.401   7.250 -36.655  0.00  0.00    -0.031 A 
HETATM   26  C   UNK     0      -8.478   7.962 -37.448  0.00  0.00     0.051 C 
HETATM   27  C   UNK     0      -7.115   5.896 -36.789  0.00  0.00    -0.027 A 
HETATM   28  C   UNK     0      -6.525   9.227 -35.309  0.00  0.00     0.115 C 
HETATM   29  H   UNK     0      -3.799   8.853 -34.256  0.00  0.00     0.165 HD
HETATM   30  H   UNK     0      -2.008   7.841 -36.955  0.00  0.00     0.165 HD
HETATM   31  H   UNK     0      -3.256   5.941 -36.995  0.00  0.00     0.165 HD
HETATM   32  H   UNK     0      -5.044   6.861 -34.366  0.00  0.00     0.165 HD
ENDROOT
BRANCH   6  33
HETATM   33  C   UNK     0      -3.140  12.294 -37.464  0.00  0.00     0.051 C 
BRANCH  33  34
HETATM   34  C   UNK     0      -2.374  13.319 -36.662  0.00  0.00     0.114 C 
BRANCH  34  35
HETATM   35  C   UNK     0      -1.256  13.811 -37.518  0.00  0.00     0.139 C 
HETATM   36  O   UNK     0      -0.467  14.701 -37.086  0.00  0.00    -0.650 OA
BRANCH  35  37
HETATM   37  O   UNK     0      -1.027  13.329 -38.801  0.00  0.00    -0.776 OA
HETATM   38  H   UNK     0      -0.132  12.964 -39.083  0.00  0.00     0.167 HD
ENDBRANCH  35  37
ENDBRANCH  34  35
ENDBRANCH  33  34
ENDBRANCH   6  33
BRANCH  27  39
HETATM   39  C   UNK     0      -7.867   4.996 -37.705  0.00  0.00     0.051 C 
BRANCH  39  40
HETATM   40  C   UNK     0      -7.216   4.562 -38.941  0.00  0.00     0.114 C 
BRANCH  40  41
HETATM   41  C   UNK     0      -6.000   5.174 -39.427  0.00  0.00     0.139 C 
HETATM   42  O   UNK     0      -5.980   6.198 -40.124  0.00  0.00    -0.650 OA
BRANCH  41  43
HETATM   43  O   UNK     0      -4.748   4.582 -39.096  0.00  0.00    -0.776 OA
HETATM   44  H   UNK     0      -4.804   3.841 -38.407  0.00  0.00     0.167 HD
ENDBRANCH  41  43
ENDBRANCH  40  41
ENDBRANCH  39  40
ENDBRANCH  27  39
BRANCH  11  45
HETATM   45  C   UNK     0       1.581   6.696 -34.073  0.00  0.00     0.051 C 
BRANCH  45  46
HETATM   46  C   UNK     0       2.707   6.273 -34.945  0.00  0.00     0.114 C 
BRANCH  46  47
HETATM   47  C   UNK     0       3.484   7.498 -35.288  0.00  0.00     0.139 C 
HETATM   48  O   UNK     0       4.024   8.133 -34.372  0.00  0.00    -0.650 OA
BRANCH  47  49
HETATM   49  O   UNK     0       3.599   7.915 -36.590  0.00  0.00    -0.776 OA
HETATM   50  H   UNK     0       3.923   8.858 -36.834  0.00  0.00     0.167 HD
ENDBRANCH  47  49
ENDBRANCH  46  47
ENDBRANCH  45  46
ENDBRANCH  11  45
BRANCH  18  51
HETATM   51  C   UNK     0      -3.760   2.199 -34.145  0.00  0.00     0.051 C 
BRANCH  51  52
HETATM   52  C   UNK     0      -3.719   0.986 -35.062  0.00  0.00     0.114 C 
BRANCH  52  53
HETATM   53  C   UNK     0      -3.310  -0.235 -34.341  0.00  0.00     0.139 C 
HETATM   54  O   UNK     0      -2.144  -0.355 -33.934  0.00  0.00    -0.650 OA
BRANCH  53  55
HETATM   55  O   UNK     0      -4.226  -1.236 -34.126  0.00  0.00    -0.776 OA
HETATM   56  H   UNK     0      -4.555  -1.882 -34.804  0.00  0.00     0.167 HD
ENDBRANCH  53  55
ENDBRANCH  52  53
ENDBRANCH  51  52
ENDBRANCH  18  51
TORSDOF 16
ENDMDL
MODEL 7
REMARK VINA RESULT:      -8.0      2.763     10.116
REMARK  16 active torsions:
REMARK  status: ('A' for Active; 'I' for Inactive)
REMARK    1  A    between atoms: C_6  and  C_7 
REMARK    2  A    between atoms: C_7  and  C_8 
REMARK    3  A    between atoms: C_8  and  C_9 
REMARK    4  A    between atoms: C_9  and  O_11 
REMARK    5  A    between atoms: C_16  and  C_17 
REMARK    6  A    between atoms: C_17  and  C_18 
REMARK    7  A    between atoms: C_18  and  C_19 
REMARK    8  A    between atoms: C_19  and  O_21 
REMARK    9  A    between atoms: C_28  and  C_29 
REMARK   10  A    between atoms: C_29  and  C_30 
REMARK   11  A    between atoms: C_30  and  C_31 
REMARK   12  A    between atoms: C_31  and  O_33 
REMARK   13  A    between atoms: C_42  and  C_43 
REMARK   14  A    between atoms: C_43  and  C_44 
REMARK   15  A    between atoms: C_44  and  C_45 
REMARK   16  A    between atoms: C_45  and  O_47 
ROOT
HETATM    1  C   UNK     0       0.882   0.811 -34.753  0.00  0.00     0.051 C 
HETATM    2  C   UNK     0      -0.455   1.519 -34.668  0.00  0.00    -0.031 A 
HETATM    3  C   UNK     0      -0.777   2.720 -34.056  0.00  0.00     0.021 A 
HETATM    4  N   UNK     0      -2.103   2.949 -34.205  0.00  0.00    -0.361 N 
HETATM    5  C   UNK     0      -2.631   1.926 -34.907  0.00  0.00     0.022 A 
HETATM    6  C   UNK     0      -1.628   1.011 -35.210  0.00  0.00    -0.027 A 
HETATM    7  C   UNK     0      -4.026   1.741 -35.417  0.00  0.00     0.115 C 
HETATM    8  C   UNK     0      -4.695   2.960 -36.030  0.00  0.00     0.021 A 
HETATM    9  N   UNK     0      -4.140   3.939 -36.761  0.00  0.00    -0.361 N 
HETATM   10  C   UNK     0      -5.090   4.863 -37.014  0.00  0.00     0.022 A 
HETATM   11  C   UNK     0      -6.293   4.464 -36.438  0.00  0.00    -0.027 A 
HETATM   12  C   UNK     0      -6.051   3.265 -35.816  0.00  0.00    -0.031 A 
HETATM   13  C   UNK     0      -7.075   2.451 -35.058  0.00  0.00     0.051 C 
HETATM   14  C   UNK     0      -4.892   6.179 -37.760  0.00  0.00     0.115 C 
HETATM   15  C   UNK     0      -3.893   7.116 -37.101  0.00  0.00     0.021 A 
HETATM   16  N   UNK     0      -2.598   6.873 -36.824  0.00  0.00    -0.361 N 
HETATM   17  C   UNK     0      -2.083   7.922 -36.180  0.00  0.00     0.022 A 
HETATM   18  C   UNK     0      -3.088   8.900 -36.037  0.00  0.00    -0.027 A 
HETATM   19  C   UNK     0      -4.216   8.383 -36.620  0.00  0.00    -0.031 A 
HETATM   20  C   UNK     0      -5.533   9.131 -36.720  0.00  0.00     0.051 C 
HETATM   21  C   UNK     0      -0.705   8.121 -35.591  0.00  0.00     0.115 C 
HETATM   22  C   UNK     0      -0.010   6.908 -35.018  0.00  0.00     0.022 A 
HETATM   23  N   UNK     0      -0.538   5.916 -34.290  0.00  0.00    -0.361 N 
HETATM   24  C   UNK     0       0.407   4.969 -34.116  0.00  0.00     0.021 A 
HETATM   25  C   UNK     0       1.575   5.367 -34.738  0.00  0.00    -0.031 A 
HETATM   26  C   UNK     0       2.916   4.665 -34.787  0.00  0.00     0.051 C 
HETATM   27  C   UNK     0       1.333   6.605 -35.323  0.00  0.00    -0.027 A 
HETATM   28  C   UNK     0       0.256   3.619 -33.437  0.00  0.00     0.115 C 
HETATM   29  H   UNK     0      -2.664   3.814 -33.779  0.00  0.00     0.165 HD
HETATM   30  H   UNK     0      -3.090   3.956 -37.143  0.00  0.00     0.165 HD
HETATM   31  H   UNK     0      -2.021   5.962 -37.132  0.00  0.00     0.165 HD
HETATM   32  H   UNK     0      -1.570   5.894 -33.855  0.00  0.00     0.165 HD
ENDROOT
BRANCH   6  33
HETATM   33  C   UNK     0      -1.700  -0.292 -35.964  0.00  0.00     0.051 C 
BRANCH  33  34
HETATM   34  C   UNK     0      -2.447  -1.333 -35.164  0.00  0.00     0.114 C 
BRANCH  34  35
HETATM   35  C   UNK     0      -1.550  -1.774 -34.058  0.00  0.00     0.139 C 
HETATM   36  O   UNK     0      -0.513  -2.453 -34.311  0.00  0.00    -0.650 OA
BRANCH  35  37
HETATM   37  O   UNK     0      -1.798  -1.469 -32.725  0.00  0.00    -0.776 OA
HETATM   38  H   UNK     0      -1.087  -1.550 -32.017  0.00  0.00     0.167 HD
ENDBRANCH  35  37
ENDBRANCH  34  35
ENDBRANCH  33  34
ENDBRANCH   6  33
BRANCH  27  39
HETATM   39  C   UNK     0       2.384   7.387 -36.028  0.00  0.00     0.051 C 
BRANCH  39  40
HETATM   40  C   UNK     0       3.085   8.435 -35.285  0.00  0.00     0.114 C 
BRANCH  40  41
HETATM   41  C   UNK     0       3.033   8.524 -33.843  0.00  0.00     0.139 C 
HETATM   42  O   UNK     0       3.704   7.805 -33.090  0.00  0.00    -0.650 OA
BRANCH  41  43
HETATM   43  O   UNK     0       2.170   9.482 -33.241  0.00  0.00    -0.776 OA
HETATM   44  H   UNK     0       1.231   9.146 -33.060  0.00  0.00     0.167 HD
ENDBRANCH  41  43
ENDBRANCH  40  41
ENDBRANCH  39  40
ENDBRANCH  27  39
BRANCH  11  45
HETATM   45  C   UNK     0      -7.626   5.162 -36.461  0.00  0.00     0.051 C 
BRANCH  45  46
HETATM   46  C   UNK     0      -7.633   6.477 -35.771  0.00  0.00     0.114 C 
BRANCH  46  47
HETATM   47  C   UNK     0      -7.282   6.228 -34.343  0.00  0.00     0.139 C 
HETATM   48  O   UNK     0      -6.250   6.742 -33.889  0.00  0.00    -0.650 OA
BRANCH  47  49
HETATM   49  O   UNK     0      -8.082   5.447 -33.548  0.00  0.00    -0.776 OA
HETATM   50  H   UNK     0      -7.805   5.173 -32.598  0.00  0.00     0.167 HD
ENDBRANCH  47  49
ENDBRANCH  46  47
ENDBRANCH  45  46
ENDBRANCH  11  45
BRANCH  18  51
HETATM   51  C   UNK     0      -2.974  10.260 -35.400  0.00  0.00     0.051 C 
BRANCH  51  52
HETATM   52  C   UNK     0      -2.859  11.258 -36.544  0.00  0.00     0.114 C 
BRANCH  52  53
HETATM   53  C   UNK     0      -1.604  12.030 -36.476  0.00  0.00     0.139 C 
HETATM   54  O   UNK     0      -1.285  12.607 -35.424  0.00  0.00    -0.650 OA
BRANCH  53  55
HETATM   55  O   UNK     0      -0.794  12.109 -37.583  0.00  0.00    -0.776 OA
HETATM   56  H   UNK     0      -1.086  12.023 -38.528  0.00  0.00     0.167 HD
ENDBRANCH  53  55
ENDBRANCH  52  53
ENDBRANCH  51  52
ENDBRANCH  18  51
TORSDOF 16
ENDMDL
MODEL 8
REMARK VINA RESULT:      -8.0     32.573     35.374
REMARK  16 active torsions:
REMARK  status: ('A' for Active; 'I' for Inactive)
REMARK    1  A    between atoms: C_6  and  C_7 
REMARK    2  A    between atoms: C_7  and  C_8 
REMARK    3  A    between atoms: C_8  and  C_9 
REMARK    4  A    between atoms: C_9  and  O_11 
REMARK    5  A    between atoms: C_16  and  C_17 
REMARK    6  A    between atoms: C_17  and  C_18 
REMARK    7  A    between atoms: C_18  and  C_19 
REMARK    8  A    between atoms: C_19  and  O_21 
REMARK    9  A    between atoms: C_28  and  C_29 
REMARK   10  A    between atoms: C_29  and  C_30 
REMARK   11  A    between atoms: C_30  and  C_31 
REMARK   12  A    between atoms: C_31  and  O_33 
REMARK   13  A    between atoms: C_42  and  C_43 
REMARK   14  A    between atoms: C_43  and  C_44 
REMARK   15  A    between atoms: C_44  and  C_45 
REMARK   16  A    between atoms: C_45  and  O_47 
ROOT
HETATM    1  C   UNK     0       0.015  17.102  -4.713  0.00  0.00     0.051 C 
HETATM    2  C   UNK     0      -0.838  18.331  -4.950  0.00  0.00    -0.031 A 
HETATM    3  C   UNK     0      -2.133  18.422  -5.437  0.00  0.00     0.021 A 
HETATM    4  N   UNK     0      -2.484  19.728  -5.512  0.00  0.00    -0.361 N 
HETATM    5  C   UNK     0      -1.446  20.470  -5.076  0.00  0.00     0.022 A 
HETATM    6  C   UNK     0      -0.398  19.628  -4.719  0.00  0.00    -0.027 A 
HETATM    7  C   UNK     0      -1.352  21.950  -4.872  0.00  0.00     0.115 C 
HETATM    8  C   UNK     0      -2.552  22.626  -4.232  0.00  0.00     0.021 A 
HETATM    9  N   UNK     0      -3.368  22.154  -3.278  0.00  0.00    -0.361 N 
HETATM   10  C   UNK     0      -4.352  23.057  -3.082  0.00  0.00     0.022 A 
HETATM   11  C   UNK     0      -4.158  24.146  -3.928  0.00  0.00    -0.027 A 
HETATM   12  C   UNK     0      -3.026  23.881  -4.655  0.00  0.00    -0.031 A 
HETATM   13  C   UNK     0      -2.426  24.793  -5.702  0.00  0.00     0.051 C 
HETATM   14  C   UNK     0      -5.537  22.908  -2.134  0.00  0.00     0.115 C 
HETATM   15  C   UNK     0      -6.434  21.722  -2.451  0.00  0.00     0.021 A 
HETATM   16  N   UNK     0      -6.089  20.422  -2.507  0.00  0.00    -0.361 N 
HETATM   17  C   UNK     0      -7.147  19.703  -2.887  0.00  0.00     0.022 A 
HETATM   18  C   UNK     0      -8.237  20.575  -3.079  0.00  0.00    -0.027 A 
HETATM   19  C   UNK     0      -7.778  21.836  -2.801  0.00  0.00    -0.031 A 
HETATM   20  C   UNK     0      -8.647  23.080  -2.849  0.00  0.00     0.051 C 
HETATM   21  C   UNK     0      -7.265  18.222  -3.168  0.00  0.00     0.115 C 
HETATM   22  C   UNK     0      -6.064  17.527  -3.764  0.00  0.00     0.022 A 
HETATM   23  N   UNK     0      -5.231  17.975  -4.712  0.00  0.00    -0.361 N 
HETATM   24  C   UNK     0      -4.216  17.095  -4.835  0.00  0.00     0.021 A 
HETATM   25  C   UNK     0      -4.406  16.050  -3.951  0.00  0.00    -0.031 A 
HETATM   26  C   UNK     0      -3.562  14.809  -3.748  0.00  0.00     0.051 C 
HETATM   27  C   UNK     0      -5.582  16.304  -3.255  0.00  0.00    -0.027 A 
HETATM   28  C   UNK     0      -2.984  17.215  -5.714  0.00  0.00     0.115 C 
HETATM   29  H   UNK     0      -3.450  20.118  -5.911  0.00  0.00     0.165 HD
HETATM   30  H   UNK     0      -3.225  21.205  -2.704  0.00  0.00     0.165 HD
HETATM   31  H   UNK     0      -5.090  19.997  -2.227  0.00  0.00     0.165 HD
HETATM   32  H   UNK     0      -5.374  18.896  -5.335  0.00  0.00     0.165 HD
ENDROOT
BRANCH   6  33
HETATM   33  C   UNK     0       0.973  19.957  -4.185  0.00  0.00     0.051 C 
BRANCH  33  34
HETATM   34  C   UNK     0       0.890  20.421  -2.750  0.00  0.00     0.114 C 
BRANCH  34  35
HETATM   35  C   UNK     0       0.834  19.204  -1.890  0.00  0.00     0.139 C 
HETATM   36  O   UNK     0       1.878  18.517  -1.689  0.00  0.00    -0.650 OA
BRANCH  35  37
HETATM   37  O   UNK     0      -0.336  18.774  -1.276  0.00  0.00    -0.776 OA
HETATM   38  H   UNK     0      -1.245  18.955  -1.671  0.00  0.00     0.167 HD
ENDBRANCH  35  37
ENDBRANCH  34  35
ENDBRANCH  33  34
ENDBRANCH   6  33
BRANCH  27  39
HETATM   39  C   UNK     0      -6.154  15.357  -2.259  0.00  0.00     0.051 C 
BRANCH  39  40
HETATM   40  C   UNK     0      -7.118  14.360  -2.723  0.00  0.00     0.114 C 
BRANCH  40  41
HETATM   41  C   UNK     0      -7.949  14.575  -3.887  0.00  0.00     0.139 C 
HETATM   42  O   UNK     0      -9.100  15.028  -3.831  0.00  0.00    -0.650 OA
BRANCH  41  43
HETATM   43  O   UNK     0      -7.432  14.252  -5.174  0.00  0.00    -0.776 OA
HETATM   44  H   UNK     0      -7.022  13.328  -5.241  0.00  0.00     0.167 HD
ENDBRANCH  41  43
ENDBRANCH  40  41
ENDBRANCH  39  40
ENDBRANCH  27  39
BRANCH  11  45
HETATM   45  C   UNK     0      -4.989  25.394  -4.061  0.00  0.00     0.051 C 
BRANCH  45  46
HETATM   46  C   UNK     0      -6.358  25.158  -4.586  0.00  0.00     0.114 C 
BRANCH  46  47
HETATM   47  C   UNK     0      -6.216  24.414  -5.870  0.00  0.00     0.139 C 
HETATM   48  O   UNK     0      -5.807  25.026  -6.867  0.00  0.00    -0.650 OA
BRANCH  47  49
HETATM   49  O   UNK     0      -6.533  23.081  -5.949  0.00  0.00    -0.776 OA
HETATM   50  H   UNK     0      -5.878  22.387  -6.329  0.00  0.00     0.167 HD
ENDBRANCH  47  49
ENDBRANCH  46  47
ENDBRANCH  45  46
ENDBRANCH  11  45
BRANCH  18  51
HETATM   51  C   UNK     0      -9.645  20.222  -3.483  0.00  0.00     0.051 C 
BRANCH  51  52
HETATM   52  C   UNK     0      -9.642  20.131  -5.002  0.00  0.00     0.114 C 
BRANCH  52  53
HETATM   53  C   UNK     0      -9.955  21.428  -5.631  0.00  0.00     0.139 C 
HETATM   54  O   UNK     0      -9.122  21.979  -6.368  0.00  0.00    -0.650 OA
BRANCH  53  55
HETATM   55  O   UNK     0     -11.171  22.023  -5.394  0.00  0.00    -0.776 OA
HETATM   56  H   UNK     0     -11.976  21.577  -5.021  0.00  0.00     0.167 HD
ENDBRANCH  53  55
ENDBRANCH  52  53
ENDBRANCH  51  52
ENDBRANCH  18  51
TORSDOF 16
ENDMDL
MODEL 9
REMARK VINA RESULT:      -7.8      2.685     10.267
REMARK  16 active torsions:
REMARK  status: ('A' for Active; 'I' for Inactive)
REMARK    1  A    between atoms: C_6  and  C_7 
REMARK    2  A    between atoms: C_7  and  C_8 
REMARK    3  A    between atoms: C_8  and  C_9 
REMARK    4  A    between atoms: C_9  and  O_11 
REMARK    5  A    between atoms: C_16  and  C_17 
REMARK    6  A    between atoms: C_17  and  C_18 
REMARK    7  A    between atoms: C_18  and  C_19 
REMARK    8  A    between atoms: C_19  and  O_21 
REMARK    9  A    between atoms: C_28  and  C_29 
REMARK   10  A    between atoms: C_29  and  C_30 
REMARK   11  A    between atoms: C_30  and  C_31 
REMARK   12  A    between atoms: C_31  and  O_33 
REMARK   13  A    between atoms: C_42  and  C_43 
REMARK   14  A    between atoms: C_43  and  C_44 
REMARK   15  A    between atoms: C_44  and  C_45 
REMARK   16  A    between atoms: C_45  and  O_47 
ROOT
HETATM    1  C   UNK     0       0.196   0.736 -34.809  0.00  0.00     0.051 C 
HETATM    2  C   UNK     0      -1.106   1.506 -34.720  0.00  0.00    -0.031 A 
HETATM    3  C   UNK     0      -1.366   2.729 -34.122  0.00  0.00     0.021 A 
HETATM    4  N   UNK     0      -2.682   3.017 -34.260  0.00  0.00    -0.361 N 
HETATM    5  C   UNK     0      -3.264   2.009 -34.941  0.00  0.00     0.022 A 
HETATM    6  C   UNK     0      -2.308   1.045 -35.242  0.00  0.00    -0.027 A 
HETATM    7  C   UNK     0      -4.672   1.882 -35.434  0.00  0.00     0.115 C 
HETATM    8  C   UNK     0      -5.291   3.121 -36.057  0.00  0.00     0.021 A 
HETATM    9  N   UNK     0      -4.700   4.063 -36.808  0.00  0.00    -0.361 N 
HETATM   10  C   UNK     0      -5.610   5.027 -37.065  0.00  0.00     0.022 A 
HETATM   11  C   UNK     0      -6.823   4.691 -36.470  0.00  0.00    -0.027 A 
HETATM   12  C   UNK     0      -6.629   3.492 -35.833  0.00  0.00    -0.031 A 
HETATM   13  C   UNK     0      -7.681   2.737 -35.052  0.00  0.00     0.051 C 
HETATM   14  C   UNK     0      -5.360   6.322 -37.832  0.00  0.00     0.115 C 
HETATM   15  C   UNK     0      -4.311   7.221 -37.197  0.00  0.00     0.021 A 
HETATM   16  N   UNK     0      -3.026   6.922 -36.931  0.00  0.00    -0.361 N 
HETATM   17  C   UNK     0      -2.456   7.956 -36.307  0.00  0.00     0.022 A 
HETATM   18  C   UNK     0      -3.413   8.980 -36.168  0.00  0.00    -0.027 A 
HETATM   19  C   UNK     0      -4.571   8.508 -36.731  0.00  0.00    -0.031 A 
HETATM   20  C   UNK     0      -5.852   9.315 -36.827  0.00  0.00     0.051 C 
HETATM   21  C   UNK     0      -1.063   8.099 -35.736  0.00  0.00     0.115 C 
HETATM   22  C   UNK     0      -0.418   6.863 -35.153  0.00  0.00     0.022 A 
HETATM   23  N   UNK     0      -0.983   5.907 -34.405  0.00  0.00    -0.361 N 
HETATM   24  C   UNK     0      -0.081   4.920 -34.227  0.00  0.00     0.021 A 
HETATM   25  C   UNK     0       1.097   5.255 -34.868  0.00  0.00    -0.031 A 
HETATM   26  C   UNK     0       2.404   4.491 -34.921  0.00  0.00     0.051 C 
HETATM   27  C   UNK     0       0.906   6.494 -35.468  0.00  0.00    -0.027 A 
HETATM   28  C   UNK     0      -0.286   3.588 -33.527  0.00  0.00     0.115 C 
HETATM   29  H   UNK     0      -3.197   3.912 -33.841  0.00  0.00     0.165 HD
HETATM   30  H   UNK     0      -3.654   4.027 -37.201  0.00  0.00     0.165 HD
HETATM   31  H   UNK     0      -2.495   5.982 -37.232  0.00  0.00     0.165 HD
HETATM   32  H   UNK     0      -2.010   5.938 -33.958  0.00  0.00     0.165 HD
ENDROOT
BRANCH   6  33
HETATM   33  C   UNK     0      -2.448  -0.264 -35.976  0.00  0.00     0.051 C 
BRANCH  33  34
HETATM   34  C   UNK     0      -2.109  -0.097 -37.439  0.00  0.00     0.114 C 
BRANCH  34  35
HETATM   35  C   UNK     0      -1.411  -1.338 -37.880  0.00  0.00     0.139 C 
HETATM   36  O   UNK     0      -1.667  -1.845 -39.011  0.00  0.00    -0.650 OA
BRANCH  35  37
HETATM   37  O   UNK     0      -0.464  -1.985 -37.095  0.00  0.00    -0.776 OA
HETATM   38  H   UNK     0       0.525  -1.843 -37.223  0.00  0.00     0.167 HD
ENDBRANCH  35  37
ENDBRANCH  34  35
ENDBRANCH  33  34
ENDBRANCH   6  33
BRANCH  27  39
HETATM   39  C   UNK     0       1.983   7.218 -36.195  0.00  0.00     0.051 C 
BRANCH  39  40
HETATM   40  C   UNK     0       2.918   8.033 -35.420  0.00  0.00     0.114 C 
BRANCH  40  41
HETATM   41  C   UNK     0       4.059   7.462 -34.740  0.00  0.00     0.139 C 
HETATM   42  O   UNK     0       4.112   7.297 -33.514  0.00  0.00    -0.650 OA
BRANCH  41  43
HETATM   43  O   UNK     0       5.190   7.062 -35.507  0.00  0.00    -0.776 OA
HETATM   44  H   UNK     0       5.497   6.112 -35.337  0.00  0.00     0.167 HD
ENDBRANCH  41  43
ENDBRANCH  40  41
ENDBRANCH  39  40
ENDBRANCH  27  39
BRANCH  11  45
HETATM   45  C   UNK     0      -8.123   5.450 -36.489  0.00  0.00     0.051 C 
BRANCH  45  46
HETATM   46  C   UNK     0      -9.031   5.069 -37.600  0.00  0.00     0.114 C 
BRANCH  46  47
HETATM   47  C   UNK     0      -9.285   6.299 -38.404  0.00  0.00     0.139 C 
HETATM   48  O   UNK     0     -10.204   6.284 -39.235  0.00  0.00    -0.650 OA
BRANCH  47  49
HETATM   49  O   UNK     0      -8.518   7.423 -38.230  0.00  0.00    -0.776 OA
HETATM   50  H   UNK     0      -8.924   8.321 -37.941  0.00  0.00     0.167 HD
ENDBRANCH  47  49
ENDBRANCH  46  47
ENDBRANCH  45  46
ENDBRANCH  11  45
BRANCH  18  51
HETATM   51  C   UNK     0      -3.229  10.343 -35.552  0.00  0.00     0.051 C 
BRANCH  51  52
HETATM   52  C   UNK     0      -2.923  11.292 -36.701  0.00  0.00     0.114 C 
BRANCH  52  53
HETATM   53  C   UNK     0      -1.623  11.967 -36.525  0.00  0.00     0.139 C 
HETATM   54  O   UNK     0      -1.315  12.446 -35.422  0.00  0.00    -0.650 OA
BRANCH  53  55
HETATM   55  O   UNK     0      -0.758  12.064 -37.589  0.00  0.00    -0.776 OA
HETATM   56  H   UNK     0      -0.088  12.782 -37.732  0.00  0.00     0.167 HD
ENDBRANCH  53  55
ENDBRANCH  52  53
ENDBRANCH  51  52
ENDBRANCH  18  51
TORSDOF 16
ENDMDL
MODEL 10
REMARK VINA RESULT:      -7.8      2.227      7.310
REMARK  16 active torsions:
REMARK  status: ('A' for Active; 'I' for Inactive)
REMARK    1  A    between atoms: C_6  and  C_7 
REMARK    2  A    between atoms: C_7  and  C_8 
REMARK    3  A    between atoms: C_8  and  C_9 
REMARK    4  A    between atoms: C_9  and  O_11 
REMARK    5  A    between atoms: C_16  and  C_17 
REMARK    6  A    between atoms: C_17  and  C_18 
REMARK    7  A    between atoms: C_18  and  C_19 
REMARK    8  A    between atoms: C_19  and  O_21 
REMARK    9  A    between atoms: C_28  and  C_29 
REMARK   10  A    between atoms: C_29  and  C_30 
REMARK   11  A    between atoms: C_30  and  C_31 
REMARK   12  A    between atoms: C_31  and  O_33 
REMARK   13  A    between atoms: C_42  and  C_43 
REMARK   14  A    between atoms: C_43  and  C_44 
REMARK   15  A    between atoms: C_44  and  C_45 
REMARK   16  A    between atoms: C_45  and  O_47 
ROOT
HETATM    1  C   UNK     0       2.196   5.897 -33.953  0.00  0.00     0.051 C 
HETATM    2  C   UNK     0       1.298   6.814 -34.759  0.00  0.00    -0.031 A 
HETATM    3  C   UNK     0       0.568   6.545 -35.905  0.00  0.00     0.021 A 
HETATM    4  N   UNK     0      -0.067   7.674 -36.300  0.00  0.00    -0.361 N 
HETATM    5  C   UNK     0       0.237   8.655 -35.424  0.00  0.00     0.022 A 
HETATM    6  C   UNK     0       1.091   8.152 -34.449  0.00  0.00    -0.027 A 
HETATM    7  C   UNK     0      -0.275  10.060 -35.353  0.00  0.00     0.115 C 
HETATM    8  C   UNK     0      -1.763  10.256 -35.589  0.00  0.00     0.021 A 
HETATM    9  N   UNK     0      -2.778   9.454 -35.232  0.00  0.00    -0.361 N 
HETATM   10  C   UNK     0      -3.919   9.978 -35.728  0.00  0.00     0.022 A 
HETATM   11  C   UNK     0      -3.632  11.154 -36.414  0.00  0.00    -0.027 A 
HETATM   12  C   UNK     0      -2.275  11.335 -36.330  0.00  0.00    -0.031 A 
HETATM   13  C   UNK     0      -1.509  12.493 -36.930  0.00  0.00     0.051 C 
HETATM   14  C   UNK     0      -5.313   9.366 -35.620  0.00  0.00     0.115 C 
HETATM   15  C   UNK     0      -5.437   7.999 -36.274  0.00  0.00     0.021 A 
HETATM   16  N   UNK     0      -4.734   6.887 -35.990  0.00  0.00    -0.361 N 
HETATM   17  C   UNK     0      -5.092   5.915 -36.833  0.00  0.00     0.022 A 
HETATM   18  C   UNK     0      -6.082   6.416 -37.701  0.00  0.00    -0.027 A 
HETATM   19  C   UNK     0      -6.291   7.722 -37.340  0.00  0.00    -0.031 A 
HETATM   20  C   UNK     0      -7.312   8.628 -38.002  0.00  0.00     0.051 C 
HETATM   21  C   UNK     0      -4.554   4.510 -36.981  0.00  0.00     0.115 C 
HETATM   22  C   UNK     0      -3.085   4.292 -36.707  0.00  0.00     0.022 A 
HETATM   23  N   UNK     0      -2.053   5.075 -37.046  0.00  0.00    -0.361 N 
HETATM   24  C   UNK     0      -0.937   4.576 -36.476  0.00  0.00     0.021 A 
HETATM   25  C   UNK     0      -1.257   3.438 -35.761  0.00  0.00    -0.031 A 
HETATM   26  C   UNK     0      -0.344   2.510 -34.987  0.00  0.00     0.051 C 
HETATM   27  C   UNK     0      -2.626   3.236 -35.894  0.00  0.00    -0.027 A 
HETATM   28  C   UNK     0       0.462   5.168 -36.497  0.00  0.00     0.115 C 
HETATM   29  H   UNK     0      -0.692   7.781 -37.216  0.00  0.00     0.165 HD
HETATM   30  H   UNK     0      -2.699   8.544 -34.588  0.00  0.00     0.165 HD
HETATM   31  H   UNK     0      -4.004   6.769 -35.147  0.00  0.00     0.165 HD
HETATM   32  H   UNK     0      -2.095   5.965 -37.728  0.00  0.00     0.165 HD
ENDROOT
BRANCH   6  33
HETATM   33  C   UNK     0       1.719   8.837 -33.262  0.00  0.00     0.051 C 
BRANCH  33  34
HETATM   34  C   UNK     0       3.147   9.226 -33.562  0.00  0.00     0.114 C 
BRANCH  34  35
HETATM   35  C   UNK     0       3.440  10.474 -32.801  0.00  0.00     0.139 C 
HETATM   36  O   UNK     0       2.961  10.640 -31.641  0.00  0.00    -0.650 OA
BRANCH  35  37
HETATM   37  O   UNK     0       4.234  11.494 -33.311  0.00  0.00    -0.776 OA
HETATM   38  H   UNK     0       4.763  12.109 -32.713  0.00  0.00     0.167 HD
ENDBRANCH  35  37
ENDBRANCH  34  35
ENDBRANCH  33  34
ENDBRANCH   6  33
BRANCH  27  39
HETATM   39  C   UNK     0      -3.332   2.060 -35.316  0.00  0.00     0.051 C 
BRANCH  39  40
HETATM   40  C   UNK     0      -4.015   2.222 -34.033  0.00  0.00     0.114 C 
BRANCH  40  41
HETATM   41  C   UNK     0      -3.828   3.389 -33.202  0.00  0.00     0.139 C 
HETATM   42  O   UNK     0      -2.799   3.605 -32.548  0.00  0.00    -0.650 OA
BRANCH  41  43
HETATM   43  O   UNK     0      -4.872   4.354 -33.119  0.00  0.00    -0.776 OA
HETATM   44  H   UNK     0      -4.594   5.295 -33.370  0.00  0.00     0.167 HD
ENDBRANCH  41  43
ENDBRANCH  40  41
ENDBRANCH  39  40
ENDBRANCH  27  39
BRANCH  11  45
HETATM   45  C   UNK     0      -4.578  12.086 -37.124  0.00  0.00     0.051 C 
BRANCH  45  46
HETATM   46  C   UNK     0      -5.430  12.893 -36.214  0.00  0.00     0.114 C 
BRANCH  46  47
HETATM   47  C   UNK     0      -6.837  12.754 -36.687  0.00  0.00     0.139 C 
HETATM   48  O   UNK     0      -7.223  13.476 -37.617  0.00  0.00    -0.650 OA
BRANCH  47  49
HETATM   49  O   UNK     0      -7.687  11.848 -36.105  0.00  0.00    -0.776 OA
HETATM   50  H   UNK     0      -8.548  11.533 -36.569  0.00  0.00     0.167 HD
ENDBRANCH  47  49
ENDBRANCH  46  47
ENDBRANCH  45  46
ENDBRANCH  11  45
BRANCH  18  51
HETATM   51  C   UNK     0      -6.806   5.684 -38.802  0.00  0.00     0.051 C 
BRANCH  51  52
HETATM   52  C   UNK     0      -5.896   5.739 -40.020  0.00  0.00     0.114 C 
BRANCH  52  53
HETATM   53  C   UNK     0      -5.814   4.435 -40.705  0.00  0.00     0.139 C 
HETATM   54  O   UNK     0      -6.508   4.216 -41.711  0.00  0.00    -0.650 OA
BRANCH  53  55
HETATM   55  O   UNK     0      -4.970   3.465 -40.221  0.00  0.00    -0.776 OA
HETATM   56  H   UNK     0      -4.071   3.242 -40.579  0.00  0.00     0.167 HD
ENDBRANCH  53  55
ENDBRANCH  52  53
ENDBRANCH  51  52
ENDBRANCH  18  51
TORSDOF 16
ENDMDL
MODEL 11
REMARK VINA RESULT:      -7.8      4.553      7.033
REMARK  16 active torsions:
REMARK  status: ('A' for Active; 'I' for Inactive)
REMARK    1  A    between atoms: C_6  and  C_7 
REMARK    2  A    between atoms: C_7  and  C_8 
REMARK    3  A    between atoms: C_8  and  C_9 
REMARK    4  A    between atoms: C_9  and  O_11 
REMARK    5  A    between atoms: C_16  and  C_17 
REMARK    6  A    between atoms: C_17  and  C_18 
REMARK    7  A    between atoms: C_18  and  C_19 
REMARK    8  A    between atoms: C_19  and  O_21 
REMARK    9  A    between atoms: C_28  and  C_29 
REMARK   10  A    between atoms: C_29  and  C_30 
REMARK   11  A    between atoms: C_30  and  C_31 
REMARK   12  A    between atoms: C_31  and  O_33 
REMARK   13  A    between atoms: C_42  and  C_43 
REMARK   14  A    between atoms: C_43  and  C_44 
REMARK   15  A    between atoms: C_44  and  C_45 
REMARK   16  A    between atoms: C_45  and  O_47 
ROOT
HETATM    1  C   UNK     0     -12.842  12.792 -35.993  0.00  0.00     0.051 C 
HETATM    2  C   UNK     0     -11.385  12.463 -35.738  0.00  0.00    -0.031 A 
HETATM    3  C   UNK     0     -10.816  11.286 -35.278  0.00  0.00     0.021 A 
HETATM    4  N   UNK     0      -9.477  11.455 -35.171  0.00  0.00    -0.361 N 
HETATM    5  C   UNK     0      -9.179  12.711 -35.562  0.00  0.00     0.022 A 
HETATM    6  C   UNK     0     -10.350  13.371 -35.921  0.00  0.00    -0.027 A 
HETATM    7  C   UNK     0      -7.843  13.367 -35.721  0.00  0.00     0.115 C 
HETATM    8  C   UNK     0      -6.748  12.536 -36.366  0.00  0.00     0.021 A 
HETATM    9  N   UNK     0      -6.855  11.632 -37.352  0.00  0.00    -0.361 N 
HETATM   10  C   UNK     0      -5.641  11.073 -37.542  0.00  0.00     0.022 A 
HETATM   11  C   UNK     0      -4.725  11.639 -36.661  0.00  0.00    -0.027 A 
HETATM   12  C   UNK     0      -5.415  12.562 -35.917  0.00  0.00    -0.031 A 
HETATM   13  C   UNK     0      -4.821  13.430 -34.831  0.00  0.00     0.051 C 
HETATM   14  C   UNK     0      -5.310   9.950 -38.521  0.00  0.00     0.115 C 
HETATM   15  C   UNK     0      -6.070   8.660 -38.258  0.00  0.00     0.021 A 
HETATM   16  N   UNK     0      -7.404   8.483 -38.233  0.00  0.00    -0.361 N 
HETATM   17  C   UNK     0      -7.673   7.219 -37.897  0.00  0.00     0.022 A 
HETATM   18  C   UNK     0      -6.455   6.537 -37.704  0.00  0.00    -0.027 A 
HETATM   19  C   UNK     0      -5.459   7.450 -37.934  0.00  0.00    -0.031 A 
HETATM   20  C   UNK     0      -3.979   7.119 -37.868  0.00  0.00     0.051 C 
HETATM   21  C   UNK     0      -9.002   6.538 -37.663  0.00  0.00     0.115 C 
HETATM   22  C   UNK     0     -10.114   7.365 -37.062  0.00  0.00     0.022 A 
HETATM   23  N   UNK     0     -10.035   8.275 -36.083  0.00  0.00    -0.361 N 
HETATM   24  C   UNK     0     -11.237   8.874 -35.964  0.00  0.00     0.021 A 
HETATM   25  C   UNK     0     -12.114   8.329 -36.882  0.00  0.00    -0.031 A 
HETATM   26  C   UNK     0     -13.579   8.643 -37.104  0.00  0.00     0.051 C 
HETATM   27  C   UNK     0     -11.418   7.361 -37.597  0.00  0.00    -0.027 A 
HETATM   28  C   UNK     0     -11.613  10.031 -35.055  0.00  0.00     0.115 C 
HETATM   29  H   UNK     0      -8.756  10.699 -34.783  0.00  0.00     0.165 HD
HETATM   30  H   UNK     0      -7.776  11.422 -37.950  0.00  0.00     0.165 HD
HETATM   31  H   UNK     0      -8.172   9.253 -38.503  0.00  0.00     0.165 HD
HETATM   32  H   UNK     0      -9.141   8.473 -35.437  0.00  0.00     0.165 HD
ENDROOT
BRANCH   6  33
HETATM   33  C   UNK     0     -10.557  14.780 -36.416  0.00  0.00     0.051 C 
BRANCH  33  34
HETATM   34  C   UNK     0     -10.785  15.725 -35.259  0.00  0.00     0.114 C 
BRANCH  34  35
HETATM   35  C   UNK     0      -9.574  16.587 -35.142  0.00  0.00     0.139 C 
HETATM   36  O   UNK     0      -9.379  17.527 -35.966  0.00  0.00    -0.650 OA
BRANCH  35  37
HETATM   37  O   UNK     0      -8.621  16.409 -34.146  0.00  0.00    -0.776 OA
HETATM   38  H   UNK     0      -7.641  16.575 -34.308  0.00  0.00     0.167 HD
ENDBRANCH  35  37
ENDBRANCH  34  35
ENDBRANCH  33  34
ENDBRANCH   6  33
BRANCH  27  39
HETATM   39  C   UNK     0     -12.056   6.503 -38.633  0.00  0.00     0.051 C 
BRANCH  39  40
HETATM   40  C   UNK     0     -12.089   6.989 -40.012  0.00  0.00     0.114 C 
BRANCH  40  41
HETATM   41  C   UNK     0     -12.841   6.318 -41.048  0.00  0.00     0.139 C 
HETATM   42  O   UNK     0     -13.567   6.909 -41.858  0.00  0.00    -0.650 OA
BRANCH  41  43
HETATM   43  O   UNK     0     -12.754   4.901 -41.157  0.00  0.00    -0.776 OA
HETATM   44  H   UNK     0     -13.030   4.532 -42.059  0.00  0.00     0.167 HD
ENDBRANCH  41  43
ENDBRANCH  40  41
ENDBRANCH  39  40
ENDBRANCH  27  39
BRANCH  11  45
HETATM   45  C   UNK     0      -3.257  11.342 -36.509  0.00  0.00     0.051 C 
BRANCH  45  46
HETATM   46  C   UNK     0      -2.388  12.080 -37.461  0.00  0.00     0.114 C 
BRANCH  46  47
HETATM   47  C   UNK     0      -1.471  12.933 -36.652  0.00  0.00     0.139 C 
HETATM   48  O   UNK     0      -0.745  13.746 -37.241  0.00  0.00    -0.650 OA
BRANCH  47  49
HETATM   49  O   UNK     0      -1.429  12.820 -35.286  0.00  0.00    -0.776 OA
HETATM   50  H   UNK     0      -1.467  13.640 -34.669  0.00  0.00     0.167 HD
ENDBRANCH  47  49
ENDBRANCH  46  47
ENDBRANCH  45  46
ENDBRANCH  11  45
BRANCH  18  51
HETATM   51  C   UNK     0      -6.252   5.089 -37.341  0.00  0.00     0.051 C 
BRANCH  51  52
HETATM   52  C   UNK     0      -6.292   5.021 -35.822  0.00  0.00     0.114 C 
BRANCH  52  53
HETATM   53  C   UNK     0      -4.967   4.711 -35.251  0.00  0.00     0.139 C 
HETATM   54  O   UNK     0      -4.363   5.565 -34.582  0.00  0.00    -0.650 OA
BRANCH  53  55
HETATM   55  O   UNK     0      -4.406   3.476 -35.466  0.00  0.00    -0.776 OA
HETATM   56  H   UNK     0      -3.460   3.226 -35.296  0.00  0.00     0.167 HD
ENDBRANCH  53  55
ENDBRANCH  52  53
ENDBRANCH  51  52
ENDBRANCH  18  51
TORSDOF 16
ENDMDL
MODEL 12
REMARK VINA RESULT:      -7.8      3.441      5.163
REMARK  16 active torsions:
REMARK  status: ('A' for Active; 'I' for Inactive)
REMARK    1  A    between atoms: C_6  and  C_7 
REMARK    2  A    between atoms: C_7  and  C_8 
REMARK    3  A    between atoms: C_8  and  C_9 
REMARK    4  A    between atoms: C_9  and  O_11 
REMARK    5  A    between atoms: C_16  and  C_17 
REMARK    6  A    between atoms: C_17  and  C_18 
REMARK    7  A    between atoms: C_18  and  C_19 
REMARK    8  A    between atoms: C_19  and  O_21 
REMARK    9  A    between atoms: C_28  and  C_29 
REMARK   10  A    between atoms: C_29  and  C_30 
REMARK   11  A    between atoms: C_30  and  C_31 
REMARK   12  A    between atoms: C_31  and  O_33 
REMARK   13  A    between atoms: C_42  and  C_43 
REMARK   14  A    between atoms: C_43  and  C_44 
REMARK   15  A    between atoms: C_44  and  C_45 
REMARK   16  A    between atoms: C_45  and  O_47 
ROOT
HETATM    1  C   UNK     0      -7.423   6.689 -36.948  0.00  0.00     0.051 C 
HETATM    2  C   UNK     0      -6.041   6.473 -36.365  0.00  0.00    -0.031 A 
HETATM    3  C   UNK     0      -5.649   5.675 -35.302  0.00  0.00     0.021 A 
HETATM    4  N   UNK     0      -4.316   5.815 -35.113  0.00  0.00    -0.361 N 
HETATM    5  C   UNK     0      -3.848   6.678 -36.037  0.00  0.00     0.022 A 
HETATM    6  C   UNK     0      -4.901   7.111 -36.836  0.00  0.00    -0.027 A 
HETATM    7  C   UNK     0      -2.439   7.100 -36.319  0.00  0.00     0.115 C 
HETATM    8  C   UNK     0      -1.384   6.008 -36.301  0.00  0.00     0.021 A 
HETATM    9  N   UNK     0      -1.494   4.732 -36.702  0.00  0.00    -0.361 N 
HETATM   10  C   UNK     0      -0.335   4.102 -36.416  0.00  0.00     0.022 A 
HETATM   11  C   UNK     0       0.549   4.998 -35.823  0.00  0.00    -0.027 A 
HETATM   12  C   UNK     0      -0.105   6.201 -35.748  0.00  0.00    -0.031 A 
HETATM   13  C   UNK     0       0.473   7.476 -35.176  0.00  0.00     0.051 C 
HETATM   14  C   UNK     0      -0.035   2.622 -36.641  0.00  0.00     0.115 C 
HETATM   15  C   UNK     0      -0.952   1.684 -35.872  0.00  0.00     0.021 A 
HETATM   16  N   UNK     0      -2.294   1.605 -35.945  0.00  0.00    -0.361 N 
HETATM   17  C   UNK     0      -2.729   0.705 -35.060  0.00  0.00     0.022 A 
HETATM   18  C   UNK     0      -1.616   0.165 -34.384  0.00  0.00    -0.027 A 
HETATM   19  C   UNK     0      -0.509   0.786 -34.903  0.00  0.00    -0.031 A 
HETATM   20  C   UNK     0       0.913   0.470 -34.477  0.00  0.00     0.051 C 
HETATM   21  C   UNK     0      -4.140   0.300 -34.699  0.00  0.00     0.115 C 
HETATM   22  C   UNK     0      -5.208   1.366 -34.756  0.00  0.00     0.022 A 
HETATM   23  N   UNK     0      -5.125   2.645 -34.367  0.00  0.00    -0.361 N 
HETATM   24  C   UNK     0      -6.261   3.273 -34.732  0.00  0.00     0.021 A 
HETATM   25  C   UNK     0      -7.100   2.374 -35.362  0.00  0.00    -0.031 A 
HETATM   26  C   UNK     0      -8.495   2.595 -35.910  0.00  0.00     0.051 C 
HETATM   27  C   UNK     0      -6.448   1.147 -35.389  0.00  0.00    -0.027 A 
HETATM   28  C   UNK     0      -6.594   4.748 -34.590  0.00  0.00     0.115 C 
HETATM   29  H   UNK     0      -3.722   5.333 -34.302  0.00  0.00     0.165 HD
HETATM   30  H   UNK     0      -2.371   4.286 -37.233  0.00  0.00     0.165 HD
HETATM   31  H   UNK     0      -2.945   2.160 -36.669  0.00  0.00     0.165 HD
HETATM   32  H   UNK     0      -4.281   3.107 -33.792  0.00  0.00     0.165 HD
ENDROOT
BRANCH   6  33
HETATM   33  C   UNK     0      -4.906   8.075 -37.995  0.00  0.00     0.051 C 
BRANCH  33  34
HETATM   34  C   UNK     0      -4.777   7.336 -39.306  0.00  0.00     0.114 C 
BRANCH  34  35
HETATM   35  C   UNK     0      -4.671   8.359 -40.386  0.00  0.00     0.139 C 
HETATM   36  O   UNK     0      -5.638   9.140 -40.622  0.00  0.00    -0.650 OA
BRANCH  35  37
HETATM   37  O   UNK     0      -3.532   8.505 -41.170  0.00  0.00    -0.776 OA
HETATM   38  H   UNK     0      -3.024   7.712 -41.528  0.00  0.00     0.167 HD
ENDBRANCH  35  37
ENDBRANCH  34  35
ENDBRANCH  33  34
ENDBRANCH   6  33
BRANCH  27  39
HETATM   39  C   UNK     0      -7.073  -0.091 -35.928  0.00  0.00     0.051 C 
BRANCH  39  40
HETATM   40  C   UNK     0      -6.723  -0.510 -37.285  0.00  0.00     0.114 C 
BRANCH  40  41
HETATM   41  C   UNK     0      -6.520   0.439 -38.357  0.00  0.00     0.139 C 
HETATM   42  O   UNK     0      -7.446   1.000 -38.958  0.00  0.00    -0.650 OA
BRANCH  41  43
HETATM   43  O   UNK     0      -5.190   0.757 -38.754  0.00  0.00    -0.776 OA
HETATM   44  H   UNK     0      -5.117   1.179 -39.672  0.00  0.00     0.167 HD
ENDBRANCH  41  43
ENDBRANCH  40  41
ENDBRANCH  39  40
ENDBRANCH  27  39
BRANCH  11  45
HETATM   45  C   UNK     0       1.954   4.756 -35.343  0.00  0.00     0.051 C 
BRANCH  45  46
HETATM   46  C   UNK     0       3.001   5.375 -36.196  0.00  0.00     0.114 C 
BRANCH  46  47
HETATM   47  C   UNK     0       3.998   6.005 -35.284  0.00  0.00     0.139 C 
HETATM   48  O   UNK     0       3.713   6.120 -34.083  0.00  0.00    -0.650 OA
BRANCH  47  49
HETATM   49  O   UNK     0       5.205   6.449 -35.762  0.00  0.00    -0.776 OA
HETATM   50  H   UNK     0       5.312   7.372 -36.200  0.00  0.00     0.167 HD
ENDBRANCH  47  49
ENDBRANCH  46  47
ENDBRANCH  45  46
ENDBRANCH  11  45
BRANCH  18  51
HETATM   51  C   UNK     0      -1.606  -0.899 -33.318  0.00  0.00     0.051 C 
BRANCH  51  52
HETATM   52  C   UNK     0      -1.398  -2.223 -34.039  0.00  0.00     0.114 C 
BRANCH  52  53
HETATM   53  C   UNK     0      -0.470  -3.107 -33.308  0.00  0.00     0.139 C 
HETATM   54  O   UNK     0      -0.204  -4.234 -33.755  0.00  0.00    -0.650 OA
BRANCH  53  55
HETATM   55  O   UNK     0       0.094  -2.676 -32.132  0.00  0.00    -0.776 OA
HETATM   56  H   UNK     0       0.795  -3.150 -31.612  0.00  0.00     0.167 HD
ENDBRANCH  53  55
ENDBRANCH  52  53
ENDBRANCH  51  52
ENDBRANCH  18  51
TORSDOF 16
ENDMDL
MODEL 13
REMARK VINA RESULT:      -7.8      2.814      9.807
REMARK  16 active torsions:
REMARK  status: ('A' for Active; 'I' for Inactive)
REMARK    1  A    between atoms: C_6  and  C_7 
REMARK    2  A    between atoms: C_7  and  C_8 
REMARK    3  A    between atoms: C_8  and  C_9 
REMARK    4  A    between atoms: C_9  and  O_11 
REMARK    5  A    between atoms: C_16  and  C_17 
REMARK    6  A    between atoms: C_17  and  C_18 
REMARK    7  A    between atoms: C_18  and  C_19 
REMARK    8  A    between atoms: C_19  and  O_21 
REMARK    9  A    between atoms: C_28  and  C_29 
REMARK   10  A    between atoms: C_29  and  C_30 
REMARK   11  A    between atoms: C_30  and  C_31 
REMARK   12  A    between atoms: C_31  and  O_33 
REMARK   13  A    between atoms: C_42  and  C_43 
REMARK   14  A    between atoms: C_43  and  C_44 
REMARK   15  A    between atoms: C_44  and  C_45 
REMARK   16  A    between atoms: C_45  and  O_47 
ROOT
HETATM    1  C   UNK     0      -0.433   0.328 -35.357  0.00  0.00     0.051 C 
HETATM    2  C   UNK     0      -1.705   1.138 -35.503  0.00  0.00    -0.031 A 
HETATM    3  C   UNK     0      -2.098   2.287 -34.834  0.00  0.00     0.021 A 
HETATM    4  N   UNK     0      -3.330   2.648 -35.265  0.00  0.00    -0.361 N 
HETATM    5  C   UNK     0      -3.727   1.760 -36.199  0.00  0.00     0.022 A 
HETATM    6  C   UNK     0      -2.735   0.800 -36.371  0.00  0.00    -0.027 A 
HETATM    7  C   UNK     0      -4.960   1.758 -37.048  0.00  0.00     0.115 C 
HETATM    8  C   UNK     0      -5.383   3.092 -37.639  0.00  0.00     0.021 A 
HETATM    9  N   UNK     0      -4.607   4.093 -38.083  0.00  0.00    -0.361 N 
HETATM   10  C   UNK     0      -5.410   5.121 -38.433  0.00  0.00     0.022 A 
HETATM   11  C   UNK     0      -6.739   4.768 -38.218  0.00  0.00    -0.027 A 
HETATM   12  C   UNK     0      -6.729   3.491 -37.718  0.00  0.00    -0.031 A 
HETATM   13  C   UNK     0      -7.955   2.691 -37.339  0.00  0.00     0.051 C 
HETATM   14  C   UNK     0      -4.955   6.489 -38.933  0.00  0.00     0.115 C 
HETATM   15  C   UNK     0      -4.098   7.254 -37.937  0.00  0.00     0.021 A 
HETATM   16  N   UNK     0      -2.929   6.868 -37.393  0.00  0.00    -0.361 N 
HETATM   17  C   UNK     0      -2.529   7.789 -36.513  0.00  0.00     0.022 A 
HETATM   18  C   UNK     0      -3.479   8.830 -36.490  0.00  0.00    -0.027 A 
HETATM   19  C   UNK     0      -4.456   8.483 -37.387  0.00  0.00    -0.031 A 
HETATM   20  C   UNK     0      -5.660   9.352 -37.700  0.00  0.00     0.051 C 
HETATM   21  C   UNK     0      -1.331   7.797 -35.592  0.00  0.00     0.115 C 
HETATM   22  C   UNK     0      -0.872   6.471 -35.032  0.00  0.00     0.022 A 
HETATM   23  N   UNK     0      -1.621   5.455 -34.587  0.00  0.00    -0.361 N 
HETATM   24  C   UNK     0      -0.807   4.415 -34.316  0.00  0.00     0.021 A 
HETATM   25  C   UNK     0       0.500   4.774 -34.585  0.00  0.00    -0.031 A 
HETATM   26  C   UNK     0       1.768   3.966 -34.402  0.00  0.00     0.051 C 
HETATM   27  C   UNK     0       0.484   6.086 -35.044  0.00  0.00    -0.027 A 
HETATM   28  C   UNK     0      -1.200   3.016 -33.875  0.00  0.00     0.115 C 
HETATM   29  H   UNK     0      -3.927   3.506 -34.877  0.00  0.00     0.165 HD
HETATM   30  H   UNK     0      -3.496   4.060 -38.197  0.00  0.00     0.165 HD
HETATM   31  H   UNK     0      -2.348   5.950 -37.670  0.00  0.00     0.165 HD
HETATM   32  H   UNK     0      -2.729   5.476 -34.417  0.00  0.00     0.165 HD
ENDROOT
BRANCH   6  33
HETATM   33  C   UNK     0      -2.694  -0.400 -37.283  0.00  0.00     0.051 C 
BRANCH  33  34
HETATM   34  C   UNK     0      -2.379   0.016 -38.700  0.00  0.00     0.114 C 
BRANCH  34  35
HETATM   35  C   UNK     0      -3.380  -0.638 -39.591  0.00  0.00     0.139 C 
HETATM   36  O   UNK     0      -4.438  -1.132 -39.104  0.00  0.00    -0.650 OA
BRANCH  35  37
HETATM   37  O   UNK     0      -3.209  -0.735 -40.966  0.00  0.00    -0.776 OA
HETATM   38  H   UNK     0      -3.973  -0.606 -41.610  0.00  0.00     0.167 HD
ENDBRANCH  35  37
ENDBRANCH  34  35
ENDBRANCH  33  34
ENDBRANCH   6  33
BRANCH  27  39
HETATM   39  C   UNK     0       1.721   6.847 -35.369  0.00  0.00     0.051 C 
BRANCH  39  40
HETATM   40  C   UNK     0       2.101   6.986 -36.775  0.00  0.00     0.114 C 
BRANCH  40  41
HETATM   41  C   UNK     0       2.142   5.857 -37.677  0.00  0.00     0.139 C 
HETATM   42  O   UNK     0       2.679   4.776 -37.396  0.00  0.00    -0.650 OA
BRANCH  41  43
HETATM   43  O   UNK     0       1.539   5.976 -38.962  0.00  0.00    -0.776 OA
HETATM   44  H   UNK     0       1.017   5.160 -39.257  0.00  0.00     0.167 HD
ENDBRANCH  41  43
ENDBRANCH  40  41
ENDBRANCH  39  40
ENDBRANCH  27  39
BRANCH  11  45
HETATM   45  C   UNK     0      -7.981   5.580 -38.468  0.00  0.00     0.051 C 
BRANCH  45  46
HETATM   46  C   UNK     0      -8.091   6.796 -37.622  0.00  0.00     0.114 C 
BRANCH  46  47
HETATM   47  C   UNK     0      -7.985   6.355 -36.201  0.00  0.00     0.139 C 
HETATM   48  O   UNK     0      -8.945   5.760 -35.692  0.00  0.00    -0.650 OA
BRANCH  47  49
HETATM   49  O   UNK     0      -6.850   6.604 -35.471  0.00  0.00    -0.776 OA
HETATM   50  H   UNK     0      -6.787   7.388 -34.810  0.00  0.00     0.167 HD
ENDBRANCH  47  49
ENDBRANCH  46  47
ENDBRANCH  45  46
ENDBRANCH  11  45
BRANCH  18  51
HETATM   51  C   UNK     0      -3.447  10.095 -35.672  0.00  0.00     0.051 C 
BRANCH  51  52
HETATM   52  C   UNK     0      -2.978  11.197 -36.611  0.00  0.00     0.114 C 
BRANCH  52  53
HETATM   53  C   UNK     0      -1.547  11.507 -36.424  0.00  0.00     0.139 C 
HETATM   54  O   UNK     0      -1.020  11.359 -35.309  0.00  0.00    -0.650 OA
BRANCH  53  55
HETATM   55  O   UNK     0      -0.805  11.962 -37.486  0.00  0.00    -0.776 OA
HETATM   56  H   UNK     0      -0.105  12.665 -37.452  0.00  0.00     0.167 HD
ENDBRANCH  53  55
ENDBRANCH  52  53
ENDBRANCH  51  52
ENDBRANCH  18  51
TORSDOF 16
ENDMDL
MODEL 14
REMARK VINA RESULT:      -7.8      4.735      7.254
REMARK  16 active torsions:
REMARK  status: ('A' for Active; 'I' for Inactive)
REMARK    1  A    between atoms: C_6  and  C_7 
REMARK    2  A    between atoms: C_7  and  C_8 
REMARK    3  A    between atoms: C_8  and  C_9 
REMARK    4  A    between atoms: C_9  and  O_11 
REMARK    5  A    between atoms: C_16  and  C_17 
REMARK    6  A    between atoms: C_17  and  C_18 
REMARK    7  A    between atoms: C_18  and  C_19 
REMARK    8  A    between atoms: C_19  and  O_21 
REMARK    9  A    between atoms: C_28  and  C_29 
REMARK   10  A    between atoms: C_29  and  C_30 
REMARK   11  A    between atoms: C_30  and  C_31 
REMARK   12  A    between atoms: C_31  and  O_33 
REMARK   13  A    between atoms: C_42  and  C_43 
REMARK   14  A    between atoms: C_43  and  C_44 
REMARK   15  A    between atoms: C_44  and  C_45 
REMARK   16  A    between atoms: C_45  and  O_47 
ROOT
HETATM    1  C   UNK     0     -12.201  13.793 -36.391  0.00  0.00     0.051 C 
HETATM    2  C   UNK     0     -10.827  13.298 -35.988  0.00  0.00    -0.031 A 
HETATM    3  C   UNK     0     -10.441  12.048 -35.533  0.00  0.00     0.021 A 
HETATM    4  N   UNK     0      -9.114  12.066 -35.263  0.00  0.00    -0.361 N 
HETATM    5  C   UNK     0      -8.644  13.299 -35.545  0.00  0.00     0.022 A 
HETATM    6  C   UNK     0      -9.690  14.096 -35.999  0.00  0.00    -0.027 A 
HETATM    7  C   UNK     0      -7.239  13.813 -35.511  0.00  0.00     0.115 C 
HETATM    8  C   UNK     0      -6.164  12.898 -36.071  0.00  0.00     0.021 A 
HETATM    9  N   UNK     0      -6.244  12.055 -37.112  0.00  0.00    -0.361 N 
HETATM   10  C   UNK     0      -5.079  11.377 -37.192  0.00  0.00     0.022 A 
HETATM   11  C   UNK     0      -4.223  11.802 -36.181  0.00  0.00    -0.027 A 
HETATM   12  C   UNK     0      -4.900  12.760 -35.471  0.00  0.00    -0.031 A 
HETATM   13  C   UNK     0      -4.356  13.510 -34.275  0.00  0.00     0.051 C 
HETATM   14  C   UNK     0      -4.748  10.269 -38.188  0.00  0.00     0.115 C 
HETATM   15  C   UNK     0      -5.662   9.058 -38.088  0.00  0.00     0.021 A 
HETATM   16  N   UNK     0      -7.000   9.026 -38.228  0.00  0.00    -0.361 N 
HETATM   17  C   UNK     0      -7.435   7.785 -37.998  0.00  0.00     0.022 A 
HETATM   18  C   UNK     0      -6.325   6.967 -37.704  0.00  0.00    -0.027 A 
HETATM   19  C   UNK     0      -5.221   7.777 -37.766  0.00  0.00    -0.031 A 
HETATM   20  C   UNK     0      -3.801   7.285 -37.548  0.00  0.00     0.051 C 
HETATM   21  C   UNK     0      -8.845   7.241 -37.958  0.00  0.00     0.115 C 
HETATM   22  C   UNK     0      -9.931   8.156 -37.444  0.00  0.00     0.022 A 
HETATM   23  N   UNK     0      -9.879   9.008 -36.412  0.00  0.00    -0.361 N 
HETATM   24  C   UNK     0     -11.019   9.728 -36.399  0.00  0.00     0.021 A 
HETATM   25  C   UNK     0     -11.830   9.322 -37.441  0.00  0.00    -0.031 A 
HETATM   26  C   UNK     0     -13.218   9.802 -37.812  0.00  0.00     0.051 C 
HETATM   27  C   UNK     0     -11.155   8.316 -38.124  0.00  0.00    -0.027 A 
HETATM   28  C   UNK     0     -11.382  10.878 -35.475  0.00  0.00     0.115 C 
HETATM   29  H   UNK     0      -8.526  11.220 -34.837  0.00  0.00     0.165 HD
HETATM   30  H   UNK     0      -7.102  11.972 -37.824  0.00  0.00     0.165 HD
HETATM   31  H   UNK     0      -7.648   9.886 -38.541  0.00  0.00     0.165 HD
HETATM   32  H   UNK     0      -9.054   9.080 -35.656  0.00  0.00     0.165 HD
ENDROOT
BRANCH   6  33
HETATM   33  C   UNK     0      -9.691  15.540 -36.433  0.00  0.00     0.051 C 
BRANCH  33  34
HETATM   34  C   UNK     0      -9.915  16.454 -35.252  0.00  0.00     0.114 C 
BRANCH  34  35
HETATM   35  C   UNK     0     -10.325  17.784 -35.788  0.00  0.00     0.139 C 
HETATM   36  O   UNK     0      -9.568  18.410 -36.585  0.00  0.00    -0.650 OA
BRANCH  35  37
HETATM   37  O   UNK     0     -11.530  18.389 -35.452  0.00  0.00    -0.776 OA
HETATM   38  H   UNK     0     -11.645  18.913 -34.600  0.00  0.00     0.167 HD
ENDBRANCH  35  37
ENDBRANCH  34  35
ENDBRANCH  33  34
ENDBRANCH   6  33
BRANCH  27  39
HETATM   39  C   UNK     0     -11.747   7.579 -39.274  0.00  0.00     0.051 C 
BRANCH  39  40
HETATM   40  C   UNK     0     -12.348   6.270 -39.023  0.00  0.00     0.114 C 
BRANCH  40  41
HETATM   41  C   UNK     0     -13.448   6.090 -38.102  0.00  0.00     0.139 C 
HETATM   42  O   UNK     0     -13.309   5.675 -36.944  0.00  0.00    -0.650 OA
BRANCH  41  43
HETATM   43  O   UNK     0     -14.768   6.403 -38.533  0.00  0.00    -0.776 OA
HETATM   44  H   UNK     0     -15.441   6.508 -37.783  0.00  0.00     0.167 HD
ENDBRANCH  41  43
ENDBRANCH  40  41
ENDBRANCH  39  40
ENDBRANCH  27  39
BRANCH  11  45
HETATM   45  C   UNK     0      -2.822  11.341 -35.877  0.00  0.00     0.051 C 
BRANCH  45  46
HETATM   46  C   UNK     0      -1.809  11.794 -36.865  0.00  0.00     0.114 C 
BRANCH  46  47
HETATM   47  C   UNK     0      -1.317  13.127 -36.414  0.00  0.00     0.139 C 
HETATM   48  O   UNK     0      -0.892  13.920 -37.265  0.00  0.00    -0.650 OA
BRANCH  47  49
HETATM   49  O   UNK     0      -1.334  13.470 -35.085  0.00  0.00    -0.776 OA
HETATM   50  H   UNK     0      -2.116  13.222 -34.468  0.00  0.00     0.167 HD
ENDBRANCH  47  49
ENDBRANCH  46  47
ENDBRANCH  45  46
ENDBRANCH  11  45
BRANCH  18  51
HETATM   51  C   UNK     0      -6.316   5.491 -37.403  0.00  0.00     0.051 C 
BRANCH  51  52
HETATM   52  C   UNK     0      -6.284   4.782 -38.748  0.00  0.00     0.114 C 
BRANCH  52  53
HETATM   53  C   UNK     0      -5.047   3.996 -38.925  0.00  0.00     0.139 C 
HETATM   54  O   UNK     0      -4.237   3.893 -37.990  0.00  0.00    -0.650 OA
BRANCH  53  55
HETATM   55  O   UNK     0      -4.798   3.382 -40.129  0.00  0.00    -0.776 OA
HETATM   56  H   UNK     0      -5.259   2.576 -40.480  0.00  0.00     0.167 HD
ENDBRANCH  53  55
ENDBRANCH  52  53
ENDBRANCH  51  52
ENDBRANCH  18  51
TORSDOF 16
ENDMDL
MODEL 15
REMARK VINA RESULT:      -7.7      2.405      7.615
REMARK  16 active torsions:
REMARK  status: ('A' for Active; 'I' for Inactive)
REMARK    1  A    between atoms: C_6  and  C_7 
REMARK    2  A    between atoms: C_7  and  C_8 
REMARK    3  A    between atoms: C_8  and  C_9 
REMARK    4  A    between atoms: C_9  and  O_11 
REMARK    5  A    between atoms: C_16  and  C_17 
REMARK    6  A    between atoms: C_17  and  C_18 
REMARK    7  A    between atoms: C_18  and  C_19 
REMARK    8  A    between atoms: C_19  and  O_21 
REMARK    9  A    between atoms: C_28  and  C_29 
REMARK   10  A    between atoms: C_29  and  C_30 
REMARK   11  A    between atoms: C_30  and  C_31 
REMARK   12  A    between atoms: C_31  and  O_33 
REMARK   13  A    between atoms: C_42  and  C_43 
REMARK   14  A    between atoms: C_43  and  C_44 
REMARK   15  A    between atoms: C_44  and  C_45 
REMARK   16  A    between atoms: C_45  and  O_47 
ROOT
HETATM    1  C   UNK     0       1.267   5.285 -34.090  0.00  0.00     0.051 C 
HETATM    2  C   UNK     0       0.464   6.320 -34.852  0.00  0.00    -0.031 A 
HETATM    3  C   UNK     0      -0.342   6.160 -35.968  0.00  0.00     0.021 A 
HETATM    4  N   UNK     0      -0.840   7.367 -36.329  0.00  0.00    -0.361 N 
HETATM    5  C   UNK     0      -0.377   8.290 -35.461  0.00  0.00     0.022 A 
HETATM    6  C   UNK     0       0.444   7.669 -34.525  0.00  0.00    -0.027 A 
HETATM    7  C   UNK     0      -0.700   9.748 -35.360  0.00  0.00     0.115 C 
HETATM    8  C   UNK     0      -2.158  10.137 -35.532  0.00  0.00     0.021 A 
HETATM    9  N   UNK     0      -3.253   9.469 -35.138  0.00  0.00    -0.361 N 
HETATM   10  C   UNK     0      -4.337  10.141 -35.582  0.00  0.00     0.022 A 
HETATM   11  C   UNK     0      -3.928  11.278 -36.273  0.00  0.00    -0.027 A 
HETATM   12  C   UNK     0      -2.557  11.282 -36.244  0.00  0.00    -0.031 A 
HETATM   13  C   UNK     0      -1.672  12.338 -36.868  0.00  0.00     0.051 C 
HETATM   14  C   UNK     0      -5.792   9.712 -35.420  0.00  0.00     0.115 C 
HETATM   15  C   UNK     0      -6.118   8.380 -36.076  0.00  0.00     0.021 A 
HETATM   16  N   UNK     0      -5.554   7.183 -35.829  0.00  0.00    -0.361 N 
HETATM   17  C   UNK     0      -6.068   6.276 -36.663  0.00  0.00     0.022 A 
HETATM   18  C   UNK     0      -7.020   6.910 -37.485  0.00  0.00    -0.027 A 
HETATM   19  C   UNK     0      -7.043   8.227 -37.107  0.00  0.00    -0.031 A 
HETATM   20  C   UNK     0      -7.965   9.265 -37.720  0.00  0.00     0.051 C 
HETATM   21  C   UNK     0      -5.723   4.814 -36.841  0.00  0.00     0.115 C 
HETATM   22  C   UNK     0      -4.284   4.406 -36.630  0.00  0.00     0.022 A 
HETATM   23  N   UNK     0      -3.174   5.054 -37.008  0.00  0.00    -0.361 N 
HETATM   24  C   UNK     0      -2.110   4.409 -36.488  0.00  0.00     0.021 A 
HETATM   25  C   UNK     0      -2.545   3.313 -35.767  0.00  0.00    -0.031 A 
HETATM   26  C   UNK     0      -1.729   2.266 -35.038  0.00  0.00     0.051 C 
HETATM   27  C   UNK     0      -3.933   3.291 -35.844  0.00  0.00    -0.027 A 
HETATM   28  C   UNK     0      -0.649   4.815 -36.564  0.00  0.00     0.115 C 
HETATM   29  H   UNK     0      -1.484   7.564 -37.217  0.00  0.00     0.165 HD
HETATM   30  H   UNK     0      -3.267   8.549 -34.503  0.00  0.00     0.165 HD
HETATM   31  H   UNK     0      -4.812   6.963 -35.018  0.00  0.00     0.165 HD
HETATM   32  H   UNK     0      -3.128   5.949 -37.681  0.00  0.00     0.165 HD
ENDROOT
BRANCH   6  33
HETATM   33  C   UNK     0       1.203   8.254 -33.361  0.00  0.00     0.051 C 
BRANCH  33  34
HETATM   34  C   UNK     0       2.385   9.061 -33.844  0.00  0.00     0.114 C 
BRANCH  34  35
HETATM   35  C   UNK     0       3.512   8.111 -34.069  0.00  0.00     0.139 C 
HETATM   36  O   UNK     0       3.935   7.389 -33.119  0.00  0.00    -0.650 OA
BRANCH  35  37
HETATM   37  O   UNK     0       4.140   7.971 -35.300  0.00  0.00    -0.776 OA
HETATM   38  H   UNK     0       4.181   7.087 -35.782  0.00  0.00     0.167 HD
ENDBRANCH  35  37
ENDBRANCH  34  35
ENDBRANCH  33  34
ENDBRANCH   6  33
BRANCH  27  39
HETATM   39  C   UNK     0      -4.760   2.208 -35.244  0.00  0.00     0.051 C 
BRANCH  39  40
HETATM   40  C   UNK     0      -5.418   2.466 -33.964  0.00  0.00     0.114 C 
BRANCH  40  41
HETATM   41  C   UNK     0      -5.037   3.568 -33.109  0.00  0.00     0.139 C 
HETATM   42  O   UNK     0      -5.602   4.670 -33.122  0.00  0.00    -0.650 OA
BRANCH  41  43
HETATM   43  O   UNK     0      -3.956   3.395 -32.199  0.00  0.00    -0.776 OA
HETATM   44  H   UNK     0      -3.155   3.987 -32.382  0.00  0.00     0.167 HD
ENDBRANCH  41  43
ENDBRANCH  40  41
ENDBRANCH  39  40
ENDBRANCH  27  39
BRANCH  11  45
HETATM   45  C   UNK     0      -4.773  12.331 -36.936  0.00  0.00     0.051 C 
BRANCH  45  46
HETATM   46  C   UNK     0      -5.598  13.129 -35.993  0.00  0.00     0.114 C 
BRANCH  46  47
HETATM   47  C   UNK     0      -7.010  13.050 -36.466  0.00  0.00     0.139 C 
HETATM   48  O   UNK     0      -7.869  12.603 -35.693  0.00  0.00    -0.650 OA
BRANCH  47  49
HETATM   49  O   UNK     0      -7.353  13.461 -37.729  0.00  0.00    -0.776 OA
HETATM   50  H   UNK     0      -7.132  14.403 -38.074  0.00  0.00     0.167 HD
ENDBRANCH  47  49
ENDBRANCH  46  47
ENDBRANCH  45  46
ENDBRANCH  11  45
BRANCH  18  51
HETATM   51  C   UNK     0      -7.876   6.290 -38.559  0.00  0.00     0.051 C 
BRANCH  51  52
HETATM   52  C   UNK     0      -9.227   6.009 -37.917  0.00  0.00     0.114 C 
BRANCH  52  53
HETATM   53  C   UNK     0     -10.345   6.442 -38.778  0.00  0.00     0.139 C 
HETATM   54  O   UNK     0     -10.709   5.732 -39.728  0.00  0.00    -0.650 OA
BRANCH  53  55
HETATM   55  O   UNK     0     -10.975   7.636 -38.522  0.00  0.00    -0.776 OA
HETATM   56  H   UNK     0     -11.362   7.918 -37.653  0.00  0.00     0.167 HD
ENDBRANCH  53  55
ENDBRANCH  52  53
ENDBRANCH  51  52
ENDBRANCH  18  51
TORSDOF 16
ENDMDL
MODEL 16
REMARK VINA RESULT:      -7.7     31.980     34.560
REMARK  16 active torsions:
REMARK  status: ('A' for Active; 'I' for Inactive)
REMARK    1  A    between atoms: C_6  and  C_7 
REMARK    2  A    between atoms: C_7  and  C_8 
REMARK    3  A    between atoms: C_8  and  C_9 
REMARK    4  A    between atoms: C_9  and  O_11 
REMARK    5  A    between atoms: C_16  and  C_17 
REMARK    6  A    between atoms: C_17  and  C_18 
REMARK    7  A    between atoms: C_18  and  C_19 
REMARK    8  A    between atoms: C_19  and  O_21 
REMARK    9  A    between atoms: C_28  and  C_29 
REMARK   10  A    between atoms: C_29  and  C_30 
REMARK   11  A    between atoms: C_30  and  C_31 
REMARK   12  A    between atoms: C_31  and  O_33 
REMARK   13  A    between atoms: C_42  and  C_43 
REMARK   14  A    between atoms: C_43  and  C_44 
REMARK   15  A    between atoms: C_44  and  C_45 
REMARK   16  A    between atoms: C_45  and  O_47 
ROOT
HETATM    1  C   UNK     0      -4.025  25.591  -4.277  0.00  0.00     0.051 C 
HETATM    2  C   UNK     0      -3.483  24.209  -3.971  0.00  0.00    -0.031 A 
HETATM    3  C   UNK     0      -3.881  23.304  -3.001  0.00  0.00     0.021 A 
HETATM    4  N   UNK     0      -3.092  22.205  -3.073  0.00  0.00    -0.361 N 
HETATM    5  C   UNK     0      -2.207  22.387  -4.074  0.00  0.00     0.022 A 
HETATM    6  C   UNK     0      -2.422  23.632  -4.656  0.00  0.00    -0.027 A 
HETATM    7  C   UNK     0      -1.184  21.443  -4.624  0.00  0.00     0.115 C 
HETATM    8  C   UNK     0      -1.618  19.999  -4.807  0.00  0.00     0.021 A 
HETATM    9  N   UNK     0      -2.819  19.527  -5.174  0.00  0.00    -0.361 N 
HETATM   10  C   UNK     0      -2.776  18.179  -5.115  0.00  0.00     0.022 A 
HETATM   11  C   UNK     0      -1.509  17.771  -4.708  0.00  0.00    -0.027 A 
HETATM   12  C   UNK     0      -0.774  18.913  -4.512  0.00  0.00    -0.031 A 
HETATM   13  C   UNK     0       0.671  18.958  -4.068  0.00  0.00     0.051 C 
HETATM   14  C   UNK     0      -3.937  17.227  -5.387  0.00  0.00     0.115 C 
HETATM   15  C   UNK     0      -5.120  17.416  -4.452  0.00  0.00     0.021 A 
HETATM   16  N   UNK     0      -5.849  18.532  -4.264  0.00  0.00    -0.361 N 
HETATM   17  C   UNK     0      -6.753  18.310  -3.308  0.00  0.00     0.022 A 
HETATM   18  C   UNK     0      -6.614  16.981  -2.859  0.00  0.00    -0.027 A 
HETATM   19  C   UNK     0      -5.589  16.432  -3.584  0.00  0.00    -0.031 A 
HETATM   20  C   UNK     0      -5.130  14.993  -3.440  0.00  0.00     0.051 C 
HETATM   21  C   UNK     0      -7.755  19.252  -2.680  0.00  0.00     0.115 C 
HETATM   22  C   UNK     0      -7.354  20.700  -2.533  0.00  0.00     0.022 A 
HETATM   23  N   UNK     0      -6.164  21.199  -2.173  0.00  0.00    -0.361 N 
HETATM   24  C   UNK     0      -6.207  22.540  -2.314  0.00  0.00     0.021 A 
HETATM   25  C   UNK     0      -7.458  22.914  -2.766  0.00  0.00    -0.031 A 
HETATM   26  C   UNK     0      -7.998  24.303  -3.035  0.00  0.00     0.051 C 
HETATM   27  C   UNK     0      -8.210  21.754  -2.913  0.00  0.00    -0.027 A 
HETATM   28  C   UNK     0      -5.074  23.532  -2.116  0.00  0.00     0.115 C 
HETATM   29  H   UNK     0      -3.141  21.325  -2.390  0.00  0.00     0.165 HD
HETATM   30  H   UNK     0      -3.685  20.141  -5.524  0.00  0.00     0.165 HD
HETATM   31  H   UNK     0      -5.754  19.483  -4.851  0.00  0.00     0.165 HD
HETATM   32  H   UNK     0      -5.296  20.613  -1.774  0.00  0.00     0.165 HD
ENDROOT
BRANCH   6  33
HETATM   33  C   UNK     0      -1.702  24.308  -5.796  0.00  0.00     0.051 C 
BRANCH  33  34
HETATM   34  C   UNK     0      -2.582  24.369  -7.022  0.00  0.00     0.114 C 
BRANCH  34  35
HETATM   35  C   UNK     0      -2.691  22.983  -7.563  0.00  0.00     0.139 C 
HETATM   36  O   UNK     0      -3.819  22.414  -7.632  0.00  0.00    -0.650 OA
BRANCH  35  37
HETATM   37  O   UNK     0      -1.589  22.265  -8.011  0.00  0.00    -0.776 OA
HETATM   38  H   UNK     0      -1.680  21.355  -8.434  0.00  0.00     0.167 HD
ENDBRANCH  35  37
ENDBRANCH  34  35
ENDBRANCH  33  34
ENDBRANCH   6  33
BRANCH  27  39
HETATM   39  C   UNK     0      -9.642  21.762  -3.318  0.00  0.00     0.051 C 
BRANCH  39  40
HETATM   40  C   UNK     0      -9.961  21.728  -4.745  0.00  0.00     0.114 C 
BRANCH  40  41
HETATM   41  C   UNK     0      -8.959  21.456  -5.751  0.00  0.00     0.139 C 
HETATM   42  O   UNK     0      -8.428  22.335  -6.442  0.00  0.00    -0.650 OA
BRANCH  41  43
HETATM   43  O   UNK     0      -8.551  20.110  -5.974  0.00  0.00    -0.776 OA
HETATM   44  H   UNK     0      -9.195  19.564  -6.535  0.00  0.00     0.167 HD
ENDBRANCH  41  43
ENDBRANCH  40  41
ENDBRANCH  39  40
ENDBRANCH  27  39
BRANCH  11  45
HETATM   45  C   UNK     0      -0.988  16.374  -4.507  0.00  0.00     0.051 C 
BRANCH  45  46
HETATM   46  C   UNK     0      -1.251  15.460  -5.648  0.00  0.00     0.114 C 
BRANCH  46  47
HETATM   47  C   UNK     0      -1.602  14.128  -5.075  0.00  0.00     0.139 C 
HETATM   48  O   UNK     0      -1.802  13.184  -5.852  0.00  0.00    -0.650 OA
BRANCH  47  49
HETATM   49  O   UNK     0      -1.702  13.951  -3.719  0.00  0.00    -0.776 OA
HETATM   50  H   UNK     0      -0.947  14.219  -3.076  0.00  0.00     0.167 HD
ENDBRANCH  47  49
ENDBRANCH  46  47
ENDBRANCH  45  46
ENDBRANCH  11  45
BRANCH  18  51
HETATM   51  C   UNK     0      -7.428  16.268  -1.810  0.00  0.00     0.051 C 
BRANCH  51  52
HETATM   52  C   UNK     0      -8.877  16.344  -2.271  0.00  0.00     0.114 C 
BRANCH  52  53
HETATM   53  C   UNK     0      -9.127  15.480  -3.440  0.00  0.00     0.139 C 
HETATM   54  O   UNK     0      -8.457  14.448  -3.605  0.00  0.00    -0.650 OA
BRANCH  53  55
HETATM   55  O   UNK     0     -10.103  15.825  -4.344  0.00  0.00    -0.776 OA
HETATM   56  H   UNK     0     -10.506  15.227  -5.025  0.00  0.00     0.167 HD
ENDBRANCH  53  55
ENDBRANCH  52  53
ENDBRANCH  51  52
ENDBRANCH  18  51
TORSDOF 16
ENDMDL
MODEL 17
REMARK VINA RESULT:      -7.6     32.958     36.541
REMARK  16 active torsions:
REMARK  status: ('A' for Active; 'I' for Inactive)
REMARK    1  A    between atoms: C_6  and  C_7 
REMARK    2  A    between atoms: C_7  and  C_8 
REMARK    3  A    between atoms: C_8  and  C_9 
REMARK    4  A    between atoms: C_9  and  O_11 
REMARK    5  A    between atoms: C_16  and  C_17 
REMARK    6  A    between atoms: C_17  and  C_18 
REMARK    7  A    between atoms: C_18  and  C_19 
REMARK    8  A    between atoms: C_19  and  O_21 
REMARK    9  A    between atoms: C_28  and  C_29 
REMARK   10  A    between atoms: C_29  and  C_30 
REMARK   11  A    between atoms: C_30  and  C_31 
REMARK   12  A    between atoms: C_31  and  O_33 
REMARK   13  A    between atoms: C_42  and  C_43 
REMARK   14  A    between atoms: C_43  and  C_44 
REMARK   15  A    between atoms: C_44  and  C_45 
REMARK   16  A    between atoms: C_45  and  O_47 
ROOT
HETATM    1  C   UNK     0      -9.034  18.402  -2.038  0.00  0.00     0.051 C 
HETATM    2  C   UNK     0      -7.715  18.248  -2.768  0.00  0.00    -0.031 A 
HETATM    3  C   UNK     0      -7.060  19.143  -3.598  0.00  0.00     0.021 A 
HETATM    4  N   UNK     0      -5.923  18.568  -4.057  0.00  0.00    -0.361 N 
HETATM    5  C   UNK     0      -5.835  17.329  -3.531  0.00  0.00     0.022 A 
HETATM    6  C   UNK     0      -6.942  17.095  -2.722  0.00  0.00    -0.027 A 
HETATM    7  C   UNK     0      -4.734  16.322  -3.645  0.00  0.00     0.115 C 
HETATM    8  C   UNK     0      -3.314  16.847  -3.527  0.00  0.00     0.021 A 
HETATM    9  N   UNK     0      -2.853  17.840  -2.751  0.00  0.00    -0.361 N 
HETATM   10  C   UNK     0      -1.547  18.025  -3.040  0.00  0.00     0.022 A 
HETATM   11  C   UNK     0      -1.154  17.119  -4.021  0.00  0.00    -0.027 A 
HETATM   12  C   UNK     0      -2.263  16.374  -4.332  0.00  0.00    -0.031 A 
HETATM   13  C   UNK     0      -2.308  15.258  -5.351  0.00  0.00     0.051 C 
HETATM   14  C   UNK     0      -0.634  19.092  -2.443  0.00  0.00     0.115 C 
HETATM   15  C   UNK     0      -1.089  20.516  -2.720  0.00  0.00     0.021 A 
HETATM   16  N   UNK     0      -2.263  21.083  -2.388  0.00  0.00    -0.361 N 
HETATM   17  C   UNK     0      -2.303  22.326  -2.872  0.00  0.00     0.022 A 
HETATM   18  C   UNK     0      -1.092  22.586  -3.544  0.00  0.00    -0.027 A 
HETATM   19  C   UNK     0      -0.340  21.445  -3.441  0.00  0.00    -0.031 A 
HETATM   20  C   UNK     0       1.064  21.306  -4.002  0.00  0.00     0.051 C 
HETATM   21  C   UNK     0      -3.417  23.348  -2.836  0.00  0.00     0.115 C 
HETATM   22  C   UNK     0      -4.836  22.836  -2.908  0.00  0.00     0.022 A 
HETATM   23  N   UNK     0      -5.323  21.846  -3.668  0.00  0.00    -0.361 N 
HETATM   24  C   UNK     0      -6.604  21.628  -3.309  0.00  0.00     0.021 A 
HETATM   25  C   UNK     0      -6.954  22.505  -2.300  0.00  0.00    -0.031 A 
HETATM   26  C   UNK     0      -8.287  22.673  -1.601  0.00  0.00     0.051 C 
HETATM   27  C   UNK     0      -5.838  23.289  -2.027  0.00  0.00    -0.027 A 
HETATM   28  C   UNK     0      -7.542  20.548  -3.821  0.00  0.00     0.115 C 
HETATM   29  H   UNK     0      -5.210  19.027  -4.781  0.00  0.00     0.165 HD
HETATM   30  H   UNK     0      -3.433  18.380  -1.963  0.00  0.00     0.165 HD
HETATM   31  H   UNK     0      -3.062  20.613  -1.757  0.00  0.00     0.165 HD
HETATM   32  H   UNK     0      -4.780  21.321  -4.496  0.00  0.00     0.165 HD
ENDROOT
BRANCH   6  33
HETATM   33  C   UNK     0      -7.317  15.874  -1.920  0.00  0.00     0.051 C 
BRANCH  33  34
HETATM   34  C   UNK     0      -7.075  14.615  -2.719  0.00  0.00     0.114 C 
BRANCH  34  35
HETATM   35  C   UNK     0      -7.965  14.666  -3.914  0.00  0.00     0.139 C 
HETATM   36  O   UNK     0      -7.565  14.213  -5.026  0.00  0.00    -0.650 OA
BRANCH  35  37
HETATM   37  O   UNK     0      -9.249  15.196  -3.870  0.00  0.00    -0.776 OA
HETATM   38  H   UNK     0      -9.421  16.158  -3.627  0.00  0.00     0.167 HD
ENDBRANCH  35  37
ENDBRANCH  34  35
ENDBRANCH  33  34
ENDBRANCH   6  33
BRANCH  27  39
HETATM   39  C   UNK     0      -5.852  24.403  -1.040  0.00  0.00     0.051 C 
BRANCH  39  40
HETATM   40  C   UNK     0      -5.397  24.129   0.322  0.00  0.00     0.114 C 
BRANCH  40  41
HETATM   41  C   UNK     0      -6.275  23.584   1.334  0.00  0.00     0.139 C 
HETATM   42  O   UNK     0      -6.916  24.283   2.130  0.00  0.00    -0.650 OA
BRANCH  41  43
HETATM   43  O   UNK     0      -6.422  22.172   1.433  0.00  0.00    -0.776 OA
HETATM   44  H   UNK     0      -6.865  21.856   2.288  0.00  0.00     0.167 HD
ENDBRANCH  41  43
ENDBRANCH  40  41
ENDBRANCH  39  40
ENDBRANCH  27  39
BRANCH  11  45
HETATM   45  C   UNK     0       0.201  16.943  -4.652  0.00  0.00     0.051 C 
BRANCH  45  46
HETATM   46  C   UNK     0       0.973  15.793  -4.116  0.00  0.00     0.114 C 
BRANCH  46  47
HETATM   47  C   UNK     0       2.123  16.352  -3.349  0.00  0.00     0.139 C 
HETATM   48  O   UNK     0       2.348  17.568  -3.423  0.00  0.00    -0.650 OA
BRANCH  47  49
HETATM   49  O   UNK     0       2.917  15.540  -2.580  0.00  0.00    -0.776 OA
HETATM   50  H   UNK     0       3.842  15.837  -2.248  0.00  0.00     0.167 HD
ENDBRANCH  47  49
ENDBRANCH  46  47
ENDBRANCH  45  46
ENDBRANCH  11  45
BRANCH  18  51
HETATM   51  C   UNK     0      -0.667  23.859  -4.229  0.00  0.00     0.051 C 
BRANCH  51  52
HETATM   52  C   UNK     0       0.019  24.705  -3.167  0.00  0.00     0.114 C 
BRANCH  52  53
HETATM   53  C   UNK     0      -0.537  26.071  -3.110  0.00  0.00     0.139 C 
HETATM   54  O   UNK     0      -1.638  26.316  -3.627  0.00  0.00    -0.650 OA
BRANCH  53  55
HETATM   55  O   UNK     0       0.172  27.067  -2.484  0.00  0.00    -0.776 OA
HETATM   56  H   UNK     0       0.160  28.031  -2.722  0.00  0.00     0.167 HD
ENDBRANCH  53  55
ENDBRANCH  52  53
ENDBRANCH  51  52
ENDBRANCH  18  51
TORSDOF 16
ENDMDL
MODEL 18
REMARK VINA RESULT:      -7.6      2.893      8.001
REMARK  16 active torsions:
REMARK  status: ('A' for Active; 'I' for Inactive)
REMARK    1  A    between atoms: C_6  and  C_7 
REMARK    2  A    between atoms: C_7  and  C_8 
REMARK    3  A    between atoms: C_8  and  C_9 
REMARK    4  A    between atoms: C_9  and  O_11 
REMARK    5  A    between atoms: C_16  and  C_17 
REMARK    6  A    between atoms: C_17  and  C_18 
REMARK    7  A    between atoms: C_18  and  C_19 
REMARK    8  A    between atoms: C_19  and  O_21 
REMARK    9  A    between atoms: C_28  and  C_29 
REMARK   10  A    between atoms: C_29  and  C_30 
REMARK   11  A    between atoms: C_30  and  C_31 
REMARK   12  A    between atoms: C_31  and  O_33 
REMARK   13  A    between atoms: C_42  and  C_43 
REMARK   14  A    between atoms: C_43  and  C_44 
REMARK   15  A    between atoms: C_44  and  C_45 
REMARK   16  A    between atoms: C_45  and  O_47 
ROOT
HETATM    1  C   UNK     0      -7.920   6.302 -37.953  0.00  0.00     0.051 C 
HETATM    2  C   UNK     0      -6.811   5.280 -37.810  0.00  0.00    -0.031 A 
HETATM    3  C   UNK     0      -5.469   5.386 -38.140  0.00  0.00     0.021 A 
HETATM    4  N   UNK     0      -4.853   4.210 -37.868  0.00  0.00    -0.361 N 
HETATM    5  C   UNK     0      -5.772   3.361 -37.364  0.00  0.00     0.022 A 
HETATM    6  C   UNK     0      -7.008   3.997 -37.317  0.00  0.00    -0.027 A 
HETATM    7  C   UNK     0      -5.593   1.978 -36.821  0.00  0.00     0.115 C 
HETATM    8  C   UNK     0      -4.385   1.746 -35.930  0.00  0.00     0.021 A 
HETATM    9  N   UNK     0      -3.824   2.586 -35.046  0.00  0.00    -0.361 N 
HETATM   10  C   UNK     0      -2.717   1.995 -34.551  0.00  0.00     0.022 A 
HETATM   11  C   UNK     0      -2.564   0.737 -35.125  0.00  0.00    -0.027 A 
HETATM   12  C   UNK     0      -3.612   0.573 -35.995  0.00  0.00    -0.031 A 
HETATM   13  C   UNK     0      -3.860  -0.654 -36.843  0.00  0.00     0.051 C 
HETATM   14  C   UNK     0      -1.732   2.612 -33.561  0.00  0.00     0.115 C 
HETATM   15  C   UNK     0      -1.057   3.875 -34.070  0.00  0.00     0.021 A 
HETATM   16  N   UNK     0      -1.647   5.019 -34.467  0.00  0.00    -0.361 N 
HETATM   17  C   UNK     0      -0.713   5.863 -34.909  0.00  0.00     0.022 A 
HETATM   18  C   UNK     0       0.547   5.244 -34.786  0.00  0.00    -0.027 A 
HETATM   19  C   UNK     0       0.318   4.000 -34.257  0.00  0.00    -0.031 A 
HETATM   20  C   UNK     0       1.417   3.008 -33.926  0.00  0.00     0.051 C 
HETATM   21  C   UNK     0      -0.857   7.236 -35.525  0.00  0.00     0.115 C 
HETATM   22  C   UNK     0      -2.077   7.494 -36.377  0.00  0.00     0.022 A 
HETATM   23  N   UNK     0      -2.659   6.675 -37.263  0.00  0.00    -0.361 N 
HETATM   24  C   UNK     0      -3.802   7.252 -37.685  0.00  0.00     0.021 A 
HETATM   25  C   UNK     0      -3.955   8.477 -37.064  0.00  0.00    -0.031 A 
HETATM   26  C   UNK     0      -5.052   9.505 -37.242  0.00  0.00     0.051 C 
HETATM   27  C   UNK     0      -2.863   8.654 -36.222  0.00  0.00    -0.027 A 
HETATM   28  C   UNK     0      -4.848   6.668 -38.619  0.00  0.00     0.115 C 
HETATM   29  H   UNK     0      -3.783   3.976 -38.071  0.00  0.00     0.165 HD
HETATM   30  H   UNK     0      -4.236   3.577 -34.732  0.00  0.00     0.165 HD
HETATM   31  H   UNK     0      -2.740   5.253 -34.389  0.00  0.00     0.165 HD
HETATM   32  H   UNK     0      -2.246   5.700 -37.631  0.00  0.00     0.165 HD
ENDROOT
BRANCH   6  33
HETATM   33  C   UNK     0      -8.346   3.484 -36.846  0.00  0.00     0.051 C 
BRANCH  33  34
HETATM   34  C   UNK     0      -8.750   4.150 -35.552  0.00  0.00     0.114 C 
BRANCH  34  35
HETATM   35  C   UNK     0      -8.918   3.076 -34.531  0.00  0.00     0.139 C 
HETATM   36  O   UNK     0      -9.630   3.279 -33.505  0.00  0.00    -0.650 OA
BRANCH  35  37
HETATM   37  O   UNK     0      -8.321   1.828 -34.651  0.00  0.00    -0.776 OA
HETATM   38  H   UNK     0      -8.774   0.985 -34.336  0.00  0.00     0.167 HD
ENDBRANCH  35  37
ENDBRANCH  34  35
ENDBRANCH  33  34
ENDBRANCH   6  33
BRANCH  27  39
HETATM   39  C   UNK     0      -2.641   9.897 -35.434  0.00  0.00     0.051 C 
BRANCH  39  40
HETATM   40  C   UNK     0      -1.508  10.751 -35.789  0.00  0.00     0.114 C 
BRANCH  40  41
HETATM   41  C   UNK     0      -1.673  11.981 -36.529  0.00  0.00     0.139 C 
HETATM   42  O   UNK     0      -1.522  13.105 -36.030  0.00  0.00    -0.650 OA
BRANCH  41  43
HETATM   43  O   UNK     0      -2.028  11.917 -37.906  0.00  0.00    -0.776 OA
HETATM   44  H   UNK     0      -1.345  11.456 -38.494  0.00  0.00     0.167 HD
ENDBRANCH  41  43
ENDBRANCH  40  41
ENDBRANCH  39  40
ENDBRANCH  27  39
BRANCH  11  45
HETATM   45  C   UNK     0      -1.488  -0.287 -34.878  0.00  0.00     0.051 C 
BRANCH  45  46
HETATM   46  C   UNK     0      -1.735  -1.153 -33.697  0.00  0.00     0.114 C 
BRANCH  46  47
HETATM   47  C   UNK     0      -0.525  -2.004 -33.513  0.00  0.00     0.139 C 
HETATM   48  O   UNK     0      -0.556  -3.174 -33.921  0.00  0.00    -0.650 OA
BRANCH  47  49
HETATM   49  O   UNK     0       0.599  -1.505 -32.905  0.00  0.00    -0.776 OA
HETATM   50  H   UNK     0       1.474  -2.041 -32.852  0.00  0.00     0.167 HD
ENDBRANCH  47  49
ENDBRANCH  46  47
ENDBRANCH  45  46
ENDBRANCH  11  45
BRANCH  18  51
HETATM   51  C   UNK     0       1.898   5.815 -35.132  0.00  0.00     0.051 C 
BRANCH  51  52
HETATM   52  C   UNK     0       2.248   5.275 -36.511  0.00  0.00     0.114 C 
BRANCH  52  53
HETATM   53  C   UNK     0       2.215   6.332 -37.540  0.00  0.00     0.139 C 
HETATM   54  O   UNK     0       2.592   7.482 -37.262  0.00  0.00    -0.650 OA
BRANCH  53  55
HETATM   55  O   UNK     0       1.762   6.037 -38.803  0.00  0.00    -0.776 OA
HETATM   56  H   UNK     0       2.242   6.218 -39.653  0.00  0.00     0.167 HD
ENDBRANCH  53  55
ENDBRANCH  52  53
ENDBRANCH  51  52
ENDBRANCH  18  51
TORSDOF 16
ENDMDL
MODEL 19
REMARK VINA RESULT:      -7.5     32.112     35.325
REMARK  16 active torsions:
REMARK  status: ('A' for Active; 'I' for Inactive)
REMARK    1  A    between atoms: C_6  and  C_7 
REMARK    2  A    between atoms: C_7  and  C_8 
REMARK    3  A    between atoms: C_8  and  C_9 
REMARK    4  A    between atoms: C_9  and  O_11 
REMARK    5  A    between atoms: C_16  and  C_17 
REMARK    6  A    between atoms: C_17  and  C_18 
REMARK    7  A    between atoms: C_18  and  C_19 
REMARK    8  A    between atoms: C_19  and  O_21 
REMARK    9  A    between atoms: C_28  and  C_29 
REMARK   10  A    between atoms: C_29  and  C_30 
REMARK   11  A    between atoms: C_30  and  C_31 
REMARK   12  A    between atoms: C_31  and  O_33 
REMARK   13  A    between atoms: C_42  and  C_43 
REMARK   14  A    between atoms: C_43  and  C_44 
REMARK   15  A    between atoms: C_44  and  C_45 
REMARK   16  A    between atoms: C_45  and  O_47 
ROOT
HETATM    1  C   UNK     0      -7.970  24.761  -2.593  0.00  0.00     0.051 C 
HETATM    2  C   UNK     0      -7.967  23.291  -2.960  0.00  0.00    -0.031 A 
HETATM    3  C   UNK     0      -7.670  22.688  -4.171  0.00  0.00     0.021 A 
HETATM    4  N   UNK     0      -7.829  21.348  -4.048  0.00  0.00    -0.361 N 
HETATM    5  C   UNK     0      -8.212  21.085  -2.781  0.00  0.00     0.022 A 
HETATM    6  C   UNK     0      -8.311  22.278  -2.074  0.00  0.00    -0.027 A 
HETATM    7  C   UNK     0      -8.428  19.766  -2.107  0.00  0.00     0.115 C 
HETATM    8  C   UNK     0      -7.405  18.680  -2.391  0.00  0.00     0.021 A 
HETATM    9  N   UNK     0      -6.083  18.805  -2.583  0.00  0.00    -0.361 N 
HETATM   10  C   UNK     0      -5.587  17.590  -2.897  0.00  0.00     0.022 A 
HETATM   11  C   UNK     0      -6.617  16.653  -2.898  0.00  0.00    -0.027 A 
HETATM   12  C   UNK     0      -7.765  17.333  -2.580  0.00  0.00    -0.031 A 
HETATM   13  C   UNK     0      -9.141  16.717  -2.459  0.00  0.00     0.051 C 
HETATM   14  C   UNK     0      -4.139  17.273  -3.259  0.00  0.00     0.115 C 
HETATM   15  C   UNK     0      -3.640  18.002  -4.496  0.00  0.00     0.021 A 
HETATM   16  N   UNK     0      -3.585  19.331  -4.700  0.00  0.00    -0.361 N 
HETATM   17  C   UNK     0      -3.152  19.567  -5.940  0.00  0.00     0.022 A 
HETATM   18  C   UNK     0      -2.902  18.332  -6.571  0.00  0.00    -0.027 A 
HETATM   19  C   UNK     0      -3.211  17.360  -5.656  0.00  0.00    -0.031 A 
HETATM   20  C   UNK     0      -3.050  15.873  -5.917  0.00  0.00     0.051 C 
HETATM   21  C   UNK     0      -2.983  20.876  -6.678  0.00  0.00     0.115 C 
HETATM   22  C   UNK     0      -3.967  21.980  -6.372  0.00  0.00     0.022 A 
HETATM   23  N   UNK     0      -5.288  21.884  -6.173  0.00  0.00    -0.361 N 
HETATM   24  C   UNK     0      -5.747  23.091  -5.786  0.00  0.00     0.021 A 
HETATM   25  C   UNK     0      -4.699  23.989  -5.745  0.00  0.00    -0.031 A 
HETATM   26  C   UNK     0      -4.721  25.466  -5.409  0.00  0.00     0.051 C 
HETATM   27  C   UNK     0      -3.549  23.302  -6.117  0.00  0.00    -0.027 A 
HETATM   28  C   UNK     0      -7.159  23.455  -5.358  0.00  0.00     0.115 C 
HETATM   29  H   UNK     0      -7.708  20.602  -4.867  0.00  0.00     0.165 HD
HETATM   30  H   UNK     0      -5.488  19.742  -2.449  0.00  0.00     0.165 HD
HETATM   31  H   UNK     0      -3.812  20.121  -3.937  0.00  0.00     0.165 HD
HETATM   32  H   UNK     0      -5.917  20.972  -6.345  0.00  0.00     0.165 HD
ENDROOT
BRANCH   6  33
HETATM   33  C   UNK     0      -8.704  22.526  -0.640  0.00  0.00     0.051 C 
BRANCH  33  34
HETATM   34  C   UNK     0      -7.600  22.101   0.299  0.00  0.00     0.114 C 
BRANCH  34  35
HETATM   35  C   UNK     0      -6.763  23.304   0.578  0.00  0.00     0.139 C 
HETATM   36  O   UNK     0      -7.219  24.246   1.288  0.00  0.00    -0.650 OA
BRANCH  35  37
HETATM   37  O   UNK     0      -5.472  23.448   0.086  0.00  0.00    -0.776 OA
HETATM   38  H   UNK     0      -4.668  23.470   0.693  0.00  0.00     0.167 HD
ENDBRANCH  35  37
ENDBRANCH  34  35
ENDBRANCH  33  34
ENDBRANCH   6  33
BRANCH  27  39
HETATM   39  C   UNK     0      -2.222  23.960  -6.259  0.00  0.00     0.051 C 
BRANCH  39  40
HETATM   40  C   UNK     0      -1.250  23.804  -5.177  0.00  0.00     0.114 C 
BRANCH  40  41
HETATM   41  C   UNK     0      -1.611  23.252  -3.891  0.00  0.00     0.139 C 
HETATM   42  O   UNK     0      -1.976  23.942  -2.929  0.00  0.00    -0.650 OA
BRANCH  41  43
HETATM   43  O   UNK     0      -1.549  21.842  -3.702  0.00  0.00    -0.776 OA
HETATM   44  H   UNK     0      -0.994  21.351  -4.391  0.00  0.00     0.167 HD
ENDBRANCH  41  43
ENDBRANCH  40  41
ENDBRANCH  39  40
ENDBRANCH  27  39
BRANCH  11  45
HETATM   45  C   UNK     0      -6.547  15.177  -3.180  0.00  0.00     0.051 C 
BRANCH  45  46
HETATM   46  C   UNK     0      -6.503  14.328  -1.961  0.00  0.00     0.114 C 
BRANCH  46  47
HETATM   47  C   UNK     0      -5.112  14.395  -1.427  0.00  0.00     0.139 C 
HETATM   48  O   UNK     0      -4.174  14.095  -2.179  0.00  0.00    -0.650 OA
BRANCH  47  49
HETATM   49  O   UNK     0      -4.875  14.777  -0.131  0.00  0.00    -0.776 OA
HETATM   50  H   UNK     0      -5.516  14.536   0.634  0.00  0.00     0.167 HD
ENDBRANCH  47  49
ENDBRANCH  46  47
ENDBRANCH  45  46
ENDBRANCH  11  45
BRANCH  18  51
HETATM   51  C   UNK     0      -2.379  18.093  -7.963  0.00  0.00     0.051 C 
BRANCH  51  52
HETATM   52  C   UNK     0      -0.864  18.023  -7.842  0.00  0.00     0.114 C 
BRANCH  52  53
HETATM   53  C   UNK     0      -0.304  16.882  -8.594  0.00  0.00     0.139 C 
HETATM   54  O   UNK     0       0.100  17.042  -9.756  0.00  0.00    -0.650 OA
BRANCH  53  55
HETATM   55  O   UNK     0      -0.238  15.645  -8.001  0.00  0.00    -0.776 OA
HETATM   56  H   UNK     0      -0.393  15.448  -7.040  0.00  0.00     0.167 HD
ENDBRANCH  53  55
ENDBRANCH  52  53
ENDBRANCH  51  52
ENDBRANCH  18  51
TORSDOF 16
ENDMDL
MODEL 20
REMARK VINA RESULT:      -7.5      2.488      7.178
REMARK  16 active torsions:
REMARK  status: ('A' for Active; 'I' for Inactive)
REMARK    1  A    between atoms: C_6  and  C_7 
REMARK    2  A    between atoms: C_7  and  C_8 
REMARK    3  A    between atoms: C_8  and  C_9 
REMARK    4  A    between atoms: C_9  and  O_11 
REMARK    5  A    between atoms: C_16  and  C_17 
REMARK    6  A    between atoms: C_17  and  C_18 
REMARK    7  A    between atoms: C_18  and  C_19 
REMARK    8  A    between atoms: C_19  and  O_21 
REMARK    9  A    between atoms: C_28  and  C_29 
REMARK   10  A    between atoms: C_29  and  C_30 
REMARK   11  A    between atoms: C_30  and  C_31 
REMARK   12  A    between atoms: C_31  and  O_33 
REMARK   13  A    between atoms: C_42  and  C_43 
REMARK   14  A    between atoms: C_43  and  C_44 
REMARK   15  A    between atoms: C_44  and  C_45 
REMARK   16  A    between atoms: C_45  and  O_47 
ROOT
HETATM    1  C   UNK     0       2.067   8.774 -36.032  0.00  0.00     0.051 C 
HETATM    2  C   UNK     0       1.064   7.671 -35.765  0.00  0.00    -0.031 A 
HETATM    3  C   UNK     0      -0.165   7.735 -35.128  0.00  0.00     0.021 A 
HETATM    4  N   UNK     0      -0.707   6.494 -35.088  0.00  0.00    -0.361 N 
HETATM    5  C   UNK     0       0.147   5.643 -35.694  0.00  0.00     0.022 A 
HETATM    6  C   UNK     0       1.266   6.345 -36.127  0.00  0.00    -0.027 A 
HETATM    7  C   UNK     0      -0.017   4.186 -35.996  0.00  0.00     0.115 C 
HETATM    8  C   UNK     0      -1.372   3.747 -36.521  0.00  0.00     0.021 A 
HETATM    9  N   UNK     0      -2.207   4.409 -37.337  0.00  0.00    -0.361 N 
HETATM   10  C   UNK     0      -3.336   3.680 -37.463  0.00  0.00     0.022 A 
HETATM   11  C   UNK     0      -3.222   2.511 -36.715  0.00  0.00    -0.027 A 
HETATM   12  C   UNK     0      -1.987   2.547 -36.120  0.00  0.00    -0.031 A 
HETATM   13  C   UNK     0      -1.422   1.477 -35.212  0.00  0.00     0.051 C 
HETATM   14  C   UNK     0      -4.584   4.078 -38.246  0.00  0.00     0.115 C 
HETATM   15  C   UNK     0      -5.242   5.355 -37.749  0.00  0.00     0.021 A 
HETATM   16  N   UNK     0      -4.693   6.580 -37.658  0.00  0.00    -0.361 N 
HETATM   17  C   UNK     0      -5.575   7.417 -37.107  0.00  0.00     0.022 A 
HETATM   18  C   UNK     0      -6.760   6.704 -36.835  0.00  0.00    -0.027 A 
HETATM   19  C   UNK     0      -6.539   5.414 -37.242  0.00  0.00    -0.031 A 
HETATM   20  C   UNK     0      -7.580   4.313 -37.162  0.00  0.00     0.051 C 
HETATM   21  C   UNK     0      -5.427   8.872 -36.725  0.00  0.00     0.115 C 
HETATM   22  C   UNK     0      -4.072   9.332 -36.243  0.00  0.00     0.022 A 
HETATM   23  N   UNK     0      -3.217   8.693 -35.434  0.00  0.00    -0.361 N 
HETATM   24  C   UNK     0      -2.070   9.399 -35.386  0.00  0.00     0.021 A 
HETATM   25  C   UNK     0      -2.192  10.527 -36.174  0.00  0.00    -0.031 A 
HETATM   26  C   UNK     0      -1.193  11.641 -36.406  0.00  0.00     0.051 C 
HETATM   27  C   UNK     0      -3.465  10.506 -36.733  0.00  0.00    -0.027 A 
HETATM   28  C   UNK     0      -0.779   9.029 -34.675  0.00  0.00     0.115 C 
HETATM   29  H   UNK     0      -1.670   6.222 -34.597  0.00  0.00     0.165 HD
HETATM   30  H   UNK     0      -1.983   5.367 -37.866  0.00  0.00     0.165 HD
HETATM   31  H   UNK     0      -3.678   6.873 -38.034  0.00  0.00     0.165 HD
HETATM   32  H   UNK     0      -3.432   7.757 -34.855  0.00  0.00     0.165 HD
ENDROOT
BRANCH   6  33
HETATM   33  C   UNK     0       2.499   5.858 -36.846  0.00  0.00     0.051 C 
BRANCH  33  34
HETATM   34  C   UNK     0       3.361   5.025 -35.928  0.00  0.00     0.114 C 
BRANCH  34  35
HETATM   35  C   UNK     0       4.258   5.959 -35.189  0.00  0.00     0.139 C 
HETATM   36  O   UNK     0       4.013   6.259 -33.984  0.00  0.00    -0.650 OA
BRANCH  35  37
HETATM   37  O   UNK     0       5.384   6.532 -35.769  0.00  0.00    -0.776 OA
HETATM   38  H   UNK     0       5.522   6.548 -36.766  0.00  0.00     0.167 HD
ENDBRANCH  35  37
ENDBRANCH  34  35
ENDBRANCH  33  34
ENDBRANCH   6  33
BRANCH  27  39
HETATM   39  C   UNK     0      -3.991  11.602 -37.592  0.00  0.00     0.051 C 
BRANCH  39  40
HETATM   40  C   UNK     0      -4.801  12.647 -36.965  0.00  0.00     0.114 C 
BRANCH  40  41
HETATM   41  C   UNK     0      -6.241  12.557 -36.877  0.00  0.00     0.139 C 
HETATM   42  O   UNK     0      -6.936  11.920 -37.680  0.00  0.00    -0.650 OA
BRANCH  41  43
HETATM   43  O   UNK     0      -6.912  13.230 -35.817  0.00  0.00    -0.776 OA
HETATM   44  H   UNK     0      -6.349  13.368 -34.986  0.00  0.00     0.167 HD
ENDBRANCH  41  43
ENDBRANCH  40  41
ENDBRANCH  39  40
ENDBRANCH  27  39
BRANCH  11  45
HETATM   45  C   UNK     0      -4.217   1.394 -36.555  0.00  0.00     0.051 C 
BRANCH  45  46
HETATM   46  C   UNK     0      -5.506   1.812 -35.946  0.00  0.00     0.114 C 
BRANCH  46  47
HETATM   47  C   UNK     0      -5.197   2.364 -34.596  0.00  0.00     0.139 C 
HETATM   48  O   UNK     0      -4.730   1.602 -33.737  0.00  0.00    -0.650 OA
BRANCH  47  49
HETATM   49  O   UNK     0      -5.426   3.686 -34.307  0.00  0.00    -0.776 OA
HETATM   50  H   UNK     0      -6.369   4.093 -34.332  0.00  0.00     0.167 HD
ENDBRANCH  47  49
ENDBRANCH  46  47
ENDBRANCH  45  46
ENDBRANCH  11  45
BRANCH  18  51
HETATM   51  C   UNK     0      -8.040   7.229 -36.238  0.00  0.00     0.051 C 
BRANCH  51  52
HETATM   52  C   UNK     0      -7.708   7.637 -34.810  0.00  0.00     0.114 C 
BRANCH  52  53
HETATM   53  C   UNK     0      -7.231   6.494 -34.008  0.00  0.00     0.139 C 
HETATM   54  O   UNK     0      -6.076   6.492 -33.555  0.00  0.00    -0.650 OA
BRANCH  53  55
HETATM   55  O   UNK     0      -8.071   5.433 -33.770  0.00  0.00    -0.776 OA
HETATM   56  H   UNK     0      -8.168   4.947 -32.910  0.00  0.00     0.167 HD
ENDBRANCH  53  55
ENDBRANCH  52  53
ENDBRANCH  51  52
ENDBRANCH  18  51
TORSDOF 16
ENDMDL
