MODEL 1
REMARK VINA RESULT:      -7.7      0.000      0.000
REMARK  28 active torsions:
REMARK  status: ('A' for Active; 'I' for Inactive)
REMARK    1  A    between atoms: C_2  and  O_3 
REMARK    2  A    between atoms: C_2  and  C_4 
REMARK    3  A    between atoms: C_4  and  C_5 
REMARK    4  A    between atoms: C_5  and  C_6 
REMARK    5  A    between atoms: C_7  and  C_8 
REMARK    6  A    between atoms: C_8  and  C_9 
REMARK    7  A    between atoms: C_9  and  O_11 
REMARK    8  A    between atoms: C_28  and  C_29 
REMARK    9  A    between atoms: C_29  and  C_30 
REMARK   10  A    between atoms: C_30  and  O_32 
REMARK   11  A    between atoms: C_33  and  C_34 
REMARK   12  A    between atoms: C_34  and  C_35 
REMARK   13  A    between atoms: C_35  and  C_36 
REMARK   14  A    between atoms: C_36  and  O_38 
REMARK   15  A    between atoms: C_39  and  C_40 
REMARK   16  A    between atoms: C_40  and  C_41 
REMARK   17  A    between atoms: C_41  and  C_42 
REMARK   18  A    between atoms: C_42  and  O_44 
REMARK   19  A    between atoms: C_45  and  C_46 
REMARK   20  A    between atoms: C_46  and  C_47 
REMARK   21  A    between atoms: C_47  and  O_49 
REMARK   22  A    between atoms: C_50  and  C_51 
REMARK   23  A    between atoms: C_51  and  C_52 
REMARK   24  A    between atoms: C_52  and  O_54 
REMARK   25  A    between atoms: C_55  and  C_56 
REMARK   26  A    between atoms: C_56  and  C_57 
REMARK   27  A    between atoms: C_57  and  C_58 
REMARK   28  A    between atoms: C_58  and  O_60 
ROOT
ATOM      1  O   UNK d   0       3.705   8.712 -33.441  0.00  0.00    -0.650 OA
ATOM      2  C   UNK d   0       2.839   8.904 -32.560  0.00  0.00     0.139 C 
ENDROOT
BRANCH   2   3
ATOM      3  O   UNK d   0       3.222   8.970 -31.242  0.00  0.00    -0.776 OA
ATOM      4  H   UNK d   0       4.203   8.871 -30.972  0.00  0.00     0.167 HD
ENDBRANCH   2   3
BRANCH   2   5
ATOM      5  C   UNK d   0       1.406   9.058 -32.940  0.00  0.00     0.115 C 
BRANCH   5   6
ATOM      6  C   UNK d   0       1.288   9.334 -34.414  0.00  0.00     0.052 C 
BRANCH   6   7
ATOM      7  C   UNK d   0       0.300   8.419 -35.099  0.00  0.00    -0.020 A 
ATOM      8  C   UNK d   0       0.503   7.197 -35.520  0.00  0.00    -0.011 A 
ATOM      9  C   UNK d   0      -0.733   6.723 -36.120  0.00  0.00     0.067 A 
ATOM     10  C   UNK d   0      -1.176   5.533 -36.719  0.00  0.00     0.062 C 
ATOM     11  N   UNK d   0      -1.634   7.723 -36.026  0.00  0.00    -0.248 NA
ATOM     12  C   UNK d   0      -2.497   5.163 -36.992  0.00  0.00     0.041 A 
ATOM     13  N   UNK d   0      -3.529   5.867 -37.496  0.00  0.00    -0.355 N 
ATOM     14  C   UNK d   0      -2.922   3.863 -36.663  0.00  0.00    -0.022 A 
ATOM     15  C   UNK d   0      -4.598   5.049 -37.488  0.00  0.00     0.042 A 
ATOM     16  H   UNK d   0      -3.497   6.914 -37.869  0.00  0.00     0.166 HD
ATOM     17  C   UNK d   0      -5.925   5.276 -37.906  0.00  0.00     0.062 C 
ATOM     18  C   UNK d   0      -4.257   3.784 -36.972  0.00  0.00    -0.013 A 
ATOM     19  C   UNK d   0      -6.730   6.360 -37.669  0.00  0.00     0.067 A 
ATOM     20  N   UNK d   0      -6.148   7.442 -37.146  0.00  0.00    -0.248 NA
ATOM     21  C   UNK d   0      -8.141   6.669 -37.831  0.00  0.00    -0.011 A 
ATOM     22  C   UNK d   0      -7.077   8.436 -36.952  0.00  0.00     0.066 A 
ATOM     23  C   UNK d   0      -6.599   9.636 -36.446  0.00  0.00     0.062 C 
ATOM     24  C   UNK d   0      -8.338   7.884 -37.405  0.00  0.00    -0.020 A 
ATOM     25  C   UNK d   0      -5.266   9.992 -36.191  0.00  0.00     0.041 A 
ATOM     26  N   UNK d   0      -4.244   9.297 -35.676  0.00  0.00    -0.355 N 
ATOM     27  C   UNK d   0      -4.839  11.296 -36.526  0.00  0.00    -0.022 A 
ATOM     28  C   UNK d   0      -3.178  10.114 -35.674  0.00  0.00     0.042 A 
ATOM     29  H   UNK d   0      -4.280   8.248 -35.292  0.00  0.00     0.166 HD
ATOM     30  C   UNK d   0      -1.856   9.904 -35.253  0.00  0.00     0.062 C 
ATOM     31  C   UNK d   0      -3.520  11.381 -36.203  0.00  0.00    -0.013 A 
ATOM     32  C   UNK d   0      -1.074   8.772 -35.421  0.00  0.00     0.066 A 
BRANCH   8  33
ATOM     33  C   UNK d   0       1.754   6.423 -35.419  0.00  0.00     0.151 C 
BRANCH  33  34
ATOM     34  C   UNK d   0       2.728   6.773 -36.468  0.00  0.00     0.143 C 
ATOM     35  O   UNK d   0       2.431   6.684 -37.668  0.00  0.00    -0.650 OA
BRANCH  34  36
ATOM     36  O   UNK d   0       3.983   7.204 -36.107  0.00  0.00    -0.776 OA
ATOM     37  H   UNK d   0       4.115   7.904 -35.364  0.00  0.00     0.167 HD
ENDBRANCH  34  36
ENDBRANCH  33  34
ENDBRANCH   8  33
BRANCH  31  38
ATOM     38  C   UNK d   0      -2.631  12.588 -36.396  0.00  0.00     0.151 C 
BRANCH  38  39
ATOM     39  C   UNK d   0      -1.904  12.555 -37.647  0.00  0.00     0.143 C 
ATOM     40  O   UNK d   0      -2.465  12.707 -38.747  0.00  0.00    -0.650 OA
BRANCH  39  41
ATOM     41  O   UNK d   0      -0.525  12.348 -37.634  0.00  0.00    -0.776 OA
ATOM     42  H   UNK d   0      -0.043  12.398 -38.537  0.00  0.00     0.167 HD
ENDBRANCH  39  41
ENDBRANCH  38  39
ENDBRANCH  31  38
BRANCH  27  43
ATOM     43  C   UNK d   0      -5.624  12.436 -37.125  0.00  0.00     0.052 C 
BRANCH  43  44
ATOM     44  C   UNK d   0      -6.502  13.133 -36.137  0.00  0.00     0.115 C 
BRANCH  44  45
ATOM     45  C   UNK d   0      -7.742  13.512 -36.864  0.00  0.00     0.139 C 
ATOM     46  O   UNK d   0      -8.000  12.921 -37.942  0.00  0.00    -0.650 OA
BRANCH  45  47
ATOM     47  O   UNK d   0      -8.614  14.474 -36.403  0.00  0.00    -0.776 OA
ATOM     48  H   UNK d   0      -8.330  15.451 -36.231  0.00  0.00     0.167 HD
ENDBRANCH  45  47
ENDBRANCH  44  45
ENDBRANCH  43  44
ENDBRANCH  27  43
BRANCH  24  49
ATOM     49  C   UNK d   0      -9.618   8.613 -37.422  0.00  0.00     0.052 C 
BRANCH  49  50
ATOM     50  C   UNK d   0     -10.360   8.399 -36.128  0.00  0.00     0.115 C 
BRANCH  50  51
ATOM     51  C   UNK d   0      -9.876   9.117 -34.957  0.00  0.00     0.139 C 
ATOM     52  O   UNK d   0      -9.750  10.364 -34.932  0.00  0.00    -0.650 OA
BRANCH  51  53
ATOM     53  O   UNK d   0      -9.532   8.412 -33.814  0.00  0.00    -0.776 OA
ATOM     54  H   UNK d   0      -8.936   8.861 -33.140  0.00  0.00     0.167 HD
ENDBRANCH  51  53
ENDBRANCH  50  51
ENDBRANCH  49  50
ENDBRANCH  24  49
BRANCH  21  55
ATOM     55  C   UNK d   0      -9.144   5.720 -38.398  0.00  0.00     0.151 C 
BRANCH  55  56
ATOM     56  C   UNK d   0      -9.897   5.020 -37.346  0.00  0.00     0.143 C 
ATOM     57  O   UNK d   0     -11.137   4.892 -37.374  0.00  0.00    -0.650 OA
BRANCH  56  58
ATOM     58  O   UNK d   0      -9.176   4.483 -36.280  0.00  0.00    -0.776 OA
ATOM     59  H   UNK d   0      -8.905   5.165 -35.549  0.00  0.00     0.167 HD
ENDBRANCH  56  58
ENDBRANCH  55  56
ENDBRANCH  21  55
BRANCH  18  60
ATOM     60  C   UNK d   0      -5.120   2.563 -36.771  0.00  0.00     0.151 C 
BRANCH  60  61
ATOM     61  C   UNK d   0      -6.008   2.877 -35.642  0.00  0.00     0.143 C 
ATOM     62  O   UNK d   0      -5.707   3.466 -34.603  0.00  0.00    -0.650 OA
BRANCH  61  63
ATOM     63  O   UNK d   0      -7.348   2.447 -35.792  0.00  0.00    -0.776 OA
ATOM     64  H   UNK d   0      -8.065   3.080 -36.101  0.00  0.00     0.167 HD
ENDBRANCH  61  63
ENDBRANCH  60  61
ENDBRANCH  18  60
BRANCH  14  65
ATOM     65  C   UNK d   0      -2.146   2.672 -36.175  0.00  0.00     0.052 C 
BRANCH  65  66
ATOM     66  C   UNK d   0      -2.315   2.425 -34.718  0.00  0.00     0.115 C 
BRANCH  66  67
ATOM     67  C   UNK d   0      -2.308   3.532 -33.803  0.00  0.00     0.139 C 
ATOM     68  O   UNK d   0      -1.182   4.084 -33.517  0.00  0.00    -0.650 OA
BRANCH  67  69
ATOM     69  O   UNK d   0      -3.398   4.111 -33.156  0.00  0.00    -0.776 OA
ATOM     70  H   UNK d   0      -3.370   4.093 -32.126  0.00  0.00     0.167 HD
ENDBRANCH  67  69
ENDBRANCH  66  67
ENDBRANCH  65  66
ENDBRANCH  14  65
ENDBRANCH   6   7
ENDBRANCH   5   6
ENDBRANCH   2   5
TORSDOF 28
ENDMDL
MODEL 2
REMARK VINA RESULT:      -7.7      1.800      7.566
REMARK  28 active torsions:
REMARK  status: ('A' for Active; 'I' for Inactive)
REMARK    1  A    between atoms: C_2  and  O_3 
REMARK    2  A    between atoms: C_2  and  C_4 
REMARK    3  A    between atoms: C_4  and  C_5 
REMARK    4  A    between atoms: C_5  and  C_6 
REMARK    5  A    between atoms: C_7  and  C_8 
REMARK    6  A    between atoms: C_8  and  C_9 
REMARK    7  A    between atoms: C_9  and  O_11 
REMARK    8  A    between atoms: C_28  and  C_29 
REMARK    9  A    between atoms: C_29  and  C_30 
REMARK   10  A    between atoms: C_30  and  O_32 
REMARK   11  A    between atoms: C_33  and  C_34 
REMARK   12  A    between atoms: C_34  and  C_35 
REMARK   13  A    between atoms: C_35  and  C_36 
REMARK   14  A    between atoms: C_36  and  O_38 
REMARK   15  A    between atoms: C_39  and  C_40 
REMARK   16  A    between atoms: C_40  and  C_41 
REMARK   17  A    between atoms: C_41  and  C_42 
REMARK   18  A    between atoms: C_42  and  O_44 
REMARK   19  A    between atoms: C_45  and  C_46 
REMARK   20  A    between atoms: C_46  and  C_47 
REMARK   21  A    between atoms: C_47  and  O_49 
REMARK   22  A    between atoms: C_50  and  C_51 
REMARK   23  A    between atoms: C_51  and  C_52 
REMARK   24  A    between atoms: C_52  and  O_54 
REMARK   25  A    between atoms: C_55  and  C_56 
REMARK   26  A    between atoms: C_56  and  C_57 
REMARK   27  A    between atoms: C_57  and  C_58 
REMARK   28  A    between atoms: C_58  and  O_60 
ROOT
ATOM      1  O   UNK d   0      -6.971   1.543 -34.860  0.00  0.00    -0.650 OA
ATOM      2  C   UNK d   0      -5.872   1.440 -34.271  0.00  0.00     0.139 C 
ENDROOT
BRANCH   2   3
ATOM      3  O   UNK d   0      -5.628   2.212 -33.161  0.00  0.00    -0.776 OA
ATOM      4  H   UNK d   0      -5.197   1.812 -32.325  0.00  0.00     0.167 HD
ENDBRANCH   2   3
BRANCH   2   5
ATOM      5  C   UNK d   0      -4.841   0.488 -34.773  0.00  0.00     0.115 C 
BRANCH   5   6
ATOM      6  C   UNK d   0      -4.140   1.068 -35.971  0.00  0.00     0.052 C 
BRANCH   6   7
ATOM      7  C   UNK d   0      -3.370   2.325 -35.643  0.00  0.00    -0.020 A 
ATOM      8  C   UNK d   0      -2.189   2.415 -35.089  0.00  0.00    -0.011 A 
ATOM      9  C   UNK d   0      -1.862   3.826 -34.964  0.00  0.00     0.067 A 
ATOM     10  C   UNK d   0      -0.774   4.575 -34.490  0.00  0.00     0.062 C 
ATOM     11  N   UNK d   0      -2.905   4.523 -35.462  0.00  0.00    -0.248 NA
ATOM     12  C   UNK d   0      -0.523   5.934 -34.708  0.00  0.00     0.041 A 
ATOM     13  N   UNK d   0      -1.342   7.003 -34.680  0.00  0.00    -0.355 N 
ATOM     14  C   UNK d   0       0.774   6.336 -35.076  0.00  0.00    -0.022 A 
ATOM     15  C   UNK d   0      -0.600   8.070 -35.030  0.00  0.00     0.042 A 
ATOM     16  H   UNK d   0      -2.418   7.005 -34.401  0.00  0.00     0.166 HD
ATOM     17  C   UNK d   0      -0.956   9.428 -35.159  0.00  0.00     0.062 C 
ATOM     18  C   UNK d   0       0.732   7.692 -35.286  0.00  0.00    -0.013 A 
ATOM     19  C   UNK d   0      -2.061   9.976 -35.759  0.00  0.00     0.067 A 
ATOM     20  N   UNK d   0      -3.041   9.137 -36.103  0.00  0.00    -0.248 NA
ATOM     21  C   UNK d   0      -2.477  11.309 -36.162  0.00  0.00    -0.011 A 
ATOM     22  C   UNK d   0      -4.068   9.824 -36.703  0.00  0.00     0.066 A 
ATOM     23  C   UNK d   0      -5.174   9.076 -37.079  0.00  0.00     0.062 C 
ATOM     24  C   UNK d   0      -3.651  11.212 -36.718  0.00  0.00    -0.020 A 
ATOM     25  C   UNK d   0      -5.412   7.714 -36.840  0.00  0.00     0.041 A 
ATOM     26  N   UNK d   0      -4.602   6.649 -36.882  0.00  0.00    -0.355 N 
ATOM     27  C   UNK d   0      -6.713   7.312 -36.466  0.00  0.00    -0.022 A 
ATOM     28  C   UNK d   0      -5.341   5.582 -36.542  0.00  0.00     0.042 A 
ATOM     29  H   UNK d   0      -3.523   6.647 -37.173  0.00  0.00     0.166 HD
ATOM     30  C   UNK d   0      -5.002   4.225 -36.419  0.00  0.00     0.062 C 
ATOM     31  C   UNK d   0      -6.677   5.965 -36.274  0.00  0.00    -0.013 A 
ATOM     32  C   UNK d   0      -3.845   3.679 -35.887  0.00  0.00     0.066 A 
BRANCH   8  33
ATOM     33  C   UNK d   0      -1.327   1.299 -34.656  0.00  0.00     0.151 C 
BRANCH  33  34
ATOM     34  C   UNK d   0      -0.433   0.820 -35.725  0.00  0.00     0.143 C 
ATOM     35  O   UNK d   0      -0.489   1.303 -36.865  0.00  0.00    -0.650 OA
BRANCH  34  36
ATOM     36  O   UNK d   0       0.474  -0.177 -35.451  0.00  0.00    -0.776 OA
ATOM     37  H   UNK d   0       0.382  -0.768 -34.613  0.00  0.00     0.167 HD
ENDBRANCH  34  36
ENDBRANCH  33  34
ENDBRANCH   8  33
BRANCH  31  38
ATOM     38  C   UNK d   0      -7.836   5.093 -35.850  0.00  0.00     0.151 C 
BRANCH  38  39
ATOM     39  C   UNK d   0      -7.983   5.015 -34.413  0.00  0.00     0.143 C 
ATOM     40  O   UNK d   0      -7.013   4.856 -33.652  0.00  0.00    -0.650 OA
BRANCH  39  41
ATOM     41  O   UNK d   0      -9.253   5.122 -33.846  0.00  0.00    -0.776 OA
ATOM     42  H   UNK d   0     -10.026   4.689 -34.361  0.00  0.00     0.167 HD
ENDBRANCH  39  41
ENDBRANCH  38  39
ENDBRANCH  31  38
BRANCH  27  43
ATOM     43  C   UNK d   0      -7.959   8.143 -36.290  0.00  0.00     0.052 C 
BRANCH  43  44
ATOM     44  C   UNK d   0      -7.845   9.157 -35.198  0.00  0.00     0.115 C 
BRANCH  44  45
ATOM     45  C   UNK d   0      -8.384   8.519 -33.968  0.00  0.00     0.139 C 
ATOM     46  O   UNK d   0      -7.590   8.294 -33.022  0.00  0.00    -0.650 OA
BRANCH  45  47
ATOM     47  O   UNK d   0      -9.710   8.173 -33.826  0.00  0.00    -0.776 OA
ATOM     48  H   UNK d   0     -10.375   8.725 -33.260  0.00  0.00     0.167 HD
ENDBRANCH  45  47
ENDBRANCH  44  45
ENDBRANCH  43  44
ENDBRANCH  27  43
BRANCH  24  49
ATOM     49  C   UNK d   0      -4.460  12.328 -37.237  0.00  0.00     0.052 C 
BRANCH  49  50
ATOM     50  C   UNK d   0      -5.615  12.613 -36.311  0.00  0.00     0.115 C 
BRANCH  50  51
ATOM     51  C   UNK d   0      -6.933  12.754 -36.916  0.00  0.00     0.139 C 
ATOM     52  O   UNK d   0      -7.678  13.737 -36.693  0.00  0.00    -0.650 OA
BRANCH  51  53
ATOM     53  O   UNK d   0      -7.402  11.771 -37.774  0.00  0.00    -0.776 OA
ATOM     54  H   UNK d   0      -8.137  12.013 -38.417  0.00  0.00     0.167 HD
ENDBRANCH  51  53
ENDBRANCH  50  51
ENDBRANCH  49  50
ENDBRANCH  24  49
BRANCH  21  55
ATOM     55  C   UNK d   0      -1.661  12.540 -35.946  0.00  0.00     0.151 C 
BRANCH  55  56
ATOM     56  C   UNK d   0      -1.152  13.093 -37.211  0.00  0.00     0.143 C 
ATOM     57  O   UNK d   0      -0.804  14.283 -37.335  0.00  0.00    -0.650 OA
BRANCH  56  58
ATOM     58  O   UNK d   0      -1.060  12.234 -38.305  0.00  0.00    -0.776 OA
ATOM     59  H   UNK d   0      -0.181  12.310 -38.847  0.00  0.00     0.167 HD
ENDBRANCH  56  58
ENDBRANCH  55  56
ENDBRANCH  21  55
BRANCH  18  60
ATOM     60  C   UNK d   0       1.908   8.538 -35.707  0.00  0.00     0.151 C 
BRANCH  60  61
ATOM     61  C   UNK d   0       2.668   8.812 -34.478  0.00  0.00     0.143 C 
ATOM     62  O   UNK d   0       2.237   9.295 -33.430  0.00  0.00    -0.650 OA
BRANCH  61  63
ATOM     63  O   UNK d   0       4.042   8.475 -34.532  0.00  0.00    -0.776 OA
ATOM     64  H   UNK d   0       4.430   8.004 -35.330  0.00  0.00     0.167 HD
ENDBRANCH  61  63
ENDBRANCH  60  61
ENDBRANCH  18  60
BRANCH  14  65
ATOM     65  C   UNK d   0       2.058   5.559 -35.148  0.00  0.00     0.052 C 
BRANCH  65  66
ATOM     66  C   UNK d   0       2.656   5.549 -36.511  0.00  0.00     0.115 C 
BRANCH  66  67
ATOM     67  C   UNK d   0       1.828   5.266 -37.649  0.00  0.00     0.139 C 
ATOM     68  O   UNK d   0       1.059   4.236 -37.608  0.00  0.00    -0.650 OA
BRANCH  67  69
ATOM     69  O   UNK d   0       1.741   5.985 -38.841  0.00  0.00    -0.776 OA
ATOM     70  H   UNK d   0       1.733   5.422 -39.704  0.00  0.00     0.167 HD
ENDBRANCH  67  69
ENDBRANCH  66  67
ENDBRANCH  65  66
ENDBRANCH  14  65
ENDBRANCH   6   7
ENDBRANCH   5   6
ENDBRANCH   2   5
TORSDOF 28
ENDMDL
MODEL 3
REMARK VINA RESULT:      -7.6      1.330      1.755
REMARK  28 active torsions:
REMARK  status: ('A' for Active; 'I' for Inactive)
REMARK    1  A    between atoms: C_2  and  O_3 
REMARK    2  A    between atoms: C_2  and  C_4 
REMARK    3  A    between atoms: C_4  and  C_5 
REMARK    4  A    between atoms: C_5  and  C_6 
REMARK    5  A    between atoms: C_7  and  C_8 
REMARK    6  A    between atoms: C_8  and  C_9 
REMARK    7  A    between atoms: C_9  and  O_11 
REMARK    8  A    between atoms: C_28  and  C_29 
REMARK    9  A    between atoms: C_29  and  C_30 
REMARK   10  A    between atoms: C_30  and  O_32 
REMARK   11  A    between atoms: C_33  and  C_34 
REMARK   12  A    between atoms: C_34  and  C_35 
REMARK   13  A    between atoms: C_35  and  C_36 
REMARK   14  A    between atoms: C_36  and  O_38 
REMARK   15  A    between atoms: C_39  and  C_40 
REMARK   16  A    between atoms: C_40  and  C_41 
REMARK   17  A    between atoms: C_41  and  C_42 
REMARK   18  A    between atoms: C_42  and  O_44 
REMARK   19  A    between atoms: C_45  and  C_46 
REMARK   20  A    between atoms: C_46  and  C_47 
REMARK   21  A    between atoms: C_47  and  O_49 
REMARK   22  A    between atoms: C_50  and  C_51 
REMARK   23  A    between atoms: C_51  and  C_52 
REMARK   24  A    between atoms: C_52  and  O_54 
REMARK   25  A    between atoms: C_55  and  C_56 
REMARK   26  A    between atoms: C_56  and  C_57 
REMARK   27  A    between atoms: C_57  and  C_58 
REMARK   28  A    between atoms: C_58  and  O_60 
ROOT
ATOM      1  O   UNK d   0       3.521   8.127 -34.064  0.00  0.00    -0.650 OA
ATOM      2  C   UNK d   0       2.776   8.567 -33.159  0.00  0.00     0.139 C 
ENDROOT
BRANCH   2   3
ATOM      3  O   UNK d   0       3.262   8.670 -31.878  0.00  0.00    -0.776 OA
ATOM      4  H   UNK d   0       3.997   8.045 -31.541  0.00  0.00     0.167 HD
ENDBRANCH   2   3
BRANCH   2   5
ATOM      5  C   UNK d   0       1.377   8.974 -33.473  0.00  0.00     0.115 C 
BRANCH   5   6
ATOM      6  C   UNK d   0       1.180   9.042 -34.963  0.00  0.00     0.052 C 
BRANCH   6   7
ATOM      7  C   UNK d   0       0.003   8.221 -35.432  0.00  0.00    -0.020 A 
ATOM      8  C   UNK d   0       0.000   6.963 -35.792  0.00  0.00    -0.011 A 
ATOM      9  C   UNK d   0      -1.358   6.612 -36.172  0.00  0.00     0.067 A 
ATOM     10  C   UNK d   0      -2.018   5.456 -36.616  0.00  0.00     0.062 C 
ATOM     11  N   UNK d   0      -2.116   7.718 -36.018  0.00  0.00    -0.248 NA
ATOM     12  C   UNK d   0      -3.399   5.235 -36.667  0.00  0.00     0.041 A 
ATOM     13  N   UNK d   0      -4.410   6.032 -37.064  0.00  0.00    -0.355 N 
ATOM     14  C   UNK d   0      -3.912   4.015 -36.191  0.00  0.00    -0.022 A 
ATOM     15  C   UNK d   0      -5.551   5.352 -36.844  0.00  0.00     0.042 A 
ATOM     16  H   UNK d   0      -4.318   7.047 -37.509  0.00  0.00     0.166 HD
ATOM     17  C   UNK d   0      -6.891   5.716 -37.079  0.00  0.00     0.062 C 
ATOM     18  C   UNK d   0      -5.279   4.083 -36.296  0.00  0.00    -0.013 A 
ATOM     19  C   UNK d   0      -7.524   6.902 -36.803  0.00  0.00     0.067 A 
ATOM     20  N   UNK d   0      -6.751   7.931 -36.446  0.00  0.00    -0.248 NA
ATOM     21  C   UNK d   0      -8.899   7.371 -36.779  0.00  0.00    -0.011 A 
ATOM     22  C   UNK d   0      -7.521   9.038 -36.189  0.00  0.00     0.066 A 
ATOM     23  C   UNK d   0      -6.840  10.196 -35.842  0.00  0.00     0.062 C 
ATOM     24  C   UNK d   0      -8.891   8.621 -36.414  0.00  0.00    -0.020 A 
ATOM     25  C   UNK d   0      -5.452  10.400 -35.809  0.00  0.00     0.041 A 
ATOM     26  N   UNK d   0      -4.448   9.614 -35.401  0.00  0.00    -0.355 N 
ATOM     27  C   UNK d   0      -4.938  11.623 -36.292  0.00  0.00    -0.022 A 
ATOM     28  C   UNK d   0      -3.310  10.294 -35.611  0.00  0.00     0.042 A 
ATOM     29  H   UNK d   0      -4.543   8.598 -34.944  0.00  0.00     0.166 HD
ATOM     30  C   UNK d   0      -1.970   9.947 -35.374  0.00  0.00     0.062 C 
ATOM     31  C   UNK d   0      -3.583  11.564 -36.171  0.00  0.00    -0.013 A 
ATOM     32  C   UNK d   0      -1.356   8.721 -35.575  0.00  0.00     0.066 A 
BRANCH   8  33
ATOM     33  C   UNK d   0       1.157   6.048 -35.821  0.00  0.00     0.151 C 
BRANCH  33  34
ATOM     34  C   UNK d   0       1.746   5.916 -37.166  0.00  0.00     0.143 C 
ATOM     35  O   UNK d   0       2.530   6.770 -37.604  0.00  0.00    -0.650 OA
BRANCH  34  36
ATOM     36  O   UNK d   0       1.418   4.829 -37.943  0.00  0.00    -0.776 OA
ATOM     37  H   UNK d   0       0.805   4.083 -37.587  0.00  0.00     0.167 HD
ENDBRANCH  34  36
ENDBRANCH  33  34
ENDBRANCH   8  33
BRANCH  31  38
ATOM     38  C   UNK d   0      -2.605  12.642 -36.574  0.00  0.00     0.151 C 
BRANCH  38  39
ATOM     39  C   UNK d   0      -2.096  12.465 -37.918  0.00  0.00     0.143 C 
ATOM     40  O   UNK d   0      -2.728  11.846 -38.792  0.00  0.00    -0.650 OA
BRANCH  39  41
ATOM     41  O   UNK d   0      -0.855  13.003 -38.259  0.00  0.00    -0.776 OA
ATOM     42  H   UNK d   0      -0.688  13.183 -39.254  0.00  0.00     0.167 HD
ENDBRANCH  39  41
ENDBRANCH  38  39
ENDBRANCH  31  38
BRANCH  27  43
ATOM     43  C   UNK d   0      -5.671  12.818 -36.848  0.00  0.00     0.052 C 
BRANCH  43  44
ATOM     44  C   UNK d   0      -6.587  13.463 -35.858  0.00  0.00     0.115 C 
BRANCH  44  45
ATOM     45  C   UNK d   0      -7.931  13.509 -36.491  0.00  0.00     0.139 C 
ATOM     46  O   UNK d   0      -8.935  13.586 -35.741  0.00  0.00    -0.650 OA
BRANCH  45  47
ATOM     47  O   UNK d   0      -8.116  13.476 -37.856  0.00  0.00    -0.776 OA
ATOM     48  H   UNK d   0      -7.445  13.029 -38.502  0.00  0.00     0.167 HD
ENDBRANCH  45  47
ENDBRANCH  44  45
ENDBRANCH  43  44
ENDBRANCH  27  43
BRANCH  24  49
ATOM     49  C   UNK d   0     -10.068   9.498 -36.295  0.00  0.00     0.052 C 
BRANCH  49  50
ATOM     50  C   UNK d   0     -10.093  10.498 -37.423  0.00  0.00     0.115 C 
BRANCH  50  51
ATOM     51  C   UNK d   0     -11.247  11.385 -37.499  0.00  0.00     0.139 C 
ATOM     52  O   UNK d   0     -12.426  10.970 -37.402  0.00  0.00    -0.650 OA
BRANCH  51  53
ATOM     53  O   UNK d   0     -11.055  12.744 -37.691  0.00  0.00    -0.776 OA
ATOM     54  H   UNK d   0     -11.745  13.252 -38.216  0.00  0.00     0.167 HD
ENDBRANCH  51  53
ENDBRANCH  50  51
ENDBRANCH  49  50
ENDBRANCH  24  49
BRANCH  21  55
ATOM     55  C   UNK d   0     -10.077   6.523 -37.126  0.00  0.00     0.151 C 
BRANCH  55  56
ATOM     56  C   UNK d   0     -10.389   6.574 -38.563  0.00  0.00     0.143 C 
ATOM     57  O   UNK d   0      -9.839   5.830 -39.399  0.00  0.00    -0.650 OA
BRANCH  56  58
ATOM     58  O   UNK d   0     -11.341   7.498 -38.989  0.00  0.00    -0.776 OA
ATOM     59  H   UNK d   0     -11.278   7.760 -39.989  0.00  0.00     0.167 HD
ENDBRANCH  56  58
ENDBRANCH  55  56
ENDBRANCH  21  55
BRANCH  18  60
ATOM     60  C   UNK d   0      -6.233   2.988 -35.888  0.00  0.00     0.151 C 
BRANCH  60  61
ATOM     61  C   UNK d   0      -6.539   3.228 -34.469  0.00  0.00     0.143 C 
ATOM     62  O   UNK d   0      -5.958   2.752 -33.494  0.00  0.00    -0.650 OA
BRANCH  61  63
ATOM     63  O   UNK d   0      -7.624   4.104 -34.227  0.00  0.00    -0.776 OA
ATOM     64  H   UNK d   0      -7.521   4.903 -33.627  0.00  0.00     0.167 HD
ENDBRANCH  61  63
ENDBRANCH  60  61
ENDBRANCH  18  60
BRANCH  14  65
ATOM     65  C   UNK d   0      -3.210   2.766 -35.740  0.00  0.00     0.052 C 
BRANCH  65  66
ATOM     66  C   UNK d   0      -2.690   2.860 -34.349  0.00  0.00     0.115 C 
BRANCH  66  67
ATOM     67  C   UNK d   0      -1.305   3.165 -34.127  0.00  0.00     0.139 C 
ATOM     68  O   UNK d   0      -0.454   2.857 -35.040  0.00  0.00    -0.650 OA
BRANCH  67  69
ATOM     69  O   UNK d   0      -0.734   3.774 -33.009  0.00  0.00    -0.776 OA
ATOM     70  H   UNK d   0      -1.111   3.479 -32.097  0.00  0.00     0.167 HD
ENDBRANCH  67  69
ENDBRANCH  66  67
ENDBRANCH  65  66
ENDBRANCH  14  65
ENDBRANCH   6   7
ENDBRANCH   5   6
ENDBRANCH   2   5
TORSDOF 28
ENDMDL
MODEL 4
REMARK VINA RESULT:      -7.6      1.567      2.040
REMARK  28 active torsions:
REMARK  status: ('A' for Active; 'I' for Inactive)
REMARK    1  A    between atoms: C_2  and  O_3 
REMARK    2  A    between atoms: C_2  and  C_4 
REMARK    3  A    between atoms: C_4  and  C_5 
REMARK    4  A    between atoms: C_5  and  C_6 
REMARK    5  A    between atoms: C_7  and  C_8 
REMARK    6  A    between atoms: C_8  and  C_9 
REMARK    7  A    between atoms: C_9  and  O_11 
REMARK    8  A    between atoms: C_28  and  C_29 
REMARK    9  A    between atoms: C_29  and  C_30 
REMARK   10  A    between atoms: C_30  and  O_32 
REMARK   11  A    between atoms: C_33  and  C_34 
REMARK   12  A    between atoms: C_34  and  C_35 
REMARK   13  A    between atoms: C_35  and  C_36 
REMARK   14  A    between atoms: C_36  and  O_38 
REMARK   15  A    between atoms: C_39  and  C_40 
REMARK   16  A    between atoms: C_40  and  C_41 
REMARK   17  A    between atoms: C_41  and  C_42 
REMARK   18  A    between atoms: C_42  and  O_44 
REMARK   19  A    between atoms: C_45  and  C_46 
REMARK   20  A    between atoms: C_46  and  C_47 
REMARK   21  A    between atoms: C_47  and  O_49 
REMARK   22  A    between atoms: C_50  and  C_51 
REMARK   23  A    between atoms: C_51  and  C_52 
REMARK   24  A    between atoms: C_52  and  O_54 
REMARK   25  A    between atoms: C_55  and  C_56 
REMARK   26  A    between atoms: C_56  and  C_57 
REMARK   27  A    between atoms: C_57  and  C_58 
REMARK   28  A    between atoms: C_58  and  O_60 
ROOT
ATOM      1  O   UNK d   0       3.174   8.612 -32.068  0.00  0.00    -0.650 OA
ATOM      2  C   UNK d   0       2.754   8.934 -33.201  0.00  0.00     0.139 C 
ENDROOT
BRANCH   2   3
ATOM      3  O   UNK d   0       3.653   9.290 -34.177  0.00  0.00    -0.776 OA
ATOM      4  H   UNK d   0       3.813  10.271 -34.415  0.00  0.00     0.167 HD
ENDBRANCH   2   3
BRANCH   2   5
ATOM      5  C   UNK d   0       1.291   8.930 -33.486  0.00  0.00     0.115 C 
BRANCH   5   6
ATOM      6  C   UNK d   0       1.050   9.105 -34.961  0.00  0.00     0.052 C 
BRANCH   6   7
ATOM      7  C   UNK d   0      -0.091   8.257 -35.468  0.00  0.00    -0.020 A 
ATOM      8  C   UNK d   0      -0.041   7.018 -35.887  0.00  0.00    -0.011 A 
ATOM      9  C   UNK d   0      -1.383   6.627 -36.284  0.00  0.00     0.067 A 
ATOM     10  C   UNK d   0      -1.994   5.466 -36.782  0.00  0.00     0.062 C 
ATOM     11  N   UNK d   0      -2.187   7.692 -36.079  0.00  0.00    -0.248 NA
ATOM     12  C   UNK d   0      -3.364   5.189 -36.845  0.00  0.00     0.041 A 
ATOM     13  N   UNK d   0      -4.408   5.960 -37.206  0.00  0.00    -0.355 N 
ATOM     14  C   UNK d   0      -3.823   3.928 -36.426  0.00  0.00    -0.022 A 
ATOM     15  C   UNK d   0      -5.518   5.222 -37.018  0.00  0.00     0.042 A 
ATOM     16  H   UNK d   0      -4.359   6.997 -37.603  0.00  0.00     0.166 HD
ATOM     17  C   UNK d   0      -6.874   5.539 -37.238  0.00  0.00     0.062 C 
ATOM     18  C   UNK d   0      -5.192   3.942 -36.530  0.00  0.00    -0.013 A 
ATOM     19  C   UNK d   0      -7.556   6.682 -36.908  0.00  0.00     0.067 A 
ATOM     20  N   UNK d   0      -6.827   7.726 -36.503  0.00  0.00    -0.248 NA
ATOM     21  C   UNK d   0      -8.950   7.091 -36.864  0.00  0.00    -0.011 A 
ATOM     22  C   UNK d   0      -7.644   8.786 -36.195  0.00  0.00     0.066 A 
ATOM     23  C   UNK d   0      -7.013   9.954 -35.794  0.00  0.00     0.062 C 
ATOM     24  C   UNK d   0      -8.995   8.321 -36.441  0.00  0.00    -0.020 A 
ATOM     25  C   UNK d   0      -5.635  10.216 -35.750  0.00  0.00     0.041 A 
ATOM     26  N   UNK d   0      -4.598   9.455 -35.378  0.00  0.00    -0.355 N 
ATOM     27  C   UNK d   0      -5.174  11.481 -36.175  0.00  0.00    -0.022 A 
ATOM     28  C   UNK d   0      -3.490  10.192 -35.555  0.00  0.00     0.042 A 
ATOM     29  H   UNK d   0      -4.649   8.416 -34.969  0.00  0.00     0.166 HD
ATOM     30  C   UNK d   0      -2.137   9.892 -35.332  0.00  0.00     0.062 C 
ATOM     31  C   UNK d   0      -3.818  11.474 -36.056  0.00  0.00    -0.013 A 
ATOM     32  C   UNK d   0      -1.471   8.704 -35.589  0.00  0.00     0.066 A 
BRANCH   8  33
ATOM     33  C   UNK d   0       1.154   6.156 -35.957  0.00  0.00     0.151 C 
BRANCH  33  34
ATOM     34  C   UNK d   0       1.822   6.213 -37.270  0.00  0.00     0.143 C 
ATOM     35  O   UNK d   0       2.690   7.065 -37.506  0.00  0.00    -0.650 OA
BRANCH  34  36
ATOM     36  O   UNK d   0       1.474   5.306 -38.244  0.00  0.00    -0.776 OA
ATOM     37  H   UNK d   0       0.638   4.714 -38.149  0.00  0.00     0.167 HD
ENDBRANCH  34  36
ENDBRANCH  33  34
ENDBRANCH   8  33
BRANCH  31  38
ATOM     38  C   UNK d   0      -2.887  12.611 -36.407  0.00  0.00     0.151 C 
BRANCH  38  39
ATOM     39  C   UNK d   0      -2.114  12.354 -37.603  0.00  0.00     0.143 C 
ATOM     40  O   UNK d   0      -2.646  12.092 -38.696  0.00  0.00    -0.650 OA
BRANCH  39  41
ATOM     41  O   UNK d   0      -0.721  12.399 -37.543  0.00  0.00    -0.776 OA
ATOM     42  H   UNK d   0      -0.285  12.051 -36.684  0.00  0.00     0.167 HD
ENDBRANCH  39  41
ENDBRANCH  38  39
ENDBRANCH  31  38
BRANCH  27  43
ATOM     43  C   UNK d   0      -5.958  12.668 -36.676  0.00  0.00     0.052 C 
BRANCH  43  44
ATOM     44  C   UNK d   0      -6.511  13.517 -35.578  0.00  0.00     0.115 C 
BRANCH  44  45
ATOM     45  C   UNK d   0      -7.964  13.669 -35.849  0.00  0.00     0.139 C 
ATOM     46  O   UNK d   0      -8.321  13.952 -37.020  0.00  0.00    -0.650 OA
BRANCH  45  47
ATOM     47  O   UNK d   0      -8.927  13.508 -34.877  0.00  0.00    -0.776 OA
ATOM     48  H   UNK d   0      -9.308  12.585 -34.613  0.00  0.00     0.167 HD
ENDBRANCH  45  47
ENDBRANCH  44  45
ENDBRANCH  43  44
ENDBRANCH  27  43
BRANCH  24  49
ATOM     49  C   UNK d   0     -10.208   9.141 -36.283  0.00  0.00     0.052 C 
BRANCH  49  50
ATOM     50  C   UNK d   0     -10.283  10.183 -37.369  0.00  0.00     0.115 C 
BRANCH  50  51
ATOM     51  C   UNK d   0     -10.748  11.510 -36.987  0.00  0.00     0.139 C 
ATOM     52  O   UNK d   0     -11.089  11.795 -35.815  0.00  0.00    -0.650 OA
BRANCH  51  53
ATOM     53  O   UNK d   0     -10.827  12.511 -37.943  0.00  0.00    -0.776 OA
ATOM     54  H   UNK d   0     -11.143  13.420 -37.654  0.00  0.00     0.167 HD
ENDBRANCH  51  53
ENDBRANCH  50  51
ENDBRANCH  49  50
ENDBRANCH  24  49
BRANCH  21  55
ATOM     55  C   UNK d   0     -10.091   6.210 -37.252  0.00  0.00     0.151 C 
BRANCH  55  56
ATOM     56  C   UNK d   0     -10.272   6.152 -38.710  0.00  0.00     0.143 C 
ATOM     57  O   UNK d   0     -10.845   7.051 -39.356  0.00  0.00    -0.650 OA
BRANCH  56  58
ATOM     58  O   UNK d   0      -9.774   5.037 -39.382  0.00  0.00    -0.776 OA
ATOM     59  H   UNK d   0      -9.735   4.169 -38.818  0.00  0.00     0.167 HD
ENDBRANCH  56  58
ENDBRANCH  55  56
ENDBRANCH  21  55
BRANCH  18  60
ATOM     60  C   UNK d   0      -6.098   2.789 -36.174  0.00  0.00     0.151 C 
BRANCH  60  61
ATOM     61  C   UNK d   0      -6.447   2.973 -34.757  0.00  0.00     0.143 C 
ATOM     62  O   UNK d   0      -5.776   2.645 -33.779  0.00  0.00    -0.650 OA
BRANCH  61  63
ATOM     63  O   UNK d   0      -7.696   3.598 -34.521  0.00  0.00    -0.776 OA
ATOM     64  H   UNK d   0      -8.408   3.144 -33.978  0.00  0.00     0.167 HD
ENDBRANCH  61  63
ENDBRANCH  60  61
ENDBRANCH  18  60
BRANCH  14  65
ATOM     65  C   UNK d   0      -3.068   2.690 -36.033  0.00  0.00     0.052 C 
BRANCH  65  66
ATOM     66  C   UNK d   0      -2.967   1.695 -37.135  0.00  0.00     0.115 C 
BRANCH  66  67
ATOM     67  C   UNK d   0      -2.738   2.144 -38.480  0.00  0.00     0.139 C 
ATOM     68  O   UNK d   0      -1.553   2.518 -38.809  0.00  0.00    -0.650 OA
BRANCH  67  69
ATOM     69  O   UNK d   0      -3.665   2.233 -39.518  0.00  0.00    -0.776 OA
ATOM     70  H   UNK d   0      -3.995   3.183 -39.743  0.00  0.00     0.167 HD
ENDBRANCH  67  69
ENDBRANCH  66  67
ENDBRANCH  65  66
ENDBRANCH  14  65
ENDBRANCH   6   7
ENDBRANCH   5   6
ENDBRANCH   2   5
TORSDOF 28
ENDMDL
MODEL 5
REMARK VINA RESULT:      -7.6      1.638      2.006
REMARK  28 active torsions:
REMARK  status: ('A' for Active; 'I' for Inactive)
REMARK    1  A    between atoms: C_2  and  O_3 
REMARK    2  A    between atoms: C_2  and  C_4 
REMARK    3  A    between atoms: C_4  and  C_5 
REMARK    4  A    between atoms: C_5  and  C_6 
REMARK    5  A    between atoms: C_7  and  C_8 
REMARK    6  A    between atoms: C_8  and  C_9 
REMARK    7  A    between atoms: C_9  and  O_11 
REMARK    8  A    between atoms: C_28  and  C_29 
REMARK    9  A    between atoms: C_29  and  C_30 
REMARK   10  A    between atoms: C_30  and  O_32 
REMARK   11  A    between atoms: C_33  and  C_34 
REMARK   12  A    between atoms: C_34  and  C_35 
REMARK   13  A    between atoms: C_35  and  C_36 
REMARK   14  A    between atoms: C_36  and  O_38 
REMARK   15  A    between atoms: C_39  and  C_40 
REMARK   16  A    between atoms: C_40  and  C_41 
REMARK   17  A    between atoms: C_41  and  C_42 
REMARK   18  A    between atoms: C_42  and  O_44 
REMARK   19  A    between atoms: C_45  and  C_46 
REMARK   20  A    between atoms: C_46  and  C_47 
REMARK   21  A    between atoms: C_47  and  O_49 
REMARK   22  A    between atoms: C_50  and  C_51 
REMARK   23  A    between atoms: C_51  and  C_52 
REMARK   24  A    between atoms: C_52  and  O_54 
REMARK   25  A    between atoms: C_55  and  C_56 
REMARK   26  A    between atoms: C_56  and  C_57 
REMARK   27  A    between atoms: C_57  and  C_58 
REMARK   28  A    between atoms: C_58  and  O_60 
ROOT
ATOM      1  O   UNK d   0       1.228   8.618 -31.850  0.00  0.00    -0.650 OA
ATOM      2  C   UNK d   0       1.731   9.444 -32.643  0.00  0.00     0.139 C 
ENDROOT
BRANCH   2   3
ATOM      3  O   UNK d   0       1.382  10.770 -32.545  0.00  0.00    -0.776 OA
ATOM      4  H   UNK d   0       0.826  11.224 -33.272  0.00  0.00     0.167 HD
ENDBRANCH   2   3
BRANCH   2   5
ATOM      5  C   UNK d   0       2.696   8.990 -33.684  0.00  0.00     0.115 C 
BRANCH   5   6
ATOM      6  C   UNK d   0       2.114   9.197 -35.056  0.00  0.00     0.052 C 
BRANCH   6   7
ATOM      7  C   UNK d   0       0.961   8.265 -35.344  0.00  0.00    -0.020 A 
ATOM      8  C   UNK d   0       1.010   6.975 -35.555  0.00  0.00    -0.011 A 
ATOM      9  C   UNK d   0      -0.346   6.511 -35.797  0.00  0.00     0.067 A 
ATOM     10  C   UNK d   0      -0.963   5.278 -36.058  0.00  0.00     0.062 C 
ATOM     11  N   UNK d   0      -1.157   7.587 -35.719  0.00  0.00    -0.248 NA
ATOM     12  C   UNK d   0      -2.328   4.982 -35.987  0.00  0.00     0.041 A 
ATOM     13  N   UNK d   0      -3.408   5.672 -36.402  0.00  0.00    -0.355 N 
ATOM     14  C   UNK d   0      -2.736   3.802 -35.338  0.00  0.00    -0.022 A 
ATOM     15  C   UNK d   0      -4.490   4.965 -36.026  0.00  0.00     0.042 A 
ATOM     16  H   UNK d   0      -3.404   6.631 -36.966  0.00  0.00     0.166 HD
ATOM     17  C   UNK d   0      -5.862   5.229 -36.207  0.00  0.00     0.062 C 
ATOM     18  C   UNK d   0      -4.109   3.786 -35.356  0.00  0.00    -0.013 A 
ATOM     19  C   UNK d   0      -6.545   6.404 -36.027  0.00  0.00     0.067 A 
ATOM     20  N   UNK d   0      -5.814   7.507 -35.846  0.00  0.00    -0.248 NA
ATOM     21  C   UNK d   0      -7.942   6.802 -35.961  0.00  0.00    -0.011 A 
ATOM     22  C   UNK d   0      -6.631   8.596 -35.665  0.00  0.00     0.066 A 
ATOM     23  C   UNK d   0      -6.000   9.820 -35.502  0.00  0.00     0.062 C 
ATOM     24  C   UNK d   0      -7.985   8.085 -35.745  0.00  0.00    -0.020 A 
ATOM     25  C   UNK d   0      -4.627  10.099 -35.589  0.00  0.00     0.041 A 
ATOM     26  N   UNK d   0      -3.555   9.420 -35.164  0.00  0.00    -0.355 N 
ATOM     27  C   UNK d   0      -4.218  11.281 -36.244  0.00  0.00    -0.022 A 
ATOM     28  C   UNK d   0      -2.474  10.128 -35.530  0.00  0.00     0.042 A 
ATOM     29  H   UNK d   0      -3.560   8.462 -34.588  0.00  0.00     0.166 HD
ATOM     30  C   UNK d   0      -1.104   9.881 -35.348  0.00  0.00     0.062 C 
ATOM     31  C   UNK d   0      -2.858  11.307 -36.212  0.00  0.00    -0.013 A 
ATOM     32  C   UNK d   0      -0.432   8.674 -35.448  0.00  0.00     0.066 A 
BRANCH   8  33
ATOM     33  C   UNK d   0       2.215   6.125 -35.559  0.00  0.00     0.151 C 
BRANCH  33  34
ATOM     34  C   UNK d   0       2.502   5.547 -36.885  0.00  0.00     0.143 C 
ATOM     35  O   UNK d   0       2.811   4.354 -37.006  0.00  0.00    -0.650 OA
BRANCH  34  36
ATOM     36  O   UNK d   0       2.425   6.348 -38.001  0.00  0.00    -0.776 OA
ATOM     37  H   UNK d   0       1.995   6.010 -38.872  0.00  0.00     0.167 HD
ENDBRANCH  34  36
ENDBRANCH  33  34
ENDBRANCH   8  33
BRANCH  31  38
ATOM     38  C   UNK d   0      -1.973  12.378 -36.804  0.00  0.00     0.151 C 
BRANCH  38  39
ATOM     39  C   UNK d   0      -1.802  13.515 -35.924  0.00  0.00     0.143 C 
ATOM     40  O   UNK d   0      -2.456  13.649 -34.876  0.00  0.00    -0.650 OA
BRANCH  39  41
ATOM     41  O   UNK d   0      -0.873  14.503 -36.252  0.00  0.00    -0.776 OA
ATOM     42  H   UNK d   0      -0.230  14.795 -35.510  0.00  0.00     0.167 HD
ENDBRANCH  39  41
ENDBRANCH  38  39
ENDBRANCH  31  38
BRANCH  27  43
ATOM     43  C   UNK d   0      -5.055  12.361 -36.882  0.00  0.00     0.052 C 
BRANCH  43  44
ATOM     44  C   UNK d   0      -5.826  13.173 -35.893  0.00  0.00     0.115 C 
BRANCH  44  45
ATOM     45  C   UNK d   0      -7.134  13.484 -36.526  0.00  0.00     0.139 C 
ATOM     46  O   UNK d   0      -7.335  13.081 -37.698  0.00  0.00    -0.650 OA
BRANCH  45  47
ATOM     47  O   UNK d   0      -8.129  14.185 -35.880  0.00  0.00    -0.776 OA
ATOM     48  H   UNK d   0      -9.124  13.913 -35.921  0.00  0.00     0.167 HD
ENDBRANCH  45  47
ENDBRANCH  44  45
ENDBRANCH  43  44
ENDBRANCH  27  43
BRANCH  24  49
ATOM     49  C   UNK d   0      -9.203   8.908 -35.646  0.00  0.00     0.052 C 
BRANCH  49  50
ATOM     50  C   UNK d   0      -9.049  10.171 -36.454  0.00  0.00     0.115 C 
BRANCH  50  51
ATOM     51  C   UNK d   0      -9.939  11.278 -36.133  0.00  0.00     0.139 C 
ATOM     52  O   UNK d   0      -9.890  11.889 -35.039  0.00  0.00    -0.650 OA
BRANCH  51  53
ATOM     53  O   UNK d   0     -10.886  11.688 -37.058  0.00  0.00    -0.776 OA
ATOM     54  H   UNK d   0     -10.654  12.451 -37.670  0.00  0.00     0.167 HD
ENDBRANCH  51  53
ENDBRANCH  50  51
ENDBRANCH  49  50
ENDBRANCH  24  49
BRANCH  21  55
ATOM     55  C   UNK d   0      -9.087   5.858 -36.126  0.00  0.00     0.151 C 
BRANCH  55  56
ATOM     56  C   UNK d   0      -9.476   5.235 -34.851  0.00  0.00     0.143 C 
ATOM     57  O   UNK d   0      -8.783   4.367 -34.286  0.00  0.00    -0.650 OA
BRANCH  56  58
ATOM     58  O   UNK d   0     -10.673   5.645 -34.267  0.00  0.00    -0.776 OA
ATOM     59  H   UNK d   0     -10.649   6.589 -33.840  0.00  0.00     0.167 HD
ENDBRANCH  56  58
ENDBRANCH  55  56
ENDBRANCH  21  55
BRANCH  18  60
ATOM     60  C   UNK d   0      -4.968   2.700 -34.758  0.00  0.00     0.151 C 
BRANCH  60  61
ATOM     61  C   UNK d   0      -5.102   3.029 -33.331  0.00  0.00     0.143 C 
ATOM     62  O   UNK d   0      -5.288   4.144 -32.841  0.00  0.00    -0.650 OA
BRANCH  61  63
ATOM     63  O   UNK d   0      -5.003   1.929 -32.447  0.00  0.00    -0.776 OA
ATOM     64  H   UNK d   0      -4.577   1.066 -32.738  0.00  0.00     0.167 HD
ENDBRANCH  61  63
ENDBRANCH  60  61
ENDBRANCH  18  60
BRANCH  14  65
ATOM     65  C   UNK d   0      -1.934   2.653 -34.796  0.00  0.00     0.052 C 
BRANCH  65  66
ATOM     66  C   UNK d   0      -1.204   2.993 -33.546  0.00  0.00     0.115 C 
BRANCH  66  67
ATOM     67  C   UNK d   0       0.207   3.255 -33.594  0.00  0.00     0.139 C 
ATOM     68  O   UNK d   0       0.911   2.660 -34.491  0.00  0.00    -0.650 OA
BRANCH  67  69
ATOM     69  O   UNK d   0       0.947   4.099 -32.768  0.00  0.00    -0.776 OA
ATOM     70  H   UNK d   0       0.752   4.023 -31.759  0.00  0.00     0.167 HD
ENDBRANCH  67  69
ENDBRANCH  66  67
ENDBRANCH  65  66
ENDBRANCH  14  65
ENDBRANCH   6   7
ENDBRANCH   5   6
ENDBRANCH   2   5
TORSDOF 28
ENDMDL
MODEL 6
REMARK VINA RESULT:      -7.5      1.616      7.156
REMARK  28 active torsions:
REMARK  status: ('A' for Active; 'I' for Inactive)
REMARK    1  A    between atoms: C_2  and  O_3 
REMARK    2  A    between atoms: C_2  and  C_4 
REMARK    3  A    between atoms: C_4  and  C_5 
REMARK    4  A    between atoms: C_5  and  C_6 
REMARK    5  A    between atoms: C_7  and  C_8 
REMARK    6  A    between atoms: C_8  and  C_9 
REMARK    7  A    between atoms: C_9  and  O_11 
REMARK    8  A    between atoms: C_28  and  C_29 
REMARK    9  A    between atoms: C_29  and  C_30 
REMARK   10  A    between atoms: C_30  and  O_32 
REMARK   11  A    between atoms: C_33  and  C_34 
REMARK   12  A    between atoms: C_34  and  C_35 
REMARK   13  A    between atoms: C_35  and  C_36 
REMARK   14  A    between atoms: C_36  and  O_38 
REMARK   15  A    between atoms: C_39  and  C_40 
REMARK   16  A    between atoms: C_40  and  C_41 
REMARK   17  A    between atoms: C_41  and  C_42 
REMARK   18  A    between atoms: C_42  and  O_44 
REMARK   19  A    between atoms: C_45  and  C_46 
REMARK   20  A    between atoms: C_46  and  C_47 
REMARK   21  A    between atoms: C_47  and  O_49 
REMARK   22  A    between atoms: C_50  and  C_51 
REMARK   23  A    between atoms: C_51  and  C_52 
REMARK   24  A    between atoms: C_52  and  O_54 
REMARK   25  A    between atoms: C_55  and  C_56 
REMARK   26  A    between atoms: C_56  and  C_57 
REMARK   27  A    between atoms: C_57  and  C_58 
REMARK   28  A    between atoms: C_58  and  O_60 
ROOT
ATOM      1  O   UNK d   0       2.730   6.849 -37.520  0.00  0.00    -0.650 OA
ATOM      2  C   UNK d   0       1.830   6.081 -37.927  0.00  0.00     0.139 C 
ENDROOT
BRANCH   2   3
ATOM      3  O   UNK d   0       1.500   6.077 -39.260  0.00  0.00    -0.776 OA
ATOM      4  H   UNK d   0       0.734   6.653 -39.616  0.00  0.00     0.167 HD
ENDBRANCH   2   3
BRANCH   2   5
ATOM      5  C   UNK d   0       1.125   5.181 -36.970  0.00  0.00     0.115 C 
BRANCH   5   6
ATOM      6  C   UNK d   0       1.011   5.843 -35.624  0.00  0.00     0.052 C 
BRANCH   6   7
ATOM      7  C   UNK d   0      -0.131   6.828 -35.556  0.00  0.00    -0.020 A 
ATOM      8  C   UNK d   0      -0.064   8.114 -35.323  0.00  0.00    -0.011 A 
ATOM      9  C   UNK d   0      -1.418   8.642 -35.346  0.00  0.00     0.067 A 
ATOM     10  C   UNK d   0      -2.016   9.903 -35.196  0.00  0.00     0.062 C 
ATOM     11  N   UNK d   0      -2.247   7.607 -35.595  0.00  0.00    -0.248 NA
ATOM     12  C   UNK d   0      -3.326  10.265 -35.529  0.00  0.00     0.041 A 
ATOM     13  N   UNK d   0      -4.496   9.626 -35.343  0.00  0.00    -0.355 N 
ATOM     14  C   UNK d   0      -3.542  11.465 -36.231  0.00  0.00    -0.022 A 
ATOM     15  C   UNK d   0      -5.449  10.386 -35.915  0.00  0.00     0.042 A 
ATOM     16  H   UNK d   0      -4.649   8.667 -34.801  0.00  0.00     0.166 HD
ATOM     17  C   UNK d   0      -6.841  10.188 -36.009  0.00  0.00     0.062 C 
ATOM     18  C   UNK d   0      -4.889  11.547 -36.482  0.00  0.00    -0.013 A 
ATOM     19  C   UNK d   0      -7.530   9.048 -36.335  0.00  0.00     0.067 A 
ATOM     20  N   UNK d   0      -6.830   7.911 -36.383  0.00  0.00    -0.248 NA
ATOM     21  C   UNK d   0      -8.904   8.719 -36.678  0.00  0.00    -0.011 A 
ATOM     22  C   UNK d   0      -7.646   6.864 -36.734  0.00  0.00     0.066 A 
ATOM     23  C   UNK d   0      -7.052   5.611 -36.785  0.00  0.00     0.062 C 
ATOM     24  C   UNK d   0      -8.964   7.440 -36.915  0.00  0.00    -0.020 A 
ATOM     25  C   UNK d   0      -5.738   5.267 -36.434  0.00  0.00     0.041 A 
ATOM     26  N   UNK d   0      -4.573   5.894 -36.632  0.00  0.00    -0.355 N 
ATOM     27  C   UNK d   0      -5.522   4.064 -35.726  0.00  0.00    -0.022 A 
ATOM     28  C   UNK d   0      -3.619   5.134 -36.070  0.00  0.00     0.042 A 
ATOM     29  H   UNK d   0      -4.420   6.853 -37.186  0.00  0.00     0.166 HD
ATOM     30  C   UNK d   0      -2.230   5.314 -35.978  0.00  0.00     0.062 C 
ATOM     31  C   UNK d   0      -4.184   3.972 -35.491  0.00  0.00    -0.013 A 
ATOM     32  C   UNK d   0      -1.535   6.487 -35.732  0.00  0.00     0.066 A 
BRANCH   8  33
ATOM     33  C   UNK d   0       1.155   8.905 -35.073  0.00  0.00     0.151 C 
BRANCH  33  34
ATOM     34  C   UNK d   0       1.396   9.143 -33.638  0.00  0.00     0.143 C 
ATOM     35  O   UNK d   0       2.162   8.415 -32.992  0.00  0.00    -0.650 OA
BRANCH  34  36
ATOM     36  O   UNK d   0       0.759  10.189 -33.011  0.00  0.00    -0.776 OA
ATOM     37  H   UNK d   0       0.035  10.740 -33.492  0.00  0.00     0.167 HD
ENDBRANCH  34  36
ENDBRANCH  33  34
ENDBRANCH   8  33
BRANCH  31  38
ATOM     38  C   UNK d   0      -3.484   2.858 -34.751  0.00  0.00     0.151 C 
BRANCH  38  39
ATOM     39  C   UNK d   0      -3.138   3.216 -33.391  0.00  0.00     0.143 C 
ATOM     40  O   UNK d   0      -1.995   3.587 -33.071  0.00  0.00    -0.650 OA
BRANCH  39  41
ATOM     41  O   UNK d   0      -4.113   3.150 -32.396  0.00  0.00    -0.776 OA
ATOM     42  H   UNK d   0      -4.921   2.547 -32.580  0.00  0.00     0.167 HD
ENDBRANCH  39  41
ENDBRANCH  38  39
ENDBRANCH  31  38
BRANCH  27  43
ATOM     43  C   UNK d   0      -6.517   3.023 -35.278  0.00  0.00     0.052 C 
BRANCH  43  44
ATOM     44  C   UNK d   0      -7.153   3.341 -33.963  0.00  0.00     0.115 C 
BRANCH  44  45
ATOM     45  C   UNK d   0      -8.611   3.468 -34.216  0.00  0.00     0.139 C 
ATOM     46  O   UNK d   0      -9.154   2.635 -34.984  0.00  0.00    -0.650 OA
BRANCH  45  47
ATOM     47  O   UNK d   0      -9.386   4.452 -33.642  0.00  0.00    -0.776 OA
ATOM     48  H   UNK d   0     -10.401   4.345 -33.483  0.00  0.00     0.167 HD
ENDBRANCH  45  47
ENDBRANCH  44  45
ENDBRANCH  43  44
ENDBRANCH  27  43
BRANCH  24  49
ATOM     49  C   UNK d   0     -10.175   6.677 -37.260  0.00  0.00     0.052 C 
BRANCH  49  50
ATOM     50  C   UNK d   0     -10.331   6.590 -38.757  0.00  0.00     0.115 C 
BRANCH  50  51
ATOM     51  C   UNK d   0     -11.349   5.682 -39.268  0.00  0.00     0.139 C 
ATOM     52  O   UNK d   0     -11.930   4.840 -38.543  0.00  0.00    -0.650 OA
BRANCH  51  53
ATOM     53  O   UNK d   0     -11.702   5.731 -40.608  0.00  0.00    -0.776 OA
ATOM     54  H   UNK d   0     -12.674   5.637 -40.847  0.00  0.00     0.167 HD
ENDBRANCH  51  53
ENDBRANCH  50  51
ENDBRANCH  49  50
ENDBRANCH  24  49
BRANCH  21  55
ATOM     55  C   UNK d   0     -10.013   9.716 -36.729  0.00  0.00     0.151 C 
BRANCH  55  56
ATOM     56  C   UNK d   0     -10.325  10.263 -35.400  0.00  0.00     0.143 C 
ATOM     57  O   UNK d   0     -10.953   9.619 -34.535  0.00  0.00    -0.650 OA
BRANCH  56  58
ATOM     58  O   UNK d   0      -9.893  11.556 -35.112  0.00  0.00    -0.776 OA
ATOM     59  H   UNK d   0     -10.093  11.879 -34.148  0.00  0.00     0.167 HD
ENDBRANCH  56  58
ENDBRANCH  55  56
ENDBRANCH  21  55
BRANCH  18  60
ATOM     60  C   UNK d   0      -5.563  12.676 -37.223  0.00  0.00     0.151 C 
BRANCH  60  61
ATOM     61  C   UNK d   0      -6.500  13.284 -36.266  0.00  0.00     0.143 C 
ATOM     62  O   UNK d   0      -7.721  13.390 -36.389  0.00  0.00    -0.650 OA
BRANCH  61  63
ATOM     63  O   UNK d   0      -5.909  13.794 -35.086  0.00  0.00    -0.776 OA
ATOM     64  H   UNK d   0      -6.410  13.797 -34.215  0.00  0.00     0.167 HD
ENDBRANCH  61  63
ENDBRANCH  60  61
ENDBRANCH  18  60
BRANCH  14  65
ATOM     65  C   UNK d   0      -2.597  12.575 -36.591  0.00  0.00     0.052 C 
BRANCH  65  66
ATOM     66  C   UNK d   0      -2.522  13.636 -35.550  0.00  0.00     0.115 C 
BRANCH  66  67
ATOM     67  C   UNK d   0      -1.485  14.626 -35.617  0.00  0.00     0.139 C 
ATOM     68  O   UNK d   0      -0.956  15.036 -34.519  0.00  0.00    -0.650 OA
BRANCH  67  69
ATOM     69  O   UNK d   0      -0.953  15.230 -36.756  0.00  0.00    -0.776 OA
ATOM     70  H   UNK d   0      -1.552  15.933 -37.212  0.00  0.00     0.167 HD
ENDBRANCH  67  69
ENDBRANCH  66  67
ENDBRANCH  65  66
ENDBRANCH  14  65
ENDBRANCH   6   7
ENDBRANCH   5   6
ENDBRANCH   2   5
TORSDOF 28
ENDMDL
MODEL 7
REMARK VINA RESULT:      -7.5      2.073      8.002
REMARK  28 active torsions:
REMARK  status: ('A' for Active; 'I' for Inactive)
REMARK    1  A    between atoms: C_2  and  O_3 
REMARK    2  A    between atoms: C_2  and  C_4 
REMARK    3  A    between atoms: C_4  and  C_5 
REMARK    4  A    between atoms: C_5  and  C_6 
REMARK    5  A    between atoms: C_7  and  C_8 
REMARK    6  A    between atoms: C_8  and  C_9 
REMARK    7  A    between atoms: C_9  and  O_11 
REMARK    8  A    between atoms: C_28  and  C_29 
REMARK    9  A    between atoms: C_29  and  C_30 
REMARK   10  A    between atoms: C_30  and  O_32 
REMARK   11  A    between atoms: C_33  and  C_34 
REMARK   12  A    between atoms: C_34  and  C_35 
REMARK   13  A    between atoms: C_35  and  C_36 
REMARK   14  A    between atoms: C_36  and  O_38 
REMARK   15  A    between atoms: C_39  and  C_40 
REMARK   16  A    between atoms: C_40  and  C_41 
REMARK   17  A    between atoms: C_41  and  C_42 
REMARK   18  A    between atoms: C_42  and  O_44 
REMARK   19  A    between atoms: C_45  and  C_46 
REMARK   20  A    between atoms: C_46  and  C_47 
REMARK   21  A    between atoms: C_47  and  O_49 
REMARK   22  A    between atoms: C_50  and  C_51 
REMARK   23  A    between atoms: C_51  and  C_52 
REMARK   24  A    between atoms: C_52  and  O_54 
REMARK   25  A    between atoms: C_55  and  C_56 
REMARK   26  A    between atoms: C_56  and  C_57 
REMARK   27  A    between atoms: C_57  and  C_58 
REMARK   28  A    between atoms: C_58  and  O_60 
ROOT
ATOM      1  O   UNK d   0      -0.523  14.892 -37.151  0.00  0.00    -0.650 OA
ATOM      2  C   UNK d   0      -1.257  14.327 -36.311  0.00  0.00     0.139 C 
ENDROOT
BRANCH   2   3
ATOM      3  O   UNK d   0      -1.238  14.754 -35.005  0.00  0.00    -0.776 OA
ATOM      4  H   UNK d   0      -1.003  15.720 -34.769  0.00  0.00     0.167 HD
ENDBRANCH   2   3
BRANCH   2   5
ATOM      5  C   UNK d   0      -2.143  13.203 -36.727  0.00  0.00     0.115 C 
BRANCH   5   6
ATOM      6  C   UNK d   0      -3.239  13.006 -35.715  0.00  0.00     0.052 C 
BRANCH   6   7
ATOM      7  C   UNK d   0      -3.796  11.602 -35.727  0.00  0.00    -0.020 A 
ATOM      8  C   UNK d   0      -5.053  11.243 -35.775  0.00  0.00    -0.011 A 
ATOM      9  C   UNK d   0      -5.101   9.790 -35.756  0.00  0.00     0.067 A 
ATOM     10  C   UNK d   0      -6.104   8.809 -35.805  0.00  0.00     0.062 C 
ATOM     11  N   UNK d   0      -3.827   9.348 -35.690  0.00  0.00    -0.248 NA
ATOM     12  C   UNK d   0      -5.941   7.443 -36.058  0.00  0.00     0.041 A 
ATOM     13  N   UNK d   0      -5.025   6.562 -35.614  0.00  0.00    -0.355 N 
ATOM     14  C   UNK d   0      -6.811   6.811 -36.965  0.00  0.00    -0.022 A 
ATOM     15  C   UNK d   0      -5.286   5.389 -36.221  0.00  0.00     0.042 A 
ATOM     16  H   UNK d   0      -4.221   6.761 -34.871  0.00  0.00     0.166 HD
ATOM     17  C   UNK d   0      -4.638   4.142 -36.116  0.00  0.00     0.062 C 
ATOM     18  C   UNK d   0      -6.399   5.506 -37.076  0.00  0.00    -0.013 A 
ATOM     19  C   UNK d   0      -3.295   3.865 -36.119  0.00  0.00     0.067 A 
ATOM     20  N   UNK d   0      -2.463   4.904 -36.008  0.00  0.00    -0.248 NA
ATOM     21  C   UNK d   0      -2.475   2.670 -36.231  0.00  0.00    -0.011 A 
ATOM     22  C   UNK d   0      -1.158   4.475 -36.040  0.00  0.00     0.066 A 
ATOM     23  C   UNK d   0      -0.185   5.453 -35.896  0.00  0.00     0.062 C 
ATOM     24  C   UNK d   0      -1.226   3.035 -36.188  0.00  0.00    -0.020 A 
ATOM     25  C   UNK d   0      -0.369   6.818 -35.630  0.00  0.00     0.041 A 
ATOM     26  N   UNK d   0      -1.271   7.697 -36.083  0.00  0.00    -0.355 N 
ATOM     27  C   UNK d   0       0.502   7.451 -34.716  0.00  0.00    -0.022 A 
ATOM     28  C   UNK d   0      -1.007   8.870 -35.485  0.00  0.00     0.042 A 
ATOM     29  H   UNK d   0      -2.071   7.499 -36.837  0.00  0.00     0.166 HD
ATOM     30  C   UNK d   0      -1.637  10.120 -35.587  0.00  0.00     0.062 C 
ATOM     31  C   UNK d   0       0.105   8.749 -34.618  0.00  0.00    -0.013 A 
ATOM     32  C   UNK d   0      -2.994  10.389 -35.670  0.00  0.00     0.066 A 
BRANCH   8  33
ATOM     33  C   UNK d   0      -6.227  12.133 -35.832  0.00  0.00     0.151 C 
BRANCH  33  34
ATOM     34  C   UNK d   0      -6.760  12.288 -37.197  0.00  0.00     0.143 C 
ATOM     35  O   UNK d   0      -6.855  11.314 -37.958  0.00  0.00    -0.650 OA
BRANCH  34  36
ATOM     36  O   UNK d   0      -7.154  13.532 -37.631  0.00  0.00    -0.776 OA
ATOM     37  H   UNK d   0      -8.112  13.875 -37.472  0.00  0.00     0.167 HD
ENDBRANCH  34  36
ENDBRANCH  33  34
ENDBRANCH   8  33
BRANCH  31  38
ATOM     38  C   UNK d   0       0.733   9.810 -33.745  0.00  0.00     0.151 C 
BRANCH  38  39
ATOM     39  C   UNK d   0       0.825   9.412 -32.356  0.00  0.00     0.143 C 
ATOM     40  O   UNK d   0      -0.158   9.422 -31.594  0.00  0.00    -0.650 OA
BRANCH  39  41
ATOM     41  O   UNK d   0       2.054   9.000 -31.840  0.00  0.00    -0.776 OA
ATOM     42  H   UNK d   0       2.134   8.954 -30.820  0.00  0.00     0.167 HD
ENDBRANCH  39  41
ENDBRANCH  38  39
ENDBRANCH  31  38
BRANCH  27  43
ATOM     43  C   UNK d   0       1.671   6.880 -33.953  0.00  0.00     0.052 C 
BRANCH  43  44
ATOM     44  C   UNK d   0       2.804   6.464 -34.834  0.00  0.00     0.115 C 
BRANCH  44  45
ATOM     45  C   UNK d   0       3.517   7.708 -35.224  0.00  0.00     0.139 C 
ATOM     46  O   UNK d   0       3.918   8.471 -34.311  0.00  0.00    -0.650 OA
BRANCH  45  47
ATOM     47  O   UNK d   0       3.757   8.050 -36.537  0.00  0.00    -0.776 OA
ATOM     48  H   UNK d   0       3.058   8.527 -37.129  0.00  0.00     0.167 HD
ENDBRANCH  45  47
ENDBRANCH  44  45
ENDBRANCH  43  44
ENDBRANCH  27  43
BRANCH  24  49
ATOM     49  C   UNK d   0      -0.058   2.138 -36.231  0.00  0.00     0.052 C 
BRANCH  49  50
ATOM     50  C   UNK d   0       0.471   1.899 -34.840  0.00  0.00     0.115 C 
BRANCH  50  51
ATOM     51  C   UNK d   0       1.471   2.833 -34.339  0.00  0.00     0.139 C 
ATOM     52  O   UNK d   0       2.542   3.067 -34.947  0.00  0.00    -0.650 OA
BRANCH  51  53
ATOM     53  O   UNK d   0       1.251   3.497 -33.142  0.00  0.00    -0.776 OA
ATOM     54  H   UNK d   0       1.761   4.346 -32.970  0.00  0.00     0.167 HD
ENDBRANCH  51  53
ENDBRANCH  50  51
ENDBRANCH  49  50
ENDBRANCH  24  49
BRANCH  21  55
ATOM     55  C   UNK d   0      -3.025   1.289 -36.364  0.00  0.00     0.151 C 
BRANCH  55  56
ATOM     56  C   UNK d   0      -3.115   0.864 -37.769  0.00  0.00     0.143 C 
ATOM     57  O   UNK d   0      -3.570   1.598 -38.669  0.00  0.00    -0.650 OA
BRANCH  56  58
ATOM     58  O   UNK d   0      -2.666  -0.416 -38.090  0.00  0.00    -0.776 OA
ATOM     59  H   UNK d   0      -2.409  -1.004 -37.277  0.00  0.00     0.167 HD
ENDBRANCH  56  58
ENDBRANCH  55  56
ENDBRANCH  21  55
BRANCH  18  60
ATOM     60  C   UNK d   0      -7.048   4.466 -37.955  0.00  0.00     0.151 C 
BRANCH  60  61
ATOM     61  C   UNK d   0      -6.369   4.556 -39.257  0.00  0.00     0.143 C 
ATOM     62  O   UNK d   0      -6.342   5.526 -40.015  0.00  0.00    -0.650 OA
BRANCH  61  63
ATOM     63  O   UNK d   0      -5.677   3.387 -39.657  0.00  0.00    -0.776 OA
ATOM     64  H   UNK d   0      -4.848   3.443 -40.222  0.00  0.00     0.167 HD
ENDBRANCH  61  63
ENDBRANCH  60  61
ENDBRANCH  18  60
BRANCH  14  65
ATOM     65  C   UNK d   0      -8.049   7.315 -37.651  0.00  0.00     0.052 C 
BRANCH  65  66
ATOM     66  C   UNK d   0      -9.298   6.979 -36.917  0.00  0.00     0.115 C 
BRANCH  66  67
ATOM     67  C   UNK d   0      -9.562   7.588 -35.644  0.00  0.00     0.139 C 
ATOM     68  O   UNK d   0      -9.957   8.811 -35.618  0.00  0.00    -0.650 OA
BRANCH  67  69
ATOM     69  O   UNK d   0      -9.442   7.010 -34.380  0.00  0.00    -0.776 OA
ATOM     70  H   UNK d   0      -9.073   7.624 -33.640  0.00  0.00     0.167 HD
ENDBRANCH  67  69
ENDBRANCH  66  67
ENDBRANCH  65  66
ENDBRANCH  14  65
ENDBRANCH   6   7
ENDBRANCH   5   6
ENDBRANCH   2   5
TORSDOF 28
ENDMDL
MODEL 8
REMARK VINA RESULT:      -7.5      2.427      7.460
REMARK  28 active torsions:
REMARK  status: ('A' for Active; 'I' for Inactive)
REMARK    1  A    between atoms: C_2  and  O_3 
REMARK    2  A    between atoms: C_2  and  C_4 
REMARK    3  A    between atoms: C_4  and  C_5 
REMARK    4  A    between atoms: C_5  and  C_6 
REMARK    5  A    between atoms: C_7  and  C_8 
REMARK    6  A    between atoms: C_8  and  C_9 
REMARK    7  A    between atoms: C_9  and  O_11 
REMARK    8  A    between atoms: C_28  and  C_29 
REMARK    9  A    between atoms: C_29  and  C_30 
REMARK   10  A    between atoms: C_30  and  O_32 
REMARK   11  A    between atoms: C_33  and  C_34 
REMARK   12  A    between atoms: C_34  and  C_35 
REMARK   13  A    between atoms: C_35  and  C_36 
REMARK   14  A    between atoms: C_36  and  O_38 
REMARK   15  A    between atoms: C_39  and  C_40 
REMARK   16  A    between atoms: C_40  and  C_41 
REMARK   17  A    between atoms: C_41  and  C_42 
REMARK   18  A    between atoms: C_42  and  O_44 
REMARK   19  A    between atoms: C_45  and  C_46 
REMARK   20  A    between atoms: C_46  and  C_47 
REMARK   21  A    between atoms: C_47  and  O_49 
REMARK   22  A    between atoms: C_50  and  C_51 
REMARK   23  A    between atoms: C_51  and  C_52 
REMARK   24  A    between atoms: C_52  and  O_54 
REMARK   25  A    between atoms: C_55  and  C_56 
REMARK   26  A    between atoms: C_56  and  C_57 
REMARK   27  A    between atoms: C_57  and  C_58 
REMARK   28  A    between atoms: C_58  and  O_60 
ROOT
ATOM      1  O   UNK d   0       0.259  -0.657 -33.328  0.00  0.00    -0.650 OA
ATOM      2  C   UNK d   0      -0.248  -0.488 -34.459  0.00  0.00     0.139 C 
ENDROOT
BRANCH   2   3
ATOM      3  O   UNK d   0      -0.171  -1.497 -35.389  0.00  0.00    -0.776 OA
ATOM      4  H   UNK d   0       0.596  -1.535 -36.064  0.00  0.00     0.167 HD
ENDBRANCH   2   3
BRANCH   2   5
ATOM      5  C   UNK d   0      -0.926   0.797 -34.791  0.00  0.00     0.115 C 
BRANCH   5   6
ATOM      6  C   UNK d   0      -0.620   1.193 -36.210  0.00  0.00     0.052 C 
BRANCH   6   7
ATOM      7  C   UNK d   0      -1.568   2.242 -36.738  0.00  0.00    -0.020 A 
ATOM      8  C   UNK d   0      -2.596   2.064 -37.528  0.00  0.00    -0.011 A 
ATOM      9  C   UNK d   0      -3.201   3.363 -37.772  0.00  0.00     0.067 A 
ATOM     10  C   UNK d   0      -4.306   3.847 -38.489  0.00  0.00     0.062 C 
ATOM     11  N   UNK d   0      -2.473   4.277 -37.096  0.00  0.00    -0.248 NA
ATOM     12  C   UNK d   0      -4.900   5.109 -38.380  0.00  0.00     0.041 A 
ATOM     13  N   UNK d   0      -4.358   6.337 -38.279  0.00  0.00    -0.355 N 
ATOM     14  C   UNK d   0      -6.302   5.197 -38.304  0.00  0.00    -0.022 A 
ATOM     15  C   UNK d   0      -5.380   7.202 -38.131  0.00  0.00     0.042 A 
ATOM     16  H   UNK d   0      -3.276   6.591 -38.330  0.00  0.00     0.166 HD
ATOM     17  C   UNK d   0      -5.376   8.604 -37.984  0.00  0.00     0.062 C 
ATOM     18  C   UNK d   0      -6.614   6.524 -38.142  0.00  0.00    -0.013 A 
ATOM     19  C   UNK d   0      -4.577   9.385 -37.190  0.00  0.00     0.067 A 
ATOM     20  N   UNK d   0      -3.526   8.791 -36.618  0.00  0.00    -0.248 NA
ATOM     21  C   UNK d   0      -4.568  10.774 -36.761  0.00  0.00    -0.011 A 
ATOM     22  C   UNK d   0      -2.832   9.689 -35.846  0.00  0.00     0.066 A 
ATOM     23  C   UNK d   0      -1.690   9.212 -35.221  0.00  0.00     0.062 C 
ATOM     24  C   UNK d   0      -3.547  10.944 -35.971  0.00  0.00    -0.020 A 
ATOM     25  C   UNK d   0      -1.103   7.944 -35.353  0.00  0.00     0.041 A 
ATOM     26  N   UNK d   0      -1.640   6.721 -35.439  0.00  0.00    -0.355 N 
ATOM     27  C   UNK d   0       0.304   7.857 -35.435  0.00  0.00    -0.022 A 
ATOM     28  C   UNK d   0      -0.623   5.856 -35.577  0.00  0.00     0.042 A 
ATOM     29  H   UNK d   0      -2.727   6.468 -35.377  0.00  0.00     0.166 HD
ATOM     30  C   UNK d   0      -0.612   4.460 -35.716  0.00  0.00     0.062 C 
ATOM     31  C   UNK d   0       0.616   6.539 -35.577  0.00  0.00    -0.013 A 
ATOM     32  C   UNK d   0      -1.476   3.667 -36.453  0.00  0.00     0.066 A 
BRANCH   8  33
ATOM     33  C   UNK d   0      -3.071   0.785 -38.087  0.00  0.00     0.151 C 
BRANCH  33  34
ATOM     34  C   UNK d   0      -2.823   0.668 -39.535  0.00  0.00     0.143 C 
ATOM     35  O   UNK d   0      -2.008   1.408 -40.103  0.00  0.00    -0.650 OA
BRANCH  34  36
ATOM     36  O   UNK d   0      -3.509  -0.277 -40.264  0.00  0.00    -0.776 OA
ATOM     37  H   UNK d   0      -3.804  -0.093 -41.233  0.00  0.00     0.167 HD
ENDBRANCH  34  36
ENDBRANCH  33  34
ENDBRANCH   8  33
BRANCH  31  38
ATOM     38  C   UNK d   0       2.005   5.963 -35.719  0.00  0.00     0.151 C 
BRANCH  38  39
ATOM     39  C   UNK d   0       2.387   5.750 -37.098  0.00  0.00     0.143 C 
ATOM     40  O   UNK d   0       2.473   6.683 -37.917  0.00  0.00    -0.650 OA
BRANCH  39  41
ATOM     41  O   UNK d   0       2.673   4.458 -37.540  0.00  0.00    -0.776 OA
ATOM     42  H   UNK d   0       1.878   3.820 -37.645  0.00  0.00     0.167 HD
ENDBRANCH  39  41
ENDBRANCH  38  39
ENDBRANCH  31  38
BRANCH  27  43
ATOM     43  C   UNK d   0       1.337   8.954 -35.381  0.00  0.00     0.052 C 
BRANCH  43  44
ATOM     44  C   UNK d   0       2.241   8.858 -34.194  0.00  0.00     0.115 C 
BRANCH  44  45
ATOM     45  C   UNK d   0       1.417   9.200 -33.005  0.00  0.00     0.139 C 
ATOM     46  O   UNK d   0       1.262   8.322 -32.121  0.00  0.00    -0.650 OA
BRANCH  45  47
ATOM     47  O   UNK d   0       0.828  10.434 -32.834  0.00  0.00    -0.776 OA
ATOM     48  H   UNK d   0       0.192  10.853 -33.532  0.00  0.00     0.167 HD
ENDBRANCH  45  47
ENDBRANCH  44  45
ENDBRANCH  43  44
ENDBRANCH  27  43
BRANCH  24  49
ATOM     49  C   UNK d   0      -3.140  12.211 -35.339  0.00  0.00     0.052 C 
BRANCH  49  50
ATOM     50  C   UNK d   0      -2.033  12.859 -36.130  0.00  0.00     0.115 C 
BRANCH  50  51
ATOM     51  C   UNK d   0      -1.597  14.182 -35.704  0.00  0.00     0.139 C 
ATOM     52  O   UNK d   0      -0.861  14.912 -36.409  0.00  0.00    -0.650 OA
BRANCH  51  53
ATOM     53  O   UNK d   0      -2.000  14.673 -34.471  0.00  0.00    -0.776 OA
ATOM     54  H   UNK d   0      -1.858  15.649 -34.279  0.00  0.00     0.167 HD
ENDBRANCH  51  53
ENDBRANCH  50  51
ENDBRANCH  49  50
ENDBRANCH  24  49
BRANCH  21  55
ATOM     55  C   UNK d   0      -5.579  11.786 -37.188  0.00  0.00     0.151 C 
BRANCH  55  56
ATOM     56  C   UNK d   0      -6.597  12.020 -36.152  0.00  0.00     0.143 C 
ATOM     57  O   UNK d   0      -6.747  13.124 -35.592  0.00  0.00    -0.650 OA
BRANCH  56  58
ATOM     58  O   UNK d   0      -7.418  10.952 -35.796  0.00  0.00    -0.776 OA
ATOM     59  H   UNK d   0      -7.119  10.435 -34.949  0.00  0.00     0.167 HD
ENDBRANCH  56  58
ENDBRANCH  55  56
ENDBRANCH  21  55
BRANCH  18  60
ATOM     60  C   UNK d   0      -8.013   7.073 -38.006  0.00  0.00     0.151 C 
BRANCH  60  61
ATOM     61  C   UNK d   0      -8.233   7.265 -36.565  0.00  0.00     0.143 C 
ATOM     62  O   UNK d   0      -7.933   6.488 -35.658  0.00  0.00    -0.650 OA
BRANCH  61  63
ATOM     63  O   UNK d   0      -8.859   8.484 -36.209  0.00  0.00    -0.776 OA
ATOM     64  H   UNK d   0      -8.316   9.298 -35.981  0.00  0.00     0.167 HD
ENDBRANCH  61  63
ENDBRANCH  60  61
ENDBRANCH  18  60
BRANCH  14  65
ATOM     65  C   UNK d   0      -7.362   4.145 -38.469  0.00  0.00     0.052 C 
BRANCH  65  66
ATOM     66  C   UNK d   0      -7.866   4.042 -39.864  0.00  0.00     0.115 C 
BRANCH  66  67
ATOM     67  C   UNK d   0      -9.280   3.977 -40.106  0.00  0.00     0.139 C 
ATOM     68  O   UNK d   0      -9.774   2.883 -40.568  0.00  0.00    -0.650 OA
BRANCH  67  69
ATOM     69  O   UNK d   0     -10.228   4.978 -39.902  0.00  0.00    -0.776 OA
ATOM     70  H   UNK d   0      -9.886   5.830 -39.434  0.00  0.00     0.167 HD
ENDBRANCH  67  69
ENDBRANCH  66  67
ENDBRANCH  65  66
ENDBRANCH  14  65
ENDBRANCH   6   7
ENDBRANCH   5   6
ENDBRANCH   2   5
TORSDOF 28
ENDMDL
MODEL 9
REMARK VINA RESULT:      -7.4      1.791      7.625
REMARK  28 active torsions:
REMARK  status: ('A' for Active; 'I' for Inactive)
REMARK    1  A    between atoms: C_2  and  O_3 
REMARK    2  A    between atoms: C_2  and  C_4 
REMARK    3  A    between atoms: C_4  and  C_5 
REMARK    4  A    between atoms: C_5  and  C_6 
REMARK    5  A    between atoms: C_7  and  C_8 
REMARK    6  A    between atoms: C_8  and  C_9 
REMARK    7  A    between atoms: C_9  and  O_11 
REMARK    8  A    between atoms: C_28  and  C_29 
REMARK    9  A    between atoms: C_29  and  C_30 
REMARK   10  A    between atoms: C_30  and  O_32 
REMARK   11  A    between atoms: C_33  and  C_34 
REMARK   12  A    between atoms: C_34  and  C_35 
REMARK   13  A    between atoms: C_35  and  C_36 
REMARK   14  A    between atoms: C_36  and  O_38 
REMARK   15  A    between atoms: C_39  and  C_40 
REMARK   16  A    between atoms: C_40  and  C_41 
REMARK   17  A    between atoms: C_41  and  C_42 
REMARK   18  A    between atoms: C_42  and  O_44 
REMARK   19  A    between atoms: C_45  and  C_46 
REMARK   20  A    between atoms: C_46  and  C_47 
REMARK   21  A    between atoms: C_47  and  O_49 
REMARK   22  A    between atoms: C_50  and  C_51 
REMARK   23  A    between atoms: C_51  and  C_52 
REMARK   24  A    between atoms: C_52  and  O_54 
REMARK   25  A    between atoms: C_55  and  C_56 
REMARK   26  A    between atoms: C_56  and  C_57 
REMARK   27  A    between atoms: C_57  and  C_58 
REMARK   28  A    between atoms: C_58  and  O_60 
ROOT
ATOM      1  O   UNK d   0      -6.436   0.466 -36.779  0.00  0.00    -0.650 OA
ATOM      2  C   UNK d   0      -5.565   0.719 -37.641  0.00  0.00     0.139 C 
ENDROOT
BRANCH   2   3
ATOM      3  O   UNK d   0      -5.943   1.287 -38.833  0.00  0.00    -0.776 OA
ATOM      4  H   UNK d   0      -5.984   0.734 -39.692  0.00  0.00     0.167 HD
ENDBRANCH   2   3
BRANCH   2   5
ATOM      5  C   UNK d   0      -4.133   0.405 -37.372  0.00  0.00     0.115 C 
BRANCH   5   6
ATOM      6  C   UNK d   0      -3.245   1.247 -38.248  0.00  0.00     0.052 C 
BRANCH   6   7
ATOM      7  C   UNK d   0      -2.706   2.462 -37.532  0.00  0.00    -0.020 A 
ATOM      8  C   UNK d   0      -1.646   2.532 -36.767  0.00  0.00    -0.011 A 
ATOM      9  C   UNK d   0      -1.530   3.902 -36.294  0.00  0.00     0.067 A 
ATOM     10  C   UNK d   0      -0.636   4.621 -35.486  0.00  0.00     0.062 C 
ATOM     11  N   UNK d   0      -2.563   4.595 -36.816  0.00  0.00    -0.248 NA
ATOM     12  C   UNK d   0      -0.532   6.012 -35.367  0.00  0.00     0.041 A 
ATOM     13  N   UNK d   0      -1.477   6.966 -35.267  0.00  0.00    -0.355 N 
ATOM     14  C   UNK d   0       0.743   6.605 -35.404  0.00  0.00    -0.022 A 
ATOM     15  C   UNK d   0      -0.835   8.149 -35.247  0.00  0.00     0.042 A 
ATOM     16  H   UNK d   0      -2.575   6.805 -35.192  0.00  0.00     0.166 HD
ATOM     17  C   UNK d   0      -1.340   9.461 -35.152  0.00  0.00     0.062 C 
ATOM     18  C   UNK d   0       0.559   7.963 -35.331  0.00  0.00    -0.013 A 
ATOM     19  C   UNK d   0      -2.399  10.027 -35.815  0.00  0.00     0.067 A 
ATOM     20  N   UNK d   0      -3.197   9.201 -36.497  0.00  0.00    -0.248 NA
ATOM     21  C   UNK d   0      -2.918  11.372 -36.000  0.00  0.00    -0.011 A 
ATOM     22  C   UNK d   0      -4.198   9.908 -37.116  0.00  0.00     0.066 A 
ATOM     23  C   UNK d   0      -5.125   9.166 -37.833  0.00  0.00     0.062 C 
ATOM     24  C   UNK d   0      -3.967  11.296 -36.766  0.00  0.00    -0.020 A 
ATOM     25  C   UNK d   0      -5.219   7.769 -37.930  0.00  0.00     0.041 A 
ATOM     26  N   UNK d   0      -4.280   6.822 -38.045  0.00  0.00    -0.355 N 
ATOM     27  C   UNK d   0      -6.499   7.174 -37.888  0.00  0.00    -0.022 A 
ATOM     28  C   UNK d   0      -4.919   5.641 -38.074  0.00  0.00     0.042 A 
ATOM     29  H   UNK d   0      -3.178   6.986 -38.131  0.00  0.00     0.166 HD
ATOM     30  C   UNK d   0      -4.430   4.330 -38.177  0.00  0.00     0.062 C 
ATOM     31  C   UNK d   0      -6.318   5.828 -37.978  0.00  0.00    -0.013 A 
ATOM     32  C   UNK d   0      -3.308   3.786 -37.571  0.00  0.00     0.066 A 
BRANCH   8  33
ATOM     33  C   UNK d   0      -0.725   1.432 -36.427  0.00  0.00     0.151 C 
BRANCH  33  34
ATOM     34  C   UNK d   0      -0.787   1.056 -35.003  0.00  0.00     0.143 C 
ATOM     35  O   UNK d   0      -1.863   0.744 -34.473  0.00  0.00    -0.650 OA
BRANCH  34  36
ATOM     36  O   UNK d   0       0.368   1.054 -34.255  0.00  0.00    -0.776 OA
ATOM     37  H   UNK d   0       0.714   1.913 -33.805  0.00  0.00     0.167 HD
ENDBRANCH  34  36
ENDBRANCH  33  34
ENDBRANCH   8  33
BRANCH  31  38
ATOM     38  C   UNK d   0      -7.406   4.780 -37.961  0.00  0.00     0.151 C 
BRANCH  38  39
ATOM     39  C   UNK d   0      -7.929   4.492 -39.280  0.00  0.00     0.143 C 
ATOM     40  O   UNK d   0      -7.366   3.707 -40.062  0.00  0.00    -0.650 OA
BRANCH  39  41
ATOM     41  O   UNK d   0      -9.106   5.110 -39.701  0.00  0.00    -0.776 OA
ATOM     42  H   UNK d   0      -9.120   5.472 -40.659  0.00  0.00     0.167 HD
ENDBRANCH  39  41
ENDBRANCH  38  39
ENDBRANCH  31  38
BRANCH  27  43
ATOM     43  C   UNK d   0      -7.855   7.825 -37.771  0.00  0.00     0.052 C 
BRANCH  43  44
ATOM     44  C   UNK d   0      -8.242   8.134 -36.361  0.00  0.00     0.115 C 
BRANCH  44  45
ATOM     45  C   UNK d   0      -8.490   9.598 -36.300  0.00  0.00     0.139 C 
ATOM     46  O   UNK d   0      -8.503  10.241 -37.379  0.00  0.00    -0.650 OA
BRANCH  45  47
ATOM     47  O   UNK d   0      -8.710  10.270 -35.118  0.00  0.00    -0.776 OA
ATOM     48  H   UNK d   0      -8.940  11.276 -35.079  0.00  0.00     0.167 HD
ENDBRANCH  45  47
ENDBRANCH  44  45
ENDBRANCH  43  44
ENDBRANCH  27  43
BRANCH  24  49
ATOM     49  C   UNK d   0      -4.824  12.421 -37.179  0.00  0.00     0.052 C 
BRANCH  49  50
ATOM     50  C   UNK d   0      -5.880  12.686 -36.136  0.00  0.00     0.115 C 
BRANCH  50  51
ATOM     51  C   UNK d   0      -7.103  13.341 -36.580  0.00  0.00     0.139 C 
ATOM     52  O   UNK d   0      -7.415  13.444 -37.790  0.00  0.00    -0.650 OA
BRANCH  51  53
ATOM     53  O   UNK d   0      -7.970  13.883 -35.643  0.00  0.00    -0.776 OA
ATOM     54  H   UNK d   0      -8.529  13.254 -35.094  0.00  0.00     0.167 HD
ENDBRANCH  51  53
ENDBRANCH  50  51
ENDBRANCH  49  50
ENDBRANCH  24  49
BRANCH  21  55
ATOM     55  C   UNK d   0      -2.312  12.592 -35.389  0.00  0.00     0.151 C 
BRANCH  55  56
ATOM     56  C   UNK d   0      -1.393  13.274 -36.313  0.00  0.00     0.143 C 
ATOM     57  O   UNK d   0      -0.869  12.701 -37.289  0.00  0.00    -0.650 OA
BRANCH  56  58
ATOM     58  O   UNK d   0      -1.109  14.617 -36.073  0.00  0.00    -0.776 OA
ATOM     59  H   UNK d   0      -0.291  14.989 -36.589  0.00  0.00     0.167 HD
ENDBRANCH  56  58
ENDBRANCH  55  56
ENDBRANCH  21  55
BRANCH  18  60
ATOM     60  C   UNK d   0       1.666   8.988 -35.347  0.00  0.00     0.151 C 
BRANCH  60  61
ATOM     61  C   UNK d   0       2.304   8.913 -34.024  0.00  0.00     0.143 C 
ATOM     62  O   UNK d   0       1.775   8.582 -32.963  0.00  0.00    -0.650 OA
BRANCH  61  63
ATOM     63  O   UNK d   0       3.675   9.266 -33.996  0.00  0.00    -0.776 OA
ATOM     64  H   UNK d   0       4.213   9.321 -34.842  0.00  0.00     0.167 HD
ENDBRANCH  61  63
ENDBRANCH  60  61
ENDBRANCH  18  60
BRANCH  14  65
ATOM     65  C   UNK d   0       2.113   5.987 -35.403  0.00  0.00     0.052 C 
BRANCH  65  66
ATOM     66  C   UNK d   0       2.735   5.951 -36.754  0.00  0.00     0.115 C 
BRANCH  66  67
ATOM     67  C   UNK d   0       1.998   5.415 -37.863  0.00  0.00     0.139 C 
ATOM     68  O   UNK d   0       1.626   4.185 -37.817  0.00  0.00    -0.650 OA
BRANCH  67  69
ATOM     69  O   UNK d   0       1.615   6.075 -39.031  0.00  0.00    -0.776 OA
ATOM     70  H   UNK d   0       1.662   5.517 -39.896  0.00  0.00     0.167 HD
ENDBRANCH  67  69
ENDBRANCH  66  67
ENDBRANCH  65  66
ENDBRANCH  14  65
ENDBRANCH   6   7
ENDBRANCH   5   6
ENDBRANCH   2   5
TORSDOF 28
ENDMDL
MODEL 10
REMARK VINA RESULT:      -7.4      2.812      7.991
REMARK  28 active torsions:
REMARK  status: ('A' for Active; 'I' for Inactive)
REMARK    1  A    between atoms: C_2  and  O_3 
REMARK    2  A    between atoms: C_2  and  C_4 
REMARK    3  A    between atoms: C_4  and  C_5 
REMARK    4  A    between atoms: C_5  and  C_6 
REMARK    5  A    between atoms: C_7  and  C_8 
REMARK    6  A    between atoms: C_8  and  C_9 
REMARK    7  A    between atoms: C_9  and  O_11 
REMARK    8  A    between atoms: C_28  and  C_29 
REMARK    9  A    between atoms: C_29  and  C_30 
REMARK   10  A    between atoms: C_30  and  O_32 
REMARK   11  A    between atoms: C_33  and  C_34 
REMARK   12  A    between atoms: C_34  and  C_35 
REMARK   13  A    between atoms: C_35  and  C_36 
REMARK   14  A    between atoms: C_36  and  O_38 
REMARK   15  A    between atoms: C_39  and  C_40 
REMARK   16  A    between atoms: C_40  and  C_41 
REMARK   17  A    between atoms: C_41  and  C_42 
REMARK   18  A    between atoms: C_42  and  O_44 
REMARK   19  A    between atoms: C_45  and  C_46 
REMARK   20  A    between atoms: C_46  and  C_47 
REMARK   21  A    between atoms: C_47  and  O_49 
REMARK   22  A    between atoms: C_50  and  C_51 
REMARK   23  A    between atoms: C_51  and  C_52 
REMARK   24  A    between atoms: C_52  and  O_54 
REMARK   25  A    between atoms: C_55  and  C_56 
REMARK   26  A    between atoms: C_56  and  C_57 
REMARK   27  A    between atoms: C_57  and  C_58 
REMARK   28  A    between atoms: C_58  and  O_60 
ROOT
ATOM      1  O   UNK d   0      -0.423  -2.392 -34.106  0.00  0.00    -0.650 OA
ATOM      2  C   UNK d   0       0.026  -1.521 -33.329  0.00  0.00     0.139 C 
ENDROOT
BRANCH   2   3
ATOM      3  O   UNK d   0       0.091  -1.788 -31.982  0.00  0.00    -0.776 OA
ATOM      4  H   UNK d   0      -0.089  -1.057 -31.290  0.00  0.00     0.167 HD
ENDBRANCH   2   3
BRANCH   2   5
ATOM      5  C   UNK d   0       0.483  -0.206 -33.862  0.00  0.00     0.115 C 
BRANCH   5   6
ATOM      6  C   UNK d   0       0.255  -0.143 -35.348  0.00  0.00     0.052 C 
BRANCH   6   7
ATOM      7  C   UNK d   0      -0.812   0.855 -35.731  0.00  0.00    -0.020 A 
ATOM      8  C   UNK d   0      -2.029   0.604 -36.139  0.00  0.00    -0.011 A 
ATOM      9  C   UNK d   0      -2.683   1.877 -36.397  0.00  0.00     0.067 A 
ATOM     10  C   UNK d   0      -3.954   2.295 -36.820  0.00  0.00     0.062 C 
ATOM     11  N   UNK d   0      -1.788   2.849 -36.124  0.00  0.00    -0.248 NA
ATOM     12  C   UNK d   0      -4.491   3.584 -36.743  0.00  0.00     0.041 A 
ATOM     13  N   UNK d   0      -3.947   4.788 -37.005  0.00  0.00    -0.355 N 
ATOM     14  C   UNK d   0      -5.805   3.747 -36.267  0.00  0.00    -0.022 A 
ATOM     15  C   UNK d   0      -4.880   5.711 -36.700  0.00  0.00     0.042 A 
ATOM     16  H   UNK d   0      -2.932   4.981 -37.416  0.00  0.00     0.166 HD
ATOM     17  C   UNK d   0      -4.836   7.117 -36.787  0.00  0.00     0.062 C 
ATOM     18  C   UNK d   0      -6.058   5.096 -36.234  0.00  0.00    -0.013 A 
ATOM     19  C   UNK d   0      -3.836   7.973 -36.403  0.00  0.00     0.067 A 
ATOM     20  N   UNK d   0      -2.660   7.426 -36.083  0.00  0.00    -0.248 NA
ATOM     21  C   UNK d   0      -3.702   9.410 -36.223  0.00  0.00    -0.011 A 
ATOM     22  C   UNK d   0      -1.768   8.400 -35.706  0.00  0.00     0.066 A 
ATOM     23  C   UNK d   0      -0.489   7.973 -35.382  0.00  0.00     0.062 C 
ATOM     24  C   UNK d   0      -2.492   9.652 -35.811  0.00  0.00    -0.020 A 
ATOM     25  C   UNK d   0       0.034   6.674 -35.478  0.00  0.00     0.041 A 
ATOM     26  N   UNK d   0      -0.501   5.479 -35.203  0.00  0.00    -0.355 N 
ATOM     27  C   UNK d   0       1.351   6.511 -35.960  0.00  0.00    -0.022 A 
ATOM     28  C   UNK d   0       0.429   4.557 -35.498  0.00  0.00     0.042 A 
ATOM     29  H   UNK d   0      -1.518   5.287 -34.781  0.00  0.00     0.166 HD
ATOM     30  C   UNK d   0       0.402   3.157 -35.408  0.00  0.00     0.062 C 
ATOM     31  C   UNK d   0       1.609   5.175 -35.976  0.00  0.00    -0.013 A 
ATOM     32  C   UNK d   0      -0.642   2.300 -35.718  0.00  0.00     0.066 A 
BRANCH   8  33
ATOM     33  C   UNK d   0      -2.647  -0.723 -36.319  0.00  0.00     0.151 C 
BRANCH  33  34
ATOM     34  C   UNK d   0      -2.725  -1.128 -37.734  0.00  0.00     0.143 C 
ATOM     35  O   UNK d   0      -1.983  -0.617 -38.585  0.00  0.00    -0.650 OA
BRANCH  34  36
ATOM     36  O   UNK d   0      -3.636  -2.087 -38.113  0.00  0.00    -0.776 OA
ATOM     37  H   UNK d   0      -4.326  -2.461 -37.447  0.00  0.00     0.167 HD
ENDBRANCH  34  36
ENDBRANCH  33  34
ENDBRANCH   8  33
BRANCH  31  38
ATOM     38  C   UNK d   0       2.893   4.520 -36.430  0.00  0.00     0.151 C 
BRANCH  38  39
ATOM     39  C   UNK d   0       3.799   4.242 -35.336  0.00  0.00     0.143 C 
ATOM     40  O   UNK d   0       4.908   3.708 -35.511  0.00  0.00    -0.650 OA
BRANCH  39  41
ATOM     41  O   UNK d   0       3.428   4.579 -34.035  0.00  0.00    -0.776 OA
ATOM     42  H   UNK d   0       2.968   3.848 -33.482  0.00  0.00     0.167 HD
ENDBRANCH  39  41
ENDBRANCH  38  39
ENDBRANCH  31  38
BRANCH  27  43
ATOM     43  C   UNK d   0       2.349   7.556 -36.392  0.00  0.00     0.052 C 
BRANCH  43  44
ATOM     44  C   UNK d   0       2.760   8.474 -35.287  0.00  0.00     0.115 C 
BRANCH  44  45
ATOM     45  C   UNK d   0       3.842   7.780 -34.540  0.00  0.00     0.139 C 
ATOM     46  O   UNK d   0       3.719   7.662 -33.295  0.00  0.00    -0.650 OA
BRANCH  45  47
ATOM     47  O   UNK d   0       4.961   7.262 -35.154  0.00  0.00    -0.776 OA
ATOM     48  H   UNK d   0       5.060   7.203 -36.180  0.00  0.00     0.167 HD
ENDBRANCH  45  47
ENDBRANCH  44  45
ENDBRANCH  43  44
ENDBRANCH  27  43
BRANCH  24  49
ATOM     49  C   UNK d   0      -1.916  10.981 -35.541  0.00  0.00     0.052 C 
BRANCH  49  50
ATOM     50  C   UNK d   0      -0.954  11.369 -36.634  0.00  0.00     0.115 C 
BRANCH  50  51
ATOM     51  C   UNK d   0      -1.367  12.435 -37.536  0.00  0.00     0.139 C 
ATOM     52  O   UNK d   0      -2.145  12.242 -38.501  0.00  0.00    -0.650 OA
BRANCH  51  53
ATOM     53  O   UNK d   0      -0.891  13.722 -37.341  0.00  0.00    -0.776 OA
ATOM     54  H   UNK d   0      -0.762  14.309 -38.146  0.00  0.00     0.167 HD
ENDBRANCH  51  53
ENDBRANCH  50  51
ENDBRANCH  49  50
ENDBRANCH  24  49
BRANCH  21  55
ATOM     55  C   UNK d   0      -4.797  10.389 -36.486  0.00  0.00     0.151 C 
BRANCH  55  56
ATOM     56  C   UNK d   0      -5.223  10.376 -37.894  0.00  0.00     0.143 C 
ATOM     57  O   UNK d   0      -6.422  10.360 -38.237  0.00  0.00    -0.650 OA
BRANCH  56  58
ATOM     58  O   UNK d   0      -4.230  10.380 -38.873  0.00  0.00    -0.776 OA
ATOM     59  H   UNK d   0      -3.924  11.321 -39.179  0.00  0.00     0.167 HD
ENDBRANCH  56  58
ENDBRANCH  55  56
ENDBRANCH  21  55
BRANCH  18  60
ATOM     60  C   UNK d   0      -7.352   5.722 -35.778  0.00  0.00     0.151 C 
BRANCH  60  61
ATOM     61  C   UNK d   0      -7.215   5.922 -34.327  0.00  0.00     0.143 C 
ATOM     62  O   UNK d   0      -6.416   6.661 -33.752  0.00  0.00    -0.650 OA
BRANCH  61  63
ATOM     63  O   UNK d   0      -8.111   5.171 -33.528  0.00  0.00    -0.776 OA
ATOM     64  H   UNK d   0      -9.090   5.126 -33.750  0.00  0.00     0.167 HD
ENDBRANCH  61  63
ENDBRANCH  60  61
ENDBRANCH  18  60
BRANCH  14  65
ATOM     65  C   UNK d   0      -6.862   2.732 -35.939  0.00  0.00     0.052 C 
BRANCH  65  66
ATOM     66  C   UNK d   0      -7.738   2.408 -37.097  0.00  0.00     0.115 C 
BRANCH  66  67
ATOM     67  C   UNK d   0      -7.286   1.479 -38.093  0.00  0.00     0.139 C 
ATOM     68  O   UNK d   0      -7.540   0.230 -37.928  0.00  0.00    -0.650 OA
BRANCH  67  69
ATOM     69  O   UNK d   0      -6.580   1.759 -39.263  0.00  0.00    -0.776 OA
ATOM     70  H   UNK d   0      -6.533   0.994 -39.951  0.00  0.00     0.167 HD
ENDBRANCH  67  69
ENDBRANCH  66  67
ENDBRANCH  65  66
ENDBRANCH  14  65
ENDBRANCH   6   7
ENDBRANCH   5   6
ENDBRANCH   2   5
TORSDOF 28
ENDMDL
MODEL 11
REMARK VINA RESULT:      -7.3      2.003      7.845
REMARK  28 active torsions:
REMARK  status: ('A' for Active; 'I' for Inactive)
REMARK    1  A    between atoms: C_2  and  O_3 
REMARK    2  A    between atoms: C_2  and  C_4 
REMARK    3  A    between atoms: C_4  and  C_5 
REMARK    4  A    between atoms: C_5  and  C_6 
REMARK    5  A    between atoms: C_7  and  C_8 
REMARK    6  A    between atoms: C_8  and  C_9 
REMARK    7  A    between atoms: C_9  and  O_11 
REMARK    8  A    between atoms: C_28  and  C_29 
REMARK    9  A    between atoms: C_29  and  C_30 
REMARK   10  A    between atoms: C_30  and  O_32 
REMARK   11  A    between atoms: C_33  and  C_34 
REMARK   12  A    between atoms: C_34  and  C_35 
REMARK   13  A    between atoms: C_35  and  C_36 
REMARK   14  A    between atoms: C_36  and  O_38 
REMARK   15  A    between atoms: C_39  and  C_40 
REMARK   16  A    between atoms: C_40  and  C_41 
REMARK   17  A    between atoms: C_41  and  C_42 
REMARK   18  A    between atoms: C_42  and  O_44 
REMARK   19  A    between atoms: C_45  and  C_46 
REMARK   20  A    between atoms: C_46  and  C_47 
REMARK   21  A    between atoms: C_47  and  O_49 
REMARK   22  A    between atoms: C_50  and  C_51 
REMARK   23  A    between atoms: C_51  and  C_52 
REMARK   24  A    between atoms: C_52  and  O_54 
REMARK   25  A    between atoms: C_55  and  C_56 
REMARK   26  A    between atoms: C_56  and  C_57 
REMARK   27  A    between atoms: C_57  and  C_58 
REMARK   28  A    between atoms: C_58  and  O_60 
ROOT
ATOM      1  O   UNK d   0      -0.658  14.659 -34.145  0.00  0.00    -0.650 OA
ATOM      2  C   UNK d   0      -1.652  15.032 -34.806  0.00  0.00     0.139 C 
ENDROOT
BRANCH   2   3
ATOM      3  O   UNK d   0      -1.673  16.302 -35.332  0.00  0.00    -0.776 OA
ATOM      4  H   UNK d   0      -0.854  16.911 -35.273  0.00  0.00     0.167 HD
ENDBRANCH   2   3
BRANCH   2   5
ATOM      5  C   UNK d   0      -2.801  14.106 -35.019  0.00  0.00     0.115 C 
BRANCH   5   6
ATOM      6  C   UNK d   0      -2.384  12.959 -35.899  0.00  0.00     0.052 C 
BRANCH   6   7
ATOM      7  C   UNK d   0      -3.311  11.773 -35.784  0.00  0.00    -0.020 A 
ATOM      8  C   UNK d   0      -4.616  11.786 -35.682  0.00  0.00    -0.011 A 
ATOM      9  C   UNK d   0      -5.068  10.408 -35.588  0.00  0.00     0.067 A 
ATOM     10  C   UNK d   0      -6.306   9.753 -35.484  0.00  0.00     0.062 C 
ATOM     11  N   UNK d   0      -3.972   9.622 -35.635  0.00  0.00    -0.248 NA
ATOM     12  C   UNK d   0      -6.565   8.393 -35.686  0.00  0.00     0.041 A 
ATOM     13  N   UNK d   0      -5.889   7.295 -35.299  0.00  0.00    -0.355 N 
ATOM     14  C   UNK d   0      -7.675   8.020 -36.465  0.00  0.00    -0.022 A 
ATOM     15  C   UNK d   0      -6.537   6.235 -35.818  0.00  0.00     0.042 A 
ATOM     16  H   UNK d   0      -4.982   7.268 -34.654  0.00  0.00     0.166 HD
ATOM     17  C   UNK d   0      -6.260   4.857 -35.721  0.00  0.00     0.062 C 
ATOM     18  C   UNK d   0      -7.662   6.651 -36.556  0.00  0.00    -0.013 A 
ATOM     19  C   UNK d   0      -5.058   4.209 -35.851  0.00  0.00     0.067 A 
ATOM     20  N   UNK d   0      -3.960   4.968 -35.878  0.00  0.00    -0.248 NA
ATOM     21  C   UNK d   0      -4.626   2.828 -35.990  0.00  0.00    -0.011 A 
ATOM     22  C   UNK d   0      -2.842   4.185 -36.027  0.00  0.00     0.066 A 
ATOM     23  C   UNK d   0      -1.623   4.846 -36.033  0.00  0.00     0.062 C 
ATOM     24  C   UNK d   0      -3.329   2.821 -36.097  0.00  0.00    -0.020 A 
ATOM     25  C   UNK d   0      -1.383   6.212 -35.815  0.00  0.00     0.041 A 
ATOM     26  N   UNK d   0      -2.047   7.304 -36.213  0.00  0.00    -0.355 N 
ATOM     27  C   UNK d   0      -0.271   6.585 -35.029  0.00  0.00    -0.022 A 
ATOM     28  C   UNK d   0      -1.397   8.362 -35.704  0.00  0.00     0.042 A 
ATOM     29  H   UNK d   0      -2.951   7.330 -36.869  0.00  0.00     0.166 HD
ATOM     30  C   UNK d   0      -1.656   9.738 -35.800  0.00  0.00     0.062 C 
ATOM     31  C   UNK d   0      -0.272   7.944 -34.953  0.00  0.00    -0.013 A 
ATOM     32  C   UNK d   0      -2.883  10.382 -35.753  0.00  0.00     0.066 A 
BRANCH   8  33
ATOM     33  C   UNK d   0      -5.490  12.973 -35.659  0.00  0.00     0.151 C 
BRANCH  33  34
ATOM     34  C   UNK d   0      -6.749  12.769 -36.396  0.00  0.00     0.143 C 
ATOM     35  O   UNK d   0      -6.760  12.717 -37.635  0.00  0.00    -0.650 OA
BRANCH  34  36
ATOM     36  O   UNK d   0      -7.927  12.636 -35.698  0.00  0.00    -0.776 OA
ATOM     37  H   UNK d   0      -8.126  13.215 -34.871  0.00  0.00     0.167 HD
ENDBRANCH  34  36
ENDBRANCH  33  34
ENDBRANCH   8  33
BRANCH  31  38
ATOM     38  C   UNK d   0       0.725   8.795 -34.203  0.00  0.00     0.151 C 
BRANCH  38  39
ATOM     39  C   UNK d   0       2.019   8.846 -34.850  0.00  0.00     0.143 C 
ATOM     40  O   UNK d   0       3.075   9.008 -34.214  0.00  0.00    -0.650 OA
BRANCH  39  41
ATOM     41  O   UNK d   0       2.099   8.711 -36.236  0.00  0.00    -0.776 OA
ATOM     42  H   UNK d   0       2.175   7.757 -36.602  0.00  0.00     0.167 HD
ENDBRANCH  39  41
ENDBRANCH  38  39
ENDBRANCH  31  38
BRANCH  27  43
ATOM     43  C   UNK d   0       0.769   5.716 -34.367  0.00  0.00     0.052 C 
BRANCH  43  44
ATOM     44  C   UNK d   0       1.723   5.095 -35.334  0.00  0.00     0.115 C 
BRANCH  44  45
ATOM     45  C   UNK d   0       3.088   5.479 -34.890  0.00  0.00     0.139 C 
ATOM     46  O   UNK d   0       3.487   5.064 -33.774  0.00  0.00    -0.650 OA
BRANCH  45  47
ATOM     47  O   UNK d   0       3.929   6.263 -35.651  0.00  0.00    -0.776 OA
ATOM     48  H   UNK d   0       4.257   7.193 -35.346  0.00  0.00     0.167 HD
ENDBRANCH  45  47
ENDBRANCH  44  45
ENDBRANCH  43  44
ENDBRANCH  27  43
BRANCH  24  49
ATOM     49  C   UNK d   0      -2.474   1.628 -36.218  0.00  0.00     0.052 C 
BRANCH  49  50
ATOM     50  C   UNK d   0      -2.580   1.045 -37.604  0.00  0.00     0.115 C 
BRANCH  50  51
ATOM     51  C   UNK d   0      -2.455   1.967 -38.725  0.00  0.00     0.139 C 
ATOM     52  O   UNK d   0      -1.404   2.609 -38.958  0.00  0.00    -0.650 OA
BRANCH  51  53
ATOM     53  O   UNK d   0      -3.530   2.159 -39.579  0.00  0.00    -0.776 OA
ATOM     54  H   UNK d   0      -4.044   1.351 -39.885  0.00  0.00     0.167 HD
ENDBRANCH  51  53
ENDBRANCH  50  51
ENDBRANCH  49  50
ENDBRANCH  24  49
BRANCH  21  55
ATOM     55  C   UNK d   0      -5.555   1.659 -35.998  0.00  0.00     0.151 C 
BRANCH  55  56
ATOM     56  C   UNK d   0      -5.925   1.240 -34.637  0.00  0.00     0.143 C 
ATOM     57  O   UNK d   0      -5.140   0.635 -33.881  0.00  0.00    -0.650 OA
BRANCH  56  58
ATOM     58  O   UNK d   0      -7.212   1.540 -34.193  0.00  0.00    -0.776 OA
ATOM     59  H   UNK d   0      -7.974   1.224 -34.819  0.00  0.00     0.167 HD
ENDBRANCH  56  58
ENDBRANCH  55  56
ENDBRANCH  21  55
BRANCH  18  60
ATOM     60  C   UNK d   0      -8.675   5.825 -37.311  0.00  0.00     0.151 C 
BRANCH  60  61
ATOM     61  C   UNK d   0      -8.163   5.716 -38.685  0.00  0.00     0.143 C 
ATOM     62  O   UNK d   0      -7.052   6.057 -39.093  0.00  0.00    -0.650 OA
BRANCH  61  63
ATOM     63  O   UNK d   0      -9.065   5.156 -39.621  0.00  0.00    -0.776 OA
ATOM     64  H   UNK d   0      -9.704   4.428 -39.354  0.00  0.00     0.167 HD
ENDBRANCH  61  63
ENDBRANCH  60  61
ENDBRANCH  18  60
BRANCH  14  65
ATOM     65  C   UNK d   0      -8.791   8.845 -37.041  0.00  0.00     0.052 C 
BRANCH  65  66
ATOM     66  C   UNK d   0     -10.024   8.818 -36.210  0.00  0.00     0.115 C 
BRANCH  66  67
ATOM     67  C   UNK d   0      -9.957   9.193 -34.825  0.00  0.00     0.139 C 
ATOM     68  O   UNK d   0      -9.688  10.416 -34.533  0.00  0.00    -0.650 OA
BRANCH  67  69
ATOM     69  O   UNK d   0     -10.152   8.378 -33.710  0.00  0.00    -0.776 OA
ATOM     70  H   UNK d   0     -10.956   8.621 -33.113  0.00  0.00     0.167 HD
ENDBRANCH  67  69
ENDBRANCH  66  67
ENDBRANCH  65  66
ENDBRANCH  14  65
ENDBRANCH   6   7
ENDBRANCH   5   6
ENDBRANCH   2   5
TORSDOF 28
ENDMDL
MODEL 12
REMARK VINA RESULT:      -7.3      1.408      1.713
REMARK  28 active torsions:
REMARK  status: ('A' for Active; 'I' for Inactive)
REMARK    1  A    between atoms: C_2  and  O_3 
REMARK    2  A    between atoms: C_2  and  C_4 
REMARK    3  A    between atoms: C_4  and  C_5 
REMARK    4  A    between atoms: C_5  and  C_6 
REMARK    5  A    between atoms: C_7  and  C_8 
REMARK    6  A    between atoms: C_8  and  C_9 
REMARK    7  A    between atoms: C_9  and  O_11 
REMARK    8  A    between atoms: C_28  and  C_29 
REMARK    9  A    between atoms: C_29  and  C_30 
REMARK   10  A    between atoms: C_30  and  O_32 
REMARK   11  A    between atoms: C_33  and  C_34 
REMARK   12  A    between atoms: C_34  and  C_35 
REMARK   13  A    between atoms: C_35  and  C_36 
REMARK   14  A    between atoms: C_36  and  O_38 
REMARK   15  A    between atoms: C_39  and  C_40 
REMARK   16  A    between atoms: C_40  and  C_41 
REMARK   17  A    between atoms: C_41  and  C_42 
REMARK   18  A    between atoms: C_42  and  O_44 
REMARK   19  A    between atoms: C_45  and  C_46 
REMARK   20  A    between atoms: C_46  and  C_47 
REMARK   21  A    between atoms: C_47  and  O_49 
REMARK   22  A    between atoms: C_50  and  C_51 
REMARK   23  A    between atoms: C_51  and  C_52 
REMARK   24  A    between atoms: C_52  and  O_54 
REMARK   25  A    between atoms: C_55  and  C_56 
REMARK   26  A    between atoms: C_56  and  C_57 
REMARK   27  A    between atoms: C_57  and  C_58 
REMARK   28  A    between atoms: C_58  and  O_60 
ROOT
ATOM      1  O   UNK d   0       3.567   8.234 -32.991  0.00  0.00    -0.650 OA
ATOM      2  C   UNK d   0       2.783   9.011 -32.401  0.00  0.00     0.139 C 
ENDROOT
BRANCH   2   3
ATOM      3  O   UNK d   0       3.250   9.778 -31.361  0.00  0.00    -0.776 OA
ATOM      4  H   UNK d   0       3.296  10.796 -31.435  0.00  0.00     0.167 HD
ENDBRANCH   2   3
BRANCH   2   5
ATOM      5  C   UNK d   0       1.357   9.102 -32.827  0.00  0.00     0.115 C 
BRANCH   5   6
ATOM      6  C   UNK d   0       1.274   9.371 -34.305  0.00  0.00     0.052 C 
BRANCH   6   7
ATOM      7  C   UNK d   0       0.316   8.442 -35.011  0.00  0.00    -0.020 A 
ATOM      8  C   UNK d   0       0.544   7.221 -35.422  0.00  0.00    -0.011 A 
ATOM      9  C   UNK d   0      -0.670   6.730 -36.053  0.00  0.00     0.067 A 
ATOM     10  C   UNK d   0      -1.083   5.533 -36.659  0.00  0.00     0.062 C 
ATOM     11  N   UNK d   0      -1.584   7.720 -35.987  0.00  0.00    -0.248 NA
ATOM     12  C   UNK d   0      -2.392   5.146 -36.965  0.00  0.00     0.041 A 
ATOM     13  N   UNK d   0      -3.418   5.835 -37.499  0.00  0.00    -0.355 N 
ATOM     14  C   UNK d   0      -2.809   3.842 -36.642  0.00  0.00    -0.022 A 
ATOM     15  C   UNK d   0      -4.478   5.005 -37.516  0.00  0.00     0.042 A 
ATOM     16  H   UNK d   0      -3.389   6.882 -37.875  0.00  0.00     0.166 HD
ATOM     17  C   UNK d   0      -5.795   5.214 -37.969  0.00  0.00     0.062 C 
ATOM     18  C   UNK d   0      -4.134   3.746 -36.986  0.00  0.00    -0.013 A 
ATOM     19  C   UNK d   0      -6.619   6.290 -37.758  0.00  0.00     0.067 A 
ATOM     20  N   UNK d   0      -6.064   7.381 -37.224  0.00  0.00    -0.248 NA
ATOM     21  C   UNK d   0      -8.029   6.581 -37.958  0.00  0.00    -0.011 A 
ATOM     22  C   UNK d   0      -7.009   8.364 -37.058  0.00  0.00     0.066 A 
ATOM     23  C   UNK d   0      -6.559   9.571 -36.544  0.00  0.00     0.062 C 
ATOM     24  C   UNK d   0      -8.252   7.795 -37.542  0.00  0.00    -0.020 A 
ATOM     25  C   UNK d   0      -5.237   9.944 -36.256  0.00  0.00     0.041 A 
ATOM     26  N   UNK d   0      -4.222   9.264 -35.711  0.00  0.00    -0.355 N 
ATOM     27  C   UNK d   0      -4.818  11.252 -36.584  0.00  0.00    -0.022 A 
ATOM     28  C   UNK d   0      -3.166  10.093 -35.685  0.00  0.00     0.042 A 
ATOM     29  H   UNK d   0      -4.256   8.216 -35.324  0.00  0.00     0.166 HD
ATOM     30  C   UNK d   0      -1.853   9.901 -35.228  0.00  0.00     0.062 C 
ATOM     31  C   UNK d   0      -3.509  11.354 -36.227  0.00  0.00    -0.013 A 
ATOM     32  C   UNK d   0      -1.054   8.777 -35.371  0.00  0.00     0.066 A 
BRANCH   8  33
ATOM     33  C   UNK d   0       1.801   6.462 -35.286  0.00  0.00     0.151 C 
BRANCH  33  34
ATOM     34  C   UNK d   0       2.797   6.817 -36.313  0.00  0.00     0.143 C 
ATOM     35  O   UNK d   0       2.512   6.769 -37.518  0.00  0.00    -0.650 OA
BRANCH  34  36
ATOM     36  O   UNK d   0       4.058   7.205 -35.925  0.00  0.00    -0.776 OA
ATOM     37  H   UNK d   0       4.325   8.199 -35.892  0.00  0.00     0.167 HD
ENDBRANCH  34  36
ENDBRANCH  33  34
ENDBRANCH   8  33
BRANCH  31  38
ATOM     38  C   UNK d   0      -2.630  12.571 -36.401  0.00  0.00     0.151 C 
BRANCH  38  39
ATOM     39  C   UNK d   0      -1.887  12.553 -37.643  0.00  0.00     0.143 C 
ATOM     40  O   UNK d   0      -2.437  12.687 -38.750  0.00  0.00    -0.650 OA
BRANCH  39  41
ATOM     41  O   UNK d   0      -0.503  12.382 -37.612  0.00  0.00    -0.776 OA
ATOM     42  H   UNK d   0       0.056  13.040 -38.164  0.00  0.00     0.167 HD
ENDBRANCH  39  41
ENDBRANCH  38  39
ENDBRANCH  31  38
BRANCH  27  43
ATOM     43  C   UNK d   0      -5.600  12.381 -37.208  0.00  0.00     0.052 C 
BRANCH  43  44
ATOM     44  C   UNK d   0      -6.383  13.177 -36.215  0.00  0.00     0.115 C 
BRANCH  44  45
ATOM     45  C   UNK d   0      -7.703  13.454 -36.839  0.00  0.00     0.139 C 
ATOM     46  O   UNK d   0      -8.450  14.303 -36.292  0.00  0.00    -0.650 OA
BRANCH  45  47
ATOM     47  O   UNK d   0      -8.133  12.826 -37.988  0.00  0.00    -0.776 OA
ATOM     48  H   UNK d   0      -7.502  12.604 -38.775  0.00  0.00     0.167 HD
ENDBRANCH  45  47
ENDBRANCH  44  45
ENDBRANCH  43  44
ENDBRANCH  27  43
BRANCH  24  49
ATOM     49  C   UNK d   0      -9.539   8.509 -37.595  0.00  0.00     0.052 C 
BRANCH  49  50
ATOM     50  C   UNK d   0     -10.070   8.736 -36.203  0.00  0.00     0.115 C 
BRANCH  50  51
ATOM     51  C   UNK d   0     -10.390  10.107 -35.830  0.00  0.00     0.139 C 
ATOM     52  O   UNK d   0     -10.136  11.087 -36.570  0.00  0.00    -0.650 OA
BRANCH  51  53
ATOM     53  O   UNK d   0     -10.998  10.362 -34.610  0.00  0.00    -0.776 OA
ATOM     54  H   UNK d   0     -10.552  10.021 -33.776  0.00  0.00     0.167 HD
ENDBRANCH  51  53
ENDBRANCH  50  51
ENDBRANCH  49  50
ENDBRANCH  24  49
BRANCH  21  55
ATOM     55  C   UNK d   0      -9.005   5.618 -38.547  0.00  0.00     0.151 C 
BRANCH  55  56
ATOM     56  C   UNK d   0      -9.565   4.710 -37.534  0.00  0.00     0.143 C 
ATOM     57  O   UNK d   0      -9.085   3.584 -37.298  0.00  0.00    -0.650 OA
BRANCH  56  58
ATOM     58  O   UNK d   0     -10.678   5.145 -36.816  0.00  0.00    -0.776 OA
ATOM     59  H   UNK d   0     -11.304   4.390 -36.483  0.00  0.00     0.167 HD
ENDBRANCH  56  58
ENDBRANCH  55  56
ENDBRANCH  21  55
BRANCH  18  60
ATOM     60  C   UNK d   0      -4.988   2.515 -36.803  0.00  0.00     0.151 C 
BRANCH  60  61
ATOM     61  C   UNK d   0      -5.090   1.894 -38.132  0.00  0.00     0.143 C 
ATOM     62  O   UNK d   0      -4.189   1.342 -38.765  0.00  0.00    -0.650 OA
BRANCH  61  63
ATOM     63  O   UNK d   0      -6.374   1.948 -38.726  0.00  0.00    -0.776 OA
ATOM     64  H   UNK d   0      -6.844   1.111 -39.023  0.00  0.00     0.167 HD
ENDBRANCH  61  63
ENDBRANCH  60  61
ENDBRANCH  18  60
BRANCH  14  65
ATOM     65  C   UNK d   0      -2.033   2.662 -36.130  0.00  0.00     0.052 C 
BRANCH  65  66
ATOM     66  C   UNK d   0      -1.307   1.933 -37.204  0.00  0.00     0.115 C 
BRANCH  66  67
ATOM     67  C   UNK d   0      -1.267   0.498 -37.187  0.00  0.00     0.139 C 
ATOM     68  O   UNK d   0      -0.499  -0.085 -36.336  0.00  0.00    -0.650 OA
BRANCH  67  69
ATOM     69  O   UNK d   0      -1.975  -0.385 -38.002  0.00  0.00    -0.776 OA
ATOM     70  H   UNK d   0      -2.173  -1.310 -37.594  0.00  0.00     0.167 HD
ENDBRANCH  67  69
ENDBRANCH  66  67
ENDBRANCH  65  66
ENDBRANCH  14  65
ENDBRANCH   6   7
ENDBRANCH   5   6
ENDBRANCH   2   5
TORSDOF 28
ENDMDL
MODEL 13
REMARK VINA RESULT:      -7.2      3.059     10.005
REMARK  28 active torsions:
REMARK  status: ('A' for Active; 'I' for Inactive)
REMARK    1  A    between atoms: C_2  and  O_3 
REMARK    2  A    between atoms: C_2  and  C_4 
REMARK    3  A    between atoms: C_4  and  C_5 
REMARK    4  A    between atoms: C_5  and  C_6 
REMARK    5  A    between atoms: C_7  and  C_8 
REMARK    6  A    between atoms: C_8  and  C_9 
REMARK    7  A    between atoms: C_9  and  O_11 
REMARK    8  A    between atoms: C_28  and  C_29 
REMARK    9  A    between atoms: C_29  and  C_30 
REMARK   10  A    between atoms: C_30  and  O_32 
REMARK   11  A    between atoms: C_33  and  C_34 
REMARK   12  A    between atoms: C_34  and  C_35 
REMARK   13  A    between atoms: C_35  and  C_36 
REMARK   14  A    between atoms: C_36  and  O_38 
REMARK   15  A    between atoms: C_39  and  C_40 
REMARK   16  A    between atoms: C_40  and  C_41 
REMARK   17  A    between atoms: C_41  and  C_42 
REMARK   18  A    between atoms: C_42  and  O_44 
REMARK   19  A    between atoms: C_45  and  C_46 
REMARK   20  A    between atoms: C_46  and  C_47 
REMARK   21  A    between atoms: C_47  and  O_49 
REMARK   22  A    between atoms: C_50  and  C_51 
REMARK   23  A    between atoms: C_51  and  C_52 
REMARK   24  A    between atoms: C_52  and  O_54 
REMARK   25  A    between atoms: C_55  and  C_56 
REMARK   26  A    between atoms: C_56  and  C_57 
REMARK   27  A    between atoms: C_57  and  C_58 
REMARK   28  A    between atoms: C_58  and  O_60 
ROOT
ATOM      1  O   UNK d   0     -13.678  15.335 -34.375  0.00  0.00    -0.650 OA
ATOM      2  C   UNK d   0     -12.677  14.619 -34.149  0.00  0.00     0.139 C 
ENDROOT
BRANCH   2   3
ATOM      3  O   UNK d   0     -11.868  14.913 -33.078  0.00  0.00    -0.776 OA
ATOM      4  H   UNK d   0     -11.236  14.211 -32.687  0.00  0.00     0.167 HD
ENDBRANCH   2   3
BRANCH   2   5
ATOM      5  C   UNK d   0     -12.370  13.462 -35.036  0.00  0.00     0.115 C 
BRANCH   5   6
ATOM      6  C   UNK d   0     -11.674  13.935 -36.283  0.00  0.00     0.052 C 
BRANCH   6   7
ATOM      7  C   UNK d   0     -10.273  13.388 -36.411  0.00  0.00    -0.020 A 
ATOM      8  C   UNK d   0      -9.147  14.052 -36.348  0.00  0.00    -0.011 A 
ATOM      9  C   UNK d   0      -8.061  13.105 -36.534  0.00  0.00     0.067 A 
ATOM     10  C   UNK d   0      -6.658  13.164 -36.555  0.00  0.00     0.062 C 
ATOM     11  N   UNK d   0      -8.616  11.888 -36.710  0.00  0.00    -0.248 NA
ATOM     12  C   UNK d   0      -5.764  12.091 -36.472  0.00  0.00     0.041 A 
ATOM     13  N   UNK d   0      -5.777  10.879 -37.058  0.00  0.00    -0.355 N 
ATOM     14  C   UNK d   0      -4.659  12.192 -35.606  0.00  0.00    -0.022 A 
ATOM     15  C   UNK d   0      -4.713  10.205 -36.581  0.00  0.00     0.042 A 
ATOM     16  H   UNK d   0      -6.512  10.514 -37.809  0.00  0.00     0.166 HD
ATOM     17  C   UNK d   0      -4.257   8.902 -36.862  0.00  0.00     0.062 C 
ATOM     18  C   UNK d   0      -3.989  10.996 -35.668  0.00  0.00    -0.013 A 
ATOM     19  C   UNK d   0      -4.976   7.738 -36.954  0.00  0.00     0.067 A 
ATOM     20  N   UNK d   0      -6.307   7.849 -36.980  0.00  0.00    -0.248 NA
ATOM     21  C   UNK d   0      -4.665   6.320 -37.021  0.00  0.00    -0.011 A 
ATOM     22  C   UNK d   0      -6.888   6.607 -37.058  0.00  0.00     0.066 A 
ATOM     23  C   UNK d   0      -8.273   6.578 -37.132  0.00  0.00     0.062 C 
ATOM     24  C   UNK d   0      -5.788   5.663 -37.078  0.00  0.00    -0.020 A 
ATOM     25  C   UNK d   0      -9.152   7.668 -37.227  0.00  0.00     0.041 A 
ATOM     26  N   UNK d   0      -9.148   8.867 -36.633  0.00  0.00    -0.355 N 
ATOM     27  C   UNK d   0     -10.258   7.568 -38.099  0.00  0.00    -0.022 A 
ATOM     28  C   UNK d   0     -10.213   9.538 -37.100  0.00  0.00     0.042 A 
ATOM     29  H   UNK d   0      -8.415   9.228 -35.871  0.00  0.00     0.166 HD
ATOM     30  C   UNK d   0     -10.683  10.831 -36.823  0.00  0.00     0.062 C 
ATOM     31  C   UNK d   0     -10.934   8.747 -38.026  0.00  0.00    -0.013 A 
ATOM     32  C   UNK d   0      -9.944  11.990 -36.647  0.00  0.00     0.066 A 
BRANCH   8  33
ATOM     33  C   UNK d   0      -8.986  15.502 -36.132  0.00  0.00     0.151 C 
BRANCH  33  34
ATOM     34  C   UNK d   0      -8.983  15.870 -34.705  0.00  0.00     0.143 C 
ATOM     35  O   UNK d   0      -9.833  16.645 -34.245  0.00  0.00    -0.650 OA
BRANCH  34  36
ATOM     36  O   UNK d   0      -8.020  15.344 -33.875  0.00  0.00    -0.776 OA
ATOM     37  H   UNK d   0      -7.824  14.334 -33.856  0.00  0.00     0.167 HD
ENDBRANCH  34  36
ENDBRANCH  33  34
ENDBRANCH   8  33
BRANCH  31  38
ATOM     38  C   UNK d   0     -12.182   9.108 -38.797  0.00  0.00     0.151 C 
BRANCH  38  39
ATOM     39  C   UNK d   0     -13.398   8.739 -38.103  0.00  0.00     0.143 C 
ATOM     40  O   UNK d   0     -14.126   7.806 -38.486  0.00  0.00    -0.650 OA
BRANCH  39  41
ATOM     41  O   UNK d   0     -13.777   9.444 -36.961  0.00  0.00    -0.776 OA
ATOM     42  H   UNK d   0     -13.273  10.315 -36.767  0.00  0.00     0.167 HD
ENDBRANCH  39  41
ENDBRANCH  38  39
ENDBRANCH  31  38
BRANCH  27  43
ATOM     43  C   UNK d   0     -10.686   6.418 -38.977  0.00  0.00     0.052 C 
BRANCH  43  44
ATOM     44  C   UNK d   0     -11.562   5.432 -38.274  0.00  0.00     0.115 C 
BRANCH  44  45
ATOM     45  C   UNK d   0     -12.441   4.831 -39.311  0.00  0.00     0.139 C 
ATOM     46  O   UNK d   0     -12.399   3.586 -39.472  0.00  0.00    -0.650 OA
BRANCH  45  47
ATOM     47  O   UNK d   0     -13.295   5.578 -40.092  0.00  0.00    -0.776 OA
ATOM     48  H   UNK d   0     -13.318   5.510 -41.122  0.00  0.00     0.167 HD
ENDBRANCH  45  47
ENDBRANCH  44  45
ENDBRANCH  43  44
ENDBRANCH  27  43
BRANCH  24  49
ATOM     49  C   UNK d   0      -5.935   4.203 -37.195  0.00  0.00     0.052 C 
BRANCH  49  50
ATOM     50  C   UNK d   0      -6.432   3.834 -38.569  0.00  0.00     0.115 C 
BRANCH  50  51
ATOM     51  C   UNK d   0      -5.501   3.996 -39.678  0.00  0.00     0.139 C 
ATOM     52  O   UNK d   0      -5.548   4.971 -40.464  0.00  0.00    -0.650 OA
BRANCH  51  53
ATOM     53  O   UNK d   0      -4.517   3.043 -39.892  0.00  0.00    -0.776 OA
ATOM     54  H   UNK d   0      -3.921   3.147 -40.695  0.00  0.00     0.167 HD
ENDBRANCH  51  53
ENDBRANCH  50  51
ENDBRANCH  49  50
ENDBRANCH  24  49
BRANCH  21  55
ATOM     55  C   UNK d   0      -3.277   5.769 -37.026  0.00  0.00     0.151 C 
BRANCH  55  56
ATOM     56  C   UNK d   0      -2.608   5.949 -35.728  0.00  0.00     0.143 C 
ATOM     57  O   UNK d   0      -2.927   5.305 -34.709  0.00  0.00    -0.650 OA
BRANCH  56  58
ATOM     58  O   UNK d   0      -1.576   6.883 -35.654  0.00  0.00    -0.776 OA
ATOM     59  H   UNK d   0      -0.625   6.494 -35.793  0.00  0.00     0.167 HD
ENDBRANCH  56  58
ENDBRANCH  55  56
ENDBRANCH  21  55
BRANCH  18  60
ATOM     60  C   UNK d   0      -2.741  10.663 -34.888  0.00  0.00     0.151 C 
BRANCH  60  61
ATOM     61  C   UNK d   0      -1.654  10.592 -35.876  0.00  0.00     0.143 C 
ATOM     62  O   UNK d   0      -0.779   9.729 -35.957  0.00  0.00    -0.650 OA
BRANCH  61  63
ATOM     63  O   UNK d   0      -1.634  11.642 -36.826  0.00  0.00    -0.776 OA
ATOM     64  H   UNK d   0      -2.057  12.531 -36.626  0.00  0.00     0.167 HD
ENDBRANCH  61  63
ENDBRANCH  60  61
ENDBRANCH  18  60
BRANCH  14  65
ATOM     65  C   UNK d   0      -4.140  13.355 -34.809  0.00  0.00     0.052 C 
BRANCH  65  66
ATOM     66  C   UNK d   0      -3.273  14.264 -35.605  0.00  0.00     0.115 C 
BRANCH  66  67
ATOM     67  C   UNK d   0      -2.029  14.724 -35.054  0.00  0.00     0.139 C 
ATOM     68  O   UNK d   0      -1.200  13.854 -34.599  0.00  0.00    -0.650 OA
BRANCH  67  69
ATOM     69  O   UNK d   0      -1.581  16.040 -34.941  0.00  0.00    -0.776 OA
ATOM     70  H   UNK d   0      -1.171  16.448 -35.793  0.00  0.00     0.167 HD
ENDBRANCH  67  69
ENDBRANCH  66  67
ENDBRANCH  65  66
ENDBRANCH  14  65
ENDBRANCH   6   7
ENDBRANCH   5   6
ENDBRANCH   2   5
TORSDOF 28
ENDMDL
MODEL 14
REMARK VINA RESULT:      -7.1      1.809      6.981
REMARK  28 active torsions:
REMARK  status: ('A' for Active; 'I' for Inactive)
REMARK    1  A    between atoms: C_2  and  O_3 
REMARK    2  A    between atoms: C_2  and  C_4 
REMARK    3  A    between atoms: C_4  and  C_5 
REMARK    4  A    between atoms: C_5  and  C_6 
REMARK    5  A    between atoms: C_7  and  C_8 
REMARK    6  A    between atoms: C_8  and  C_9 
REMARK    7  A    between atoms: C_9  and  O_11 
REMARK    8  A    between atoms: C_28  and  C_29 
REMARK    9  A    between atoms: C_29  and  C_30 
REMARK   10  A    between atoms: C_30  and  O_32 
REMARK   11  A    between atoms: C_33  and  C_34 
REMARK   12  A    between atoms: C_34  and  C_35 
REMARK   13  A    between atoms: C_35  and  C_36 
REMARK   14  A    between atoms: C_36  and  O_38 
REMARK   15  A    between atoms: C_39  and  C_40 
REMARK   16  A    between atoms: C_40  and  C_41 
REMARK   17  A    between atoms: C_41  and  C_42 
REMARK   18  A    between atoms: C_42  and  O_44 
REMARK   19  A    between atoms: C_45  and  C_46 
REMARK   20  A    between atoms: C_46  and  C_47 
REMARK   21  A    between atoms: C_47  and  O_49 
REMARK   22  A    between atoms: C_50  and  C_51 
REMARK   23  A    between atoms: C_51  and  C_52 
REMARK   24  A    between atoms: C_52  and  O_54 
REMARK   25  A    between atoms: C_55  and  C_56 
REMARK   26  A    between atoms: C_56  and  C_57 
REMARK   27  A    between atoms: C_57  and  C_58 
REMARK   28  A    between atoms: C_58  and  O_60 
ROOT
ATOM      1  O   UNK d   0       4.189   4.425 -35.221  0.00  0.00    -0.650 OA
ATOM      2  C   UNK d   0       3.302   4.331 -34.344  0.00  0.00     0.139 C 
ENDROOT
BRANCH   2   3
ATOM      3  O   UNK d   0       3.616   3.786 -33.123  0.00  0.00    -0.776 OA
ATOM      4  H   UNK d   0       3.334   2.833 -32.881  0.00  0.00     0.167 HD
ENDBRANCH   2   3
BRANCH   2   5
ATOM      5  C   UNK d   0       1.918   4.806 -34.627  0.00  0.00     0.115 C 
BRANCH   5   6
ATOM      6  C   UNK d   0       1.942   5.864 -35.696  0.00  0.00     0.052 C 
BRANCH   6   7
ATOM      7  C   UNK d   0       0.769   6.811 -35.604  0.00  0.00    -0.020 A 
ATOM      8  C   UNK d   0       0.790   8.079 -35.283  0.00  0.00    -0.011 A 
ATOM      9  C   UNK d   0      -0.577   8.570 -35.320  0.00  0.00     0.067 A 
ATOM     10  C   UNK d   0      -1.217   9.801 -35.107  0.00  0.00     0.062 C 
ATOM     11  N   UNK d   0      -1.367   7.532 -35.667  0.00  0.00    -0.248 NA
ATOM     12  C   UNK d   0      -2.525  10.149 -35.463  0.00  0.00     0.041 A 
ATOM     13  N   UNK d   0      -3.682   9.467 -35.362  0.00  0.00    -0.355 N 
ATOM     14  C   UNK d   0      -2.754  11.387 -36.090  0.00  0.00    -0.022 A 
ATOM     15  C   UNK d   0      -4.637  10.237 -35.916  0.00  0.00     0.042 A 
ATOM     16  H   UNK d   0      -3.824   8.469 -34.891  0.00  0.00     0.166 HD
ATOM     17  C   UNK d   0      -6.019  10.008 -36.073  0.00  0.00     0.062 C 
ATOM     18  C   UNK d   0      -4.093  11.449 -36.384  0.00  0.00    -0.013 A 
ATOM     19  C   UNK d   0      -6.662   8.873 -36.498  0.00  0.00     0.067 A 
ATOM     20  N   UNK d   0      -5.927   7.763 -36.596  0.00  0.00    -0.248 NA
ATOM     21  C   UNK d   0      -8.012   8.531 -36.911  0.00  0.00    -0.011 A 
ATOM     22  C   UNK d   0      -6.698   6.719 -37.046  0.00  0.00     0.066 A 
ATOM     23  C   UNK d   0      -6.067   5.490 -37.159  0.00  0.00     0.062 C 
ATOM     24  C   UNK d   0      -8.026   7.270 -37.235  0.00  0.00    -0.020 A 
ATOM     25  C   UNK d   0      -4.755   5.158 -36.784  0.00  0.00     0.041 A 
ATOM     26  N   UNK d   0      -3.603   5.830 -36.898  0.00  0.00    -0.355 N 
ATOM     27  C   UNK d   0      -4.528   3.917 -36.151  0.00  0.00    -0.022 A 
ATOM     28  C   UNK d   0      -2.647   5.060 -36.354  0.00  0.00     0.042 A 
ATOM     29  H   UNK d   0      -3.460   6.827 -37.382  0.00  0.00     0.166 HD
ATOM     30  C   UNK d   0      -1.268   5.271 -36.200  0.00  0.00     0.062 C 
ATOM     31  C   UNK d   0      -3.197   3.847 -35.875  0.00  0.00    -0.013 A 
ATOM     32  C   UNK d   0      -0.617   6.444 -35.852  0.00  0.00     0.066 A 
BRANCH   8  33
ATOM     33  C   UNK d   0       1.976   8.885 -34.937  0.00  0.00     0.151 C 
BRANCH  33  34
ATOM     34  C   UNK d   0       2.207   8.964 -33.484  0.00  0.00     0.143 C 
ATOM     35  O   UNK d   0       3.040   8.232 -32.931  0.00  0.00    -0.650 OA
BRANCH  34  36
ATOM     36  O   UNK d   0       1.486   9.864 -32.733  0.00  0.00    -0.776 OA
ATOM     37  H   UNK d   0       1.830  10.196 -31.821  0.00  0.00     0.167 HD
ENDBRANCH  34  36
ENDBRANCH  33  34
ENDBRANCH   8  33
BRANCH  31  38
ATOM     38  C   UNK d   0      -2.488   2.704 -35.185  0.00  0.00     0.151 C 
BRANCH  38  39
ATOM     39  C   UNK d   0      -2.114   1.644 -36.097  0.00  0.00     0.143 C 
ATOM     40  O   UNK d   0      -1.322   1.825 -37.039  0.00  0.00    -0.650 OA
BRANCH  39  41
ATOM     41  O   UNK d   0      -2.651   0.369 -35.924  0.00  0.00    -0.776 OA
ATOM     42  H   UNK d   0      -3.117   0.181 -35.030  0.00  0.00     0.167 HD
ENDBRANCH  39  41
ENDBRANCH  38  39
ENDBRANCH  31  38
BRANCH  27  43
ATOM     43  C   UNK d   0      -5.506   2.822 -35.809  0.00  0.00     0.052 C 
BRANCH  43  44
ATOM     44  C   UNK d   0      -5.937   2.839 -34.378  0.00  0.00     0.115 C 
BRANCH  44  45
ATOM     45  C   UNK d   0      -7.268   3.499 -34.343  0.00  0.00     0.139 C 
ATOM     46  O   UNK d   0      -8.243   2.891 -34.851  0.00  0.00    -0.650 OA
BRANCH  45  47
ATOM     47  O   UNK d   0      -7.473   4.738 -33.776  0.00  0.00    -0.776 OA
ATOM     48  H   UNK d   0      -6.826   5.152 -33.086  0.00  0.00     0.167 HD
ENDBRANCH  45  47
ENDBRANCH  44  45
ENDBRANCH  43  44
ENDBRANCH  27  43
BRANCH  24  49
ATOM     49  C   UNK d   0      -9.202   6.499 -37.674  0.00  0.00     0.052 C 
BRANCH  49  50
ATOM     50  C   UNK d   0      -9.664   5.576 -36.575  0.00  0.00     0.115 C 
BRANCH  50  51
ATOM     51  C   UNK d   0     -10.438   6.168 -35.492  0.00  0.00     0.139 C 
ATOM     52  O   UNK d   0     -11.607   6.592 -35.649  0.00  0.00    -0.650 OA
BRANCH  51  53
ATOM     53  O   UNK d   0      -9.876   6.279 -34.229  0.00  0.00    -0.776 OA
ATOM     54  H   UNK d   0      -9.432   5.469 -33.833  0.00  0.00     0.167 HD
ENDBRANCH  51  53
ENDBRANCH  50  51
ENDBRANCH  49  50
ENDBRANCH  24  49
BRANCH  21  55
ATOM     55  C   UNK d   0      -9.149   9.498 -36.936  0.00  0.00     0.151 C 
BRANCH  55  56
ATOM     56  C   UNK d   0      -9.352  10.144 -35.630  0.00  0.00     0.143 C 
ATOM     57  O   UNK d   0      -9.271  11.378 -35.467  0.00  0.00    -0.650 OA
BRANCH  56  58
ATOM     58  O   UNK d   0      -9.646   9.327 -34.540  0.00  0.00    -0.776 OA
ATOM     59  H   UNK d   0      -9.732   9.821 -33.634  0.00  0.00     0.167 HD
ENDBRANCH  56  58
ENDBRANCH  55  56
ENDBRANCH  21  55
BRANCH  18  60
ATOM     60  C   UNK d   0      -4.775  12.606 -37.072  0.00  0.00     0.151 C 
BRANCH  60  61
ATOM     61  C   UNK d   0      -5.697  13.179 -36.079  0.00  0.00     0.143 C 
ATOM     62  O   UNK d   0      -5.409  13.623 -34.968  0.00  0.00    -0.650 OA
BRANCH  61  63
ATOM     63  O   UNK d   0      -7.057  13.212 -36.470  0.00  0.00    -0.776 OA
ATOM     64  H   UNK d   0      -7.373  12.725 -37.290  0.00  0.00     0.167 HD
ENDBRANCH  61  63
ENDBRANCH  60  61
ENDBRANCH  18  60
BRANCH  14  65
ATOM     65  C   UNK d   0      -1.830  12.545 -36.341  0.00  0.00     0.052 C 
BRANCH  65  66
ATOM     66  C   UNK d   0      -2.115  13.716 -35.470  0.00  0.00     0.115 C 
BRANCH  66  67
ATOM     67  C   UNK d   0      -1.498  14.981 -35.753  0.00  0.00     0.139 C 
ATOM     68  O   UNK d   0      -0.807  15.099 -36.831  0.00  0.00    -0.650 OA
BRANCH  67  69
ATOM     69  O   UNK d   0      -1.548  16.145 -34.987  0.00  0.00    -0.776 OA
ATOM     70  H   UNK d   0      -0.707  16.740 -35.021  0.00  0.00     0.167 HD
ENDBRANCH  67  69
ENDBRANCH  66  67
ENDBRANCH  65  66
ENDBRANCH  14  65
ENDBRANCH   6   7
ENDBRANCH   5   6
ENDBRANCH   2   5
TORSDOF 28
ENDMDL
MODEL 15
REMARK VINA RESULT:      -7.1      1.726      7.248
REMARK  28 active torsions:
REMARK  status: ('A' for Active; 'I' for Inactive)
REMARK    1  A    between atoms: C_2  and  O_3 
REMARK    2  A    between atoms: C_2  and  C_4 
REMARK    3  A    between atoms: C_4  and  C_5 
REMARK    4  A    between atoms: C_5  and  C_6 
REMARK    5  A    between atoms: C_7  and  C_8 
REMARK    6  A    between atoms: C_8  and  C_9 
REMARK    7  A    between atoms: C_9  and  O_11 
REMARK    8  A    between atoms: C_28  and  C_29 
REMARK    9  A    between atoms: C_29  and  C_30 
REMARK   10  A    between atoms: C_30  and  O_32 
REMARK   11  A    between atoms: C_33  and  C_34 
REMARK   12  A    between atoms: C_34  and  C_35 
REMARK   13  A    between atoms: C_35  and  C_36 
REMARK   14  A    between atoms: C_36  and  O_38 
REMARK   15  A    between atoms: C_39  and  C_40 
REMARK   16  A    between atoms: C_40  and  C_41 
REMARK   17  A    between atoms: C_41  and  C_42 
REMARK   18  A    between atoms: C_42  and  O_44 
REMARK   19  A    between atoms: C_45  and  C_46 
REMARK   20  A    between atoms: C_46  and  C_47 
REMARK   21  A    between atoms: C_47  and  O_49 
REMARK   22  A    between atoms: C_50  and  C_51 
REMARK   23  A    between atoms: C_51  and  C_52 
REMARK   24  A    between atoms: C_52  and  O_54 
REMARK   25  A    between atoms: C_55  and  C_56 
REMARK   26  A    between atoms: C_56  and  C_57 
REMARK   27  A    between atoms: C_57  and  C_58 
REMARK   28  A    between atoms: C_58  and  O_60 
ROOT
ATOM      1  O   UNK d   0       1.957   4.393 -37.313  0.00  0.00    -0.650 OA
ATOM      2  C   UNK d   0       2.099   5.597 -37.624  0.00  0.00     0.139 C 
ENDROOT
BRANCH   2   3
ATOM      3  O   UNK d   0       1.733   6.016 -38.880  0.00  0.00    -0.776 OA
ATOM      4  H   UNK d   0       2.083   6.895 -39.266  0.00  0.00     0.167 HD
ENDBRANCH   2   3
BRANCH   2   5
ATOM      5  C   UNK d   0       2.662   6.563 -36.638  0.00  0.00     0.115 C 
BRANCH   5   6
ATOM      6  C   UNK d   0       1.910   6.472 -35.338  0.00  0.00     0.052 C 
BRANCH   6   7
ATOM      7  C   UNK d   0       0.648   7.301 -35.337  0.00  0.00    -0.020 A 
ATOM      8  C   UNK d   0       0.516   8.553 -34.982  0.00  0.00    -0.011 A 
ATOM      9  C   UNK d   0      -0.883   8.916 -35.141  0.00  0.00     0.067 A 
ATOM     10  C   UNK d   0      -1.656  10.073 -34.960  0.00  0.00     0.062 C 
ATOM     11  N   UNK d   0      -1.532   7.821 -35.591  0.00  0.00    -0.248 NA
ATOM     12  C   UNK d   0      -2.951  10.309 -35.433  0.00  0.00     0.041 A 
ATOM     13  N   UNK d   0      -4.041   9.520 -35.465  0.00  0.00    -0.355 N 
ATOM     14  C   UNK d   0      -3.237  11.542 -36.048  0.00  0.00    -0.022 A 
ATOM     15  C   UNK d   0      -5.009  10.217 -36.090  0.00  0.00     0.042 A 
ATOM     16  H   UNK d   0      -4.131   8.497 -35.036  0.00  0.00     0.166 HD
ATOM     17  C   UNK d   0      -6.341   9.865 -36.388  0.00  0.00     0.062 C 
ATOM     18  C   UNK d   0      -4.542  11.489 -36.470  0.00  0.00    -0.013 A 
ATOM     19  C   UNK d   0      -6.828   8.691 -36.904  0.00  0.00     0.067 A 
ATOM     20  N   UNK d   0      -5.983   7.658 -36.958  0.00  0.00    -0.248 NA
ATOM     21  C   UNK d   0      -8.093   8.239 -37.457  0.00  0.00    -0.011 A 
ATOM     22  C   UNK d   0      -6.604   6.564 -37.509  0.00  0.00     0.066 A 
ATOM     23  C   UNK d   0      -5.849   5.403 -37.591  0.00  0.00     0.062 C 
ATOM     24  C   UNK d   0      -7.955   6.994 -37.813  0.00  0.00    -0.020 A 
ATOM     25  C   UNK d   0      -4.553   5.183 -37.098  0.00  0.00     0.041 A 
ATOM     26  N   UNK d   0      -3.466   5.962 -37.081  0.00  0.00    -0.355 N 
ATOM     27  C   UNK d   0      -4.269   3.947 -36.478  0.00  0.00    -0.022 A 
ATOM     28  C   UNK d   0      -2.497   5.266 -36.465  0.00  0.00     0.042 A 
ATOM     29  H   UNK d   0      -3.374   6.985 -37.521  0.00  0.00     0.166 HD
ATOM     30  C   UNK d   0      -1.165   5.600 -36.171  0.00  0.00     0.062 C 
ATOM     31  C   UNK d   0      -2.970   3.991 -36.074  0.00  0.00    -0.013 A 
ATOM     32  C   UNK d   0      -0.667   6.815 -35.730  0.00  0.00     0.066 A 
BRANCH   8  33
ATOM     33  C   UNK d   0       1.580   9.454 -34.500  0.00  0.00     0.151 C 
BRANCH  33  34
ATOM     34  C   UNK d   0       1.784   9.366 -33.043  0.00  0.00     0.143 C 
ATOM     35  O   UNK d   0       1.014   9.936 -32.257  0.00  0.00    -0.650 OA
BRANCH  34  36
ATOM     36  O   UNK d   0       2.847   8.643 -32.552  0.00  0.00    -0.776 OA
ATOM     37  H   UNK d   0       2.742   7.656 -32.283  0.00  0.00     0.167 HD
ENDBRANCH  34  36
ENDBRANCH  33  34
ENDBRANCH   8  33
BRANCH  31  38
ATOM     38  C   UNK d   0      -2.224   2.896 -35.348  0.00  0.00     0.151 C 
BRANCH  38  39
ATOM     39  C   UNK d   0      -1.127   2.355 -36.122  0.00  0.00     0.143 C 
ATOM     40  O   UNK d   0      -0.022   2.092 -35.617  0.00  0.00    -0.650 OA
BRANCH  39  41
ATOM     41  O   UNK d   0      -1.302   2.115 -37.485  0.00  0.00    -0.776 OA
ATOM     42  H   UNK d   0      -0.794   2.728 -38.131  0.00  0.00     0.167 HD
ENDBRANCH  39  41
ENDBRANCH  38  39
ENDBRANCH  31  38
BRANCH  27  43
ATOM     43  C   UNK d   0      -5.166   2.753 -36.263  0.00  0.00     0.052 C 
BRANCH  43  44
ATOM     44  C   UNK d   0      -5.560   2.074 -37.534  0.00  0.00     0.115 C 
BRANCH  44  45
ATOM     45  C   UNK d   0      -4.356   1.353 -38.022  0.00  0.00     0.139 C 
ATOM     46  O   UNK d   0      -3.844   1.724 -39.108  0.00  0.00    -0.650 OA
BRANCH  45  47
ATOM     47  O   UNK d   0      -3.780   0.308 -37.333  0.00  0.00    -0.776 OA
ATOM     48  H   UNK d   0      -2.956   0.426 -36.722  0.00  0.00     0.167 HD
ENDBRANCH  45  47
ENDBRANCH  44  45
ENDBRANCH  43  44
ENDBRANCH  27  43
BRANCH  24  49
ATOM     49  C   UNK d   0      -9.003   6.133 -38.386  0.00  0.00     0.052 C 
BRANCH  49  50
ATOM     50  C   UNK d   0      -9.416   5.077 -37.392  0.00  0.00     0.115 C 
BRANCH  50  51
ATOM     51  C   UNK d   0     -10.495   5.414 -36.474  0.00  0.00     0.139 C 
ATOM     52  O   UNK d   0     -11.276   6.375 -36.672  0.00  0.00    -0.650 OA
BRANCH  51  53
ATOM     53  O   UNK d   0     -10.683   4.657 -35.328  0.00  0.00    -0.776 OA
ATOM     54  H   UNK d   0     -11.608   4.318 -35.129  0.00  0.00     0.167 HD
ENDBRANCH  51  53
ENDBRANCH  50  51
ENDBRANCH  49  50
ENDBRANCH  24  49
BRANCH  21  55
ATOM     55  C   UNK d   0      -9.310   9.096 -37.568  0.00  0.00     0.151 C 
BRANCH  55  56
ATOM     56  C   UNK d   0      -9.724   9.637 -36.264  0.00  0.00     0.143 C 
ATOM     57  O   UNK d   0      -9.719  10.857 -36.007  0.00  0.00    -0.650 OA
BRANCH  56  58
ATOM     58  O   UNK d   0     -10.138   8.732 -35.288  0.00  0.00    -0.776 OA
ATOM     59  H   UNK d   0      -9.396   8.429 -34.632  0.00  0.00     0.167 HD
ENDBRANCH  56  58
ENDBRANCH  55  56
ENDBRANCH  21  55
BRANCH  18  60
ATOM     60  C   UNK d   0      -5.263  12.602 -37.191  0.00  0.00     0.151 C 
BRANCH  60  61
ATOM     61  C   UNK d   0      -6.223  13.154 -36.224  0.00  0.00     0.143 C 
ATOM     62  O   UNK d   0      -5.965  13.696 -35.149  0.00  0.00    -0.650 OA
BRANCH  61  63
ATOM     63  O   UNK d   0      -7.585  13.037 -36.593  0.00  0.00    -0.776 OA
ATOM     64  H   UNK d   0      -7.872  13.131 -37.551  0.00  0.00     0.167 HD
ENDBRANCH  61  63
ENDBRANCH  60  61
ENDBRANCH  18  60
BRANCH  14  65
ATOM     65  C   UNK d   0      -2.409  12.789 -36.176  0.00  0.00     0.052 C 
BRANCH  65  66
ATOM     66  C   UNK d   0      -2.622  13.747 -35.058  0.00  0.00     0.115 C 
BRANCH  66  67
ATOM     67  C   UNK d   0      -1.712  14.842 -34.875  0.00  0.00     0.139 C 
ATOM     68  O   UNK d   0      -1.685  15.772 -35.762  0.00  0.00    -0.650 OA
BRANCH  67  69
ATOM     69  O   UNK d   0      -0.817  15.041 -33.825  0.00  0.00    -0.776 OA
ATOM     70  H   UNK d   0      -0.880  15.953 -33.349  0.00  0.00     0.167 HD
ENDBRANCH  67  69
ENDBRANCH  66  67
ENDBRANCH  65  66
ENDBRANCH  14  65
ENDBRANCH   6   7
ENDBRANCH   5   6
ENDBRANCH   2   5
TORSDOF 28
ENDMDL
MODEL 16
REMARK VINA RESULT:      -7.1      2.176      7.977
REMARK  28 active torsions:
REMARK  status: ('A' for Active; 'I' for Inactive)
REMARK    1  A    between atoms: C_2  and  O_3 
REMARK    2  A    between atoms: C_2  and  C_4 
REMARK    3  A    between atoms: C_4  and  C_5 
REMARK    4  A    between atoms: C_5  and  C_6 
REMARK    5  A    between atoms: C_7  and  C_8 
REMARK    6  A    between atoms: C_8  and  C_9 
REMARK    7  A    between atoms: C_9  and  O_11 
REMARK    8  A    between atoms: C_28  and  C_29 
REMARK    9  A    between atoms: C_29  and  C_30 
REMARK   10  A    between atoms: C_30  and  O_32 
REMARK   11  A    between atoms: C_33  and  C_34 
REMARK   12  A    between atoms: C_34  and  C_35 
REMARK   13  A    between atoms: C_35  and  C_36 
REMARK   14  A    between atoms: C_36  and  O_38 
REMARK   15  A    between atoms: C_39  and  C_40 
REMARK   16  A    between atoms: C_40  and  C_41 
REMARK   17  A    between atoms: C_41  and  C_42 
REMARK   18  A    between atoms: C_42  and  O_44 
REMARK   19  A    between atoms: C_45  and  C_46 
REMARK   20  A    between atoms: C_46  and  C_47 
REMARK   21  A    between atoms: C_47  and  O_49 
REMARK   22  A    between atoms: C_50  and  C_51 
REMARK   23  A    between atoms: C_51  and  C_52 
REMARK   24  A    between atoms: C_52  and  O_54 
REMARK   25  A    between atoms: C_55  and  C_56 
REMARK   26  A    between atoms: C_56  and  C_57 
REMARK   27  A    between atoms: C_57  and  C_58 
REMARK   28  A    between atoms: C_58  and  O_60 
ROOT
ATOM      1  O   UNK d   0      -0.805  14.662 -37.361  0.00  0.00    -0.650 OA
ATOM      2  C   UNK d   0      -1.265  13.676 -37.979  0.00  0.00     0.139 C 
ENDROOT
BRANCH   2   3
ATOM      3  O   UNK d   0      -2.030  13.882 -39.102  0.00  0.00    -0.776 OA
ATOM      4  H   UNK d   0      -1.745  14.553 -39.818  0.00  0.00     0.167 HD
ENDBRANCH   2   3
BRANCH   2   5
ATOM      5  C   UNK d   0      -0.985  12.294 -37.497  0.00  0.00     0.115 C 
BRANCH   5   6
ATOM      6  C   UNK d   0      -1.470  12.130 -36.083  0.00  0.00     0.052 C 
BRANCH   6   7
ATOM      7  C   UNK d   0      -2.556  11.088 -35.957  0.00  0.00    -0.020 A 
ATOM      8  C   UNK d   0      -3.850  11.279 -35.969  0.00  0.00    -0.011 A 
ATOM      9  C   UNK d   0      -4.492   9.985 -35.810  0.00  0.00     0.067 A 
ATOM     10  C   UNK d   0      -5.811   9.508 -35.763  0.00  0.00     0.062 C 
ATOM     11  N   UNK d   0      -3.513   9.063 -35.702  0.00  0.00    -0.248 NA
ATOM     12  C   UNK d   0      -6.237   8.181 -35.882  0.00  0.00     0.041 A 
ATOM     13  N   UNK d   0      -5.748   7.042 -35.355  0.00  0.00    -0.355 N 
ATOM     14  C   UNK d   0      -7.326   7.888 -36.723  0.00  0.00    -0.022 A 
ATOM     15  C   UNK d   0      -6.494   6.034 -35.846  0.00  0.00     0.042 A 
ATOM     16  H   UNK d   0      -4.904   6.954 -34.635  0.00  0.00     0.166 HD
ATOM     17  C   UNK d   0      -6.415   4.645 -35.620  0.00  0.00     0.062 C 
ATOM     18  C   UNK d   0      -7.493   6.526 -36.707  0.00  0.00    -0.013 A 
ATOM     19  C   UNK d   0      -5.306   3.838 -35.597  0.00  0.00     0.067 A 
ATOM     20  N   UNK d   0      -4.116   4.444 -35.587  0.00  0.00    -0.248 NA
ATOM     21  C   UNK d   0      -5.057   2.406 -35.593  0.00  0.00    -0.011 A 
ATOM     22  C   UNK d   0      -3.107   3.512 -35.579  0.00  0.00     0.066 A 
ATOM     23  C   UNK d   0      -1.812   4.006 -35.531  0.00  0.00     0.062 C 
ATOM     24  C   UNK d   0      -3.769   2.222 -35.587  0.00  0.00    -0.020 A 
ATOM     25  C   UNK d   0      -1.406   5.343 -35.398  0.00  0.00     0.041 A 
ATOM     26  N   UNK d   0      -1.883   6.473 -35.934  0.00  0.00    -0.355 N 
ATOM     27  C   UNK d   0      -0.315   5.636 -34.551  0.00  0.00    -0.022 A 
ATOM     28  C   UNK d   0      -1.135   7.479 -35.453  0.00  0.00     0.042 A 
ATOM     29  H   UNK d   0      -2.724   6.559 -36.665  0.00  0.00     0.166 HD
ATOM     30  C   UNK d   0      -1.197   8.863 -35.676  0.00  0.00     0.062 C 
ATOM     31  C   UNK d   0      -0.137   6.985 -34.579  0.00  0.00    -0.013 A 
ATOM     32  C   UNK d   0      -2.324   9.662 -35.784  0.00  0.00     0.066 A 
BRANCH   8  33
ATOM     33  C   UNK d   0      -4.553  12.567 -36.112  0.00  0.00     0.151 C 
BRANCH  33  34
ATOM     34  C   UNK d   0      -4.749  13.256 -34.824  0.00  0.00     0.143 C 
ATOM     35  O   UNK d   0      -3.876  13.222 -33.945  0.00  0.00    -0.650 OA
BRANCH  34  36
ATOM     36  O   UNK d   0      -5.918  13.945 -34.597  0.00  0.00    -0.776 OA
ATOM     37  H   UNK d   0      -5.931  14.973 -34.542  0.00  0.00     0.167 HD
ENDBRANCH  34  36
ENDBRANCH  33  34
ENDBRANCH   8  33
BRANCH  31  38
ATOM     38  C   UNK d   0       0.908   7.763 -33.813  0.00  0.00     0.151 C 
BRANCH  38  39
ATOM     39  C   UNK d   0       2.196   7.773 -34.473  0.00  0.00     0.143 C 
ATOM     40  O   UNK d   0       2.323   8.042 -35.680  0.00  0.00    -0.650 OA
BRANCH  39  41
ATOM     41  O   UNK d   0       3.344   7.472 -33.741  0.00  0.00    -0.776 OA
ATOM     42  H   UNK d   0       3.984   6.783 -34.148  0.00  0.00     0.167 HD
ENDBRANCH  39  41
ENDBRANCH  38  39
ENDBRANCH  31  38
BRANCH  27  43
ATOM     43  C   UNK d   0       0.544   4.701 -33.737  0.00  0.00     0.052 C 
BRANCH  43  44
ATOM     44  C   UNK d   0       1.320   3.734 -34.571  0.00  0.00     0.115 C 
BRANCH  44  45
ATOM     45  C   UNK d   0       2.717   4.239 -34.616  0.00  0.00     0.139 C 
ATOM     46  O   UNK d   0       3.224   4.477 -35.740  0.00  0.00    -0.650 OA
BRANCH  45  47
ATOM     47  O   UNK d   0       3.469   4.458 -33.482  0.00  0.00    -0.776 OA
ATOM     48  H   UNK d   0       3.086   4.361 -32.528  0.00  0.00     0.167 HD
ENDBRANCH  45  47
ENDBRANCH  44  45
ENDBRANCH  43  44
ENDBRANCH  27  43
BRANCH  24  49
ATOM     49  C   UNK d   0      -3.077   0.922 -35.542  0.00  0.00     0.052 C 
BRANCH  49  50
ATOM     50  C   UNK d   0      -2.594   0.632 -34.144  0.00  0.00     0.115 C 
BRANCH  50  51
ATOM     51  C   UNK d   0      -2.974  -0.648 -33.562  0.00  0.00     0.139 C 
ATOM     52  O   UNK d   0      -3.975  -0.782 -32.818  0.00  0.00    -0.650 OA
BRANCH  51  53
ATOM     53  O   UNK d   0      -2.211  -1.775 -33.825  0.00  0.00    -0.776 OA
ATOM     54  H   UNK d   0      -2.339  -2.583 -33.241  0.00  0.00     0.167 HD
ENDBRANCH  51  53
ENDBRANCH  50  51
ENDBRANCH  49  50
ENDBRANCH  24  49
BRANCH  21  55
ATOM     55  C   UNK d   0      -6.133   1.371 -35.591  0.00  0.00     0.151 C 
BRANCH  55  56
ATOM     56  C   UNK d   0      -6.762   1.231 -34.268  0.00  0.00     0.143 C 
ATOM     57  O   UNK d   0      -7.988   1.062 -34.118  0.00  0.00    -0.650 OA
BRANCH  56  58
ATOM     58  O   UNK d   0      -5.935   1.293 -33.147  0.00  0.00    -0.776 OA
ATOM     59  H   UNK d   0      -4.955   1.566 -33.342  0.00  0.00     0.167 HD
ENDBRANCH  56  58
ENDBRANCH  55  56
ENDBRANCH  21  55
BRANCH  18  60
ATOM     60  C   UNK d   0      -8.549   5.776 -37.481  0.00  0.00     0.151 C 
BRANCH  60  61
ATOM     61  C   UNK d   0      -7.850   5.143 -38.610  0.00  0.00     0.143 C 
ATOM     62  O   UNK d   0      -7.899   3.959 -38.944  0.00  0.00    -0.650 OA
BRANCH  61  63
ATOM     63  O   UNK d   0      -7.039   6.012 -39.379  0.00  0.00    -0.776 OA
ATOM     64  H   UNK d   0      -6.042   6.032 -39.260  0.00  0.00     0.167 HD
ENDBRANCH  61  63
ENDBRANCH  60  61
ENDBRANCH  18  60
BRANCH  14  65
ATOM     65  C   UNK d   0      -8.273   8.797 -37.454  0.00  0.00     0.052 C 
BRANCH  65  66
ATOM     66  C   UNK d   0      -9.500   9.110 -36.673  0.00  0.00     0.115 C 
BRANCH  66  67
ATOM     67  C   UNK d   0      -9.401   9.901 -35.479  0.00  0.00     0.139 C 
ATOM     68  O   UNK d   0      -9.528  11.177 -35.576  0.00  0.00    -0.650 OA
BRANCH  67  69
ATOM     69  O   UNK d   0      -9.176   9.456 -34.176  0.00  0.00    -0.776 OA
ATOM     70  H   UNK d   0      -9.985   9.502 -33.541  0.00  0.00     0.167 HD
ENDBRANCH  67  69
ENDBRANCH  66  67
ENDBRANCH  65  66
ENDBRANCH  14  65
ENDBRANCH   6   7
ENDBRANCH   5   6
ENDBRANCH   2   5
TORSDOF 28
ENDMDL
MODEL 17
REMARK VINA RESULT:      -7.0      1.885      7.412
REMARK  28 active torsions:
REMARK  status: ('A' for Active; 'I' for Inactive)
REMARK    1  A    between atoms: C_2  and  O_3 
REMARK    2  A    between atoms: C_2  and  C_4 
REMARK    3  A    between atoms: C_4  and  C_5 
REMARK    4  A    between atoms: C_5  and  C_6 
REMARK    5  A    between atoms: C_7  and  C_8 
REMARK    6  A    between atoms: C_8  and  C_9 
REMARK    7  A    between atoms: C_9  and  O_11 
REMARK    8  A    between atoms: C_28  and  C_29 
REMARK    9  A    between atoms: C_29  and  C_30 
REMARK   10  A    between atoms: C_30  and  O_32 
REMARK   11  A    between atoms: C_33  and  C_34 
REMARK   12  A    between atoms: C_34  and  C_35 
REMARK   13  A    between atoms: C_35  and  C_36 
REMARK   14  A    between atoms: C_36  and  O_38 
REMARK   15  A    between atoms: C_39  and  C_40 
REMARK   16  A    between atoms: C_40  and  C_41 
REMARK   17  A    between atoms: C_41  and  C_42 
REMARK   18  A    between atoms: C_42  and  O_44 
REMARK   19  A    between atoms: C_45  and  C_46 
REMARK   20  A    between atoms: C_46  and  C_47 
REMARK   21  A    between atoms: C_47  and  O_49 
REMARK   22  A    between atoms: C_50  and  C_51 
REMARK   23  A    between atoms: C_51  and  C_52 
REMARK   24  A    between atoms: C_52  and  O_54 
REMARK   25  A    between atoms: C_55  and  C_56 
REMARK   26  A    between atoms: C_56  and  C_57 
REMARK   27  A    between atoms: C_57  and  C_58 
REMARK   28  A    between atoms: C_58  and  O_60 
ROOT
ATOM      1  O   UNK d   0       4.145   5.269 -33.505  0.00  0.00    -0.650 OA
ATOM      2  C   UNK d   0       3.629   4.728 -34.509  0.00  0.00     0.139 C 
ENDROOT
BRANCH   2   3
ATOM      3  O   UNK d   0       4.423   4.005 -35.367  0.00  0.00    -0.776 OA
ATOM      4  H   UNK d   0       4.703   4.386 -36.273  0.00  0.00     0.167 HD
ENDBRANCH   2   3
BRANCH   2   5
ATOM      5  C   UNK d   0       2.168   4.869 -34.767  0.00  0.00     0.115 C 
BRANCH   5   6
ATOM      6  C   UNK d   0       1.938   5.706 -35.996  0.00  0.00     0.052 C 
BRANCH   6   7
ATOM      7  C   UNK d   0       0.778   6.660 -35.840  0.00  0.00    -0.020 A 
ATOM      8  C   UNK d   0       0.828   7.945 -35.600  0.00  0.00    -0.011 A 
ATOM      9  C   UNK d   0      -0.537   8.437 -35.525  0.00  0.00     0.067 A 
ATOM     10  C   UNK d   0      -1.156   9.681 -35.322  0.00  0.00     0.062 C 
ATOM     11  N   UNK d   0      -1.355   7.382 -35.726  0.00  0.00    -0.248 NA
ATOM     12  C   UNK d   0      -2.495  10.010 -35.561  0.00  0.00     0.041 A 
ATOM     13  N   UNK d   0      -3.633   9.339 -35.301  0.00  0.00    -0.355 N 
ATOM     14  C   UNK d   0      -2.791  11.209 -36.235  0.00  0.00    -0.022 A 
ATOM     15  C   UNK d   0      -4.642  10.078 -35.799  0.00  0.00     0.042 A 
ATOM     16  H   UNK d   0      -3.722   8.372 -34.758  0.00  0.00     0.166 HD
ATOM     17  C   UNK d   0      -6.032   9.844 -35.798  0.00  0.00     0.062 C 
ATOM     18  C   UNK d   0      -4.153  11.258 -36.392  0.00  0.00    -0.013 A 
ATOM     19  C   UNK d   0      -6.712   8.688 -36.085  0.00  0.00     0.067 A 
ATOM     20  N   UNK d   0      -5.988   7.571 -36.192  0.00  0.00    -0.248 NA
ATOM     21  C   UNK d   0      -8.097   8.325 -36.336  0.00  0.00    -0.011 A 
ATOM     22  C   UNK d   0      -6.798   6.505 -36.496  0.00  0.00     0.066 A 
ATOM     23  C   UNK d   0      -6.177   5.268 -36.599  0.00  0.00     0.062 C 
ATOM     24  C   UNK d   0      -8.140   7.047 -36.580  0.00  0.00    -0.020 A 
ATOM     25  C   UNK d   0      -4.833   4.956 -36.343  0.00  0.00     0.041 A 
ATOM     26  N   UNK d   0      -3.701   5.616 -36.615  0.00  0.00    -0.355 N 
ATOM     27  C   UNK d   0      -4.537   3.755 -35.663  0.00  0.00    -0.022 A 
ATOM     28  C   UNK d   0      -2.692   4.877 -36.128  0.00  0.00     0.042 A 
ATOM     29  H   UNK d   0      -3.612   6.582 -37.170  0.00  0.00     0.166 HD
ATOM     30  C   UNK d   0      -1.305   5.093 -36.129  0.00  0.00     0.062 C 
ATOM     31  C   UNK d   0      -3.185   3.697 -35.522  0.00  0.00    -0.013 A 
ATOM     32  C   UNK d   0      -0.625   6.283 -35.922  0.00  0.00     0.066 A 
BRANCH   8  33
ATOM     33  C   UNK d   0       2.040   8.767 -35.428  0.00  0.00     0.151 C 
BRANCH  33  34
ATOM     34  C   UNK d   0       2.777   8.444 -34.192  0.00  0.00     0.143 C 
ATOM     35  O   UNK d   0       2.193   8.378 -33.102  0.00  0.00    -0.650 OA
BRANCH  34  36
ATOM     36  O   UNK d   0       4.132   8.214 -34.254  0.00  0.00    -0.776 OA
ATOM     37  H   UNK d   0       4.784   8.690 -33.616  0.00  0.00     0.167 HD
ENDBRANCH  34  36
ENDBRANCH  33  34
ENDBRANCH   8  33
BRANCH  31  38
ATOM     38  C   UNK d   0      -2.406   2.596 -34.841  0.00  0.00     0.151 C 
BRANCH  38  39
ATOM     39  C   UNK d   0      -1.667   1.772 -35.774  0.00  0.00     0.143 C 
ATOM     40  O   UNK d   0      -0.439   1.601 -35.683  0.00  0.00    -0.650 OA
BRANCH  39  41
ATOM     41  O   UNK d   0      -2.345   1.139 -36.817  0.00  0.00    -0.776 OA
ATOM     42  H   UNK d   0      -2.912   0.323 -36.570  0.00  0.00     0.167 HD
ENDBRANCH  39  41
ENDBRANCH  38  39
ENDBRANCH  31  38
BRANCH  27  43
ATOM     43  C   UNK d   0      -5.472   2.685 -35.156  0.00  0.00     0.052 C 
BRANCH  43  44
ATOM     44  C   UNK d   0      -5.744   1.614 -36.162  0.00  0.00     0.115 C 
BRANCH  44  45
ATOM     45  C   UNK d   0      -5.580   0.317 -35.456  0.00  0.00     0.139 C 
ATOM     46  O   UNK d   0      -6.541  -0.108 -34.768  0.00  0.00    -0.650 OA
BRANCH  45  47
ATOM     47  O   UNK d   0      -4.427  -0.434 -35.530  0.00  0.00    -0.776 OA
ATOM     48  H   UNK d   0      -4.347  -1.282 -36.114  0.00  0.00     0.167 HD
ENDBRANCH  45  47
ENDBRANCH  44  45
ENDBRANCH  43  44
ENDBRANCH  27  43
BRANCH  24  49
ATOM     49  C   UNK d   0      -9.352   6.255 -36.848  0.00  0.00     0.052 C 
BRANCH  49  50
ATOM     50  C   UNK d   0      -9.636   6.215 -38.328  0.00  0.00     0.115 C 
BRANCH  50  51
ATOM     51  C   UNK d   0      -9.128   5.071 -39.072  0.00  0.00     0.139 C 
ATOM     52  O   UNK d   0      -9.795   4.024 -39.242  0.00  0.00    -0.650 OA
BRANCH  51  53
ATOM     53  O   UNK d   0      -7.856   5.121 -39.622  0.00  0.00    -0.776 OA
ATOM     54  H   UNK d   0      -7.374   6.003 -39.627  0.00  0.00     0.167 HD
ENDBRANCH  51  53
ENDBRANCH  50  51
ENDBRANCH  49  50
ENDBRANCH  24  49
BRANCH  21  55
ATOM     55  C   UNK d   0      -9.233   9.293 -36.301  0.00  0.00     0.151 C 
BRANCH  55  56
ATOM     56  C   UNK d   0      -9.432   9.862 -34.960  0.00  0.00     0.143 C 
ATOM     57  O   UNK d   0      -9.680  11.069 -34.768  0.00  0.00    -0.650 OA
BRANCH  56  58
ATOM     58  O   UNK d   0      -9.334   9.001 -33.868  0.00  0.00    -0.776 OA
ATOM     59  H   UNK d   0     -10.038   9.158 -33.124  0.00  0.00     0.167 HD
ENDBRANCH  56  58
ENDBRANCH  55  56
ENDBRANCH  21  55
BRANCH  18  60
ATOM     60  C   UNK d   0      -4.906  12.373 -37.075  0.00  0.00     0.151 C 
BRANCH  60  61
ATOM     61  C   UNK d   0      -5.679  13.043 -36.018  0.00  0.00     0.143 C 
ATOM     62  O   UNK d   0      -6.905  13.113 -35.927  0.00  0.00    -0.650 OA
BRANCH  61  63
ATOM     63  O   UNK d   0      -4.906  13.667 -35.009  0.00  0.00    -0.776 OA
ATOM     64  H   UNK d   0      -4.901  13.315 -34.068  0.00  0.00     0.167 HD
ENDBRANCH  61  63
ENDBRANCH  60  61
ENDBRANCH  18  60
BRANCH  14  65
ATOM     65  C   UNK d   0      -1.901  12.347 -36.649  0.00  0.00     0.052 C 
BRANCH  65  66
ATOM     66  C   UNK d   0      -1.803  13.414 -35.618  0.00  0.00     0.115 C 
BRANCH  66  67
ATOM     67  C   UNK d   0      -1.367  14.729 -35.993  0.00  0.00     0.139 C 
ATOM     68  O   UNK d   0      -0.550  14.847 -36.979  0.00  0.00    -0.650 OA
BRANCH  67  69
ATOM     69  O   UNK d   0      -1.724  15.945 -35.411  0.00  0.00    -0.776 OA
ATOM     70  H   UNK d   0      -2.597  15.941 -34.864  0.00  0.00     0.167 HD
ENDBRANCH  67  69
ENDBRANCH  66  67
ENDBRANCH  65  66
ENDBRANCH  14  65
ENDBRANCH   6   7
ENDBRANCH   5   6
ENDBRANCH   2   5
TORSDOF 28
ENDMDL
MODEL 18
REMARK VINA RESULT:      -6.9      1.811      7.571
REMARK  28 active torsions:
REMARK  status: ('A' for Active; 'I' for Inactive)
REMARK    1  A    between atoms: C_2  and  O_3 
REMARK    2  A    between atoms: C_2  and  C_4 
REMARK    3  A    between atoms: C_4  and  C_5 
REMARK    4  A    between atoms: C_5  and  C_6 
REMARK    5  A    between atoms: C_7  and  C_8 
REMARK    6  A    between atoms: C_8  and  C_9 
REMARK    7  A    between atoms: C_9  and  O_11 
REMARK    8  A    between atoms: C_28  and  C_29 
REMARK    9  A    between atoms: C_29  and  C_30 
REMARK   10  A    between atoms: C_30  and  O_32 
REMARK   11  A    between atoms: C_33  and  C_34 
REMARK   12  A    between atoms: C_34  and  C_35 
REMARK   13  A    between atoms: C_35  and  C_36 
REMARK   14  A    between atoms: C_36  and  O_38 
REMARK   15  A    between atoms: C_39  and  C_40 
REMARK   16  A    between atoms: C_40  and  C_41 
REMARK   17  A    between atoms: C_41  and  C_42 
REMARK   18  A    between atoms: C_42  and  O_44 
REMARK   19  A    between atoms: C_45  and  C_46 
REMARK   20  A    between atoms: C_46  and  C_47 
REMARK   21  A    between atoms: C_47  and  O_49 
REMARK   22  A    between atoms: C_50  and  C_51 
REMARK   23  A    between atoms: C_51  and  C_52 
REMARK   24  A    between atoms: C_52  and  O_54 
REMARK   25  A    between atoms: C_55  and  C_56 
REMARK   26  A    between atoms: C_56  and  C_57 
REMARK   27  A    between atoms: C_57  and  C_58 
REMARK   28  A    between atoms: C_58  and  O_60 
ROOT
ATOM      1  O   UNK d   0      -7.882  12.740 -35.785  0.00  0.00    -0.650 OA
ATOM      2  C   UNK d   0      -7.252  12.562 -36.852  0.00  0.00     0.139 C 
ENDROOT
BRANCH   2   3
ATOM      3  O   UNK d   0      -7.928  12.135 -37.970  0.00  0.00    -0.776 OA
ATOM      4  H   UNK d   0      -8.811  12.566 -38.249  0.00  0.00     0.167 HD
ENDBRANCH   2   3
BRANCH   2   5
ATOM      5  C   UNK d   0      -5.784  12.812 -36.905  0.00  0.00     0.115 C 
BRANCH   5   6
ATOM      6  C   UNK d   0      -5.149  12.448 -35.590  0.00  0.00     0.052 C 
BRANCH   6   7
ATOM      7  C   UNK d   0      -4.281  11.216 -35.686  0.00  0.00    -0.020 A 
ATOM      8  C   UNK d   0      -2.975  11.162 -35.735  0.00  0.00    -0.011 A 
ATOM      9  C   UNK d   0      -2.590   9.764 -35.831  0.00  0.00     0.067 A 
ATOM     10  C   UNK d   0      -1.385   9.047 -35.896  0.00  0.00     0.062 C 
ATOM     11  N   UNK d   0      -3.727   9.036 -35.840  0.00  0.00    -0.248 NA
ATOM     12  C   UNK d   0      -1.206   7.673 -35.703  0.00  0.00     0.041 A 
ATOM     13  N   UNK d   0      -1.921   6.616 -36.134  0.00  0.00    -0.355 N 
ATOM     14  C   UNK d   0      -0.148   7.232 -34.887  0.00  0.00    -0.022 A 
ATOM     15  C   UNK d   0      -1.350   5.518 -35.605  0.00  0.00     0.042 A 
ATOM     16  H   UNK d   0      -2.801   6.645 -36.814  0.00  0.00     0.166 HD
ATOM     17  C   UNK d   0      -1.695   4.157 -35.733  0.00  0.00     0.062 C 
ATOM     18  C   UNK d   0      -0.236   5.864 -34.817  0.00  0.00    -0.013 A 
ATOM     19  C   UNK d   0      -2.932   3.571 -35.661  0.00  0.00     0.067 A 
ATOM     20  N   UNK d   0      -3.989   4.387 -35.666  0.00  0.00    -0.248 NA
ATOM     21  C   UNK d   0      -3.440   2.213 -35.559  0.00  0.00    -0.011 A 
ATOM     22  C   UNK d   0      -5.152   3.661 -35.574  0.00  0.00     0.066 A 
ATOM     23  C   UNK d   0      -6.335   4.385 -35.606  0.00  0.00     0.062 C 
ATOM     24  C   UNK d   0      -4.740   2.273 -35.504  0.00  0.00    -0.020 A 
ATOM     25  C   UNK d   0      -6.494   5.764 -35.813  0.00  0.00     0.041 A 
ATOM     26  N   UNK d   0      -5.792   6.814 -35.373  0.00  0.00    -0.355 N 
ATOM     27  C   UNK d   0      -7.553   6.205 -36.637  0.00  0.00    -0.022 A 
ATOM     28  C   UNK d   0      -6.365   7.912 -35.892  0.00  0.00     0.042 A 
ATOM     29  H   UNK d   0      -4.914   6.785 -34.681  0.00  0.00     0.166 HD
ATOM     30  C   UNK d   0      -6.038   9.271 -35.766  0.00  0.00     0.062 C 
ATOM     31  C   UNK d   0      -7.478   7.562 -36.693  0.00  0.00    -0.013 A 
ATOM     32  C   UNK d   0      -4.779   9.850 -35.754  0.00  0.00     0.066 A 
BRANCH   8  33
ATOM     33  C   UNK d   0      -2.040  12.302 -35.706  0.00  0.00     0.151 C 
BRANCH  33  34
ATOM     34  C   UNK d   0      -1.589  12.705 -37.051  0.00  0.00     0.143 C 
ATOM     35  O   UNK d   0      -0.805  13.653 -37.202  0.00  0.00    -0.650 OA
BRANCH  34  36
ATOM     36  O   UNK d   0      -2.048  12.018 -38.151  0.00  0.00    -0.776 OA
ATOM     37  H   UNK d   0      -2.476  11.087 -38.059  0.00  0.00     0.167 HD
ENDBRANCH  34  36
ENDBRANCH  33  34
ENDBRANCH   8  33
BRANCH  31  38
ATOM     38  C   UNK d   0      -8.399   8.475 -37.469  0.00  0.00     0.151 C 
BRANCH  38  39
ATOM     39  C   UNK d   0      -9.534   8.922 -36.691  0.00  0.00     0.143 C 
ATOM     40  O   UNK d   0     -10.531   8.205 -36.495  0.00  0.00    -0.650 OA
BRANCH  39  41
ATOM     41  O   UNK d   0      -9.522  10.200 -36.133  0.00  0.00    -0.776 OA
ATOM     42  H   UNK d   0      -8.831  10.376 -35.396  0.00  0.00     0.167 HD
ENDBRANCH  39  41
ENDBRANCH  38  39
ENDBRANCH  31  38
BRANCH  27  43
ATOM     43  C   UNK d   0      -8.609   5.400 -37.353  0.00  0.00     0.052 C 
BRANCH  43  44
ATOM     44  C   UNK d   0      -8.568   5.562 -38.838  0.00  0.00     0.115 C 
BRANCH  44  45
ATOM     45  C   UNK d   0      -7.832   4.387 -39.373  0.00  0.00     0.139 C 
ATOM     46  O   UNK d   0      -6.581   4.459 -39.452  0.00  0.00    -0.650 OA
BRANCH  45  47
ATOM     47  O   UNK d   0      -8.463   3.230 -39.777  0.00  0.00    -0.776 OA
ATOM     48  H   UNK d   0      -9.103   2.699 -39.166  0.00  0.00     0.167 HD
ENDBRANCH  45  47
ENDBRANCH  44  45
ENDBRANCH  43  44
ENDBRANCH  27  43
BRANCH  24  49
ATOM     49  C   UNK d   0      -5.660   1.125 -35.435  0.00  0.00     0.052 C 
BRANCH  49  50
ATOM     50  C   UNK d   0      -5.757   0.449 -36.778  0.00  0.00     0.115 C 
BRANCH  50  51
ATOM     51  C   UNK d   0      -6.553   1.114 -37.801  0.00  0.00     0.139 C 
ATOM     52  O   UNK d   0      -7.788   1.298 -37.683  0.00  0.00    -0.650 OA
BRANCH  51  53
ATOM     53  O   UNK d   0      -5.942   1.566 -38.960  0.00  0.00    -0.776 OA
ATOM     54  H   UNK d   0      -6.505   2.054 -39.635  0.00  0.00     0.167 HD
ENDBRANCH  51  53
ENDBRANCH  50  51
ENDBRANCH  49  50
ENDBRANCH  24  49
BRANCH  21  55
ATOM     55  C   UNK d   0      -2.574   0.997 -35.532  0.00  0.00     0.151 C 
BRANCH  55  56
ATOM     56  C   UNK d   0      -2.073   0.707 -34.180  0.00  0.00     0.143 C 
ATOM     57  O   UNK d   0      -2.716   0.033 -33.351  0.00  0.00    -0.650 OA
BRANCH  56  58
ATOM     58  O   UNK d   0      -0.824   1.217 -33.828  0.00  0.00    -0.776 OA
ATOM     59  H   UNK d   0      -0.444   0.859 -32.933  0.00  0.00     0.167 HD
ENDBRANCH  56  58
ENDBRANCH  55  56
ENDBRANCH  21  55
BRANCH  18  60
ATOM     60  C   UNK d   0       0.701   4.977 -34.035  0.00  0.00     0.151 C 
BRANCH  60  61
ATOM     61  C   UNK d   0       1.905   4.829 -34.866  0.00  0.00     0.143 C 
ATOM     62  O   UNK d   0       1.949   4.640 -36.082  0.00  0.00    -0.650 OA
BRANCH  61  63
ATOM     63  O   UNK d   0       3.134   4.918 -34.168  0.00  0.00    -0.776 OA
ATOM     64  H   UNK d   0       3.657   5.775 -34.147  0.00  0.00     0.167 HD
ENDBRANCH  61  63
ENDBRANCH  60  61
ENDBRANCH  18  60
BRANCH  14  65
ATOM     65  C   UNK d   0       0.984   7.990 -34.255  0.00  0.00     0.052 C 
BRANCH  65  66
ATOM     66  C   UNK d   0       1.870   8.650 -35.251  0.00  0.00     0.115 C 
BRANCH  66  67
ATOM     67  C   UNK d   0       3.219   8.188 -35.420  0.00  0.00     0.139 C 
ATOM     68  O   UNK d   0       3.925   7.957 -34.370  0.00  0.00    -0.650 OA
BRANCH  67  69
ATOM     69  O   UNK d   0       3.895   7.946 -36.616  0.00  0.00    -0.776 OA
ATOM     70  H   UNK d   0       4.619   7.214 -36.581  0.00  0.00     0.167 HD
ENDBRANCH  67  69
ENDBRANCH  66  67
ENDBRANCH  65  66
ENDBRANCH  14  65
ENDBRANCH   6   7
ENDBRANCH   5   6
ENDBRANCH   2   5
TORSDOF 28
ENDMDL
MODEL 19
REMARK VINA RESULT:      -6.9     30.998     33.892
REMARK  28 active torsions:
REMARK  status: ('A' for Active; 'I' for Inactive)
REMARK    1  A    between atoms: C_2  and  O_3 
REMARK    2  A    between atoms: C_2  and  C_4 
REMARK    3  A    between atoms: C_4  and  C_5 
REMARK    4  A    between atoms: C_5  and  C_6 
REMARK    5  A    between atoms: C_7  and  C_8 
REMARK    6  A    between atoms: C_8  and  C_9 
REMARK    7  A    between atoms: C_9  and  O_11 
REMARK    8  A    between atoms: C_28  and  C_29 
REMARK    9  A    between atoms: C_29  and  C_30 
REMARK   10  A    between atoms: C_30  and  O_32 
REMARK   11  A    between atoms: C_33  and  C_34 
REMARK   12  A    between atoms: C_34  and  C_35 
REMARK   13  A    between atoms: C_35  and  C_36 
REMARK   14  A    between atoms: C_36  and  O_38 
REMARK   15  A    between atoms: C_39  and  C_40 
REMARK   16  A    between atoms: C_40  and  C_41 
REMARK   17  A    between atoms: C_41  and  C_42 
REMARK   18  A    between atoms: C_42  and  O_44 
REMARK   19  A    between atoms: C_45  and  C_46 
REMARK   20  A    between atoms: C_46  and  C_47 
REMARK   21  A    between atoms: C_47  and  O_49 
REMARK   22  A    between atoms: C_50  and  C_51 
REMARK   23  A    between atoms: C_51  and  C_52 
REMARK   24  A    between atoms: C_52  and  O_54 
REMARK   25  A    between atoms: C_55  and  C_56 
REMARK   26  A    between atoms: C_56  and  C_57 
REMARK   27  A    between atoms: C_57  and  C_58 
REMARK   28  A    between atoms: C_58  and  O_60 
ROOT
ATOM      1  O   UNK d   0       1.998  17.381  -4.083  0.00  0.00    -0.650 OA
ATOM      2  C   UNK d   0       1.495  16.255  -4.290  0.00  0.00     0.139 C 
ENDROOT
BRANCH   2   3
ATOM      3  O   UNK d   0       0.966  15.550  -3.235  0.00  0.00    -0.776 OA
ATOM      4  H   UNK d   0       0.423  16.018  -2.507  0.00  0.00     0.167 HD
ENDBRANCH   2   3
BRANCH   2   5
ATOM      5  C   UNK d   0       1.474  15.686  -5.667  0.00  0.00     0.115 C 
BRANCH   5   6
ATOM      6  C   UNK d   0       0.682  16.578  -6.583  0.00  0.00     0.052 C 
BRANCH   6   7
ATOM      7  C   UNK d   0      -0.752  16.740  -6.140  0.00  0.00    -0.020 A 
ATOM      8  C   UNK d   0      -1.664  15.808  -6.032  0.00  0.00    -0.011 A 
ATOM      9  C   UNK d   0      -2.893  16.438  -5.580  0.00  0.00     0.067 A 
ATOM     10  C   UNK d   0      -4.191  16.011  -5.258  0.00  0.00     0.062 C 
ATOM     11  N   UNK d   0      -2.641  17.756  -5.444  0.00  0.00    -0.248 NA
ATOM     12  C   UNK d   0      -5.173  16.730  -4.568  0.00  0.00     0.041 A 
ATOM     13  N   UNK d   0      -5.560  18.016  -4.662  0.00  0.00    -0.355 N 
ATOM     14  C   UNK d   0      -5.892  16.088  -3.543  0.00  0.00    -0.022 A 
ATOM     15  C   UNK d   0      -6.501  18.209  -3.718  0.00  0.00     0.042 A 
ATOM     16  H   UNK d   0      -5.190  18.767  -5.394  0.00  0.00     0.166 HD
ATOM     17  C   UNK d   0      -7.236  19.364  -3.384  0.00  0.00     0.062 C 
ATOM     18  C   UNK d   0      -6.736  17.023  -2.996  0.00  0.00    -0.013 A 
ATOM     19  C   UNK d   0      -6.794  20.654  -3.234  0.00  0.00     0.067 A 
ATOM     20  N   UNK d   0      -5.550  20.919  -3.641  0.00  0.00    -0.248 NA
ATOM     21  C   UNK d   0      -7.344  21.891  -2.705  0.00  0.00    -0.011 A 
ATOM     22  C   UNK d   0      -5.245  22.239  -3.415  0.00  0.00     0.066 A 
ATOM     23  C   UNK d   0      -3.990  22.661  -3.827  0.00  0.00     0.062 C 
ATOM     24  C   UNK d   0      -6.431  22.814  -2.810  0.00  0.00    -0.020 A 
ATOM     25  C   UNK d   0      -3.023  21.926  -4.530  0.00  0.00     0.041 A 
ATOM     26  N   UNK d   0      -2.628  20.651  -4.427  0.00  0.00    -0.355 N 
ATOM     27  C   UNK d   0      -2.305  22.569  -5.561  0.00  0.00    -0.022 A 
ATOM     28  C   UNK d   0      -1.683  20.458  -5.361  0.00  0.00     0.042 A 
ATOM     29  H   UNK d   0      -2.993  19.901  -3.683  0.00  0.00     0.166 HD
ATOM     30  C   UNK d   0      -0.938  19.318  -5.698  0.00  0.00     0.062 C 
ATOM     31  C   UNK d   0      -1.455  21.648  -6.093  0.00  0.00    -0.013 A 
ATOM     32  C   UNK d   0      -1.370  18.003  -5.765  0.00  0.00     0.066 A 
BRANCH   8  33
ATOM     33  C   UNK d   0      -1.499  14.370  -6.318  0.00  0.00     0.151 C 
BRANCH  33  34
ATOM     34  C   UNK d   0      -1.776  13.520  -5.147  0.00  0.00     0.143 C 
ATOM     35  O   UNK d   0      -2.326  12.417  -5.277  0.00  0.00    -0.650 OA
BRANCH  34  36
ATOM     36  O   UNK d   0      -1.420  13.960  -3.893  0.00  0.00    -0.776 OA
ATOM     37  H   UNK d   0      -0.637  13.533  -3.379  0.00  0.00     0.167 HD
ENDBRANCH  34  36
ENDBRANCH  33  34
ENDBRANCH   8  33
BRANCH  31  38
ATOM     38  C   UNK d   0      -0.494  21.877  -7.236  0.00  0.00     0.151 C 
BRANCH  38  39
ATOM     39  C   UNK d   0      -1.106  21.679  -8.532  0.00  0.00     0.143 C 
ATOM     40  O   UNK d   0      -1.160  22.580  -9.387  0.00  0.00    -0.650 OA
BRANCH  39  41
ATOM     41  O   UNK d   0      -1.657  20.437  -8.849  0.00  0.00    -0.776 OA
ATOM     42  H   UNK d   0      -1.298  19.973  -9.689  0.00  0.00     0.167 HD
ENDBRANCH  39  41
ENDBRANCH  38  39
ENDBRANCH  31  38
BRANCH  27  43
ATOM     43  C   UNK d   0      -2.394  23.995  -6.046  0.00  0.00     0.052 C 
BRANCH  43  44
ATOM     44  C   UNK d   0      -3.346  24.174  -7.183  0.00  0.00     0.115 C 
BRANCH  44  45
ATOM     45  C   UNK d   0      -4.369  25.152  -6.730  0.00  0.00     0.139 C 
ATOM     46  O   UNK d   0      -5.493  25.136  -7.290  0.00  0.00    -0.650 OA
BRANCH  45  47
ATOM     47  O   UNK d   0      -4.136  26.064  -5.723  0.00  0.00    -0.776 OA
ATOM     48  H   UNK d   0      -4.419  25.901  -4.743  0.00  0.00     0.167 HD
ENDBRANCH  45  47
ENDBRANCH  44  45
ENDBRANCH  43  44
ENDBRANCH  27  43
BRANCH  24  49
ATOM     49  C   UNK d   0      -6.578  24.229  -2.428  0.00  0.00     0.052 C 
BRANCH  49  50
ATOM     50  C   UNK d   0      -6.670  25.096  -3.657  0.00  0.00     0.115 C 
BRANCH  50  51
ATOM     51  C   UNK d   0      -7.911  25.042  -4.418  0.00  0.00     0.139 C 
ATOM     52  O   UNK d   0      -8.044  24.336  -5.445  0.00  0.00    -0.650 OA
BRANCH  51  53
ATOM     53  O   UNK d   0      -9.001  25.795  -4.008  0.00  0.00    -0.776 OA
ATOM     54  H   UNK d   0      -9.289  26.566  -4.585  0.00  0.00     0.167 HD
ENDBRANCH  51  53
ENDBRANCH  50  51
ENDBRANCH  49  50
ENDBRANCH  24  49
BRANCH  21  55
ATOM     55  C   UNK d   0      -8.725  22.024  -2.154  0.00  0.00     0.151 C 
BRANCH  55  56
ATOM     56  C   UNK d   0      -9.744  22.021  -3.215  0.00  0.00     0.143 C 
ATOM     57  O   UNK d   0     -10.192  20.972  -3.718  0.00  0.00    -0.650 OA
BRANCH  56  58
ATOM     58  O   UNK d   0     -10.217  23.254  -3.662  0.00  0.00    -0.776 OA
ATOM     59  H   UNK d   0     -10.729  23.809  -2.953  0.00  0.00     0.167 HD
ENDBRANCH  56  58
ENDBRANCH  55  56
ENDBRANCH  21  55
BRANCH  18  60
ATOM     60  C   UNK d   0      -7.689  16.765  -1.856  0.00  0.00     0.151 C 
BRANCH  60  61
ATOM     61  C   UNK d   0      -9.037  16.794  -2.443  0.00  0.00     0.143 C 
ATOM     62  O   UNK d   0      -9.938  17.596  -2.195  0.00  0.00    -0.650 OA
BRANCH  61  63
ATOM     63  O   UNK d   0      -9.303  15.778  -3.392  0.00  0.00    -0.776 OA
ATOM     64  H   UNK d   0      -8.591  15.464  -4.028  0.00  0.00     0.167 HD
ENDBRANCH  61  63
ENDBRANCH  60  61
ENDBRANCH  18  60
BRANCH  14  65
ATOM     65  C   UNK d   0      -5.913  14.649  -3.112  0.00  0.00     0.052 C 
BRANCH  65  66
ATOM     66  C   UNK d   0      -5.239  14.424  -1.806  0.00  0.00     0.115 C 
BRANCH  66  67
ATOM     67  C   UNK d   0      -3.808  14.505  -1.720  0.00  0.00     0.139 C 
ATOM     68  O   UNK d   0      -3.134  13.412  -1.653  0.00  0.00    -0.650 OA
BRANCH  67  69
ATOM     69  O   UNK d   0      -3.019  15.654  -1.697  0.00  0.00    -0.776 OA
ATOM     70  H   UNK d   0      -2.666  15.974  -2.610  0.00  0.00     0.167 HD
ENDBRANCH  67  69
ENDBRANCH  66  67
ENDBRANCH  65  66
ENDBRANCH  14  65
ENDBRANCH   6   7
ENDBRANCH   5   6
ENDBRANCH   2   5
TORSDOF 28
ENDMDL
MODEL 20
REMARK VINA RESULT:      -6.8      1.960      7.871
REMARK  28 active torsions:
REMARK  status: ('A' for Active; 'I' for Inactive)
REMARK    1  A    between atoms: C_2  and  O_3 
REMARK    2  A    between atoms: C_2  and  C_4 
REMARK    3  A    between atoms: C_4  and  C_5 
REMARK    4  A    between atoms: C_5  and  C_6 
REMARK    5  A    between atoms: C_7  and  C_8 
REMARK    6  A    between atoms: C_8  and  C_9 
REMARK    7  A    between atoms: C_9  and  O_11 
REMARK    8  A    between atoms: C_28  and  C_29 
REMARK    9  A    between atoms: C_29  and  C_30 
REMARK   10  A    between atoms: C_30  and  O_32 
REMARK   11  A    between atoms: C_33  and  C_34 
REMARK   12  A    between atoms: C_34  and  C_35 
REMARK   13  A    between atoms: C_35  and  C_36 
REMARK   14  A    between atoms: C_36  and  O_38 
REMARK   15  A    between atoms: C_39  and  C_40 
REMARK   16  A    between atoms: C_40  and  C_41 
REMARK   17  A    between atoms: C_41  and  C_42 
REMARK   18  A    between atoms: C_42  and  O_44 
REMARK   19  A    between atoms: C_45  and  C_46 
REMARK   20  A    between atoms: C_46  and  C_47 
REMARK   21  A    between atoms: C_47  and  O_49 
REMARK   22  A    between atoms: C_50  and  C_51 
REMARK   23  A    between atoms: C_51  and  C_52 
REMARK   24  A    between atoms: C_52  and  O_54 
REMARK   25  A    between atoms: C_55  and  C_56 
REMARK   26  A    between atoms: C_56  and  C_57 
REMARK   27  A    between atoms: C_57  and  C_58 
REMARK   28  A    between atoms: C_58  and  O_60 
ROOT
ATOM      1  O   UNK d   0      -5.467  -1.168 -38.844  0.00  0.00    -0.650 OA
ATOM      2  C   UNK d   0      -5.306   0.071 -38.780  0.00  0.00     0.139 C 
ENDROOT
BRANCH   2   3
ATOM      3  O   UNK d   0      -6.370   0.903 -39.032  0.00  0.00    -0.776 OA
ATOM      4  H   UNK d   0      -6.471   1.795 -38.543  0.00  0.00     0.167 HD
ENDBRANCH   2   3
BRANCH   2   5
ATOM      5  C   UNK d   0      -3.970   0.635 -38.433  0.00  0.00     0.115 C 
BRANCH   5   6
ATOM      6  C   UNK d   0      -3.810   0.706 -36.939  0.00  0.00     0.052 C 
BRANCH   6   7
ATOM      7  C   UNK d   0      -3.086   1.952 -36.491  0.00  0.00    -0.020 A 
ATOM      8  C   UNK d   0      -1.891   2.036 -35.964  0.00  0.00    -0.011 A 
ATOM      9  C   UNK d   0      -1.624   3.437 -35.687  0.00  0.00     0.067 A 
ATOM     10  C   UNK d   0      -0.554   4.179 -35.161  0.00  0.00     0.062 C 
ATOM     11  N   UNK d   0      -2.712   4.136 -36.070  0.00  0.00    -0.248 NA
ATOM     12  C   UNK d   0      -0.371   5.565 -35.228  0.00  0.00     0.041 A 
ATOM     13  N   UNK d   0      -1.236   6.583 -35.053  0.00  0.00    -0.355 N 
ATOM     14  C   UNK d   0       0.893   6.068 -35.585  0.00  0.00    -0.022 A 
ATOM     15  C   UNK d   0      -0.554   7.718 -35.299  0.00  0.00     0.042 A 
ATOM     16  H   UNK d   0      -2.301   6.501 -34.744  0.00  0.00     0.166 HD
ATOM     17  C   UNK d   0      -0.975   9.062 -35.260  0.00  0.00     0.062 C 
ATOM     18  C   UNK d   0       0.784   7.435 -35.636  0.00  0.00    -0.013 A 
ATOM     19  C   UNK d   0      -2.123   9.621 -35.760  0.00  0.00     0.067 A 
ATOM     20  N   UNK d   0      -3.076   8.781 -36.170  0.00  0.00    -0.248 NA
ATOM     21  C   UNK d   0      -2.612  10.970 -35.995  0.00  0.00    -0.011 A 
ATOM     22  C   UNK d   0      -4.152   9.482 -36.657  0.00  0.00     0.066 A 
ATOM     23  C   UNK d   0      -5.236   8.728 -37.085  0.00  0.00     0.062 C 
ATOM     24  C   UNK d   0      -3.798  10.881 -36.524  0.00  0.00    -0.020 A 
ATOM     25  C   UNK d   0      -5.406   7.338 -36.997  0.00  0.00     0.041 A 
ATOM     26  N   UNK d   0      -4.550   6.326 -37.185  0.00  0.00    -0.355 N 
ATOM     27  C   UNK d   0      -6.674   6.834 -36.634  0.00  0.00    -0.022 A 
ATOM     28  C   UNK d   0      -5.230   5.192 -36.950  0.00  0.00     0.042 A 
ATOM     29  H   UNK d   0      -3.483   6.409 -37.506  0.00  0.00     0.166 HD
ATOM     30  C   UNK d   0      -4.826   3.848 -36.994  0.00  0.00     0.062 C 
ATOM     31  C   UNK d   0      -6.571   5.478 -36.601  0.00  0.00    -0.013 A 
ATOM     32  C   UNK d   0      -3.628   3.301 -36.563  0.00  0.00     0.066 A 
BRANCH   8  33
ATOM     33  C   UNK d   0      -0.966   0.921 -35.688  0.00  0.00     0.151 C 
BRANCH  33  34
ATOM     34  C   UNK d   0      -0.987   0.499 -34.275  0.00  0.00     0.143 C 
ATOM     35  O   UNK d   0      -2.056   0.401 -33.656  0.00  0.00    -0.650 OA
BRANCH  34  36
ATOM     36  O   UNK d   0       0.198   0.212 -33.639  0.00  0.00    -0.776 OA
ATOM     37  H   UNK d   0       0.901   0.942 -33.463  0.00  0.00     0.167 HD
ENDBRANCH  34  36
ENDBRANCH  33  34
ENDBRANCH   8  33
BRANCH  31  38
ATOM     38  C   UNK d   0      -7.675   4.509 -36.247  0.00  0.00     0.151 C 
BRANCH  38  39
ATOM     39  C   UNK d   0      -7.426   3.802 -35.008  0.00  0.00     0.143 C 
ATOM     40  O   UNK d   0      -7.595   2.575 -34.896  0.00  0.00    -0.650 OA
BRANCH  39  41
ATOM     41  O   UNK d   0      -6.981   4.510 -33.892  0.00  0.00    -0.776 OA
ATOM     42  H   UNK d   0      -6.861   3.977 -33.025  0.00  0.00     0.167 HD
ENDBRANCH  39  41
ENDBRANCH  38  39
ENDBRANCH  31  38
BRANCH  27  43
ATOM     43  C   UNK d   0      -7.949   7.579 -36.328  0.00  0.00     0.052 C 
BRANCH  43  44
ATOM     44  C   UNK d   0      -8.431   7.374 -34.928  0.00  0.00     0.115 C 
BRANCH  44  45
ATOM     45  C   UNK d   0      -8.172   8.642 -34.199  0.00  0.00     0.139 C 
ATOM     46  O   UNK d   0      -7.640   8.575 -33.064  0.00  0.00    -0.650 OA
BRANCH  45  47
ATOM     47  O   UNK d   0      -8.485   9.880 -34.719  0.00  0.00    -0.776 OA
ATOM     48  H   UNK d   0      -8.044  10.754 -34.389  0.00  0.00     0.167 HD
ENDBRANCH  45  47
ENDBRANCH  44  45
ENDBRANCH  43  44
ENDBRANCH  27  43
BRANCH  24  49
ATOM     49  C   UNK d   0      -4.674  12.008 -36.886  0.00  0.00     0.052 C 
BRANCH  49  50
ATOM     50  C   UNK d   0      -5.660  12.283 -35.780  0.00  0.00     0.115 C 
BRANCH  50  51
ATOM     51  C   UNK d   0      -6.967  12.798 -36.167  0.00  0.00     0.139 C 
ATOM     52  O   UNK d   0      -7.972  12.722 -35.422  0.00  0.00    -0.650 OA
BRANCH  51  53
ATOM     53  O   UNK d   0      -7.128  13.399 -37.406  0.00  0.00    -0.776 OA
ATOM     54  H   UNK d   0      -6.354  13.383 -38.047  0.00  0.00     0.167 HD
ENDBRANCH  51  53
ENDBRANCH  50  51
ENDBRANCH  49  50
ENDBRANCH  24  49
BRANCH  21  55
ATOM     55  C   UNK d   0      -1.845  12.206 -35.662  0.00  0.00     0.151 C 
BRANCH  55  56
ATOM     56  C   UNK d   0      -1.290  12.851 -36.862  0.00  0.00     0.143 C 
ATOM     57  O   UNK d   0      -1.138  14.085 -36.956  0.00  0.00    -0.650 OA
BRANCH  56  58
ATOM     58  O   UNK d   0      -0.926  12.032 -37.930  0.00  0.00    -0.776 OA
ATOM     59  H   UNK d   0      -0.919  12.499 -38.855  0.00  0.00     0.167 HD
ENDBRANCH  56  58
ENDBRANCH  55  56
ENDBRANCH  21  55
BRANCH  18  60
ATOM     60  C   UNK d   0       1.905   8.380 -35.990  0.00  0.00     0.151 C 
BRANCH  60  61
ATOM     61  C   UNK d   0       2.643   8.617 -34.740  0.00  0.00     0.143 C 
ATOM     62  O   UNK d   0       2.182   9.015 -33.670  0.00  0.00    -0.650 OA
BRANCH  61  63
ATOM     63  O   UNK d   0       4.032   8.352 -34.800  0.00  0.00    -0.776 OA
ATOM     64  H   UNK d   0       4.392   7.428 -34.635  0.00  0.00     0.167 HD
ENDBRANCH  61  63
ENDBRANCH  60  61
ENDBRANCH  18  60
BRANCH  14  65
ATOM     65  C   UNK d   0       2.207   5.367 -35.784  0.00  0.00     0.052 C 
BRANCH  65  66
ATOM     66  C   UNK d   0       2.882   5.023 -34.503  0.00  0.00     0.115 C 
BRANCH  66  67
ATOM     67  C   UNK d   0       4.302   5.193 -34.379  0.00  0.00     0.139 C 
ATOM     68  O   UNK d   0       4.863   4.877 -33.266  0.00  0.00    -0.650 OA
BRANCH  67  69
ATOM     69  O   UNK d   0       5.191   5.673 -35.340  0.00  0.00    -0.776 OA
ATOM     70  H   UNK d   0       5.150   6.687 -35.521  0.00  0.00     0.167 HD
ENDBRANCH  67  69
ENDBRANCH  66  67
ENDBRANCH  65  66
ENDBRANCH  14  65
ENDBRANCH   6   7
ENDBRANCH   5   6
ENDBRANCH   2   5
TORSDOF 28
ENDMDL
