MODEL 1
REMARK VINA RESULT:      -8.5      0.000      0.000
REMARK  16 active torsions:
REMARK  status: ('A' for Active; 'I' for Inactive)
REMARK    1  A    between atoms: C_6  and  C_7 
REMARK    2  A    between atoms: C_7  and  C_8 
REMARK    3  A    between atoms: C_8  and  C_9 
REMARK    4  A    between atoms: C_9  and  O_11 
REMARK    5  A    between atoms: C_16  and  C_17 
REMARK    6  A    between atoms: C_17  and  C_18 
REMARK    7  A    between atoms: C_18  and  C_19 
REMARK    8  A    between atoms: C_19  and  O_21 
REMARK    9  A    between atoms: C_28  and  C_29 
REMARK   10  A    between atoms: C_29  and  C_30 
REMARK   11  A    between atoms: C_30  and  C_31 
REMARK   12  A    between atoms: C_31  and  O_33 
REMARK   13  A    between atoms: C_42  and  C_43 
REMARK   14  A    between atoms: C_43  and  C_44 
REMARK   15  A    between atoms: C_44  and  C_45 
REMARK   16  A    between atoms: C_45  and  O_47 
ROOT
HETATM    1  C   UNK     0     -28.621  11.232  -5.544  0.00  0.00     0.051 C 
HETATM    2  C   UNK     0     -29.541  11.689  -4.431  0.00  0.00    -0.031 A 
HETATM    3  C   UNK     0     -30.810  11.242  -4.099  0.00  0.00     0.021 A 
HETATM    4  N   UNK     0     -31.270  11.961  -3.048  0.00  0.00    -0.361 N 
HETATM    5  C   UNK     0     -30.319  12.851  -2.697  0.00  0.00     0.022 A 
HETATM    6  C   UNK     0     -29.224  12.710  -3.544  0.00  0.00    -0.027 A 
HETATM    7  C   UNK     0     -30.290  13.811  -1.549  0.00  0.00     0.115 C 
HETATM    8  C   UNK     0     -30.782  13.288  -0.211  0.00  0.00     0.021 A 
HETATM    9  N   UNK     0     -30.646  12.058   0.308  0.00  0.00    -0.361 N 
HETATM   10  C   UNK     0     -31.320  12.019   1.477  0.00  0.00     0.022 A 
HETATM   11  C   UNK     0     -31.899  13.260   1.722  0.00  0.00    -0.027 A 
HETATM   12  C   UNK     0     -31.564  14.065   0.663  0.00  0.00    -0.031 A 
HETATM   13  C   UNK     0     -31.972  15.512   0.501  0.00  0.00     0.051 C 
HETATM   14  C   UNK     0     -31.489  10.800   2.380  0.00  0.00     0.115 C 
HETATM   15  C   UNK     0     -32.204   9.635   1.714  0.00  0.00     0.021 A 
HETATM   16  N   UNK     0     -31.839   8.978   0.597  0.00  0.00    -0.361 N 
HETATM   17  C   UNK     0     -32.769   8.066   0.301  0.00  0.00     0.022 A 
HETATM   18  C   UNK     0     -33.782   8.126   1.278  0.00  0.00    -0.027 A 
HETATM   19  C   UNK     0     -33.416   9.111   2.158  0.00  0.00    -0.031 A 
HETATM   20  C   UNK     0     -34.218   9.482   3.392  0.00  0.00     0.051 C 
HETATM   21  C   UNK     0     -32.868   7.127  -0.879  0.00  0.00     0.115 C 
HETATM   22  C   UNK     0     -32.341   7.618  -2.207  0.00  0.00     0.022 A 
HETATM   23  N   UNK     0     -32.459   8.838  -2.747  0.00  0.00    -0.361 N 
HETATM   24  C   UNK     0     -31.716   8.877  -3.872  0.00  0.00     0.021 A 
HETATM   25  C   UNK     0     -31.113   7.649  -4.066  0.00  0.00    -0.031 A 
HETATM   26  C   UNK     0     -30.222   7.194  -5.203  0.00  0.00     0.051 C 
HETATM   27  C   UNK     0     -31.499   6.827  -3.013  0.00  0.00    -0.027 A 
HETATM   28  C   UNK     0     -31.462  10.070  -4.777  0.00  0.00     0.115 C 
HETATM   29  H   UNK     0     -32.280  11.862  -2.586  0.00  0.00     0.165 HD
HETATM   30  H   UNK     0     -30.032  11.230  -0.124  0.00  0.00     0.165 HD
HETATM   31  H   UNK     0     -30.883   9.127   0.030  0.00  0.00     0.165 HD
HETATM   32  H   UNK     0     -33.104   9.671  -2.363  0.00  0.00     0.165 HD
ENDROOT
BRANCH   6  33
HETATM   33  C   UNK     0     -27.919  13.464  -3.575  0.00  0.00     0.051 C 
BRANCH  33  34
HETATM   34  C   UNK     0     -27.842  14.351  -4.795  0.00  0.00     0.114 C 
BRANCH  34  35
HETATM   35  C   UNK     0     -28.997  15.292  -4.736  0.00  0.00     0.139 C 
HETATM   36  O   UNK     0     -29.939  15.199  -5.576  0.00  0.00    -0.650 OA
BRANCH  35  37
HETATM   37  O   UNK     0     -29.098  16.294  -3.778  0.00  0.00    -0.776 OA
HETATM   38  H   UNK     0     -29.753  17.055  -3.868  0.00  0.00     0.167 HD
ENDBRANCH  35  37
ENDBRANCH  34  35
ENDBRANCH  33  34
ENDBRANCH   6  33
BRANCH  27  39
HETATM   39  C   UNK     0     -31.102   5.395  -2.916  0.00  0.00     0.051 C 
BRANCH  39  40
HETATM   40  C   UNK     0     -32.119   4.375  -3.171  0.00  0.00     0.114 C 
BRANCH  40  41
HETATM   41  C   UNK     0     -32.185   3.147  -2.411  0.00  0.00     0.139 C 
HETATM   42  O   UNK     0     -33.208   2.455  -2.318  0.00  0.00    -0.650 OA
BRANCH  41  43
HETATM   43  O   UNK     0     -31.021   2.694  -1.727  0.00  0.00    -0.776 OA
HETATM   44  H   UNK     0     -30.177   2.701  -2.287  0.00  0.00     0.167 HD
ENDBRANCH  41  43
ENDBRANCH  40  41
ENDBRANCH  39  40
ENDBRANCH  27  39
BRANCH  11  45
HETATM   45  C   UNK     0     -32.732  13.695   2.897  0.00  0.00     0.051 C 
BRANCH  45  46
HETATM   46  C   UNK     0     -34.094  13.103   2.927  0.00  0.00     0.114 C 
BRANCH  46  47
HETATM   47  C   UNK     0     -35.044  14.157   2.470  0.00  0.00     0.139 C 
HETATM   48  O   UNK     0     -34.618  15.309   2.311  0.00  0.00    -0.650 OA
BRANCH  47  49
HETATM   49  O   UNK     0     -36.362  13.860   2.232  0.00  0.00    -0.776 OA
HETATM   50  H   UNK     0     -36.964  13.437   2.949  0.00  0.00     0.167 HD
ENDBRANCH  47  49
ENDBRANCH  46  47
ENDBRANCH  45  46
ENDBRANCH  11  45
BRANCH  18  51
HETATM   51  C   UNK     0     -35.022   7.275   1.380  0.00  0.00     0.051 C 
BRANCH  51  52
HETATM   52  C   UNK     0     -34.629   6.044   2.183  0.00  0.00     0.114 C 
BRANCH  52  53
HETATM   53  C   UNK     0     -35.810   5.320   2.692  0.00  0.00     0.139 C 
HETATM   54  O   UNK     0     -35.664   4.273   3.342  0.00  0.00    -0.650 OA
BRANCH  53  55
HETATM   55  O   UNK     0     -37.068   5.809   2.439  0.00  0.00    -0.776 OA
HETATM   56  H   UNK     0     -37.900   5.272   2.368  0.00  0.00     0.167 HD
ENDBRANCH  53  55
ENDBRANCH  52  53
ENDBRANCH  51  52
ENDBRANCH  18  51
TORSDOF 16
ENDMDL
MODEL 2
REMARK VINA RESULT:      -8.5      1.836      6.667
REMARK  16 active torsions:
REMARK  status: ('A' for Active; 'I' for Inactive)
REMARK    1  A    between atoms: C_6  and  C_7 
REMARK    2  A    between atoms: C_7  and  C_8 
REMARK    3  A    between atoms: C_8  and  C_9 
REMARK    4  A    between atoms: C_9  and  O_11 
REMARK    5  A    between atoms: C_16  and  C_17 
REMARK    6  A    between atoms: C_17  and  C_18 
REMARK    7  A    between atoms: C_18  and  C_19 
REMARK    8  A    between atoms: C_19  and  O_21 
REMARK    9  A    between atoms: C_28  and  C_29 
REMARK   10  A    between atoms: C_29  and  C_30 
REMARK   11  A    between atoms: C_30  and  C_31 
REMARK   12  A    between atoms: C_31  and  O_33 
REMARK   13  A    between atoms: C_42  and  C_43 
REMARK   14  A    between atoms: C_43  and  C_44 
REMARK   15  A    between atoms: C_44  and  C_45 
REMARK   16  A    between atoms: C_45  and  O_47 
ROOT
HETATM    1  C   UNK     0     -33.554  13.897   3.135  0.00  0.00     0.051 C 
HETATM    2  C   UNK     0     -32.529  13.499   2.093  0.00  0.00    -0.031 A 
HETATM    3  C   UNK     0     -31.841  12.305   1.948  0.00  0.00     0.021 A 
HETATM    4  N   UNK     0     -31.000  12.406   0.891  0.00  0.00    -0.361 N 
HETATM    5  C   UNK     0     -31.144  13.635   0.354  0.00  0.00     0.022 A 
HETATM    6  C   UNK     0     -32.091  14.346   1.084  0.00  0.00    -0.027 A 
HETATM    7  C   UNK     0     -30.519  14.216  -0.876  0.00  0.00     0.115 C 
HETATM    8  C   UNK     0     -30.447  13.314  -2.095  0.00  0.00     0.021 A 
HETATM    9  N   UNK     0     -31.333  12.394  -2.507  0.00  0.00    -0.361 N 
HETATM   10  C   UNK     0     -30.815  11.767  -3.585  0.00  0.00     0.022 A 
HETATM   11  C   UNK     0     -29.566  12.305  -3.881  0.00  0.00    -0.027 A 
HETATM   12  C   UNK     0     -29.328  13.280  -2.946  0.00  0.00    -0.031 A 
HETATM   13  C   UNK     0     -28.087  14.141  -2.877  0.00  0.00     0.051 C 
HETATM   14  C   UNK     0     -31.450  10.605  -4.344  0.00  0.00     0.115 C 
HETATM   15  C   UNK     0     -31.672   9.364  -3.496  0.00  0.00     0.021 A 
HETATM   16  N   UNK     0     -32.401   9.258  -2.369  0.00  0.00    -0.361 N 
HETATM   17  C   UNK     0     -32.287   8.018  -1.888  0.00  0.00     0.022 A 
HETATM   18  C   UNK     0     -31.451   7.278  -2.747  0.00  0.00    -0.027 A 
HETATM   19  C   UNK     0     -31.073   8.131  -3.751  0.00  0.00    -0.031 A 
HETATM   20  C   UNK     0     -30.192   7.725  -4.918  0.00  0.00     0.051 C 
HETATM   21  C   UNK     0     -32.845   7.413  -0.620  0.00  0.00     0.115 C 
HETATM   22  C   UNK     0     -32.963   8.311   0.589  0.00  0.00     0.022 A 
HETATM   23  N   UNK     0     -32.099   9.239   1.021  0.00  0.00    -0.361 N 
HETATM   24  C   UNK     0     -32.669   9.903   2.047  0.00  0.00     0.021 A 
HETATM   25  C   UNK     0     -33.926   9.383   2.288  0.00  0.00    -0.031 A 
HETATM   26  C   UNK     0     -34.928   9.768   3.356  0.00  0.00     0.051 C 
HETATM   27  C   UNK     0     -34.137   8.363   1.367  0.00  0.00    -0.027 A 
HETATM   28  C   UNK     0     -32.116  11.099   2.801  0.00  0.00     0.115 C 
HETATM   29  H   UNK     0     -30.282  11.622   0.556  0.00  0.00     0.165 HD
HETATM   30  H   UNK     0     -32.346  12.218  -2.070  0.00  0.00     0.165 HD
HETATM   31  H   UNK     0     -33.049  10.060  -1.930  0.00  0.00     0.165 HD
HETATM   32  H   UNK     0     -31.060   9.405   0.634  0.00  0.00     0.165 HD
ENDROOT
BRANCH   6  33
HETATM   33  C   UNK     0     -32.603  15.752   0.898  0.00  0.00     0.051 C 
BRANCH  33  34
HETATM   34  C   UNK     0     -31.544  16.761   1.274  0.00  0.00     0.114 C 
BRANCH  34  35
HETATM   35  C   UNK     0     -31.443  17.741   0.155  0.00  0.00     0.139 C 
HETATM   36  O   UNK     0     -30.885  18.862   0.338  0.00  0.00    -0.650 OA
BRANCH  35  37
HETATM   37  O   UNK     0     -31.940  17.481  -1.116  0.00  0.00    -0.776 OA
HETATM   38  H   UNK     0     -32.925  17.361  -1.290  0.00  0.00     0.167 HD
ENDBRANCH  35  37
ENDBRANCH  34  35
ENDBRANCH  33  34
ENDBRANCH   6  33
BRANCH  27  39
HETATM   39  C   UNK     0     -35.361   7.516   1.362  0.00  0.00     0.051 C 
BRANCH  39  40
HETATM   40  C   UNK     0     -35.346   6.270   2.130  0.00  0.00     0.114 C 
BRANCH  40  41
HETATM   41  C   UNK     0     -34.117   5.588   2.468  0.00  0.00     0.139 C 
HETATM   42  O   UNK     0     -33.564   4.767   1.724  0.00  0.00    -0.650 OA
BRANCH  41  43
HETATM   43  O   UNK     0     -33.496   5.863   3.719  0.00  0.00    -0.776 OA
HETATM   44  H   UNK     0     -32.732   5.241   3.953  0.00  0.00     0.167 HD
ENDBRANCH  41  43
ENDBRANCH  40  41
ENDBRANCH  39  40
ENDBRANCH  27  39
BRANCH  11  45
HETATM   45  C   UNK     0     -28.620  11.935  -4.991  0.00  0.00     0.051 C 
BRANCH  45  46
HETATM   46  C   UNK     0     -27.735  10.785  -4.676  0.00  0.00     0.114 C 
BRANCH  46  47
HETATM   47  C   UNK     0     -26.414  11.343  -4.266  0.00  0.00     0.139 C 
HETATM   48  O   UNK     0     -25.976  12.332  -4.870  0.00  0.00    -0.650 OA
BRANCH  47  49
HETATM   49  O   UNK     0     -25.698  10.775  -3.243  0.00  0.00    -0.776 OA
HETATM   50  H   UNK     0     -24.675  10.843  -3.190  0.00  0.00     0.167 HD
ENDBRANCH  47  49
ENDBRANCH  46  47
ENDBRANCH  45  46
ENDBRANCH  11  45
BRANCH  18  51
HETATM   51  C   UNK     0     -31.050   5.830  -2.629  0.00  0.00     0.051 C 
BRANCH  51  52
HETATM   52  C   UNK     0     -32.292   5.016  -2.963  0.00  0.00     0.114 C 
BRANCH  52  53
HETATM   53  C   UNK     0     -32.113   3.586  -2.646  0.00  0.00     0.139 C 
HETATM   54  O   UNK     0     -31.299   3.239  -1.775  0.00  0.00    -0.650 OA
BRANCH  53  55
HETATM   55  O   UNK     0     -32.850   2.643  -3.321  0.00  0.00    -0.776 OA
HETATM   56  H   UNK     0     -32.486   1.921  -3.897  0.00  0.00     0.167 HD
ENDBRANCH  53  55
ENDBRANCH  52  53
ENDBRANCH  51  52
ENDBRANCH  18  51
TORSDOF 16
ENDMDL
MODEL 3
REMARK VINA RESULT:      -8.2     18.326     21.323
REMARK  16 active torsions:
REMARK  status: ('A' for Active; 'I' for Inactive)
REMARK    1  A    between atoms: C_6  and  C_7 
REMARK    2  A    between atoms: C_7  and  C_8 
REMARK    3  A    between atoms: C_8  and  C_9 
REMARK    4  A    between atoms: C_9  and  O_11 
REMARK    5  A    between atoms: C_16  and  C_17 
REMARK    6  A    between atoms: C_17  and  C_18 
REMARK    7  A    between atoms: C_18  and  C_19 
REMARK    8  A    between atoms: C_19  and  O_21 
REMARK    9  A    between atoms: C_28  and  C_29 
REMARK   10  A    between atoms: C_29  and  C_30 
REMARK   11  A    between atoms: C_30  and  C_31 
REMARK   12  A    between atoms: C_31  and  O_33 
REMARK   13  A    between atoms: C_42  and  C_43 
REMARK   14  A    between atoms: C_43  and  C_44 
REMARK   15  A    between atoms: C_44  and  C_45 
REMARK   16  A    between atoms: C_45  and  O_47 
ROOT
HETATM    1  C   UNK     0     -15.031   3.951   8.147  0.00  0.00     0.051 C 
HETATM    2  C   UNK     0     -15.121   5.045   7.103  0.00  0.00    -0.031 A 
HETATM    3  C   UNK     0     -14.186   6.007   6.754  0.00  0.00     0.021 A 
HETATM    4  N   UNK     0     -14.708   6.800   5.788  0.00  0.00    -0.361 N 
HETATM    5  C   UNK     0     -15.952   6.358   5.507  0.00  0.00     0.022 A 
HETATM    6  C   UNK     0     -16.243   5.263   6.314  0.00  0.00    -0.027 A 
HETATM    7  C   UNK     0     -16.913   6.823   4.459  0.00  0.00     0.115 C 
HETATM    8  C   UNK     0     -16.334   7.118   3.086  0.00  0.00     0.021 A 
HETATM    9  N   UNK     0     -15.337   6.488   2.446  0.00  0.00    -0.361 N 
HETATM   10  C   UNK     0     -15.097   7.147   1.293  0.00  0.00     0.022 A 
HETATM   11  C   UNK     0     -15.969   8.226   1.182  0.00  0.00    -0.027 A 
HETATM   12  C   UNK     0     -16.752   8.213   2.309  0.00  0.00    -0.031 A 
HETATM   13  C   UNK     0     -17.851   9.204   2.620  0.00  0.00     0.051 C 
HETATM   14  C   UNK     0     -14.004   6.819   0.278  0.00  0.00     0.115 C 
HETATM   15  C   UNK     0     -12.595   6.909   0.841  0.00  0.00     0.021 A 
HETATM   16  N   UNK     0     -12.080   6.226   1.881  0.00  0.00    -0.361 N 
HETATM   17  C   UNK     0     -10.832   6.641   2.103  0.00  0.00     0.022 A 
HETATM   18  C   UNK     0     -10.514   7.636   1.157  0.00  0.00    -0.027 A 
HETATM   19  C   UNK     0     -11.626   7.793   0.372  0.00  0.00    -0.031 A 
HETATM   20  C   UNK     0     -11.700   8.750  -0.804  0.00  0.00     0.051 C 
HETATM   21  C   UNK     0      -9.855   6.246   3.188  0.00  0.00     0.115 C 
HETATM   22  C   UNK     0     -10.421   5.908   4.547  0.00  0.00     0.022 A 
HETATM   23  N   UNK     0     -11.416   6.515   5.206  0.00  0.00    -0.361 N 
HETATM   24  C   UNK     0     -11.691   5.797   6.314  0.00  0.00     0.021 A 
HETATM   25  C   UNK     0     -10.845   4.706   6.374  0.00  0.00    -0.031 A 
HETATM   26  C   UNK     0     -10.742   3.637   7.443  0.00  0.00     0.051 C 
HETATM   27  C   UNK     0     -10.023   4.755   5.254  0.00  0.00    -0.027 A 
HETATM   28  C   UNK     0     -12.797   6.036   7.327  0.00  0.00     0.115 C 
HETATM   29  H   UNK     0     -14.209   7.690   5.339  0.00  0.00     0.165 HD
HETATM   30  H   UNK     0     -14.834   5.548   2.782  0.00  0.00     0.165 HD
HETATM   31  H   UNK     0     -12.592   5.399   2.439  0.00  0.00     0.165 HD
HETATM   32  H   UNK     0     -11.906   7.482   4.918  0.00  0.00     0.165 HD
ENDROOT
BRANCH   6  33
HETATM   33  C   UNK     0     -17.491   4.421   6.393  0.00  0.00     0.051 C 
BRANCH  33  34
HETATM   34  C   UNK     0     -17.349   3.174   5.553  0.00  0.00     0.114 C 
BRANCH  34  35
HETATM   35  C   UNK     0     -17.478   2.003   6.466  0.00  0.00     0.139 C 
HETATM   36  O   UNK     0     -18.184   2.086   7.513  0.00  0.00    -0.650 OA
BRANCH  35  37
HETATM   37  O   UNK     0     -16.849   0.789   6.221  0.00  0.00    -0.776 OA
HETATM   38  H   UNK     0     -17.174  -0.074   6.628  0.00  0.00     0.167 HD
ENDBRANCH  35  37
ENDBRANCH  34  35
ENDBRANCH  33  34
ENDBRANCH   6  33
BRANCH  27  39
HETATM   39  C   UNK     0      -8.927   3.778   5.009  0.00  0.00     0.051 C 
BRANCH  39  40
HETATM   40  C   UNK     0      -9.184   2.661   4.101  0.00  0.00     0.114 C 
BRANCH  40  41
HETATM   41  C   UNK     0      -9.726   1.402   4.562  0.00  0.00     0.139 C 
HETATM   42  O   UNK     0     -10.487   0.697   3.886  0.00  0.00    -0.650 OA
BRANCH  41  43
HETATM   43  O   UNK     0      -9.376   0.933   5.860  0.00  0.00    -0.776 OA
HETATM   44  H   UNK     0      -9.997   1.241   6.598  0.00  0.00     0.167 HD
ENDBRANCH  41  43
ENDBRANCH  40  41
ENDBRANCH  39  40
ENDBRANCH  27  39
BRANCH  11  45
HETATM   45  C   UNK     0     -16.082   9.236   0.072  0.00  0.00     0.051 C 
BRANCH  45  46
HETATM   46  C   UNK     0     -17.255   9.033  -0.815  0.00  0.00     0.114 C 
BRANCH  46  47
HETATM   47  C   UNK     0     -17.580  10.354  -1.427  0.00  0.00     0.139 C 
HETATM   48  O   UNK     0     -18.433  10.397  -2.323  0.00  0.00    -0.650 OA
BRANCH  47  49
HETATM   49  O   UNK     0     -16.947  11.497  -1.008  0.00  0.00    -0.776 OA
HETATM   50  H   UNK     0     -16.468  12.126  -1.663  0.00  0.00     0.167 HD
ENDBRANCH  47  49
ENDBRANCH  46  47
ENDBRANCH  45  46
ENDBRANCH  11  45
BRANCH  18  51
HETATM   51  C   UNK     0      -9.213   8.380   0.998  0.00  0.00     0.051 C 
BRANCH  51  52
HETATM   52  C   UNK     0      -8.350   7.537   0.071  0.00  0.00     0.114 C 
BRANCH  52  53
HETATM   53  C   UNK     0      -7.983   8.269  -1.156  0.00  0.00     0.139 C 
HETATM   54  O   UNK     0      -7.751   9.487  -1.107  0.00  0.00    -0.650 OA
BRANCH  53  55
HETATM   55  O   UNK     0      -7.904   7.595  -2.351  0.00  0.00    -0.776 OA
HETATM   56  H   UNK     0      -7.573   6.668  -2.478  0.00  0.00     0.167 HD
ENDBRANCH  53  55
ENDBRANCH  52  53
ENDBRANCH  51  52
ENDBRANCH  18  51
TORSDOF 16
ENDMDL
MODEL 4
REMARK VINA RESULT:      -8.1     18.479     21.266
REMARK  16 active torsions:
REMARK  status: ('A' for Active; 'I' for Inactive)
REMARK    1  A    between atoms: C_6  and  C_7 
REMARK    2  A    between atoms: C_7  and  C_8 
REMARK    3  A    between atoms: C_8  and  C_9 
REMARK    4  A    between atoms: C_9  and  O_11 
REMARK    5  A    between atoms: C_16  and  C_17 
REMARK    6  A    between atoms: C_17  and  C_18 
REMARK    7  A    between atoms: C_18  and  C_19 
REMARK    8  A    between atoms: C_19  and  O_21 
REMARK    9  A    between atoms: C_28  and  C_29 
REMARK   10  A    between atoms: C_29  and  C_30 
REMARK   11  A    between atoms: C_30  and  C_31 
REMARK   12  A    between atoms: C_31  and  O_33 
REMARK   13  A    between atoms: C_42  and  C_43 
REMARK   14  A    between atoms: C_43  and  C_44 
REMARK   15  A    between atoms: C_44  and  C_45 
REMARK   16  A    between atoms: C_45  and  O_47 
ROOT
HETATM    1  C   UNK     0     -14.006   3.649   8.440  0.00  0.00     0.051 C 
HETATM    2  C   UNK     0     -14.247   4.807   7.492  0.00  0.00    -0.031 A 
HETATM    3  C   UNK     0     -13.342   5.714   6.963  0.00  0.00     0.021 A 
HETATM    4  N   UNK     0     -14.008   6.600   6.186  0.00  0.00    -0.361 N 
HETATM    5  C   UNK     0     -15.317   6.272   6.201  0.00  0.00     0.022 A 
HETATM    6  C   UNK     0     -15.502   5.157   7.011  0.00  0.00    -0.027 A 
HETATM    7  C   UNK     0     -16.457   6.871   5.438  0.00  0.00     0.115 C 
HETATM    8  C   UNK     0     -16.201   7.202   3.978  0.00  0.00     0.021 A 
HETATM    9  N   UNK     0     -15.447   6.536   3.089  0.00  0.00    -0.361 N 
HETATM   10  C   UNK     0     -15.433   7.242   1.939  0.00  0.00     0.022 A 
HETATM   11  C   UNK     0     -16.207   8.389   2.087  0.00  0.00    -0.027 A 
HETATM   12  C   UNK     0     -16.694   8.370   3.369  0.00  0.00    -0.031 A 
HETATM   13  C   UNK     0     -17.594   9.421   3.978  0.00  0.00     0.051 C 
HETATM   14  C   UNK     0     -14.650   6.892   0.676  0.00  0.00     0.115 C 
HETATM   15  C   UNK     0     -13.144   6.840   0.880  0.00  0.00     0.021 A 
HETATM   16  N   UNK     0     -12.458   6.058   1.735  0.00  0.00    -0.361 N 
HETATM   17  C   UNK     0     -11.160   6.363   1.662  0.00  0.00     0.022 A 
HETATM   18  C   UNK     0     -10.992   7.385   0.707  0.00  0.00    -0.027 A 
HETATM   19  C   UNK     0     -12.242   7.673   0.224  0.00  0.00    -0.031 A 
HETATM   20  C   UNK     0     -12.511   8.701  -0.860  0.00  0.00     0.051 C 
HETATM   21  C   UNK     0      -9.991   5.831   2.459  0.00  0.00     0.115 C 
HETATM   22  C   UNK     0     -10.242   5.456   3.901  0.00  0.00     0.022 A 
HETATM   23  N   UNK     0     -10.991   6.098   4.807  0.00  0.00    -0.361 N 
HETATM   24  C   UNK     0     -11.054   5.339   5.919  0.00  0.00     0.021 A 
HETATM   25  C   UNK     0     -10.319   4.184   5.728  0.00  0.00    -0.031 A 
HETATM   26  C   UNK     0     -10.058   3.050   6.697  0.00  0.00     0.051 C 
HETATM   27  C   UNK     0      -9.789   4.237   4.444  0.00  0.00    -0.027 A 
HETATM   28  C   UNK     0     -11.859   5.602   7.180  0.00  0.00     0.115 C 
HETATM   29  H   UNK     0     -13.555   7.474   5.664  0.00  0.00     0.165 HD
HETATM   30  H   UNK     0     -14.963   5.542   3.256  0.00  0.00     0.165 HD
HETATM   31  H   UNK     0     -12.891   5.242   2.370  0.00  0.00     0.165 HD
HETATM   32  H   UNK     0     -11.448   7.115   4.685  0.00  0.00     0.165 HD
ENDROOT
BRANCH   6  33
HETATM   33  C   UNK     0     -16.764   4.410   7.359  0.00  0.00     0.051 C 
BRANCH  33  34
HETATM   34  C   UNK     0     -16.902   3.167   6.513  0.00  0.00     0.114 C 
BRANCH  34  35
HETATM   35  C   UNK     0     -17.485   3.580   5.204  0.00  0.00     0.139 C 
HETATM   36  O   UNK     0     -18.714   3.867   5.116  0.00  0.00    -0.650 OA
BRANCH  35  37
HETATM   37  O   UNK     0     -16.728   3.673   4.042  0.00  0.00    -0.776 OA
HETATM   38  H   UNK     0     -17.115   3.472   3.134  0.00  0.00     0.167 HD
ENDBRANCH  35  37
ENDBRANCH  34  35
ENDBRANCH  33  34
ENDBRANCH   6  33
BRANCH  27  39
HETATM   39  C   UNK     0      -8.876   3.195   3.901  0.00  0.00     0.051 C 
BRANCH  39  40
HETATM   40  C   UNK     0      -9.379   2.310   2.850  0.00  0.00     0.114 C 
BRANCH  40  41
HETATM   41  C   UNK     0      -9.125   2.557   1.449  0.00  0.00     0.139 C 
HETATM   42  O   UNK     0      -9.487   1.792   0.544  0.00  0.00    -0.650 OA
BRANCH  41  43
HETATM   43  O   UNK     0      -8.423   3.736   1.070  0.00  0.00    -0.776 OA
HETATM   44  H   UNK     0      -9.013   4.482   0.724  0.00  0.00     0.167 HD
ENDBRANCH  41  43
ENDBRANCH  40  41
ENDBRANCH  39  40
ENDBRANCH  27  39
BRANCH  11  45
HETATM   45  C   UNK     0     -16.493   9.469   1.078  0.00  0.00     0.051 C 
BRANCH  45  46
HETATM   46  C   UNK     0     -17.624   9.162   0.166  0.00  0.00     0.114 C 
BRANCH  46  47
HETATM   47  C   UNK     0     -17.529  10.103  -0.986  0.00  0.00     0.139 C 
HETATM   48  O   UNK     0     -18.165   9.843  -2.017  0.00  0.00    -0.650 OA
BRANCH  47  49
HETATM   49  O   UNK     0     -16.755  11.233  -0.909  0.00  0.00    -0.776 OA
HETATM   50  H   UNK     0     -16.505  11.663  -0.011  0.00  0.00     0.167 HD
ENDBRANCH  47  49
ENDBRANCH  46  47
ENDBRANCH  45  46
ENDBRANCH  11  45
BRANCH  18  51
HETATM   51  C   UNK     0      -9.707   8.035   0.263  0.00  0.00     0.051 C 
BRANCH  51  52
HETATM   52  C   UNK     0      -9.141   7.153  -0.840  0.00  0.00     0.114 C 
BRANCH  52  53
HETATM   53  C   UNK     0      -7.687   6.953  -0.692  0.00  0.00     0.139 C 
HETATM   54  O   UNK     0      -7.233   5.816  -0.489  0.00  0.00    -0.650 OA
BRANCH  53  55
HETATM   55  O   UNK     0      -6.841   8.032  -0.776  0.00  0.00    -0.776 OA
HETATM   56  H   UNK     0      -6.266   8.265  -1.551  0.00  0.00     0.167 HD
ENDBRANCH  53  55
ENDBRANCH  52  53
ENDBRANCH  51  52
ENDBRANCH  18  51
TORSDOF 16
ENDMDL
MODEL 5
REMARK VINA RESULT:      -7.9      7.687     13.022
REMARK  16 active torsions:
REMARK  status: ('A' for Active; 'I' for Inactive)
REMARK    1  A    between atoms: C_6  and  C_7 
REMARK    2  A    between atoms: C_7  and  C_8 
REMARK    3  A    between atoms: C_8  and  C_9 
REMARK    4  A    between atoms: C_9  and  O_11 
REMARK    5  A    between atoms: C_16  and  C_17 
REMARK    6  A    between atoms: C_17  and  C_18 
REMARK    7  A    between atoms: C_18  and  C_19 
REMARK    8  A    between atoms: C_19  and  O_21 
REMARK    9  A    between atoms: C_28  and  C_29 
REMARK   10  A    between atoms: C_29  and  C_30 
REMARK   11  A    between atoms: C_30  and  C_31 
REMARK   12  A    between atoms: C_31  and  O_33 
REMARK   13  A    between atoms: C_42  and  C_43 
REMARK   14  A    between atoms: C_43  and  C_44 
REMARK   15  A    between atoms: C_44  and  C_45 
REMARK   16  A    between atoms: C_45  and  O_47 
ROOT
HETATM    1  C   UNK     0     -26.539  17.079 -11.835  0.00  0.00     0.051 C 
HETATM    2  C   UNK     0     -25.286  16.563 -11.158  0.00  0.00    -0.031 A 
HETATM    3  C   UNK     0     -24.864  16.724  -9.848  0.00  0.00     0.021 A 
HETATM    4  N   UNK     0     -23.665  16.116  -9.692  0.00  0.00    -0.361 N 
HETATM    5  C   UNK     0     -23.317  15.563 -10.872  0.00  0.00     0.022 A 
HETATM    6  C   UNK     0     -24.308  15.825 -11.812  0.00  0.00    -0.027 A 
HETATM    7  C   UNK     0     -22.138  14.704 -11.211  0.00  0.00     0.115 C 
HETATM    8  C   UNK     0     -21.765  13.631 -10.203  0.00  0.00     0.021 A 
HETATM    9  N   UNK     0     -22.576  12.890  -9.432  0.00  0.00    -0.361 N 
HETATM   10  C   UNK     0     -21.806  12.131  -8.623  0.00  0.00     0.022 A 
HETATM   11  C   UNK     0     -20.463  12.382  -8.888  0.00  0.00    -0.027 A 
HETATM   12  C   UNK     0     -20.430  13.327  -9.882  0.00  0.00    -0.031 A 
HETATM   13  C   UNK     0     -19.175  13.904 -10.498  0.00  0.00     0.051 C 
HETATM   14  C   UNK     0     -22.303  11.181  -7.537  0.00  0.00     0.115 C 
HETATM   15  C   UNK     0     -23.106  11.864  -6.442  0.00  0.00     0.021 A 
HETATM   16  N   UNK     0     -24.236  12.583  -6.578  0.00  0.00    -0.361 N 
HETATM   17  C   UNK     0     -24.590  13.074  -5.388  0.00  0.00     0.022 A 
HETATM   18  C   UNK     0     -23.650  12.647  -4.429  0.00  0.00    -0.027 A 
HETATM   19  C   UNK     0     -22.727  11.889  -5.101  0.00  0.00    -0.031 A 
HETATM   20  C   UNK     0     -21.552  11.200  -4.431  0.00  0.00     0.051 C 
HETATM   21  C   UNK     0     -25.730  13.995  -5.017  0.00  0.00     0.115 C 
HETATM   22  C   UNK     0     -26.141  15.039  -6.028  0.00  0.00     0.022 A 
HETATM   23  N   UNK     0     -25.356  15.789  -6.813  0.00  0.00    -0.361 N 
HETATM   24  C   UNK     0     -26.142  16.479  -7.663  0.00  0.00     0.021 A 
HETATM   25  C   UNK     0     -27.467  16.174  -7.413  0.00  0.00    -0.031 A 
HETATM   26  C   UNK     0     -28.713  16.724  -8.075  0.00  0.00     0.051 C 
HETATM   27  C   UNK     0     -27.491  15.255  -6.371  0.00  0.00    -0.027 A 
HETATM   28  C   UNK     0     -25.709  17.390  -8.798  0.00  0.00     0.115 C 
HETATM   29  H   UNK     0     -23.053  16.116  -8.760  0.00  0.00     0.165 HD
HETATM   30  H   UNK     0     -23.691  12.864  -9.490  0.00  0.00     0.165 HD
HETATM   31  H   UNK     0     -24.823  12.708  -7.525  0.00  0.00     0.165 HD
HETATM   32  H   UNK     0     -24.240  15.871  -6.745  0.00  0.00     0.165 HD
ENDROOT
BRANCH   6  33
HETATM   33  C   UNK     0     -24.393  15.436 -13.266  0.00  0.00     0.051 C 
BRANCH  33  34
HETATM   34  C   UNK     0     -23.684  16.449 -14.134  0.00  0.00     0.114 C 
BRANCH  34  35
HETATM   35  C   UNK     0     -22.541  15.751 -14.791  0.00  0.00     0.139 C 
HETATM   36  O   UNK     0     -21.422  16.330 -14.904  0.00  0.00    -0.650 OA
BRANCH  35  37
HETATM   37  O   UNK     0     -22.642  14.461 -15.297  0.00  0.00    -0.776 OA
HETATM   38  H   UNK     0     -22.161  14.177 -16.135  0.00  0.00     0.167 HD
ENDBRANCH  35  37
ENDBRANCH  34  35
ENDBRANCH  33  34
ENDBRANCH   6  33
BRANCH  27  39
HETATM   39  C   UNK     0     -28.753  14.742  -5.772  0.00  0.00     0.051 C 
BRANCH  39  40
HETATM   40  C   UNK     0     -29.119  15.195  -4.430  0.00  0.00     0.114 C 
BRANCH  40  41
HETATM   41  C   UNK     0     -29.426  14.271  -3.361  0.00  0.00     0.139 C 
HETATM   42  O   UNK     0     -28.864  14.291  -2.258  0.00  0.00    -0.650 OA
BRANCH  41  43
HETATM   43  O   UNK     0     -30.424  13.278  -3.572  0.00  0.00    -0.776 OA
HETATM   44  H   UNK     0     -30.670  12.749  -2.744  0.00  0.00     0.167 HD
ENDBRANCH  41  43
ENDBRANCH  40  41
ENDBRANCH  39  40
ENDBRANCH  27  39
BRANCH  11  45
HETATM   45  C   UNK     0     -19.246  11.771  -8.247  0.00  0.00     0.051 C 
BRANCH  45  46
HETATM   46  C   UNK     0     -18.869  12.388  -6.950  0.00  0.00     0.114 C 
BRANCH  46  47
HETATM   47  C   UNK     0     -18.157  11.347  -6.155  0.00  0.00     0.139 C 
HETATM   48  O   UNK     0     -18.044  11.509  -4.932  0.00  0.00    -0.650 OA
BRANCH  47  49
HETATM   49  O   UNK     0     -17.636  10.233  -6.764  0.00  0.00    -0.776 OA
HETATM   50  H   UNK     0     -17.679   9.304  -6.329  0.00  0.00     0.167 HD
ENDBRANCH  47  49
ENDBRANCH  46  47
ENDBRANCH  45  46
ENDBRANCH  11  45
BRANCH  18  51
HETATM   51  C   UNK     0     -23.645  12.928  -2.949  0.00  0.00     0.051 C 
BRANCH  51  52
HETATM   52  C   UNK     0     -24.562  11.892  -2.315  0.00  0.00     0.114 C 
BRANCH  52  53
HETATM   53  C   UNK     0     -23.815  10.707  -1.852  0.00  0.00     0.139 C 
HETATM   54  O   UNK     0     -22.998  10.811  -0.923  0.00  0.00    -0.650 OA
BRANCH  53  55
HETATM   55  O   UNK     0     -24.027   9.491  -2.455  0.00  0.00    -0.776 OA
HETATM   56  H   UNK     0     -24.633   8.775  -2.130  0.00  0.00     0.167 HD
ENDBRANCH  53  55
ENDBRANCH  52  53
ENDBRANCH  51  52
ENDBRANCH  18  51
TORSDOF 16
ENDMDL
MODEL 6
REMARK VINA RESULT:      -7.8      1.907      2.349
REMARK  16 active torsions:
REMARK  status: ('A' for Active; 'I' for Inactive)
REMARK    1  A    between atoms: C_6  and  C_7 
REMARK    2  A    between atoms: C_7  and  C_8 
REMARK    3  A    between atoms: C_8  and  C_9 
REMARK    4  A    between atoms: C_9  and  O_11 
REMARK    5  A    between atoms: C_16  and  C_17 
REMARK    6  A    between atoms: C_17  and  C_18 
REMARK    7  A    between atoms: C_18  and  C_19 
REMARK    8  A    between atoms: C_19  and  O_21 
REMARK    9  A    between atoms: C_28  and  C_29 
REMARK   10  A    between atoms: C_29  and  C_30 
REMARK   11  A    between atoms: C_30  and  C_31 
REMARK   12  A    between atoms: C_31  and  O_33 
REMARK   13  A    between atoms: C_42  and  C_43 
REMARK   14  A    between atoms: C_43  and  C_44 
REMARK   15  A    between atoms: C_44  and  C_45 
REMARK   16  A    between atoms: C_45  and  O_47 
ROOT
HETATM    1  C   UNK     0     -28.302  10.701  -5.761  0.00  0.00     0.051 C 
HETATM    2  C   UNK     0     -29.178  11.544  -4.857  0.00  0.00    -0.031 A 
HETATM    3  C   UNK     0     -30.505  11.362  -4.499  0.00  0.00     0.021 A 
HETATM    4  N   UNK     0     -30.888  12.381  -3.693  0.00  0.00    -0.361 N 
HETATM    5  C   UNK     0     -29.832  13.203  -3.523  0.00  0.00     0.022 A 
HETATM    6  C   UNK     0     -28.747  12.711  -4.239  0.00  0.00    -0.027 A 
HETATM    7  C   UNK     0     -29.700  14.416  -2.655  0.00  0.00     0.115 C 
HETATM    8  C   UNK     0     -30.294  14.324  -1.260  0.00  0.00     0.021 A 
HETATM    9  N   UNK     0     -30.341  13.263  -0.440  0.00  0.00    -0.361 N 
HETATM   10  C   UNK     0     -31.043  13.613   0.658  0.00  0.00     0.022 A 
HETATM   11  C   UNK     0     -31.452  14.939   0.547  0.00  0.00    -0.027 A 
HETATM   12  C   UNK     0     -30.983  15.393  -0.660  0.00  0.00    -0.031 A 
HETATM   13  C   UNK     0     -31.183  16.788  -1.206  0.00  0.00     0.051 C 
HETATM   14  C   UNK     0     -31.402  12.700   1.828  0.00  0.00     0.115 C 
HETATM   15  C   UNK     0     -32.253  11.503   1.437  0.00  0.00     0.021 A 
HETATM   16  N   UNK     0     -31.955  10.539   0.546  0.00  0.00    -0.361 N 
HETATM   17  C   UNK     0     -32.993   9.707   0.436  0.00  0.00     0.022 A 
HETATM   18  C   UNK     0     -34.013  10.145   1.304  0.00  0.00    -0.027 A 
HETATM   19  C   UNK     0     -33.537  11.270   1.926  0.00  0.00    -0.031 A 
HETATM   20  C   UNK     0     -34.311  12.046   2.976  0.00  0.00     0.051 C 
HETATM   21  C   UNK     0     -33.192   8.516  -0.473  0.00  0.00     0.115 C 
HETATM   22  C   UNK     0     -32.569   8.575  -1.847  0.00  0.00     0.022 A 
HETATM   23  N   UNK     0     -32.503   9.619  -2.685  0.00  0.00    -0.361 N 
HETATM   24  C   UNK     0     -31.734   9.271  -3.736  0.00  0.00     0.021 A 
HETATM   25  C   UNK     0     -31.301   7.969  -3.576  0.00  0.00    -0.031 A 
HETATM   26  C   UNK     0     -30.453   7.126  -4.506  0.00  0.00     0.051 C 
HETATM   27  C   UNK     0     -31.823   7.502  -2.375  0.00  0.00    -0.027 A 
HETATM   28  C   UNK     0     -31.295  10.147  -4.896  0.00  0.00     0.115 C 
HETATM   29  H   UNK     0     -31.913  12.533  -3.283  0.00  0.00     0.165 HD
HETATM   30  H   UNK     0     -29.837  12.280  -0.611  0.00  0.00     0.165 HD
HETATM   31  H   UNK     0     -30.973  10.415   0.019  0.00  0.00     0.165 HD
HETATM   32  H   UNK     0     -33.036  10.597  -2.562  0.00  0.00     0.165 HD
ENDROOT
BRANCH   6  33
HETATM   33  C   UNK     0     -27.349  13.259  -4.382  0.00  0.00     0.051 C 
BRANCH  33  34
HETATM   34  C   UNK     0     -26.452  12.728  -3.289  0.00  0.00     0.114 C 
BRANCH  34  35
HETATM   35  C   UNK     0     -25.411  11.881  -3.938  0.00  0.00     0.139 C 
HETATM   36  O   UNK     0     -24.805  10.992  -3.271  0.00  0.00    -0.650 OA
BRANCH  35  37
HETATM   37  O   UNK     0     -25.061  12.018  -5.276  0.00  0.00    -0.776 OA
HETATM   38  H   UNK     0     -24.116  11.883  -5.598  0.00  0.00     0.167 HD
ENDBRANCH  35  37
ENDBRANCH  34  35
ENDBRANCH  33  34
ENDBRANCH   6  33
BRANCH  27  39
HETATM   39  C   UNK     0     -31.630   6.106  -1.896  0.00  0.00     0.051 C 
BRANCH  39  40
HETATM   40  C   UNK     0     -32.277   5.023  -2.635  0.00  0.00     0.114 C 
BRANCH  40  41
HETATM   41  C   UNK     0     -31.737   3.682  -2.668  0.00  0.00     0.139 C 
HETATM   42  O   UNK     0     -32.077   2.828  -3.498  0.00  0.00    -0.650 OA
BRANCH  41  43
HETATM   43  O   UNK     0     -30.761   3.307  -1.702  0.00  0.00    -0.776 OA
HETATM   44  H   UNK     0     -29.926   3.881  -1.704  0.00  0.00     0.167 HD
ENDBRANCH  41  43
ENDBRANCH  40  41
ENDBRANCH  39  40
ENDBRANCH  27  39
BRANCH  11  45
HETATM   45  C   UNK     0     -32.247  15.765   1.522  0.00  0.00     0.051 C 
BRANCH  45  46
HETATM   46  C   UNK     0     -33.653  15.317   1.689  0.00  0.00     0.114 C 
BRANCH  46  47
HETATM   47  C   UNK     0     -34.514  16.273   0.935  0.00  0.00     0.139 C 
HETATM   48  O   UNK     0     -35.740  16.093   0.935  0.00  0.00    -0.650 OA
BRANCH  47  49
HETATM   49  O   UNK     0     -33.962  17.329   0.255  0.00  0.00    -0.776 OA
HETATM   50  H   UNK     0     -34.296  17.615  -0.673  0.00  0.00     0.167 HD
ENDBRANCH  47  49
ENDBRANCH  46  47
ENDBRANCH  45  46
ENDBRANCH  11  45
BRANCH  18  51
HETATM   51  C   UNK     0     -35.360   9.514   1.543  0.00  0.00     0.051 C 
BRANCH  51  52
HETATM   52  C   UNK     0     -35.115   8.319   2.452  0.00  0.00     0.114 C 
BRANCH  52  53
HETATM   53  C   UNK     0     -35.547   7.054   1.825  0.00  0.00     0.139 C 
HETATM   54  O   UNK     0     -36.268   7.076   0.815  0.00  0.00    -0.650 OA
BRANCH  53  55
HETATM   55  O   UNK     0     -35.150   5.857   2.368  0.00  0.00    -0.776 OA
HETATM   56  H   UNK     0     -34.971   5.019   1.866  0.00  0.00     0.167 HD
ENDBRANCH  53  55
ENDBRANCH  52  53
ENDBRANCH  51  52
ENDBRANCH  18  51
TORSDOF 16
ENDMDL
MODEL 7
REMARK VINA RESULT:      -7.8      6.606     11.646
REMARK  16 active torsions:
REMARK  status: ('A' for Active; 'I' for Inactive)
REMARK    1  A    between atoms: C_6  and  C_7 
REMARK    2  A    between atoms: C_7  and  C_8 
REMARK    3  A    between atoms: C_8  and  C_9 
REMARK    4  A    between atoms: C_9  and  O_11 
REMARK    5  A    between atoms: C_16  and  C_17 
REMARK    6  A    between atoms: C_17  and  C_18 
REMARK    7  A    between atoms: C_18  and  C_19 
REMARK    8  A    between atoms: C_19  and  O_21 
REMARK    9  A    between atoms: C_28  and  C_29 
REMARK   10  A    between atoms: C_29  and  C_30 
REMARK   11  A    between atoms: C_30  and  C_31 
REMARK   12  A    between atoms: C_31  and  O_33 
REMARK   13  A    between atoms: C_42  and  C_43 
REMARK   14  A    between atoms: C_43  and  C_44 
REMARK   15  A    between atoms: C_44  and  C_45 
REMARK   16  A    between atoms: C_45  and  O_47 
ROOT
HETATM    1  C   UNK     0     -28.343  17.142  -8.578  0.00  0.00     0.051 C 
HETATM    2  C   UNK     0     -26.955  16.734  -8.128  0.00  0.00    -0.031 A 
HETATM    3  C   UNK     0     -26.491  16.452  -6.853  0.00  0.00     0.021 A 
HETATM    4  N   UNK     0     -25.170  16.161  -6.918  0.00  0.00    -0.361 N 
HETATM    5  C   UNK     0     -24.784  16.243  -8.207  0.00  0.00     0.022 A 
HETATM    6  C   UNK     0     -25.875  16.602  -8.992  0.00  0.00    -0.027 A 
HETATM    7  C   UNK     0     -23.458  15.928  -8.826  0.00  0.00     0.115 C 
HETATM    8  C   UNK     0     -22.758  14.672  -8.336  0.00  0.00     0.021 A 
HETATM    9  N   UNK     0     -23.302  13.502  -7.966  0.00  0.00    -0.361 N 
HETATM   10  C   UNK     0     -22.312  12.704  -7.514  0.00  0.00     0.022 A 
HETATM   11  C   UNK     0     -21.096  13.375  -7.603  0.00  0.00    -0.027 A 
HETATM   12  C   UNK     0     -21.370  14.615  -8.120  0.00  0.00    -0.031 A 
HETATM   13  C   UNK     0     -20.345  15.692  -8.398  0.00  0.00     0.051 C 
HETATM   14  C   UNK     0     -22.478  11.303  -6.933  0.00  0.00     0.115 C 
HETATM   15  C   UNK     0     -23.342  11.253  -5.683  0.00  0.00     0.021 A 
HETATM   16  N   UNK     0     -24.622  11.651  -5.553  0.00  0.00    -0.361 N 
HETATM   17  C   UNK     0     -24.998  11.509  -4.280  0.00  0.00     0.022 A 
HETATM   18  C   UNK     0     -23.914  10.984  -3.547  0.00  0.00    -0.027 A 
HETATM   19  C   UNK     0     -22.884  10.827  -4.438  0.00  0.00    -0.031 A 
HETATM   20  C   UNK     0     -21.530  10.250  -4.068  0.00  0.00     0.051 C 
HETATM   21  C   UNK     0     -26.300  11.876  -3.604  0.00  0.00     0.115 C 
HETATM   22  C   UNK     0     -27.029  13.098  -4.111  0.00  0.00     0.022 A 
HETATM   23  N   UNK     0     -26.513  14.274  -4.490  0.00  0.00    -0.361 N 
HETATM   24  C   UNK     0     -27.506  15.024  -5.009  0.00  0.00     0.021 A 
HETATM   25  C   UNK     0     -28.691  14.318  -4.954  0.00  0.00    -0.031 A 
HETATM   26  C   UNK     0     -30.080  14.751  -5.377  0.00  0.00     0.051 C 
HETATM   27  C   UNK     0     -28.412  13.081  -4.383  0.00  0.00    -0.027 A 
HETATM   28  C   UNK     0     -27.395  16.396  -5.653  0.00  0.00     0.115 C 
HETATM   29  H   UNK     0     -24.511  15.939  -6.046  0.00  0.00     0.165 HD
HETATM   30  H   UNK     0     -24.378  13.218  -8.070  0.00  0.00     0.165 HD
HETATM   31  H   UNK     0     -25.289  11.995  -6.385  0.00  0.00     0.165 HD
HETATM   32  H   UNK     0     -25.450  14.603  -4.354  0.00  0.00     0.165 HD
ENDROOT
BRANCH   6  33
HETATM   33  C   UNK     0     -25.968  16.829 -10.479  0.00  0.00     0.051 C 
BRANCH  33  34
HETATM   34  C   UNK     0     -25.769  18.289 -10.811  0.00  0.00     0.114 C 
BRANCH  34  35
HETATM   35  C   UNK     0     -26.879  18.696 -11.720  0.00  0.00     0.139 C 
HETATM   36  O   UNK     0     -26.787  18.499 -12.966  0.00  0.00    -0.650 OA
BRANCH  35  37
HETATM   37  O   UNK     0     -28.045  19.294 -11.257  0.00  0.00    -0.776 OA
HETATM   38  H   UNK     0     -28.032  20.153 -10.730  0.00  0.00     0.167 HD
ENDBRANCH  35  37
ENDBRANCH  34  35
ENDBRANCH  33  34
ENDBRANCH   6  33
BRANCH  27  39
HETATM   39  C   UNK     0     -29.461  12.066  -4.093  0.00  0.00     0.051 C 
BRANCH  39  40
HETATM   40  C   UNK     0     -30.174  12.150  -2.819  0.00  0.00     0.114 C 
BRANCH  40  41
HETATM   41  C   UNK     0     -30.913  11.033  -2.275  0.00  0.00     0.139 C 
HETATM   42  O   UNK     0     -30.583  10.433  -1.243  0.00  0.00    -0.650 OA
BRANCH  41  43
HETATM   43  O   UNK     0     -32.084  10.584  -2.949  0.00  0.00    -0.776 OA
HETATM   44  H   UNK     0     -32.598  11.315  -3.428  0.00  0.00     0.167 HD
ENDBRANCH  41  43
ENDBRANCH  40  41
ENDBRANCH  39  40
ENDBRANCH  27  39
BRANCH  11  45
HETATM   45  C   UNK     0     -19.722  12.888  -7.227  0.00  0.00     0.051 C 
BRANCH  45  46
HETATM   46  C   UNK     0     -19.130  11.934  -8.198  0.00  0.00     0.114 C 
BRANCH  46  47
HETATM   47  C   UNK     0     -18.356  10.928  -7.414  0.00  0.00     0.139 C 
HETATM   48  O   UNK     0     -18.932  10.317  -6.504  0.00  0.00    -0.650 OA
BRANCH  47  49
HETATM   49  O   UNK     0     -17.035  10.685  -7.693  0.00  0.00    -0.776 OA
HETATM   50  H   UNK     0     -16.708   9.772  -8.029  0.00  0.00     0.167 HD
ENDBRANCH  47  49
ENDBRANCH  46  47
ENDBRANCH  45  46
ENDBRANCH  11  45
BRANCH  18  51
HETATM   51  C   UNK     0     -23.870  10.631  -2.083  0.00  0.00     0.051 C 
BRANCH  51  52
HETATM   52  C   UNK     0     -23.526  11.917  -1.345  0.00  0.00     0.114 C 
BRANCH  52  53
HETATM   53  C   UNK     0     -22.297  11.776  -0.541  0.00  0.00     0.139 C 
HETATM   54  O   UNK     0     -21.897  12.723   0.154  0.00  0.00    -0.650 OA
BRANCH  53  55
HETATM   55  O   UNK     0     -21.599  10.593  -0.568  0.00  0.00    -0.776 OA
HETATM   56  H   UNK     0     -21.785   9.792  -0.012  0.00  0.00     0.167 HD
ENDBRANCH  53  55
ENDBRANCH  52  53
ENDBRANCH  51  52
ENDBRANCH  18  51
TORSDOF 16
ENDMDL
MODEL 8
REMARK VINA RESULT:      -7.7     18.097     20.622
REMARK  16 active torsions:
REMARK  status: ('A' for Active; 'I' for Inactive)
REMARK    1  A    between atoms: C_6  and  C_7 
REMARK    2  A    between atoms: C_7  and  C_8 
REMARK    3  A    between atoms: C_8  and  C_9 
REMARK    4  A    between atoms: C_9  and  O_11 
REMARK    5  A    between atoms: C_16  and  C_17 
REMARK    6  A    between atoms: C_17  and  C_18 
REMARK    7  A    between atoms: C_18  and  C_19 
REMARK    8  A    between atoms: C_19  and  O_21 
REMARK    9  A    between atoms: C_28  and  C_29 
REMARK   10  A    between atoms: C_29  and  C_30 
REMARK   11  A    between atoms: C_30  and  C_31 
REMARK   12  A    between atoms: C_31  and  O_33 
REMARK   13  A    between atoms: C_42  and  C_43 
REMARK   14  A    between atoms: C_43  and  C_44 
REMARK   15  A    between atoms: C_44  and  C_45 
REMARK   16  A    between atoms: C_45  and  O_47 
ROOT
HETATM    1  C   UNK     0      -9.158   4.738   6.944  0.00  0.00     0.051 C 
HETATM    2  C   UNK     0     -10.611   5.090   7.187  0.00  0.00    -0.031 A 
HETATM    3  C   UNK     0     -11.335   6.189   6.753  0.00  0.00     0.021 A 
HETATM    4  N   UNK     0     -12.597   6.105   7.237  0.00  0.00    -0.361 N 
HETATM    5  C   UNK     0     -12.695   4.973   7.964  0.00  0.00     0.022 A 
HETATM    6  C   UNK     0     -11.470   4.315   7.956  0.00  0.00    -0.027 A 
HETATM    7  C   UNK     0     -13.892   4.370   8.630  0.00  0.00     0.115 C 
HETATM    8  C   UNK     0     -15.192   4.390   7.844  0.00  0.00     0.021 A 
HETATM    9  N   UNK     0     -15.372   4.248   6.522  0.00  0.00    -0.361 N 
HETATM   10  C   UNK     0     -16.683   4.426   6.256  0.00  0.00     0.022 A 
HETATM   11  C   UNK     0     -17.368   4.680   7.440  0.00  0.00    -0.027 A 
HETATM   12  C   UNK     0     -16.435   4.659   8.445  0.00  0.00    -0.031 A 
HETATM   13  C   UNK     0     -16.725   4.881   9.913  0.00  0.00     0.051 C 
HETATM   14  C   UNK     0     -17.332   4.416   4.875  0.00  0.00     0.115 C 
HETATM   15  C   UNK     0     -16.804   5.492   3.939  0.00  0.00     0.021 A 
HETATM   16  N   UNK     0     -15.534   5.679   3.536  0.00  0.00    -0.361 N 
HETATM   17  C   UNK     0     -15.472   6.774   2.774  0.00  0.00     0.022 A 
HETATM   18  C   UNK     0     -16.766   7.321   2.668  0.00  0.00    -0.027 A 
HETATM   19  C   UNK     0     -17.591   6.508   3.401  0.00  0.00    -0.031 A 
HETATM   20  C   UNK     0     -19.090   6.718   3.525  0.00  0.00     0.051 C 
HETATM   21  C   UNK     0     -14.278   7.450   2.139  0.00  0.00     0.115 C 
HETATM   22  C   UNK     0     -12.968   7.401   2.890  0.00  0.00     0.022 A 
HETATM   23  N   UNK     0     -12.759   7.535   4.206  0.00  0.00    -0.361 N 
HETATM   24  C   UNK     0     -11.460   7.276   4.458  0.00  0.00     0.021 A 
HETATM   25  C   UNK     0     -10.814   6.979   3.273  0.00  0.00    -0.031 A 
HETATM   26  C   UNK     0      -9.352   6.662   3.039  0.00  0.00     0.051 C 
HETATM   27  C   UNK     0     -11.758   7.052   2.255  0.00  0.00    -0.027 A 
HETATM   28  C   UNK     0     -10.770   7.213   5.809  0.00  0.00     0.115 C 
HETATM   29  H   UNK     0     -13.398   6.867   7.095  0.00  0.00     0.165 HD
HETATM   30  H   UNK     0     -14.583   3.972   5.780  0.00  0.00     0.165 HD
HETATM   31  H   UNK     0     -14.670   4.999   3.754  0.00  0.00     0.165 HD
HETATM   32  H   UNK     0     -13.519   7.856   4.965  0.00  0.00     0.165 HD
ENDROOT
BRANCH   6  33
HETATM   33  C   UNK     0     -11.058   3.023   8.616  0.00  0.00     0.051 C 
BRANCH  33  34
HETATM   34  C   UNK     0     -10.984   1.905   7.604  0.00  0.00     0.114 C 
BRANCH  34  35
HETATM   35  C   UNK     0      -9.606   1.338   7.665  0.00  0.00     0.139 C 
HETATM   36  O   UNK     0      -8.857   1.588   8.654  0.00  0.00    -0.650 OA
BRANCH  35  37
HETATM   37  O   UNK     0      -9.086   0.525   6.666  0.00  0.00    -0.776 OA
HETATM   38  H   UNK     0      -9.220   0.726   5.688  0.00  0.00     0.167 HD
ENDBRANCH  35  37
ENDBRANCH  34  35
ENDBRANCH  33  34
ENDBRANCH   6  33
BRANCH  27  39
HETATM   39  C   UNK     0     -11.418   6.862   0.819  0.00  0.00     0.051 C 
BRANCH  39  40
HETATM   40  C   UNK     0     -11.036   8.037   0.035  0.00  0.00     0.114 C 
BRANCH  40  41
HETATM   41  C   UNK     0     -11.883   8.579  -1.003  0.00  0.00     0.139 C 
HETATM   42  O   UNK     0     -11.532   8.683  -2.187  0.00  0.00    -0.650 OA
BRANCH  41  43
HETATM   43  O   UNK     0     -13.193   9.021  -0.666  0.00  0.00    -0.776 OA
HETATM   44  H   UNK     0     -13.906   8.774  -1.342  0.00  0.00     0.167 HD
ENDBRANCH  41  43
ENDBRANCH  40  41
ENDBRANCH  39  40
ENDBRANCH  27  39
BRANCH  11  45
HETATM   45  C   UNK     0     -18.838   4.933   7.642  0.00  0.00     0.051 C 
BRANCH  45  46
HETATM   46  C   UNK     0     -19.573   3.789   8.242  0.00  0.00     0.114 C 
BRANCH  46  47
HETATM   47  C   UNK     0     -20.596   3.353   7.249  0.00  0.00     0.139 C 
HETATM   48  O   UNK     0     -20.255   2.570   6.352  0.00  0.00    -0.650 OA
BRANCH  47  49
HETATM   49  O   UNK     0     -21.888   3.810   7.325  0.00  0.00    -0.776 OA
HETATM   50  H   UNK     0     -22.441   4.023   6.487  0.00  0.00     0.167 HD
ENDBRANCH  47  49
ENDBRANCH  46  47
ENDBRANCH  45  46
ENDBRANCH  11  45
BRANCH  18  51
HETATM   51  C   UNK     0     -17.196   8.539   1.893  0.00  0.00     0.051 C 
BRANCH  51  52
HETATM   52  C   UNK     0     -17.252   8.117   0.432  0.00  0.00     0.114 C 
BRANCH  52  53
HETATM   53  C   UNK     0     -16.853   9.213  -0.472  0.00  0.00     0.139 C 
HETATM   54  O   UNK     0     -15.828   9.871  -0.236  0.00  0.00    -0.650 OA
BRANCH  53  55
HETATM   55  O   UNK     0     -17.623   9.500  -1.572  0.00  0.00    -0.776 OA
HETATM   56  H   UNK     0     -18.376   8.953  -1.917  0.00  0.00     0.167 HD
ENDBRANCH  53  55
ENDBRANCH  52  53
ENDBRANCH  51  52
ENDBRANCH  18  51
TORSDOF 16
ENDMDL
MODEL 9
REMARK VINA RESULT:      -7.7     21.858     23.662
REMARK  16 active torsions:
REMARK  status: ('A' for Active; 'I' for Inactive)
REMARK    1  A    between atoms: C_6  and  C_7 
REMARK    2  A    between atoms: C_7  and  C_8 
REMARK    3  A    between atoms: C_8  and  C_9 
REMARK    4  A    between atoms: C_9  and  O_11 
REMARK    5  A    between atoms: C_16  and  C_17 
REMARK    6  A    between atoms: C_17  and  C_18 
REMARK    7  A    between atoms: C_18  and  C_19 
REMARK    8  A    between atoms: C_19  and  O_21 
REMARK    9  A    between atoms: C_28  and  C_29 
REMARK   10  A    between atoms: C_29  and  C_30 
REMARK   11  A    between atoms: C_30  and  C_31 
REMARK   12  A    between atoms: C_31  and  O_33 
REMARK   13  A    between atoms: C_42  and  C_43 
REMARK   14  A    between atoms: C_43  and  C_44 
REMARK   15  A    between atoms: C_44  and  C_45 
REMARK   16  A    between atoms: C_45  and  O_47 
ROOT
HETATM    1  C   UNK     0     -12.860   6.329   1.284  0.00  0.00     0.051 C 
HETATM    2  C   UNK     0     -11.807   6.156   2.359  0.00  0.00    -0.031 A 
HETATM    3  C   UNK     0     -11.830   6.556   3.686  0.00  0.00     0.021 A 
HETATM    4  N   UNK     0     -10.655   6.219   4.269  0.00  0.00    -0.361 N 
HETATM    5  C   UNK     0      -9.887   5.605   3.345  0.00  0.00     0.022 A 
HETATM    6  C   UNK     0     -10.576   5.551   2.138  0.00  0.00    -0.027 A 
HETATM    7  C   UNK     0      -8.545   4.961   3.499  0.00  0.00     0.115 C 
HETATM    8  C   UNK     0      -8.334   4.113   4.741  0.00  0.00     0.021 A 
HETATM    9  N   UNK     0      -9.217   3.327   5.376  0.00  0.00    -0.361 N 
HETATM   10  C   UNK     0      -8.621   2.838   6.485  0.00  0.00     0.022 A 
HETATM   11  C   UNK     0      -7.316   3.315   6.560  0.00  0.00    -0.027 A 
HETATM   12  C   UNK     0      -7.128   4.118   5.465  0.00  0.00    -0.031 A 
HETATM   13  C   UNK     0      -5.850   4.852   5.128  0.00  0.00     0.051 C 
HETATM   14  C   UNK     0      -9.272   1.948   7.540  0.00  0.00     0.115 C 
HETATM   15  C   UNK     0     -10.462   2.589   8.236  0.00  0.00     0.021 A 
HETATM   16  N   UNK     0     -11.594   3.049   7.671  0.00  0.00    -0.361 N 
HETATM   17  C   UNK     0     -12.361   3.602   8.613  0.00  0.00     0.022 A 
HETATM   18  C   UNK     0     -11.702   3.488   9.853  0.00  0.00    -0.027 A 
HETATM   19  C   UNK     0     -10.515   2.850   9.603  0.00  0.00    -0.031 A 
HETATM   20  C   UNK     0      -9.506   2.493  10.680  0.00  0.00     0.051 C 
HETATM   21  C   UNK     0     -13.687   4.319   8.490  0.00  0.00     0.115 C 
HETATM   22  C   UNK     0     -13.928   5.130   7.239  0.00  0.00     0.022 A 
HETATM   23  N   UNK     0     -13.066   5.919   6.583  0.00  0.00    -0.361 N 
HETATM   24  C   UNK     0     -13.655   6.332   5.442  0.00  0.00     0.021 A 
HETATM   25  C   UNK     0     -14.930   5.805   5.368  0.00  0.00    -0.031 A 
HETATM   26  C   UNK     0     -15.987   6.014   4.303  0.00  0.00     0.051 C 
HETATM   27  C   UNK     0     -15.128   5.033   6.506  0.00  0.00    -0.027 A 
HETATM   28  C   UNK     0     -13.043   7.165   4.330  0.00  0.00     0.115 C 
HETATM   29  H   UNK     0     -10.361   6.453   5.319  0.00  0.00     0.165 HD
HETATM   30  H   UNK     0     -10.245   3.075   5.019  0.00  0.00     0.165 HD
HETATM   31  H   UNK     0     -11.880   2.939   6.592  0.00  0.00     0.165 HD
HETATM   32  H   UNK     0     -12.049   6.226   6.940  0.00  0.00     0.165 HD
ENDROOT
BRANCH   6  33
HETATM   33  C   UNK     0     -10.158   4.979   0.807  0.00  0.00     0.051 C 
BRANCH  33  34
HETATM   34  C   UNK     0      -9.443   6.019  -0.022  0.00  0.00     0.114 C 
BRANCH  34  35
HETATM   35  C   UNK     0      -8.143   5.429  -0.453  0.00  0.00     0.139 C 
HETATM   36  O   UNK     0      -7.951   4.181  -0.373  0.00  0.00    -0.650 OA
BRANCH  35  37
HETATM   37  O   UNK     0      -7.101   6.199  -0.955  0.00  0.00    -0.776 OA
HETATM   38  H   UNK     0      -7.260   7.086  -1.407  0.00  0.00     0.167 HD
ENDBRANCH  35  37
ENDBRANCH  34  35
ENDBRANCH  33  34
ENDBRANCH   6  33
BRANCH  27  39
HETATM   39  C   UNK     0     -16.418   4.359   6.815  0.00  0.00     0.051 C 
BRANCH  39  40
HETATM   40  C   UNK     0     -16.789   3.179   6.033  0.00  0.00     0.114 C 
BRANCH  40  41
HETATM   41  C   UNK     0     -17.367   2.002   6.642  0.00  0.00     0.139 C 
HETATM   42  O   UNK     0     -18.285   2.043   7.472  0.00  0.00    -0.650 OA
BRANCH  41  43
HETATM   43  O   UNK     0     -16.867   0.720   6.278  0.00  0.00    -0.776 OA
HETATM   44  H   UNK     0     -16.861   0.043   7.032  0.00  0.00     0.167 HD
ENDBRANCH  41  43
ENDBRANCH  40  41
ENDBRANCH  39  40
ENDBRANCH  27  39
BRANCH  11  45
HETATM   45  C   UNK     0      -6.271   3.037   7.608  0.00  0.00     0.051 C 
BRANCH  45  46
HETATM   46  C   UNK     0      -5.177   2.142   7.150  0.00  0.00     0.114 C 
BRANCH  46  47
HETATM   47  C   UNK     0      -3.897   2.720   7.649  0.00  0.00     0.139 C 
HETATM   48  O   UNK     0      -3.188   3.359   6.859  0.00  0.00    -0.650 OA
BRANCH  47  49
HETATM   49  O   UNK     0      -3.509   2.547   8.954  0.00  0.00    -0.776 OA
HETATM   50  H   UNK     0      -2.544   2.716   9.263  0.00  0.00     0.167 HD
ENDBRANCH  47  49
ENDBRANCH  46  47
ENDBRANCH  45  46
ENDBRANCH  11  45
BRANCH  18  51
HETATM   51  C   UNK     0     -12.187   3.943  11.205  0.00  0.00     0.051 C 
BRANCH  51  52
HETATM   52  C   UNK     0     -13.095   2.838  11.726  0.00  0.00     0.114 C 
BRANCH  52  53
HETATM   53  C   UNK     0     -14.412   3.360  12.141  0.00  0.00     0.139 C 
HETATM   54  O   UNK     0     -14.678   4.564  11.995  0.00  0.00    -0.650 OA
BRANCH  53  55
HETATM   55  O   UNK     0     -15.337   2.508  12.693  0.00  0.00    -0.776 OA
HETATM   56  H   UNK     0     -16.310   2.495  12.496  0.00  0.00     0.167 HD
ENDBRANCH  53  55
ENDBRANCH  52  53
ENDBRANCH  51  52
ENDBRANCH  18  51
TORSDOF 16
ENDMDL
MODEL 10
REMARK VINA RESULT:      -7.6     20.323     22.860
REMARK  16 active torsions:
REMARK  status: ('A' for Active; 'I' for Inactive)
REMARK    1  A    between atoms: C_6  and  C_7 
REMARK    2  A    between atoms: C_7  and  C_8 
REMARK    3  A    between atoms: C_8  and  C_9 
REMARK    4  A    between atoms: C_9  and  O_11 
REMARK    5  A    between atoms: C_16  and  C_17 
REMARK    6  A    between atoms: C_17  and  C_18 
REMARK    7  A    between atoms: C_18  and  C_19 
REMARK    8  A    between atoms: C_19  and  O_21 
REMARK    9  A    between atoms: C_28  and  C_29 
REMARK   10  A    between atoms: C_29  and  C_30 
REMARK   11  A    between atoms: C_30  and  C_31 
REMARK   12  A    between atoms: C_31  and  O_33 
REMARK   13  A    between atoms: C_42  and  C_43 
REMARK   14  A    between atoms: C_43  and  C_44 
REMARK   15  A    between atoms: C_44  and  C_45 
REMARK   16  A    between atoms: C_45  and  O_47 
ROOT
HETATM    1  C   UNK     0     -17.064   6.030   5.972  0.00  0.00     0.051 C 
HETATM    2  C   UNK     0     -15.934   6.567   5.118  0.00  0.00    -0.031 A 
HETATM    3  C   UNK     0     -14.684   7.027   5.500  0.00  0.00     0.021 A 
HETATM    4  N   UNK     0     -14.011   7.441   4.400  0.00  0.00    -0.361 N 
HETATM    5  C   UNK     0     -14.802   7.248   3.325  0.00  0.00     0.022 A 
HETATM    6  C   UNK     0     -16.014   6.704   3.738  0.00  0.00    -0.027 A 
HETATM    7  C   UNK     0     -14.501   7.451   1.873  0.00  0.00     0.115 C 
HETATM    8  C   UNK     0     -13.139   6.987   1.387  0.00  0.00     0.021 A 
HETATM    9  N   UNK     0     -12.429   5.919   1.785  0.00  0.00    -0.361 N 
HETATM   10  C   UNK     0     -11.238   5.949   1.151  0.00  0.00     0.022 A 
HETATM   11  C   UNK     0     -11.182   7.061   0.315  0.00  0.00    -0.027 A 
HETATM   12  C   UNK     0     -12.377   7.719   0.459  0.00  0.00    -0.031 A 
HETATM   13  C   UNK     0     -12.769   8.987  -0.264  0.00  0.00     0.051 C 
HETATM   14  C   UNK     0     -10.088   4.964   1.346  0.00  0.00     0.115 C 
HETATM   15  C   UNK     0      -9.543   4.928   2.765  0.00  0.00     0.021 A 
HETATM   16  N   UNK     0     -10.215   4.642   3.896  0.00  0.00    -0.361 N 
HETATM   17  C   UNK     0      -9.397   4.787   4.941  0.00  0.00     0.022 A 
HETATM   18  C   UNK     0      -8.128   5.177   4.467  0.00  0.00    -0.027 A 
HETATM   19  C   UNK     0      -8.233   5.261   3.103  0.00  0.00    -0.031 A 
HETATM   20  C   UNK     0      -7.076   5.620   2.188  0.00  0.00     0.051 C 
HETATM   21  C   UNK     0      -9.677   4.656   6.420  0.00  0.00     0.115 C 
HETATM   22  C   UNK     0     -11.044   5.073   6.911  0.00  0.00     0.022 A 
HETATM   23  N   UNK     0     -11.776   6.128   6.530  0.00  0.00    -0.361 N 
HETATM   24  C   UNK     0     -12.987   6.036   7.114  0.00  0.00     0.021 A 
HETATM   25  C   UNK     0     -13.033   4.899   7.899  0.00  0.00    -0.031 A 
HETATM   26  C   UNK     0     -14.158   4.392   8.776  0.00  0.00     0.051 C 
HETATM   27  C   UNK     0     -11.801   4.267   7.785  0.00  0.00    -0.027 A 
HETATM   28  C   UNK     0     -14.187   6.947   6.916  0.00  0.00     0.115 C 
HETATM   29  H   UNK     0     -12.997   7.905   4.396  0.00  0.00     0.165 HD
HETATM   30  H   UNK     0     -12.786   5.116   2.475  0.00  0.00     0.165 HD
HETATM   31  H   UNK     0     -11.275   4.283   3.956  0.00  0.00     0.165 HD
HETATM   32  H   UNK     0     -11.428   6.972   5.879  0.00  0.00     0.165 HD
ENDROOT
BRANCH   6  33
HETATM   33  C   UNK     0     -17.227   6.314   2.932  0.00  0.00     0.051 C 
BRANCH  33  34
HETATM   34  C   UNK     0     -17.937   7.539   2.407  0.00  0.00     0.114 C 
BRANCH  34  35
HETATM   35  C   UNK     0     -19.039   7.859   3.359  0.00  0.00     0.139 C 
HETATM   36  O   UNK     0     -19.684   6.928   3.923  0.00  0.00    -0.650 OA
BRANCH  35  37
HETATM   37  O   UNK     0     -19.402   9.163   3.673  0.00  0.00    -0.776 OA
HETATM   38  H   UNK     0     -18.737   9.919   3.670  0.00  0.00     0.167 HD
ENDBRANCH  35  37
ENDBRANCH  34  35
ENDBRANCH  33  34
ENDBRANCH   6  33
BRANCH  27  39
HETATM   39  C   UNK     0     -11.447   3.038   8.547  0.00  0.00     0.051 C 
BRANCH  39  40
HETATM   40  C   UNK     0     -11.041   1.849   7.798  0.00  0.00     0.114 C 
BRANCH  40  41
HETATM   41  C   UNK     0      -9.665   1.412   7.731  0.00  0.00     0.139 C 
HETATM   42  O   UNK     0      -8.782   1.814   8.502  0.00  0.00    -0.650 OA
BRANCH  41  43
HETATM   43  O   UNK     0      -9.286   0.471   6.733  0.00  0.00    -0.776 OA
HETATM   44  H   UNK     0      -8.876   0.882   5.903  0.00  0.00     0.167 HD
ENDBRANCH  41  43
ENDBRANCH  40  41
ENDBRANCH  39  40
ENDBRANCH  27  39
BRANCH  11  45
HETATM   45  C   UNK     0     -10.065   7.503  -0.591  0.00  0.00     0.051 C 
BRANCH  45  46
HETATM   46  C   UNK     0      -8.850   7.966   0.127  0.00  0.00     0.114 C 
BRANCH  46  47
HETATM   47  C   UNK     0      -7.670   7.485  -0.647  0.00  0.00     0.139 C 
HETATM   48  O   UNK     0      -7.722   6.363  -1.172  0.00  0.00    -0.650 OA
BRANCH  47  49
HETATM   49  O   UNK     0      -6.548   8.265  -0.776  0.00  0.00    -0.776 OA
HETATM   50  H   UNK     0      -5.672   7.899  -1.166  0.00  0.00     0.167 HD
ENDBRANCH  47  49
ENDBRANCH  46  47
ENDBRANCH  45  46
ENDBRANCH  11  45
BRANCH  18  51
HETATM   51  C   UNK     0      -6.879   5.436   5.269  0.00  0.00     0.051 C 
BRANCH  51  52
HETATM   52  C   UNK     0      -6.056   4.158   5.199  0.00  0.00     0.114 C 
BRANCH  52  53
HETATM   53  C   UNK     0      -6.365   3.244   6.316  0.00  0.00     0.139 C 
HETATM   54  O   UNK     0      -6.086   3.570   7.481  0.00  0.00    -0.650 OA
BRANCH  53  55
HETATM   55  O   UNK     0      -6.957   2.032   6.058  0.00  0.00    -0.776 OA
HETATM   56  H   UNK     0      -6.615   1.335   5.439  0.00  0.00     0.167 HD
ENDBRANCH  53  55
ENDBRANCH  52  53
ENDBRANCH  51  52
ENDBRANCH  18  51
TORSDOF 16
ENDMDL
MODEL 11
REMARK VINA RESULT:      -7.6     18.448     21.346
REMARK  16 active torsions:
REMARK  status: ('A' for Active; 'I' for Inactive)
REMARK    1  A    between atoms: C_6  and  C_7 
REMARK    2  A    between atoms: C_7  and  C_8 
REMARK    3  A    between atoms: C_8  and  C_9 
REMARK    4  A    between atoms: C_9  and  O_11 
REMARK    5  A    between atoms: C_16  and  C_17 
REMARK    6  A    between atoms: C_17  and  C_18 
REMARK    7  A    between atoms: C_18  and  C_19 
REMARK    8  A    between atoms: C_19  and  O_21 
REMARK    9  A    between atoms: C_28  and  C_29 
REMARK   10  A    between atoms: C_29  and  C_30 
REMARK   11  A    between atoms: C_30  and  C_31 
REMARK   12  A    between atoms: C_31  and  O_33 
REMARK   13  A    between atoms: C_42  and  C_43 
REMARK   14  A    between atoms: C_43  and  C_44 
REMARK   15  A    between atoms: C_44  and  C_45 
REMARK   16  A    between atoms: C_45  and  O_47 
ROOT
HETATM    1  C   UNK     0     -19.097   5.158   7.596  0.00  0.00     0.051 C 
HETATM    2  C   UNK     0     -17.682   4.688   7.324  0.00  0.00    -0.031 A 
HETATM    3  C   UNK     0     -17.085   4.343   6.122  0.00  0.00     0.021 A 
HETATM    4  N   UNK     0     -15.811   3.951   6.358  0.00  0.00    -0.361 N 
HETATM    5  C   UNK     0     -15.579   4.048   7.684  0.00  0.00     0.022 A 
HETATM    6  C   UNK     0     -16.730   4.503   8.319  0.00  0.00    -0.027 A 
HETATM    7  C   UNK     0     -14.311   3.826   8.448  0.00  0.00     0.115 C 
HETATM    8  C   UNK     0     -13.039   4.384   7.834  0.00  0.00     0.021 A 
HETATM    9  N   UNK     0     -12.877   5.517   7.133  0.00  0.00    -0.361 N 
HETATM   10  C   UNK     0     -11.597   5.565   6.705  0.00  0.00     0.022 A 
HETATM   11  C   UNK     0     -10.915   4.437   7.151  0.00  0.00    -0.027 A 
HETATM   12  C   UNK     0     -11.817   3.689   7.863  0.00  0.00    -0.031 A 
HETATM   13  C   UNK     0     -11.518   2.372   8.543  0.00  0.00     0.051 C 
HETATM   14  C   UNK     0     -10.983   6.645   5.818  0.00  0.00     0.115 C 
HETATM   15  C   UNK     0     -11.640   6.767   4.453  0.00  0.00     0.021 A 
HETATM   16  N   UNK     0     -12.933   7.032   4.184  0.00  0.00    -0.361 N 
HETATM   17  C   UNK     0     -13.125   6.985   2.864  0.00  0.00     0.022 A 
HETATM   18  C   UNK     0     -11.896   6.684   2.242  0.00  0.00    -0.027 A 
HETATM   19  C   UNK     0     -10.975   6.552   3.248  0.00  0.00    -0.031 A 
HETATM   20  C   UNK     0      -9.504   6.261   3.012  0.00  0.00     0.051 C 
HETATM   21  C   UNK     0     -14.396   7.137   2.061  0.00  0.00     0.115 C 
HETATM   22  C   UNK     0     -15.677   6.625   2.678  0.00  0.00     0.022 A 
HETATM   23  N   UNK     0     -15.867   5.504   3.385  0.00  0.00    -0.361 N 
HETATM   24  C   UNK     0     -17.126   5.515   3.866  0.00  0.00     0.021 A 
HETATM   25  C   UNK     0     -17.766   6.667   3.451  0.00  0.00    -0.031 A 
HETATM   26  C   UNK     0     -19.193   7.108   3.701  0.00  0.00     0.051 C 
HETATM   27  C   UNK     0     -16.858   7.394   2.689  0.00  0.00    -0.027 A 
HETATM   28  C   UNK     0     -17.775   4.505   4.797  0.00  0.00     0.115 C 
HETATM   29  H   UNK     0     -15.096   3.571   5.592  0.00  0.00     0.165 HD
HETATM   30  H   UNK     0     -13.650   6.309   6.980  0.00  0.00     0.165 HD
HETATM   31  H   UNK     0     -13.716   7.305   4.938  0.00  0.00     0.165 HD
HETATM   32  H   UNK     0     -15.127   4.672   3.514  0.00  0.00     0.165 HD
ENDROOT
BRANCH   6  33
HETATM   33  C   UNK     0     -16.991   4.771   9.780  0.00  0.00     0.051 C 
BRANCH  33  34
HETATM   34  C   UNK     0     -16.868   6.245  10.084  0.00  0.00     0.114 C 
BRANCH  34  35
HETATM   35  C   UNK     0     -15.418   6.544  10.267  0.00  0.00     0.139 C 
HETATM   36  O   UNK     0     -14.820   6.177  11.320  0.00  0.00    -0.650 OA
BRANCH  35  37
HETATM   37  O   UNK     0     -14.667   7.221   9.314  0.00  0.00    -0.776 OA
HETATM   38  H   UNK     0     -13.713   7.497   9.483  0.00  0.00     0.167 HD
ENDBRANCH  35  37
ENDBRANCH  34  35
ENDBRANCH  33  34
ENDBRANCH   6  33
BRANCH  27  39
HETATM   39  C   UNK     0     -17.210   8.669   2.007  0.00  0.00     0.051 C 
BRANCH  39  40
HETATM   40  C   UNK     0     -17.678   8.609   0.622  0.00  0.00     0.114 C 
BRANCH  40  41
HETATM   41  C   UNK     0     -17.023   9.333  -0.444  0.00  0.00     0.139 C 
HETATM   42  O   UNK     0     -17.537   9.527  -1.555  0.00  0.00    -0.650 OA
BRANCH  41  43
HETATM   43  O   UNK     0     -15.718   9.859  -0.223  0.00  0.00    -0.776 OA
HETATM   44  H   UNK     0     -15.695  10.699   0.341  0.00  0.00     0.167 HD
ENDBRANCH  41  43
ENDBRANCH  40  41
ENDBRANCH  39  40
ENDBRANCH  27  39
BRANCH  11  45
HETATM   45  C   UNK     0      -9.474   4.060   6.931  0.00  0.00     0.051 C 
BRANCH  45  46
HETATM   46  C   UNK     0      -9.255   3.154   5.774  0.00  0.00     0.114 C 
BRANCH  46  47
HETATM   47  C   UNK     0      -8.461   1.992   6.268  0.00  0.00     0.139 C 
HETATM   48  O   UNK     0      -7.241   2.133   6.428  0.00  0.00    -0.650 OA
BRANCH  47  49
HETATM   49  O   UNK     0      -9.068   0.791   6.538  0.00  0.00    -0.776 OA
HETATM   50  H   UNK     0     -10.083   0.710   6.668  0.00  0.00     0.167 HD
ENDBRANCH  47  49
ENDBRANCH  46  47
ENDBRANCH  45  46
ENDBRANCH  11  45
BRANCH  18  51
HETATM   51  C   UNK     0     -11.612   6.552   0.768  0.00  0.00     0.051 C 
BRANCH  51  52
HETATM   52  C   UNK     0     -11.145   7.922   0.300  0.00  0.00     0.114 C 
BRANCH  52  53
HETATM   53  C   UNK     0     -11.980   8.441  -0.800  0.00  0.00     0.139 C 
HETATM   54  O   UNK     0     -13.087   8.947  -0.554  0.00  0.00    -0.650 OA
BRANCH  53  55
HETATM   55  O   UNK     0     -11.528   8.359  -2.095  0.00  0.00    -0.776 OA
HETATM   56  H   UNK     0     -11.122   9.097  -2.620  0.00  0.00     0.167 HD
ENDBRANCH  53  55
ENDBRANCH  52  53
ENDBRANCH  51  52
ENDBRANCH  18  51
TORSDOF 16
ENDMDL
MODEL 12
REMARK VINA RESULT:      -7.6     21.171     23.107
REMARK  16 active torsions:
REMARK  status: ('A' for Active; 'I' for Inactive)
REMARK    1  A    between atoms: C_6  and  C_7 
REMARK    2  A    between atoms: C_7  and  C_8 
REMARK    3  A    between atoms: C_8  and  C_9 
REMARK    4  A    between atoms: C_9  and  O_11 
REMARK    5  A    between atoms: C_16  and  C_17 
REMARK    6  A    between atoms: C_17  and  C_18 
REMARK    7  A    between atoms: C_18  and  C_19 
REMARK    8  A    between atoms: C_19  and  O_21 
REMARK    9  A    between atoms: C_28  and  C_29 
REMARK   10  A    between atoms: C_29  and  C_30 
REMARK   11  A    between atoms: C_30  and  C_31 
REMARK   12  A    between atoms: C_31  and  O_33 
REMARK   13  A    between atoms: C_42  and  C_43 
REMARK   14  A    between atoms: C_43  and  C_44 
REMARK   15  A    between atoms: C_44  and  C_45 
REMARK   16  A    between atoms: C_45  and  O_47 
ROOT
HETATM    1  C   UNK     0      -7.699   7.449  -1.016  0.00  0.00     0.051 C 
HETATM    2  C   UNK     0      -8.963   7.012  -0.303  0.00  0.00    -0.031 A 
HETATM    3  C   UNK     0      -9.183   5.902   0.497  0.00  0.00     0.021 A 
HETATM    4  N   UNK     0     -10.476   5.896   0.898  0.00  0.00    -0.361 N 
HETATM    5  C   UNK     0     -11.083   6.983   0.378  0.00  0.00     0.022 A 
HETATM    6  C   UNK     0     -10.166   7.701  -0.381  0.00  0.00    -0.027 A 
HETATM    7  C   UNK     0     -12.476   7.488   0.591  0.00  0.00     0.115 C 
HETATM    8  C   UNK     0     -13.007   7.444   2.013  0.00  0.00     0.021 A 
HETATM    9  N   UNK     0     -12.341   7.646   3.161  0.00  0.00    -0.361 N 
HETATM   10  C   UNK     0     -13.191   7.416   4.184  0.00  0.00     0.022 A 
HETATM   11  C   UNK     0     -14.441   7.066   3.681  0.00  0.00    -0.027 A 
HETATM   12  C   UNK     0     -14.332   7.082   2.314  0.00  0.00    -0.031 A 
HETATM   13  C   UNK     0     -15.449   6.769   1.344  0.00  0.00     0.051 C 
HETATM   14  C   UNK     0     -12.847   7.464   5.670  0.00  0.00     0.115 C 
HETATM   15  C   UNK     0     -11.779   6.466   6.087  0.00  0.00     0.021 A 
HETATM   16  N   UNK     0     -10.521   6.365   5.618  0.00  0.00    -0.361 N 
HETATM   17  C   UNK     0      -9.924   5.316   6.189  0.00  0.00     0.022 A 
HETATM   18  C   UNK     0     -10.833   4.711   7.079  0.00  0.00    -0.027 A 
HETATM   19  C   UNK     0     -11.990   5.441   7.007  0.00  0.00    -0.031 A 
HETATM   20  C   UNK     0     -13.225   5.150   7.840  0.00  0.00     0.051 C 
HETATM   21  C   UNK     0      -8.548   4.735   5.953  0.00  0.00     0.115 C 
HETATM   22  C   UNK     0      -7.989   4.812   4.552  0.00  0.00     0.022 A 
HETATM   23  N   UNK     0      -8.629   4.620   3.391  0.00  0.00    -0.361 N 
HETATM   24  C   UNK     0      -7.785   4.930   2.386  0.00  0.00     0.021 A 
HETATM   25  C   UNK     0      -6.569   5.321   2.912  0.00  0.00    -0.031 A 
HETATM   26  C   UNK     0      -5.301   5.723   2.187  0.00  0.00     0.051 C 
HETATM   27  C   UNK     0      -6.675   5.253   4.297  0.00  0.00    -0.027 A 
HETATM   28  C   UNK     0      -8.084   4.958   0.897  0.00  0.00     0.115 C 
HETATM   29  H   UNK     0     -10.961   5.103   1.513  0.00  0.00     0.165 HD
HETATM   30  H   UNK     0     -11.285   7.999   3.252  0.00  0.00     0.165 HD
HETATM   31  H   UNK     0     -10.028   7.076   4.906  0.00  0.00     0.165 HD
HETATM   32  H   UNK     0      -9.670   4.222   3.269  0.00  0.00     0.165 HD
ENDROOT
BRANCH   6  33
HETATM   33  C   UNK     0     -10.344   8.976  -1.167  0.00  0.00     0.051 C 
BRANCH  33  34
HETATM   34  C   UNK     0     -11.120   8.717  -2.437  0.00  0.00     0.114 C 
BRANCH  34  35
HETATM   35  C   UNK     0     -10.313   9.252  -3.571  0.00  0.00     0.139 C 
HETATM   36  O   UNK     0      -9.546  10.243  -3.395  0.00  0.00    -0.650 OA
BRANCH  35  37
HETATM   37  O   UNK     0     -10.357   8.704  -4.847  0.00  0.00    -0.776 OA
HETATM   38  H   UNK     0     -11.001   7.969  -5.091  0.00  0.00     0.167 HD
ENDBRANCH  35  37
ENDBRANCH  34  35
ENDBRANCH  33  34
ENDBRANCH   6  33
BRANCH  27  39
HETATM   39  C   UNK     0      -5.535   5.535   5.212  0.00  0.00     0.051 C 
BRANCH  39  40
HETATM   40  C   UNK     0      -4.806   4.402   5.781  0.00  0.00     0.114 C 
BRANCH  40  41
HETATM   41  C   UNK     0      -3.395   4.194   5.541  0.00  0.00     0.139 C 
HETATM   42  O   UNK     0      -2.923   3.927   4.428  0.00  0.00    -0.650 OA
BRANCH  41  43
HETATM   43  O   UNK     0      -2.487   4.297   6.632  0.00  0.00    -0.776 OA
HETATM   44  H   UNK     0      -1.562   4.622   6.378  0.00  0.00     0.167 HD
ENDBRANCH  41  43
ENDBRANCH  40  41
ENDBRANCH  39  40
ENDBRANCH  27  39
BRANCH  11  45
HETATM   45  C   UNK     0     -15.699   6.729   4.436  0.00  0.00     0.051 C 
BRANCH  45  46
HETATM   46  C   UNK     0     -15.703   5.369   5.032  0.00  0.00     0.114 C 
BRANCH  46  47
HETATM   47  C   UNK     0     -16.760   4.583   4.333  0.00  0.00     0.139 C 
HETATM   48  O   UNK     0     -16.852   3.371   4.572  0.00  0.00    -0.650 OA
BRANCH  47  49
HETATM   49  O   UNK     0     -17.612   5.187   3.444  0.00  0.00    -0.776 OA
HETATM   50  H   UNK     0     -18.379   4.677   2.991  0.00  0.00     0.167 HD
ENDBRANCH  47  49
ENDBRANCH  46  47
ENDBRANCH  45  46
ENDBRANCH  11  45
BRANCH  18  51
HETATM   51  C   UNK     0     -10.603   3.515   7.966  0.00  0.00     0.051 C 
BRANCH  51  52
HETATM   52  C   UNK     0     -10.591   2.301   7.049  0.00  0.00     0.114 C 
BRANCH  52  53
HETATM   53  C   UNK     0      -9.442   1.416   7.323  0.00  0.00     0.139 C 
HETATM   54  O   UNK     0      -8.686   1.657   8.278  0.00  0.00    -0.650 OA
BRANCH  53  55
HETATM   55  O   UNK     0      -9.214   0.328   6.516  0.00  0.00    -0.776 OA
HETATM   56  H   UNK     0      -8.530   0.267   5.798  0.00  0.00     0.167 HD
ENDBRANCH  53  55
ENDBRANCH  52  53
ENDBRANCH  51  52
ENDBRANCH  18  51
TORSDOF 16
ENDMDL
MODEL 13
REMARK VINA RESULT:      -7.5     19.300     21.358
REMARK  16 active torsions:
REMARK  status: ('A' for Active; 'I' for Inactive)
REMARK    1  A    between atoms: C_6  and  C_7 
REMARK    2  A    between atoms: C_7  and  C_8 
REMARK    3  A    between atoms: C_8  and  C_9 
REMARK    4  A    between atoms: C_9  and  O_11 
REMARK    5  A    between atoms: C_16  and  C_17 
REMARK    6  A    between atoms: C_17  and  C_18 
REMARK    7  A    between atoms: C_18  and  C_19 
REMARK    8  A    between atoms: C_19  and  O_21 
REMARK    9  A    between atoms: C_28  and  C_29 
REMARK   10  A    between atoms: C_29  and  C_30 
REMARK   11  A    between atoms: C_30  and  C_31 
REMARK   12  A    between atoms: C_31  and  O_33 
REMARK   13  A    between atoms: C_42  and  C_43 
REMARK   14  A    between atoms: C_43  and  C_44 
REMARK   15  A    between atoms: C_44  and  C_45 
REMARK   16  A    between atoms: C_45  and  O_47 
ROOT
HETATM    1  C   UNK     0     -12.333   8.806  -0.443  0.00  0.00     0.051 C 
HETATM    2  C   UNK     0     -13.026   7.843   0.499  0.00  0.00    -0.031 A 
HETATM    3  C   UNK     0     -12.549   6.671   1.066  0.00  0.00     0.021 A 
HETATM    4  N   UNK     0     -13.527   6.117   1.822  0.00  0.00    -0.361 N 
HETATM    5  C   UNK     0     -14.613   6.915   1.757  0.00  0.00     0.022 A 
HETATM    6  C   UNK     0     -14.335   8.003   0.935  0.00  0.00    -0.027 A 
HETATM    7  C   UNK     0     -15.919   6.806   2.479  0.00  0.00     0.115 C 
HETATM    8  C   UNK     0     -15.856   6.430   3.949  0.00  0.00     0.021 A 
HETATM    9  N   UNK     0     -14.935   6.777   4.862  0.00  0.00    -0.361 N 
HETATM   10  C   UNK     0     -15.228   6.140   6.015  0.00  0.00     0.022 A 
HETATM   11  C   UNK     0     -16.373   5.368   5.843  0.00  0.00    -0.027 A 
HETATM   12  C   UNK     0     -16.774   5.547   4.544  0.00  0.00    -0.031 A 
HETATM   13  C   UNK     0     -17.985   4.903   3.907  0.00  0.00     0.051 C 
HETATM   14  C   UNK     0     -14.413   6.190   7.305  0.00  0.00     0.115 C 
HETATM   15  C   UNK     0     -12.994   5.665   7.157  0.00  0.00     0.021 A 
HETATM   16  N   UNK     0     -12.035   6.113   6.325  0.00  0.00    -0.361 N 
HETATM   17  C   UNK     0     -10.952   5.341   6.448  0.00  0.00     0.022 A 
HETATM   18  C   UNK     0     -11.215   4.349   7.413  0.00  0.00    -0.027 A 
HETATM   19  C   UNK     0     -12.496   4.564   7.851  0.00  0.00    -0.031 A 
HETATM   20  C   UNK     0     -13.170   3.734   8.928  0.00  0.00     0.051 C 
HETATM   21  C   UNK     0      -9.643   5.377   5.693  0.00  0.00     0.115 C 
HETATM   22  C   UNK     0      -9.686   5.792   4.241  0.00  0.00     0.022 A 
HETATM   23  N   UNK     0     -10.592   5.465   3.311  0.00  0.00    -0.361 N 
HETATM   24  C   UNK     0     -10.326   6.171   2.193  0.00  0.00     0.021 A 
HETATM   25  C   UNK     0      -9.215   6.965   2.406  0.00  0.00    -0.031 A 
HETATM   26  C   UNK     0      -8.512   7.899   1.443  0.00  0.00     0.051 C 
HETATM   27  C   UNK     0      -8.787   6.739   3.710  0.00  0.00    -0.027 A 
HETATM   28  C   UNK     0     -11.129   6.210   0.905  0.00  0.00     0.115 C 
HETATM   29  H   UNK     0     -13.456   5.146   2.364  0.00  0.00     0.165 HD
HETATM   30  H   UNK     0     -14.106   7.511   4.710  0.00  0.00     0.165 HD
HETATM   31  H   UNK     0     -12.105   7.021   5.671  0.00  0.00     0.165 HD
HETATM   32  H   UNK     0     -11.403   4.699   3.420  0.00  0.00     0.165 HD
ENDROOT
BRANCH   6  33
HETATM   33  C   UNK     0     -15.208   9.166   0.536  0.00  0.00     0.051 C 
BRANCH  33  34
HETATM   34  C   UNK     0     -16.271   8.726  -0.442  0.00  0.00     0.114 C 
BRANCH  34  35
HETATM   35  C   UNK     0     -16.980   9.951  -0.912  0.00  0.00     0.139 C 
HETATM   36  O   UNK     0     -16.693  11.081  -0.420  0.00  0.00    -0.650 OA
BRANCH  35  37
HETATM   37  O   UNK     0     -17.965   9.917  -1.891  0.00  0.00    -0.776 OA
HETATM   38  H   UNK     0     -17.795   9.533  -2.807  0.00  0.00     0.167 HD
ENDBRANCH  35  37
ENDBRANCH  34  35
ENDBRANCH  33  34
ENDBRANCH   6  33
BRANCH  27  39
HETATM   39  C   UNK     0      -7.566   7.368   4.282  0.00  0.00     0.051 C 
BRANCH  39  40
HETATM   40  C   UNK     0      -6.356   6.553   4.400  0.00  0.00     0.114 C 
BRANCH  40  41
HETATM   41  C   UNK     0      -5.333   6.541   3.379  0.00  0.00     0.139 C 
HETATM   42  O   UNK     0      -5.224   7.416   2.510  0.00  0.00    -0.650 OA
BRANCH  41  43
HETATM   43  O   UNK     0      -4.392   5.473   3.357  0.00  0.00    -0.776 OA
HETATM   44  H   UNK     0      -4.569   4.773   2.647  0.00  0.00     0.167 HD
ENDBRANCH  41  43
ENDBRANCH  40  41
ENDBRANCH  39  40
ENDBRANCH  27  39
BRANCH  11  45
HETATM   45  C   UNK     0     -17.080   4.495   6.845  0.00  0.00     0.051 C 
BRANCH  45  46
HETATM   46  C   UNK     0     -16.454   3.162   7.035  0.00  0.00     0.114 C 
BRANCH  46  47
HETATM   47  C   UNK     0     -17.426   2.144   6.540  0.00  0.00     0.139 C 
HETATM   48  O   UNK     0     -17.003   1.019   6.238  0.00  0.00    -0.650 OA
BRANCH  47  49
HETATM   49  O   UNK     0     -18.759   2.445   6.421  0.00  0.00    -0.776 OA
HETATM   50  H   UNK     0     -19.274   2.300   5.544  0.00  0.00     0.167 HD
ENDBRANCH  47  49
ENDBRANCH  46  47
ENDBRANCH  45  46
ENDBRANCH  11  45
BRANCH  18  51
HETATM   51  C   UNK     0     -10.288   3.269   7.907  0.00  0.00     0.051 C 
BRANCH  51  52
HETATM   52  C   UNK     0     -10.778   1.970   7.285  0.00  0.00     0.114 C 
BRANCH  52  53
HETATM   53  C   UNK     0      -9.845   1.468   6.257  0.00  0.00     0.139 C 
HETATM   54  O   UNK     0      -9.907   1.903   5.096  0.00  0.00    -0.650 OA
BRANCH  53  55
HETATM   55  O   UNK     0      -8.914   0.516   6.591  0.00  0.00    -0.776 OA
HETATM   56  H   UNK     0      -7.952   0.528   6.346  0.00  0.00     0.167 HD
ENDBRANCH  53  55
ENDBRANCH  52  53
ENDBRANCH  51  52
ENDBRANCH  18  51
TORSDOF 16
ENDMDL
MODEL 14
REMARK VINA RESULT:      -7.5     27.707     30.054
REMARK  16 active torsions:
REMARK  status: ('A' for Active; 'I' for Inactive)
REMARK    1  A    between atoms: C_6  and  C_7 
REMARK    2  A    between atoms: C_7  and  C_8 
REMARK    3  A    between atoms: C_8  and  C_9 
REMARK    4  A    between atoms: C_9  and  O_11 
REMARK    5  A    between atoms: C_16  and  C_17 
REMARK    6  A    between atoms: C_17  and  C_18 
REMARK    7  A    between atoms: C_18  and  C_19 
REMARK    8  A    between atoms: C_19  and  O_21 
REMARK    9  A    between atoms: C_28  and  C_29 
REMARK   10  A    between atoms: C_29  and  C_30 
REMARK   11  A    between atoms: C_30  and  C_31 
REMARK   12  A    between atoms: C_31  and  O_33 
REMARK   13  A    between atoms: C_42  and  C_43 
REMARK   14  A    between atoms: C_43  and  C_44 
REMARK   15  A    between atoms: C_44  and  C_45 
REMARK   16  A    between atoms: C_45  and  O_47 
ROOT
HETATM    1  C   UNK     0       0.227   5.105   9.757  0.00  0.00     0.051 C 
HETATM    2  C   UNK     0      -1.282   4.967   9.755  0.00  0.00    -0.031 A 
HETATM    3  C   UNK     0      -2.236   5.760   9.138  0.00  0.00     0.021 A 
HETATM    4  N   UNK     0      -3.467   5.280   9.433  0.00  0.00    -0.361 N 
HETATM    5  C   UNK     0      -3.318   4.193  10.218  0.00  0.00     0.022 A 
HETATM    6  C   UNK     0      -1.963   3.970  10.441  0.00  0.00    -0.027 A 
HETATM    7  C   UNK     0      -4.353   3.246  10.741  0.00  0.00     0.115 C 
HETATM    8  C   UNK     0      -5.442   2.824   9.771  0.00  0.00     0.021 A 
HETATM    9  N   UNK     0      -5.347   2.604   8.451  0.00  0.00    -0.361 N 
HETATM   10  C   UNK     0      -6.584   2.339   7.979  0.00  0.00     0.022 A 
HETATM   11  C   UNK     0      -7.500   2.380   9.026  0.00  0.00    -0.027 A 
HETATM   12  C   UNK     0      -6.787   2.685  10.158  0.00  0.00    -0.031 A 
HETATM   13  C   UNK     0      -7.371   2.831  11.546  0.00  0.00     0.051 C 
HETATM   14  C   UNK     0      -6.958   2.089   6.521  0.00  0.00     0.115 C 
HETATM   15  C   UNK     0      -6.655   3.259   5.599  0.00  0.00     0.021 A 
HETATM   16  N   UNK     0      -5.462   3.842   5.377  0.00  0.00    -0.361 N 
HETATM   17  C   UNK     0      -5.628   4.880   4.555  0.00  0.00     0.022 A 
HETATM   18  C   UNK     0      -6.993   4.973   4.217  0.00  0.00    -0.027 A 
HETATM   19  C   UNK     0      -7.625   3.951   4.876  0.00  0.00    -0.031 A 
HETATM   20  C   UNK     0      -9.111   3.663   4.760  0.00  0.00     0.051 C 
HETATM   21  C   UNK     0      -4.624   5.896   4.057  0.00  0.00     0.115 C 
HETATM   22  C   UNK     0      -3.509   6.292   4.996  0.00  0.00     0.022 A 
HETATM   23  N   UNK     0      -3.575   6.514   6.316  0.00  0.00    -0.361 N 
HETATM   24  C   UNK     0      -2.321   6.700   6.776  0.00  0.00     0.021 A 
HETATM   25  C   UNK     0      -1.428   6.605   5.727  0.00  0.00    -0.031 A 
HETATM   26  C   UNK     0       0.077   6.778   5.737  0.00  0.00     0.051 C 
HETATM   27  C   UNK     0      -2.165   6.345   4.577  0.00  0.00    -0.027 A 
HETATM   28  C   UNK     0      -1.880   6.893   8.217  0.00  0.00     0.115 C 
HETATM   29  H   UNK     0      -4.434   5.735   9.118  0.00  0.00     0.165 HD
HETATM   30  H   UNK     0      -4.400   2.585   7.857  0.00  0.00     0.165 HD
HETATM   31  H   UNK     0      -4.475   3.485   5.770  0.00  0.00     0.165 HD
HETATM   32  H   UNK     0      -4.511   6.586   6.927  0.00  0.00     0.165 HD
ENDROOT
BRANCH   6  33
HETATM   33  C   UNK     0      -1.276   2.898  11.249  0.00  0.00     0.051 C 
BRANCH  33  34
HETATM   34  C   UNK     0      -0.799   1.778  10.355  0.00  0.00     0.114 C 
BRANCH  34  35
HETATM   35  C   UNK     0       0.628   1.512  10.696  0.00  0.00     0.139 C 
HETATM   36  O   UNK     0       1.238   0.537  10.168  0.00  0.00    -0.650 OA
BRANCH  35  37
HETATM   37  O   UNK     0       1.346   2.302  11.585  0.00  0.00    -0.776 OA
HETATM   38  H   UNK     0       2.258   2.667  11.361  0.00  0.00     0.167 HD
ENDBRANCH  35  37
ENDBRANCH  34  35
ENDBRANCH  33  34
ENDBRANCH   6  33
BRANCH  27  39
HETATM   39  C   UNK     0      -1.550   6.247   3.225  0.00  0.00     0.051 C 
BRANCH  39  40
HETATM   40  C   UNK     0      -1.347   4.917   2.650  0.00  0.00     0.114 C 
BRANCH  40  41
HETATM   41  C   UNK     0      -1.973   4.510   1.412  0.00  0.00     0.139 C 
HETATM   42  O   UNK     0      -3.196   4.364   1.280  0.00  0.00    -0.650 OA
BRANCH  41  43
HETATM   43  O   UNK     0      -1.155   4.258   0.274  0.00  0.00    -0.776 OA
HETATM   44  H   UNK     0      -1.663   4.190  -0.600  0.00  0.00     0.167 HD
ENDBRANCH  41  43
ENDBRANCH  40  41
ENDBRANCH  39  40
ENDBRANCH  27  39
BRANCH  11  45
HETATM   45  C   UNK     0      -8.985   2.143   8.988  0.00  0.00     0.051 C 
BRANCH  45  46
HETATM   46  C   UNK     0      -9.751   3.208   8.292  0.00  0.00     0.114 C 
BRANCH  46  47
HETATM   47  C   UNK     0     -10.976   2.573   7.725  0.00  0.00     0.139 C 
HETATM   48  O   UNK     0     -12.058   3.165   7.842  0.00  0.00    -0.650 OA
BRANCH  47  49
HETATM   49  O   UNK     0     -10.908   1.359   7.089  0.00  0.00    -0.776 OA
HETATM   50  H   UNK     0     -11.319   1.207   6.161  0.00  0.00     0.167 HD
ENDBRANCH  47  49
ENDBRANCH  46  47
ENDBRANCH  45  46
ENDBRANCH  11  45
BRANCH  18  51
HETATM   51  C   UNK     0      -7.655   5.967   3.299  0.00  0.00     0.051 C 
BRANCH  51  52
HETATM   52  C   UNK     0      -7.703   5.314   1.926  0.00  0.00     0.114 C 
BRANCH  52  53
HETATM   53  C   UNK     0      -6.609   5.784   1.054  0.00  0.00     0.139 C 
HETATM   54  O   UNK     0      -6.290   6.984   1.051  0.00  0.00    -0.650 OA
BRANCH  53  55
HETATM   55  O   UNK     0      -5.951   4.890   0.246  0.00  0.00    -0.776 OA
HETATM   56  H   UNK     0      -6.368   4.312  -0.446  0.00  0.00     0.167 HD
ENDBRANCH  53  55
ENDBRANCH  52  53
ENDBRANCH  51  52
ENDBRANCH  18  51
TORSDOF 16
ENDMDL
MODEL 15
REMARK VINA RESULT:      -7.4     13.391     18.594
REMARK  16 active torsions:
REMARK  status: ('A' for Active; 'I' for Inactive)
REMARK    1  A    between atoms: C_6  and  C_7 
REMARK    2  A    between atoms: C_7  and  C_8 
REMARK    3  A    between atoms: C_8  and  C_9 
REMARK    4  A    between atoms: C_9  and  O_11 
REMARK    5  A    between atoms: C_16  and  C_17 
REMARK    6  A    between atoms: C_17  and  C_18 
REMARK    7  A    between atoms: C_18  and  C_19 
REMARK    8  A    between atoms: C_19  and  O_21 
REMARK    9  A    between atoms: C_28  and  C_29 
REMARK   10  A    between atoms: C_29  and  C_30 
REMARK   11  A    between atoms: C_30  and  C_31 
REMARK   12  A    between atoms: C_31  and  O_33 
REMARK   13  A    between atoms: C_42  and  C_43 
REMARK   14  A    between atoms: C_43  and  C_44 
REMARK   15  A    between atoms: C_44  and  C_45 
REMARK   16  A    between atoms: C_45  and  O_47 
ROOT
HETATM    1  C   UNK     0     -22.359  15.229 -15.653  0.00  0.00     0.051 C 
HETATM    2  C   UNK     0     -22.054  14.326 -14.475  0.00  0.00    -0.031 A 
HETATM    3  C   UNK     0     -21.321  13.151 -14.434  0.00  0.00     0.021 A 
HETATM    4  N   UNK     0     -21.337  12.664 -13.171  0.00  0.00    -0.361 N 
HETATM    5  C   UNK     0     -22.056  13.509 -12.403  0.00  0.00     0.022 A 
HETATM    6  C   UNK     0     -22.522  14.558 -13.188  0.00  0.00    -0.027 A 
HETATM    7  C   UNK     0     -22.300  13.481 -10.927  0.00  0.00     0.115 C 
HETATM    8  C   UNK     0     -21.109  13.145 -10.046  0.00  0.00     0.021 A 
HETATM    9  N   UNK     0     -19.820  13.475 -10.220  0.00  0.00    -0.361 N 
HETATM   10  C   UNK     0     -19.100  12.885  -9.243  0.00  0.00     0.022 A 
HETATM   11  C   UNK     0     -19.950  12.163  -8.410  0.00  0.00    -0.027 A 
HETATM   12  C   UNK     0     -21.217  12.322  -8.911  0.00  0.00    -0.031 A 
HETATM   13  C   UNK     0     -22.472  11.716  -8.322  0.00  0.00     0.051 C 
HETATM   14  C   UNK     0     -17.583  12.935  -9.086  0.00  0.00     0.115 C 
HETATM   15  C   UNK     0     -16.823  12.342 -10.261  0.00  0.00     0.021 A 
HETATM   16  N   UNK     0     -16.878  12.721 -11.551  0.00  0.00    -0.361 N 
HETATM   17  C   UNK     0     -16.115  11.905 -12.281  0.00  0.00     0.022 A 
HETATM   18  C   UNK     0     -15.526  10.954 -11.424  0.00  0.00    -0.027 A 
HETATM   19  C   UNK     0     -15.976  11.239 -10.161  0.00  0.00    -0.031 A 
HETATM   20  C   UNK     0     -15.553  10.473  -8.921  0.00  0.00     0.051 C 
HETATM   21  C   UNK     0     -15.896  11.858 -13.776  0.00  0.00     0.115 C 
HETATM   22  C   UNK     0     -17.059  12.233 -14.664  0.00  0.00     0.022 A 
HETATM   23  N   UNK     0     -18.353  11.921 -14.513  0.00  0.00    -0.361 N 
HETATM   24  C   UNK     0     -19.060  12.583 -15.451  0.00  0.00     0.021 A 
HETATM   25  C   UNK     0     -18.200  13.330 -16.232  0.00  0.00    -0.031 A 
HETATM   26  C   UNK     0     -18.515  14.203 -17.430  0.00  0.00     0.051 C 
HETATM   27  C   UNK     0     -16.914  13.123 -15.748  0.00  0.00    -0.027 A 
HETATM   28  C   UNK     0     -20.569  12.620 -15.622  0.00  0.00     0.115 C 
HETATM   29  H   UNK     0     -20.873  11.707 -12.838  0.00  0.00     0.165 HD
HETATM   30  H   UNK     0     -19.422  14.166 -11.004  0.00  0.00     0.165 HD
HETATM   31  H   UNK     0     -17.430  13.612 -11.949  0.00  0.00     0.165 HD
HETATM   32  H   UNK     0     -18.775  11.197 -13.768  0.00  0.00     0.165 HD
ENDROOT
BRANCH   6  33
HETATM   33  C   UNK     0     -23.370  15.748 -12.814  0.00  0.00     0.051 C 
BRANCH  33  34
HETATM   34  C   UNK     0     -24.830  15.368 -12.758  0.00  0.00     0.114 C 
BRANCH  34  35
HETATM   35  C   UNK     0     -25.551  16.218 -13.748  0.00  0.00     0.139 C 
HETATM   36  O   UNK     0     -24.948  17.163 -14.335  0.00  0.00    -0.650 OA
BRANCH  35  37
HETATM   37  O   UNK     0     -26.888  16.022 -14.071  0.00  0.00    -0.776 OA
HETATM   38  H   UNK     0     -27.381  15.180 -13.819  0.00  0.00     0.167 HD
ENDBRANCH  35  37
ENDBRANCH  34  35
ENDBRANCH  33  34
ENDBRANCH   6  33
BRANCH  27  39
HETATM   39  C   UNK     0     -15.704  13.711 -16.384  0.00  0.00     0.051 C 
BRANCH  39  40
HETATM   40  C   UNK     0     -15.030  12.947 -17.434  0.00  0.00     0.114 C 
BRANCH  40  41
HETATM   41  C   UNK     0     -14.023  11.953 -17.138  0.00  0.00     0.139 C 
HETATM   42  O   UNK     0     -13.858  10.925 -17.810  0.00  0.00    -0.650 OA
BRANCH  41  43
HETATM   43  O   UNK     0     -13.167  12.149 -16.017  0.00  0.00    -0.776 OA
HETATM   44  H   UNK     0     -12.735  11.302 -15.666  0.00  0.00     0.167 HD
ENDBRANCH  41  43
ENDBRANCH  40  41
ENDBRANCH  39  40
ENDBRANCH  27  39
BRANCH  11  45
HETATM   45  C   UNK     0     -19.607  11.352  -7.189  0.00  0.00     0.051 C 
BRANCH  45  46
HETATM   46  C   UNK     0     -19.624  12.127  -5.923  0.00  0.00     0.114 C 
BRANCH  46  47
HETATM   47  C   UNK     0     -20.653  11.508  -5.039  0.00  0.00     0.139 C 
HETATM   48  O   UNK     0     -21.715  12.117  -4.849  0.00  0.00    -0.650 OA
BRANCH  47  49
HETATM   49  O   UNK     0     -20.430  10.290  -4.448  0.00  0.00    -0.776 OA
HETATM   50  H   UNK     0     -19.643   9.688  -4.719  0.00  0.00     0.167 HD
ENDBRANCH  47  49
ENDBRANCH  46  47
ENDBRANCH  45  46
ENDBRANCH  11  45
BRANCH  18  51
HETATM   51  C   UNK     0     -14.570   9.847 -11.786  0.00  0.00     0.051 C 
BRANCH  51  52
HETATM   52  C   UNK     0     -15.415   8.593 -11.957  0.00  0.00     0.114 C 
BRANCH  52  53
HETATM   53  C   UNK     0     -15.023   7.826 -13.155  0.00  0.00     0.139 C 
HETATM   54  O   UNK     0     -13.907   8.002 -13.668  0.00  0.00    -0.650 OA
BRANCH  53  55
HETATM   55  O   UNK     0     -15.900   6.919 -13.698  0.00  0.00    -0.776 OA
HETATM   56  H   UNK     0     -16.826   6.743 -13.386  0.00  0.00     0.167 HD
ENDBRANCH  53  55
ENDBRANCH  52  53
ENDBRANCH  51  52
ENDBRANCH  18  51
TORSDOF 16
ENDMDL
MODEL 16
REMARK VINA RESULT:      -7.4     21.544     24.229
REMARK  16 active torsions:
REMARK  status: ('A' for Active; 'I' for Inactive)
REMARK    1  A    between atoms: C_6  and  C_7 
REMARK    2  A    between atoms: C_7  and  C_8 
REMARK    3  A    between atoms: C_8  and  C_9 
REMARK    4  A    between atoms: C_9  and  O_11 
REMARK    5  A    between atoms: C_16  and  C_17 
REMARK    6  A    between atoms: C_17  and  C_18 
REMARK    7  A    between atoms: C_18  and  C_19 
REMARK    8  A    between atoms: C_19  and  O_21 
REMARK    9  A    between atoms: C_28  and  C_29 
REMARK   10  A    between atoms: C_29  and  C_30 
REMARK   11  A    between atoms: C_30  and  C_31 
REMARK   12  A    between atoms: C_31  and  O_33 
REMARK   13  A    between atoms: C_42  and  C_43 
REMARK   14  A    between atoms: C_43  and  C_44 
REMARK   15  A    between atoms: C_44  and  C_45 
REMARK   16  A    between atoms: C_45  and  O_47 
ROOT
HETATM    1  C   UNK     0     -15.059   5.504   7.007  0.00  0.00     0.051 C 
HETATM    2  C   UNK     0     -14.148   6.077   5.941  0.00  0.00    -0.031 A 
HETATM    3  C   UNK     0     -12.904   6.673   6.074  0.00  0.00     0.021 A 
HETATM    4  N   UNK     0     -12.470   7.066   4.853  0.00  0.00    -0.361 N 
HETATM    5  C   UNK     0     -13.406   6.724   3.943  0.00  0.00     0.022 A 
HETATM    6  C   UNK     0     -14.471   6.106   4.590  0.00  0.00    -0.027 A 
HETATM    7  C   UNK     0     -13.374   6.849   2.452  0.00  0.00     0.115 C 
HETATM    8  C   UNK     0     -12.073   6.474   1.764  0.00  0.00     0.021 A 
HETATM    9  N   UNK     0     -11.203   5.506   2.091  0.00  0.00    -0.361 N 
HETATM   10  C   UNK     0     -10.143   5.597   1.260  0.00  0.00     0.022 A 
HETATM   11  C   UNK     0     -10.341   6.645   0.366  0.00  0.00    -0.027 A 
HETATM   12  C   UNK     0     -11.555   7.202   0.678  0.00  0.00    -0.031 A 
HETATM   13  C   UNK     0     -12.188   8.375  -0.036  0.00  0.00     0.051 C 
HETATM   14  C   UNK     0      -8.884   4.736   1.308  0.00  0.00     0.115 C 
HETATM   15  C   UNK     0      -8.108   4.852   2.610  0.00  0.00     0.021 A 
HETATM   16  N   UNK     0      -8.549   4.589   3.855  0.00  0.00    -0.361 N 
HETATM   17  C   UNK     0      -7.586   4.882   4.732  0.00  0.00     0.022 A 
HETATM   18  C   UNK     0      -6.461   5.349   4.024  0.00  0.00    -0.027 A 
HETATM   19  C   UNK     0      -6.800   5.324   2.696  0.00  0.00    -0.031 A 
HETATM   20  C   UNK     0      -5.855   5.718   1.576  0.00  0.00     0.051 C 
HETATM   21  C   UNK     0      -7.601   4.834   6.243  0.00  0.00     0.115 C 
HETATM   22  C   UNK     0      -8.901   5.161   6.939  0.00  0.00     0.022 A 
HETATM   23  N   UNK     0      -9.789   6.116   6.632  0.00  0.00    -0.361 N 
HETATM   24  C   UNK     0     -10.870   5.959   7.422  0.00  0.00     0.021 A 
HETATM   25  C   UNK     0     -10.669   4.882   8.265  0.00  0.00    -0.031 A 
HETATM   26  C   UNK     0     -11.575   4.340   9.351  0.00  0.00     0.051 C 
HETATM   27  C   UNK     0      -9.416   4.356   7.975  0.00  0.00    -0.027 A 
HETATM   28  C   UNK     0     -12.171   6.741   7.384  0.00  0.00     0.115 C 
HETATM   29  H   UNK     0     -11.523   7.616   4.647  0.00  0.00     0.165 HD
HETATM   30  H   UNK     0     -11.356   4.726   2.877  0.00  0.00     0.165 HD
HETATM   31  H   UNK     0      -9.543   4.142   4.118  0.00  0.00     0.165 HD
HETATM   32  H   UNK     0      -9.642   6.938   5.884  0.00  0.00     0.165 HD
ENDROOT
BRANCH   6  33
HETATM   33  C   UNK     0     -15.756   5.551   4.030  0.00  0.00     0.051 C 
BRANCH  33  34
HETATM   34  C   UNK     0     -16.843   6.599   4.046  0.00  0.00     0.114 C 
BRANCH  34  35
HETATM   35  C   UNK     0     -17.496   6.584   2.705  0.00  0.00     0.139 C 
HETATM   36  O   UNK     0     -18.758   6.553   2.612  0.00  0.00    -0.650 OA
BRANCH  35  37
HETATM   37  O   UNK     0     -16.773   6.607   1.519  0.00  0.00    -0.776 OA
HETATM   38  H   UNK     0     -17.090   7.116   0.709  0.00  0.00     0.167 HD
ENDBRANCH  35  37
ENDBRANCH  34  35
ENDBRANCH  33  34
ENDBRANCH   6  33
BRANCH  27  39
HETATM   39  C   UNK     0      -8.817   3.223   8.731  0.00  0.00     0.051 C 
BRANCH  39  40
HETATM   40  C   UNK     0      -8.876   1.886   8.141  0.00  0.00     0.114 C 
BRANCH  40  41
HETATM   41  C   UNK     0      -9.771   1.562   7.053  0.00  0.00     0.139 C 
HETATM   42  O   UNK     0      -9.427   1.557   5.863  0.00  0.00    -0.650 OA
BRANCH  41  43
HETATM   43  O   UNK     0     -11.124   1.229   7.347  0.00  0.00    -0.776 OA
HETATM   44  H   UNK     0     -11.808   1.722   6.786  0.00  0.00     0.167 HD
ENDBRANCH  41  43
ENDBRANCH  40  41
ENDBRANCH  39  40
ENDBRANCH  27  39
BRANCH  11  45
HETATM   45  C   UNK     0      -9.441   7.119  -0.743  0.00  0.00     0.051 C 
BRANCH  45  46
HETATM   46  C   UNK     0      -8.473   8.168  -0.333  0.00  0.00     0.114 C 
BRANCH  46  47
HETATM   47  C   UNK     0      -7.926   8.777  -1.579  0.00  0.00     0.139 C 
HETATM   48  O   UNK     0      -7.483   9.933  -1.529  0.00  0.00    -0.650 OA
BRANCH  47  49
HETATM   49  O   UNK     0      -7.914   8.074  -2.757  0.00  0.00    -0.776 OA
HETATM   50  H   UNK     0      -7.040   7.841  -3.244  0.00  0.00     0.167 HD
ENDBRANCH  47  49
ENDBRANCH  46  47
ENDBRANCH  45  46
ENDBRANCH  11  45
BRANCH  18  51
HETATM   51  C   UNK     0      -5.128   5.776   4.582  0.00  0.00     0.051 C 
BRANCH  51  52
HETATM   52  C   UNK     0      -4.346   4.498   4.843  0.00  0.00     0.114 C 
BRANCH  52  53
HETATM   53  C   UNK     0      -3.034   4.507   4.168  0.00  0.00     0.139 C 
HETATM   54  O   UNK     0      -2.011   4.813   4.801  0.00  0.00    -0.650 OA
BRANCH  53  55
HETATM   55  O   UNK     0      -2.953   4.180   2.836  0.00  0.00    -0.776 OA
HETATM   56  H   UNK     0      -2.119   4.006   2.327  0.00  0.00     0.167 HD
ENDBRANCH  53  55
ENDBRANCH  52  53
ENDBRANCH  51  52
ENDBRANCH  18  51
TORSDOF 16
ENDMDL
MODEL 17
REMARK VINA RESULT:      -7.4     19.140     21.149
REMARK  16 active torsions:
REMARK  status: ('A' for Active; 'I' for Inactive)
REMARK    1  A    between atoms: C_6  and  C_7 
REMARK    2  A    between atoms: C_7  and  C_8 
REMARK    3  A    between atoms: C_8  and  C_9 
REMARK    4  A    between atoms: C_9  and  O_11 
REMARK    5  A    between atoms: C_16  and  C_17 
REMARK    6  A    between atoms: C_17  and  C_18 
REMARK    7  A    between atoms: C_18  and  C_19 
REMARK    8  A    between atoms: C_19  and  O_21 
REMARK    9  A    between atoms: C_28  and  C_29 
REMARK   10  A    between atoms: C_29  and  C_30 
REMARK   11  A    between atoms: C_30  and  C_31 
REMARK   12  A    between atoms: C_31  and  O_33 
REMARK   13  A    between atoms: C_42  and  C_43 
REMARK   14  A    between atoms: C_43  and  C_44 
REMARK   15  A    between atoms: C_44  and  C_45 
REMARK   16  A    between atoms: C_45  and  O_47 
ROOT
HETATM    1  C   UNK     0     -15.343   9.644   0.294  0.00  0.00     0.051 C 
HETATM    2  C   UNK     0     -15.383   8.586   1.378  0.00  0.00    -0.031 A 
HETATM    3  C   UNK     0     -14.819   7.320   1.393  0.00  0.00     0.021 A 
HETATM    4  N   UNK     0     -15.138   6.709   2.558  0.00  0.00    -0.361 N 
HETATM    5  C   UNK     0     -15.886   7.560   3.290  0.00  0.00     0.022 A 
HETATM    6  C   UNK     0     -16.061   8.743   2.580  0.00  0.00    -0.027 A 
HETATM    7  C   UNK     0     -16.412   7.409   4.683  0.00  0.00     0.115 C 
HETATM    8  C   UNK     0     -15.464   6.814   5.709  0.00  0.00     0.021 A 
HETATM    9  N   UNK     0     -14.136   6.974   5.812  0.00  0.00    -0.361 N 
HETATM   10  C   UNK     0     -13.695   6.186   6.816  0.00  0.00     0.022 A 
HETATM   11  C   UNK     0     -14.771   5.507   7.381  0.00  0.00    -0.027 A 
HETATM   12  C   UNK     0     -15.889   5.898   6.689  0.00  0.00    -0.031 A 
HETATM   13  C   UNK     0     -17.297   5.419   6.960  0.00  0.00     0.051 C 
HETATM   14  C   UNK     0     -12.243   6.001   7.245  0.00  0.00     0.115 C 
HETATM   15  C   UNK     0     -11.346   5.435   6.157  0.00  0.00     0.021 A 
HETATM   16  N   UNK     0     -11.104   5.954   4.938  0.00  0.00    -0.361 N 
HETATM   17  C   UNK     0     -10.318   5.120   4.254  0.00  0.00     0.022 A 
HETATM   18  C   UNK     0     -10.025   4.008   5.069  0.00  0.00    -0.027 A 
HETATM   19  C   UNK     0     -10.674   4.218   6.259  0.00  0.00    -0.031 A 
HETATM   20  C   UNK     0     -10.595   3.271   7.442  0.00  0.00     0.051 C 
HETATM   21  C   UNK     0      -9.820   5.203   2.829  0.00  0.00     0.115 C 
HETATM   22  C   UNK     0     -10.736   5.833   1.806  0.00  0.00     0.022 A 
HETATM   23  N   UNK     0     -12.062   5.695   1.682  0.00  0.00    -0.361 N 
HETATM   24  C   UNK     0     -12.489   6.547   0.729  0.00  0.00     0.021 A 
HETATM   25  C   UNK     0     -11.411   7.243   0.219  0.00  0.00    -0.031 A 
HETATM   26  C   UNK     0     -11.380   8.275  -0.890  0.00  0.00     0.051 C 
HETATM   27  C   UNK     0     -10.277   6.803   0.892  0.00  0.00    -0.027 A 
HETATM   28  C   UNK     0     -13.921   6.818   0.298  0.00  0.00     0.115 C 
HETATM   29  H   UNK     0     -14.866   5.665   2.839  0.00  0.00     0.165 HD
HETATM   30  H   UNK     0     -13.513   7.680   5.210  0.00  0.00     0.165 HD
HETATM   31  H   UNK     0     -11.457   6.952   4.570  0.00  0.00     0.165 HD
HETATM   32  H   UNK     0     -12.704   4.962   2.238  0.00  0.00     0.165 HD
ENDROOT
BRANCH   6  33
HETATM   33  C   UNK     0     -16.815   9.995   2.951  0.00  0.00     0.051 C 
BRANCH  33  34
HETATM   34  C   UNK     0     -18.075  10.125   2.128  0.00  0.00     0.114 C 
BRANCH  34  35
HETATM   35  C   UNK     0     -18.994   9.026   2.543  0.00  0.00     0.139 C 
HETATM   36  O   UNK     0     -19.486   9.014   3.709  0.00  0.00    -0.650 OA
BRANCH  35  37
HETATM   37  O   UNK     0     -19.352   7.987   1.692  0.00  0.00    -0.776 OA
HETATM   38  H   UNK     0     -18.665   7.439   1.200  0.00  0.00     0.167 HD
ENDBRANCH  35  37
ENDBRANCH  34  35
ENDBRANCH  33  34
ENDBRANCH   6  33
BRANCH  27  39
HETATM   39  C   UNK     0      -8.905   7.277   0.565  0.00  0.00     0.051 C 
BRANCH  39  40
HETATM   40  C   UNK     0      -8.173   6.600  -0.506  0.00  0.00     0.114 C 
BRANCH  40  41
HETATM   41  C   UNK     0      -7.653   5.259  -0.355  0.00  0.00     0.139 C 
HETATM   42  O   UNK     0      -8.354   4.241  -0.433  0.00  0.00    -0.650 OA
BRANCH  41  43
HETATM   43  O   UNK     0      -6.263   5.082  -0.103  0.00  0.00    -0.776 OA
HETATM   44  H   UNK     0      -5.895   4.184  -0.393  0.00  0.00     0.167 HD
ENDBRANCH  41  43
ENDBRANCH  40  41
ENDBRANCH  39  40
ENDBRANCH  27  39
BRANCH  11  45
HETATM   45  C   UNK     0     -14.771   4.530   8.526  0.00  0.00     0.051 C 
BRANCH  45  46
HETATM   46  C   UNK     0     -14.616   5.161   9.861  0.00  0.00     0.114 C 
BRANCH  46  47
HETATM   47  C   UNK     0     -15.976   5.569  10.317  0.00  0.00     0.139 C 
HETATM   48  O   UNK     0     -16.755   4.692  10.717  0.00  0.00    -0.650 OA
BRANCH  47  49
HETATM   49  O   UNK     0     -16.359   6.886  10.293  0.00  0.00    -0.776 OA
HETATM   50  H   UNK     0     -15.699   7.649  10.487  0.00  0.00     0.167 HD
ENDBRANCH  47  49
ENDBRANCH  46  47
ENDBRANCH  45  46
ENDBRANCH  11  45
BRANCH  18  51
HETATM   51  C   UNK     0      -9.157   2.821   4.740  0.00  0.00     0.051 C 
BRANCH  51  52
HETATM   52  C   UNK     0      -7.750   3.185   5.190  0.00  0.00     0.114 C 
BRANCH  52  53
HETATM   53  C   UNK     0      -7.231   2.234   6.192  0.00  0.00     0.139 C 
HETATM   54  O   UNK     0      -6.078   2.363   6.633  0.00  0.00    -0.650 OA
BRANCH  53  55
HETATM   55  O   UNK     0      -8.028   1.204   6.629  0.00  0.00    -0.776 OA
HETATM   56  H   UNK     0      -8.771   1.278   7.285  0.00  0.00     0.167 HD
ENDBRANCH  53  55
ENDBRANCH  52  53
ENDBRANCH  51  52
ENDBRANCH  18  51
TORSDOF 16
ENDMDL
MODEL 18
REMARK VINA RESULT:      -7.4     20.095     22.764
REMARK  16 active torsions:
REMARK  status: ('A' for Active; 'I' for Inactive)
REMARK    1  A    between atoms: C_6  and  C_7 
REMARK    2  A    between atoms: C_7  and  C_8 
REMARK    3  A    between atoms: C_8  and  C_9 
REMARK    4  A    between atoms: C_9  and  O_11 
REMARK    5  A    between atoms: C_16  and  C_17 
REMARK    6  A    between atoms: C_17  and  C_18 
REMARK    7  A    between atoms: C_18  and  C_19 
REMARK    8  A    between atoms: C_19  and  O_21 
REMARK    9  A    between atoms: C_28  and  C_29 
REMARK   10  A    between atoms: C_29  and  C_30 
REMARK   11  A    between atoms: C_30  and  C_31 
REMARK   12  A    between atoms: C_31  and  O_33 
REMARK   13  A    between atoms: C_42  and  C_43 
REMARK   14  A    between atoms: C_43  and  C_44 
REMARK   15  A    between atoms: C_44  and  C_45 
REMARK   16  A    between atoms: C_45  and  O_47 
ROOT
HETATM    1  C   UNK     0     -16.368   4.195   7.226  0.00  0.00     0.051 C 
HETATM    2  C   UNK     0     -15.659   5.179   6.317  0.00  0.00    -0.031 A 
HETATM    3  C   UNK     0     -14.503   5.909   6.543  0.00  0.00     0.021 A 
HETATM    4  N   UNK     0     -14.254   6.687   5.463  0.00  0.00    -0.361 N 
HETATM    5  C   UNK     0     -15.222   6.462   4.550  0.00  0.00     0.022 A 
HETATM    6  C   UNK     0     -16.119   5.526   5.053  0.00  0.00    -0.027 A 
HETATM    7  C   UNK     0     -15.360   6.994   3.158  0.00  0.00     0.115 C 
HETATM    8  C   UNK     0     -14.096   7.039   2.317  0.00  0.00     0.021 A 
HETATM    9  N   UNK     0     -13.071   6.173   2.301  0.00  0.00    -0.361 N 
HETATM   10  C   UNK     0     -12.125   6.658   1.470  0.00  0.00     0.022 A 
HETATM   11  C   UNK     0     -12.556   7.866   0.928  0.00  0.00    -0.027 A 
HETATM   12  C   UNK     0     -13.797   8.111   1.457  0.00  0.00    -0.031 A 
HETATM   13  C   UNK     0     -14.657   9.316   1.148  0.00  0.00     0.051 C 
HETATM   14  C   UNK     0     -10.760   6.033   1.195  0.00  0.00     0.115 C 
HETATM   15  C   UNK     0      -9.879   5.911   2.428  0.00  0.00     0.021 A 
HETATM   16  N   UNK     0     -10.150   5.249   3.568  0.00  0.00    -0.361 N 
HETATM   17  C   UNK     0      -9.153   5.441   4.434  0.00  0.00     0.022 A 
HETATM   18  C   UNK     0      -8.181   6.261   3.826  0.00  0.00    -0.027 A 
HETATM   19  C   UNK     0      -8.648   6.547   2.569  0.00  0.00    -0.031 A 
HETATM   20  C   UNK     0      -7.885   7.381   1.556  0.00  0.00     0.051 C 
HETATM   21  C   UNK     0      -9.006   4.979   5.866  0.00  0.00     0.115 C 
HETATM   22  C   UNK     0     -10.262   4.887   6.702  0.00  0.00     0.022 A 
HETATM   23  N   UNK     0     -11.300   5.733   6.735  0.00  0.00    -0.361 N 
HETATM   24  C   UNK     0     -12.263   5.191   7.508  0.00  0.00     0.021 A 
HETATM   25  C   UNK     0     -11.829   3.972   7.993  0.00  0.00    -0.031 A 
HETATM   26  C   UNK     0     -12.535   3.013   8.929  0.00  0.00     0.051 C 
HETATM   27  C   UNK     0     -10.551   3.756   7.491  0.00  0.00    -0.027 A 
HETATM   28  C   UNK     0     -13.657   5.732   7.772  0.00  0.00     0.115 C 
HETATM   29  H   UNK     0     -13.419   7.419   5.369  0.00  0.00     0.165 HD
HETATM   30  H   UNK     0     -13.034   5.193   2.837  0.00  0.00     0.165 HD
HETATM   31  H   UNK     0     -11.040   4.592   3.749  0.00  0.00     0.165 HD
HETATM   32  H   UNK     0     -11.346   6.741   6.247  0.00  0.00     0.165 HD
ENDROOT
BRANCH   6  33
HETATM   33  C   UNK     0     -17.365   4.945   4.434  0.00  0.00     0.051 C 
BRANCH  33  34
HETATM   34  C   UNK     0     -18.577   5.769   4.797  0.00  0.00     0.114 C 
BRANCH  34  35
HETATM   35  C   UNK     0     -18.890   6.642   3.629  0.00  0.00     0.139 C 
HETATM   36  O   UNK     0     -18.695   6.223   2.451  0.00  0.00    -0.650 OA
BRANCH  35  37
HETATM   37  O   UNK     0     -19.403   7.925   3.769  0.00  0.00    -0.776 OA
HETATM   38  H   UNK     0     -19.971   8.355   3.057  0.00  0.00     0.167 HD
ENDBRANCH  35  37
ENDBRANCH  34  35
ENDBRANCH  33  34
ENDBRANCH   6  33
BRANCH  27  39
HETATM   39  C   UNK     0      -9.727   2.571   7.854  0.00  0.00     0.051 C 
BRANCH  39  40
HETATM   40  C   UNK     0      -9.784   1.394   6.987  0.00  0.00     0.114 C 
BRANCH  40  41
HETATM   41  C   UNK     0      -9.423   1.449   5.589  0.00  0.00     0.139 C 
HETATM   42  O   UNK     0     -10.222   1.236   4.667  0.00  0.00    -0.650 OA
BRANCH  41  43
HETATM   43  O   UNK     0      -8.080   1.763   5.234  0.00  0.00    -0.776 OA
HETATM   44  H   UNK     0      -7.886   1.711   4.241  0.00  0.00     0.167 HD
ENDBRANCH  41  43
ENDBRANCH  40  41
ENDBRANCH  39  40
ENDBRANCH  27  39
BRANCH  11  45
HETATM   45  C   UNK     0     -11.849   8.765  -0.050  0.00  0.00     0.051 C 
BRANCH  45  46
HETATM   46  C   UNK     0     -12.185   8.498  -1.472  0.00  0.00     0.114 C 
BRANCH  46  47
HETATM   47  C   UNK     0     -10.927   8.650  -2.258  0.00  0.00     0.139 C 
HETATM   48  O   UNK     0     -10.979   9.229  -3.352  0.00  0.00    -0.650 OA
BRANCH  47  49
HETATM   49  O   UNK     0      -9.738   8.158  -1.784  0.00  0.00    -0.776 OA
HETATM   50  H   UNK     0      -9.667   7.234  -1.342  0.00  0.00     0.167 HD
ENDBRANCH  47  49
ENDBRANCH  46  47
ENDBRANCH  45  46
ENDBRANCH  11  45
BRANCH  18  51
HETATM   51  C   UNK     0      -6.871   6.729   4.404  0.00  0.00     0.051 C 
BRANCH  51  52
HETATM   52  C   UNK     0      -5.846   5.659   4.056  0.00  0.00     0.114 C 
BRANCH  52  53
HETATM   53  C   UNK     0      -4.565   6.246   3.618  0.00  0.00     0.139 C 
HETATM   54  O   UNK     0      -3.495   5.808   4.067  0.00  0.00    -0.650 OA
BRANCH  53  55
HETATM   55  O   UNK     0      -4.566   7.281   2.714  0.00  0.00    -0.776 OA
HETATM   56  H   UNK     0      -5.238   8.009   2.661  0.00  0.00     0.167 HD
ENDBRANCH  53  55
ENDBRANCH  52  53
ENDBRANCH  51  52
ENDBRANCH  18  51
TORSDOF 16
ENDMDL
MODEL 19
REMARK VINA RESULT:      -7.3     18.241     24.667
REMARK  16 active torsions:
REMARK  status: ('A' for Active; 'I' for Inactive)
REMARK    1  A    between atoms: C_6  and  C_7 
REMARK    2  A    between atoms: C_7  and  C_8 
REMARK    3  A    between atoms: C_8  and  C_9 
REMARK    4  A    between atoms: C_9  and  O_11 
REMARK    5  A    between atoms: C_16  and  C_17 
REMARK    6  A    between atoms: C_17  and  C_18 
REMARK    7  A    between atoms: C_18  and  C_19 
REMARK    8  A    between atoms: C_19  and  O_21 
REMARK    9  A    between atoms: C_28  and  C_29 
REMARK   10  A    between atoms: C_29  and  C_30 
REMARK   11  A    between atoms: C_30  and  C_31 
REMARK   12  A    between atoms: C_31  and  O_33 
REMARK   13  A    between atoms: C_42  and  C_43 
REMARK   14  A    between atoms: C_43  and  C_44 
REMARK   15  A    between atoms: C_44  and  C_45 
REMARK   16  A    between atoms: C_45  and  O_47 
ROOT
HETATM    1  C   UNK     0     -38.065 -13.766   6.632  0.00  0.00     0.051 C 
HETATM    2  C   UNK     0     -37.468 -13.864   5.243  0.00  0.00    -0.031 A 
HETATM    3  C   UNK     0     -37.238 -12.864   4.312  0.00  0.00     0.021 A 
HETATM    4  N   UNK     0     -36.715 -13.416   3.191  0.00  0.00    -0.361 N 
HETATM    5  C   UNK     0     -36.599 -14.745   3.392  0.00  0.00     0.022 A 
HETATM    6  C   UNK     0     -37.063 -15.060   4.664  0.00  0.00    -0.027 A 
HETATM    7  C   UNK     0     -35.996 -15.792   2.508  0.00  0.00     0.115 C 
HETATM    8  C   UNK     0     -34.693 -15.433   1.816  0.00  0.00     0.021 A 
HETATM    9  N   UNK     0     -33.679 -14.686   2.279  0.00  0.00    -0.361 N 
HETATM   10  C   UNK     0     -32.769 -14.555   1.290  0.00  0.00     0.022 A 
HETATM   11  C   UNK     0     -33.205 -15.244   0.163  0.00  0.00    -0.027 A 
HETATM   12  C   UNK     0     -34.416 -15.800   0.487  0.00  0.00    -0.031 A 
HETATM   13  C   UNK     0     -35.264 -16.648  -0.435  0.00  0.00     0.051 C 
HETATM   14  C   UNK     0     -31.484 -13.734   1.351  0.00  0.00     0.115 C 
HETATM   15  C   UNK     0     -31.712 -12.250   1.592  0.00  0.00     0.021 A 
HETATM   16  N   UNK     0     -32.338 -11.674   2.635  0.00  0.00    -0.361 N 
HETATM   17  C   UNK     0     -32.392 -10.354   2.439  0.00  0.00     0.022 A 
HETATM   18  C   UNK     0     -31.762 -10.056   1.215  0.00  0.00    -0.027 A 
HETATM   19  C   UNK     0     -31.339 -11.251   0.695  0.00  0.00    -0.031 A 
HETATM   20  C   UNK     0     -30.574 -11.381  -0.610  0.00  0.00     0.051 C 
HETATM   21  C   UNK     0     -33.047  -9.275   3.271  0.00  0.00     0.115 C 
HETATM   22  C   UNK     0     -34.320  -9.632   4.000  0.00  0.00     0.022 A 
HETATM   23  N   UNK     0     -35.345 -10.377   3.565  0.00  0.00    -0.361 N 
HETATM   24  C   UNK     0     -36.201 -10.559   4.591  0.00  0.00     0.021 A 
HETATM   25  C   UNK     0     -35.722  -9.906   5.710  0.00  0.00    -0.031 A 
HETATM   26  C   UNK     0     -36.347  -9.787   7.085  0.00  0.00     0.051 C 
HETATM   27  C   UNK     0     -34.519  -9.305   5.357  0.00  0.00    -0.027 A 
HETATM   28  C   UNK     0     -37.460 -11.408   4.610  0.00  0.00     0.115 C 
HETATM   29  H   UNK     0     -36.469 -12.869   2.252  0.00  0.00     0.165 HD
HETATM   30  H   UNK     0     -33.579 -14.290   3.319  0.00  0.00     0.165 HD
HETATM   31  H   UNK     0     -32.709 -12.203   3.551  0.00  0.00     0.165 HD
HETATM   32  H   UNK     0     -35.494 -10.746   2.517  0.00  0.00     0.165 HD
ENDROOT
BRANCH   6  33
HETATM   33  C   UNK     0     -37.153 -16.394   5.362  0.00  0.00     0.051 C 
BRANCH  33  34
HETATM   34  C   UNK     0     -35.793 -17.045   5.448  0.00  0.00     0.114 C 
BRANCH  34  35
HETATM   35  C   UNK     0     -34.966 -16.231   6.384  0.00  0.00     0.139 C 
HETATM   36  O   UNK     0     -33.863 -15.744   6.001  0.00  0.00    -0.650 OA
BRANCH  35  37
HETATM   37  O   UNK     0     -35.354 -15.970   7.693  0.00  0.00    -0.776 OA
HETATM   38  H   UNK     0     -36.243 -16.272   8.057  0.00  0.00     0.167 HD
ENDBRANCH  35  37
ENDBRANCH  34  35
ENDBRANCH  33  34
ENDBRANCH   6  33
BRANCH  27  39
HETATM   39  C   UNK     0     -33.737  -8.448   6.289  0.00  0.00     0.051 C 
BRANCH  39  40
HETATM   40  C   UNK     0     -33.545  -7.040   5.940  0.00  0.00     0.114 C 
BRANCH  40  41
HETATM   41  C   UNK     0     -34.653  -6.122   5.804  0.00  0.00     0.139 C 
HETATM   42  O   UNK     0     -35.815  -6.482   5.569  0.00  0.00    -0.650 OA
BRANCH  41  43
HETATM   43  O   UNK     0     -34.414  -4.725   5.945  0.00  0.00    -0.776 OA
HETATM   44  H   UNK     0     -35.218  -4.141   5.749  0.00  0.00     0.167 HD
ENDBRANCH  41  43
ENDBRANCH  40  41
ENDBRANCH  39  40
ENDBRANCH  27  39
BRANCH  11  45
HETATM   45  C   UNK     0     -32.526 -15.390  -1.173  0.00  0.00     0.051 C 
BRANCH  45  46
HETATM   46  C   UNK     0     -32.345 -14.110  -1.904  0.00  0.00     0.114 C 
BRANCH  46  47
HETATM   47  C   UNK     0     -33.031 -14.252  -3.220  0.00  0.00     0.139 C 
HETATM   48  O   UNK     0     -32.741 -15.219  -3.938  0.00  0.00    -0.650 OA
BRANCH  47  49
HETATM   49  O   UNK     0     -33.964 -13.332  -3.628  0.00  0.00    -0.776 OA
HETATM   50  H   UNK     0     -34.949 -13.583  -3.775  0.00  0.00     0.167 HD
ENDBRANCH  47  49
ENDBRANCH  46  47
ENDBRANCH  45  46
ENDBRANCH  11  45
BRANCH  18  51
HETATM   51  C   UNK     0     -31.555  -8.702   0.585  0.00  0.00     0.051 C 
BRANCH  51  52
HETATM   52  C   UNK     0     -30.356  -8.084   1.289  0.00  0.00     0.114 C 
BRANCH  52  53
HETATM   53  C   UNK     0     -29.248  -7.815   0.352  0.00  0.00     0.139 C 
HETATM   54  O   UNK     0     -28.481  -8.732   0.016  0.00  0.00    -0.650 OA
BRANCH  53  55
HETATM   55  O   UNK     0     -29.069  -6.546  -0.143  0.00  0.00    -0.776 OA
HETATM   56  H   UNK     0     -28.877  -5.733   0.393  0.00  0.00     0.167 HD
ENDBRANCH  53  55
ENDBRANCH  52  53
ENDBRANCH  51  52
ENDBRANCH  18  51
TORSDOF 16
ENDMDL
MODEL 20
REMARK VINA RESULT:      -7.3     17.759     20.023
REMARK  16 active torsions:
REMARK  status: ('A' for Active; 'I' for Inactive)
REMARK    1  A    between atoms: C_6  and  C_7 
REMARK    2  A    between atoms: C_7  and  C_8 
REMARK    3  A    between atoms: C_8  and  C_9 
REMARK    4  A    between atoms: C_9  and  O_11 
REMARK    5  A    between atoms: C_16  and  C_17 
REMARK    6  A    between atoms: C_17  and  C_18 
REMARK    7  A    between atoms: C_18  and  C_19 
REMARK    8  A    between atoms: C_19  and  O_21 
REMARK    9  A    between atoms: C_28  and  C_29 
REMARK   10  A    between atoms: C_29  and  C_30 
REMARK   11  A    between atoms: C_30  and  C_31 
REMARK   12  A    between atoms: C_31  and  O_33 
REMARK   13  A    between atoms: C_42  and  C_43 
REMARK   14  A    between atoms: C_43  and  C_44 
REMARK   15  A    between atoms: C_44  and  C_45 
REMARK   16  A    between atoms: C_45  and  O_47 
ROOT
HETATM    1  C   UNK     0     -16.587   9.173  -0.865  0.00  0.00     0.051 C 
HETATM    2  C   UNK     0     -16.686   8.215   0.305  0.00  0.00    -0.031 A 
HETATM    3  C   UNK     0     -15.873   7.143   0.635  0.00  0.00     0.021 A 
HETATM    4  N   UNK     0     -16.357   6.549   1.752  0.00  0.00    -0.361 N 
HETATM    5  C   UNK     0     -17.456   7.225   2.145  0.00  0.00     0.022 A 
HETATM    6  C   UNK     0     -17.692   8.273   1.261  0.00  0.00    -0.027 A 
HETATM    7  C   UNK     0     -18.304   7.037   3.365  0.00  0.00     0.115 C 
HETATM    8  C   UNK     0     -17.573   6.778   4.670  0.00  0.00     0.021 A 
HETATM    9  N   UNK     0     -16.401   7.282   5.087  0.00  0.00    -0.361 N 
HETATM   10  C   UNK     0     -16.091   6.705   6.267  0.00  0.00     0.022 A 
HETATM   11  C   UNK     0     -17.096   5.810   6.625  0.00  0.00    -0.027 A 
HETATM   12  C   UNK     0     -18.032   5.852   5.623  0.00  0.00    -0.031 A 
HETATM   13  C   UNK     0     -19.310   5.043   5.587  0.00  0.00     0.051 C 
HETATM   14  C   UNK     0     -14.817   6.932   7.074  0.00  0.00     0.115 C 
HETATM   15  C   UNK     0     -13.544   6.544   6.338  0.00  0.00     0.021 A 
HETATM   16  N   UNK     0     -13.096   7.025   5.164  0.00  0.00    -0.361 N 
HETATM   17  C   UNK     0     -11.979   6.379   4.823  0.00  0.00     0.022 A 
HETATM   18  C   UNK     0     -11.679   5.439   5.829  0.00  0.00    -0.027 A 
HETATM   19  C   UNK     0     -12.666   5.553   6.773  0.00  0.00    -0.031 A 
HETATM   20  C   UNK     0     -12.707   4.740   8.054  0.00  0.00     0.051 C 
HETATM   21  C   UNK     0     -11.133   6.492   3.575  0.00  0.00     0.115 C 
HETATM   22  C   UNK     0     -11.843   6.794   2.276  0.00  0.00     0.022 A 
HETATM   23  N   UNK     0     -13.012   6.309   1.837  0.00  0.00    -0.361 N 
HETATM   24  C   UNK     0     -13.338   6.956   0.700  0.00  0.00     0.021 A 
HETATM   25  C   UNK     0     -12.350   7.872   0.393  0.00  0.00    -0.031 A 
HETATM   26  C   UNK     0     -12.247   8.799  -0.800  0.00  0.00     0.051 C 
HETATM   27  C   UNK     0     -11.382   7.786   1.387  0.00  0.00    -0.027 A 
HETATM   28  C   UNK     0     -14.612   6.818  -0.115  0.00  0.00     0.115 C 
HETATM   29  H   UNK     0     -15.942   5.633   2.231  0.00  0.00     0.165 HD
HETATM   30  H   UNK     0     -15.814   8.084   4.574  0.00  0.00     0.165 HD
HETATM   31  H   UNK     0     -13.551   7.871   4.585  0.00  0.00     0.165 HD
HETATM   32  H   UNK     0     -13.597   5.475   2.304  0.00  0.00     0.165 HD
ENDROOT
BRANCH   6  33
HETATM   33  C   UNK     0     -18.788   9.308   1.254  0.00  0.00     0.051 C 
BRANCH  33  34
HETATM   34  C   UNK     0     -18.290  10.618   1.817  0.00  0.00     0.114 C 
BRANCH  34  35
HETATM   35  C   UNK     0     -18.312  10.502   3.304  0.00  0.00     0.139 C 
HETATM   36  O   UNK     0     -19.408  10.572   3.932  0.00  0.00    -0.650 OA
BRANCH  35  37
HETATM   37  O   UNK     0     -17.160  10.312   4.058  0.00  0.00    -0.776 OA
HETATM   38  H   UNK     0     -16.982  10.831   4.902  0.00  0.00     0.167 HD
ENDBRANCH  35  37
ENDBRANCH  34  35
ENDBRANCH  33  34
ENDBRANCH   6  33
BRANCH  27  39
HETATM   39  C   UNK     0     -10.121   8.576   1.361  0.00  0.00     0.051 C 
BRANCH  39  40
HETATM   40  C   UNK     0      -8.891   7.907   0.937  0.00  0.00     0.114 C 
BRANCH  40  41
HETATM   41  C   UNK     0      -7.732   7.808   1.795  0.00  0.00     0.139 C 
HETATM   42  O   UNK     0      -6.965   8.754   2.020  0.00  0.00    -0.650 OA
BRANCH  41  43
HETATM   43  O   UNK     0      -7.442   6.564   2.424  0.00  0.00    -0.776 OA
HETATM   44  H   UNK     0      -8.090   6.305   3.159  0.00  0.00     0.167 HD
ENDBRANCH  41  43
ENDBRANCH  40  41
ENDBRANCH  39  40
ENDBRANCH  27  39
BRANCH  11  45
HETATM   45  C   UNK     0     -17.193   4.945   7.852  0.00  0.00     0.051 C 
BRANCH  45  46
HETATM   46  C   UNK     0     -16.350   3.723   7.801  0.00  0.00     0.114 C 
BRANCH  46  47
HETATM   47  C   UNK     0     -17.141   2.671   7.101  0.00  0.00     0.139 C 
HETATM   48  O   UNK     0     -16.758   2.285   5.988  0.00  0.00    -0.650 OA
BRANCH  47  49
HETATM   49  O   UNK     0     -18.270   2.141   7.674  0.00  0.00    -0.776 OA
HETATM   50  H   UNK     0     -18.379   2.065   8.692  0.00  0.00     0.167 HD
ENDBRANCH  47  49
ENDBRANCH  46  47
ENDBRANCH  45  46
ENDBRANCH  11  45
BRANCH  18  51
HETATM   51  C   UNK     0     -10.505   4.498   5.896  0.00  0.00     0.051 C 
BRANCH  51  52
HETATM   52  C   UNK     0      -9.364   5.285   6.523  0.00  0.00     0.114 C 
BRANCH  52  53
HETATM   53  C   UNK     0      -8.159   5.281   5.670  0.00  0.00     0.139 C 
HETATM   54  O   UNK     0      -7.126   5.852   6.052  0.00  0.00    -0.650 OA
BRANCH  53  55
HETATM   55  O   UNK     0      -8.191   4.645   4.453  0.00  0.00    -0.776 OA
HETATM   56  H   UNK     0      -8.689   4.947   3.649  0.00  0.00     0.167 HD
ENDBRANCH  53  55
ENDBRANCH  52  53
ENDBRANCH  51  52
ENDBRANCH  18  51
TORSDOF 16
ENDMDL
