MODEL 1
REMARK VINA RESULT:      -9.0      0.000      0.000
REMARK  28 active torsions:
REMARK  status: ('A' for Active; 'I' for Inactive)
REMARK    1  A    between atoms: C_2  and  O_3 
REMARK    2  A    between atoms: C_2  and  C_4 
REMARK    3  A    between atoms: C_4  and  C_5 
REMARK    4  A    between atoms: C_5  and  C_6 
REMARK    5  A    between atoms: C_7  and  C_8 
REMARK    6  A    between atoms: C_8  and  C_9 
REMARK    7  A    between atoms: C_9  and  O_11 
REMARK    8  A    between atoms: C_28  and  C_29 
REMARK    9  A    between atoms: C_29  and  C_30 
REMARK   10  A    between atoms: C_30  and  O_32 
REMARK   11  A    between atoms: C_33  and  C_34 
REMARK   12  A    between atoms: C_34  and  C_35 
REMARK   13  A    between atoms: C_35  and  C_36 
REMARK   14  A    between atoms: C_36  and  O_38 
REMARK   15  A    between atoms: C_39  and  C_40 
REMARK   16  A    between atoms: C_40  and  C_41 
REMARK   17  A    between atoms: C_41  and  C_42 
REMARK   18  A    between atoms: C_42  and  O_44 
REMARK   19  A    between atoms: C_45  and  C_46 
REMARK   20  A    between atoms: C_46  and  C_47 
REMARK   21  A    between atoms: C_47  and  O_49 
REMARK   22  A    between atoms: C_50  and  C_51 
REMARK   23  A    between atoms: C_51  and  C_52 
REMARK   24  A    between atoms: C_52  and  O_54 
REMARK   25  A    between atoms: C_55  and  C_56 
REMARK   26  A    between atoms: C_56  and  C_57 
REMARK   27  A    between atoms: C_57  and  C_58 
REMARK   28  A    between atoms: C_58  and  O_60 
ROOT
ATOM      1  O   UNK d   0     -16.465  -5.649 -22.404  0.00  0.00    -0.650 OA
ATOM      2  C   UNK d   0     -16.924  -6.810 -22.328  0.00  0.00     0.139 C 
ENDROOT
BRANCH   2   3
ATOM      3  O   UNK d   0     -17.617  -7.331 -23.394  0.00  0.00    -0.776 OA
ATOM      4  H   UNK d   0     -17.587  -6.883 -24.312  0.00  0.00     0.167 HD
ENDBRANCH   2   3
BRANCH   2   5
ATOM      5  C   UNK d   0     -16.721  -7.617 -21.091  0.00  0.00     0.115 C 
BRANCH   5   6
ATOM      6  C   UNK d   0     -17.799  -7.308 -20.089  0.00  0.00     0.052 C 
BRANCH   6   7
ATOM      7  C   UNK d   0     -17.487  -7.847 -18.713  0.00  0.00    -0.020 A 
ATOM      8  C   UNK d   0     -16.649  -7.358 -17.836  0.00  0.00    -0.011 A 
ATOM      9  C   UNK d   0     -16.678  -8.219 -16.665  0.00  0.00     0.067 A 
ATOM     10  C   UNK d   0     -16.053  -8.241 -15.408  0.00  0.00     0.062 C 
ATOM     11  N   UNK d   0     -17.557  -9.211 -16.919  0.00  0.00    -0.248 NA
ATOM     12  C   UNK d   0     -16.418  -9.004 -14.294  0.00  0.00     0.041 A 
ATOM     13  N   UNK d   0     -16.801 -10.291 -14.187  0.00  0.00    -0.355 N 
ATOM     14  C   UNK d   0     -16.473  -8.383 -13.033  0.00  0.00    -0.022 A 
ATOM     15  C   UNK d   0     -17.105 -10.500 -12.892  0.00  0.00     0.042 A 
ATOM     16  H   UNK d   0     -16.837 -11.041 -15.007  0.00  0.00     0.166 HD
ATOM     17  C   UNK d   0     -17.555 -11.663 -12.236  0.00  0.00     0.062 C 
ATOM     18  C   UNK d   0     -16.912  -9.327 -12.137  0.00  0.00    -0.013 A 
ATOM     19  C   UNK d   0     -18.523 -12.553 -12.626  0.00  0.00     0.067 A 
ATOM     20  N   UNK d   0     -18.980 -12.440 -13.876  0.00  0.00    -0.248 NA
ATOM     21  C   UNK d   0     -19.246 -13.650 -12.004  0.00  0.00    -0.011 A 
ATOM     22  C   UNK d   0     -19.950 -13.383 -14.115  0.00  0.00     0.066 A 
ATOM     23  C   UNK d   0     -20.487 -13.404 -15.394  0.00  0.00     0.062 C 
ATOM     24  C   UNK d   0     -20.082 -14.128 -12.879  0.00  0.00    -0.020 A 
ATOM     25  C   UNK d   0     -20.097 -12.637 -16.503  0.00  0.00     0.041 A 
ATOM     26  N   UNK d   0     -19.731 -11.355 -16.612  0.00  0.00    -0.355 N 
ATOM     27  C   UNK d   0     -20.038 -13.262 -17.768  0.00  0.00    -0.022 A 
ATOM     28  C   UNK d   0     -19.436 -11.141 -17.904  0.00  0.00     0.042 A 
ATOM     29  H   UNK d   0     -19.705 -10.599 -15.789  0.00  0.00     0.166 HD
ATOM     30  C   UNK d   0     -18.996  -9.987 -18.572  0.00  0.00     0.062 C 
ATOM     31  C   UNK d   0     -19.620 -12.323 -18.660  0.00  0.00    -0.013 A 
ATOM     32  C   UNK d   0     -18.079  -9.045 -18.135  0.00  0.00     0.066 A 
BRANCH   8  33
ATOM     33  C   UNK d   0     -15.810  -6.155 -17.988  0.00  0.00     0.151 C 
BRANCH  33  34
ATOM     34  C   UNK d   0     -16.406  -4.962 -17.359  0.00  0.00     0.143 C 
ATOM     35  O   UNK d   0     -17.554  -4.597 -17.648  0.00  0.00    -0.650 OA
BRANCH  34  36
ATOM     36  O   UNK d   0     -15.674  -4.245 -16.441  0.00  0.00    -0.776 OA
ATOM     37  H   UNK d   0     -15.688  -4.486 -15.441  0.00  0.00     0.167 HD
ENDBRANCH  34  36
ENDBRANCH  33  34
ENDBRANCH   8  33
BRANCH  31  38
ATOM     38  C   UNK d   0     -19.395 -12.536 -20.139  0.00  0.00     0.151 C 
BRANCH  38  39
ATOM     39  C   UNK d   0     -18.052 -12.982 -20.444  0.00  0.00     0.143 C 
ATOM     40  O   UNK d   0     -17.053 -12.541 -19.849  0.00  0.00    -0.650 OA
BRANCH  39  41
ATOM     41  O   UNK d   0     -17.857 -13.940 -21.439  0.00  0.00    -0.776 OA
ATOM     42  H   UNK d   0     -18.620 -14.606 -21.594  0.00  0.00     0.167 HD
ENDBRANCH  39  41
ENDBRANCH  38  39
ENDBRANCH  31  38
BRANCH  27  43
ATOM     43  C   UNK d   0     -20.360 -14.686 -18.150  0.00  0.00     0.052 C 
BRANCH  43  44
ATOM     44  C   UNK d   0     -19.149 -15.554 -18.266  0.00  0.00     0.115 C 
BRANCH  44  45
ATOM     45  C   UNK d   0     -19.402 -16.486 -19.396  0.00  0.00     0.139 C 
ATOM     46  O   UNK d   0     -19.198 -17.711 -19.210  0.00  0.00    -0.650 OA
BRANCH  45  47
ATOM     47  O   UNK d   0     -19.853 -16.062 -20.627  0.00  0.00    -0.776 OA
ATOM     48  H   UNK d   0     -19.524 -15.191 -21.075  0.00  0.00     0.167 HD
ENDBRANCH  45  47
ENDBRANCH  44  45
ENDBRANCH  43  44
ENDBRANCH  27  43
BRANCH  24  49
ATOM     49  C   UNK d   0     -20.986 -15.274 -12.680  0.00  0.00     0.052 C 
BRANCH  49  50
ATOM     50  C   UNK d   0     -22.392 -14.794 -12.422  0.00  0.00     0.115 C 
BRANCH  50  51
ATOM     51  C   UNK d   0     -22.900 -14.925 -11.063  0.00  0.00     0.139 C 
ATOM     52  O   UNK d   0     -23.826 -14.208 -10.615  0.00  0.00    -0.650 OA
BRANCH  51  53
ATOM     53  O   UNK d   0     -22.351 -15.874 -10.214  0.00  0.00    -0.776 OA
ATOM     54  H   UNK d   0     -21.788 -16.603 -10.616  0.00  0.00     0.167 HD
ENDBRANCH  51  53
ENDBRANCH  50  51
ENDBRANCH  49  50
ENDBRANCH  24  49
BRANCH  21  55
ATOM     55  C   UNK d   0     -19.022 -14.107 -10.601  0.00  0.00     0.151 C 
BRANCH  55  56
ATOM     56  C   UNK d   0     -17.939 -15.099 -10.510  0.00  0.00     0.143 C 
ATOM     57  O   UNK d   0     -16.733 -14.781 -10.495  0.00  0.00    -0.650 OA
BRANCH  56  58
ATOM     58  O   UNK d   0     -18.295 -16.445 -10.439  0.00  0.00    -0.776 OA
ATOM     59  H   UNK d   0     -18.781 -16.722  -9.568  0.00  0.00     0.167 HD
ENDBRANCH  56  58
ENDBRANCH  55  56
ENDBRANCH  21  55
BRANCH  18  60
ATOM     60  C   UNK d   0     -17.124  -9.087 -10.663  0.00  0.00     0.151 C 
BRANCH  60  61
ATOM     61  C   UNK d   0     -15.978  -9.708  -9.983  0.00  0.00     0.143 C 
ATOM     62  O   UNK d   0     -14.785  -9.466 -10.169  0.00  0.00    -0.650 OA
BRANCH  61  63
ATOM     63  O   UNK d   0     -16.309 -10.686  -9.015  0.00  0.00    -0.776 OA
ATOM     64  H   UNK d   0     -15.661 -11.414  -8.771  0.00  0.00     0.167 HD
ENDBRANCH  61  63
ENDBRANCH  60  61
ENDBRANCH  18  60
BRANCH  14  65
ATOM     65  C   UNK d   0     -16.052  -7.009 -12.597  0.00  0.00     0.052 C 
BRANCH  65  66
ATOM     66  C   UNK d   0     -14.575  -6.851 -12.515  0.00  0.00     0.115 C 
BRANCH  66  67
ATOM     67  C   UNK d   0     -13.977  -6.362 -11.304  0.00  0.00     0.139 C 
ATOM     68  O   UNK d   0     -14.167  -5.132 -10.980  0.00  0.00    -0.650 OA
BRANCH  67  69
ATOM     69  O   UNK d   0     -13.188  -7.067 -10.397  0.00  0.00    -0.776 OA
ATOM     70  H   UNK d   0     -13.597  -7.938 -10.029  0.00  0.00     0.167 HD
ENDBRANCH  67  69
ENDBRANCH  66  67
ENDBRANCH  65  66
ENDBRANCH  14  65
ENDBRANCH   6   7
ENDBRANCH   5   6
ENDBRANCH   2   5
TORSDOF 28
ENDMDL
MODEL 2
REMARK VINA RESULT:      -8.8      2.323      3.599
REMARK  28 active torsions:
REMARK  status: ('A' for Active; 'I' for Inactive)
REMARK    1  A    between atoms: C_2  and  O_3 
REMARK    2  A    between atoms: C_2  and  C_4 
REMARK    3  A    between atoms: C_4  and  C_5 
REMARK    4  A    between atoms: C_5  and  C_6 
REMARK    5  A    between atoms: C_7  and  C_8 
REMARK    6  A    between atoms: C_8  and  C_9 
REMARK    7  A    between atoms: C_9  and  O_11 
REMARK    8  A    between atoms: C_28  and  C_29 
REMARK    9  A    between atoms: C_29  and  C_30 
REMARK   10  A    between atoms: C_30  and  O_32 
REMARK   11  A    between atoms: C_33  and  C_34 
REMARK   12  A    between atoms: C_34  and  C_35 
REMARK   13  A    between atoms: C_35  and  C_36 
REMARK   14  A    between atoms: C_36  and  O_38 
REMARK   15  A    between atoms: C_39  and  C_40 
REMARK   16  A    between atoms: C_40  and  C_41 
REMARK   17  A    between atoms: C_41  and  C_42 
REMARK   18  A    between atoms: C_42  and  O_44 
REMARK   19  A    between atoms: C_45  and  C_46 
REMARK   20  A    between atoms: C_46  and  C_47 
REMARK   21  A    between atoms: C_47  and  O_49 
REMARK   22  A    between atoms: C_50  and  C_51 
REMARK   23  A    between atoms: C_51  and  C_52 
REMARK   24  A    between atoms: C_52  and  O_54 
REMARK   25  A    between atoms: C_55  and  C_56 
REMARK   26  A    between atoms: C_56  and  C_57 
REMARK   27  A    between atoms: C_57  and  C_58 
REMARK   28  A    between atoms: C_58  and  O_60 
ROOT
ATOM      1  O   UNK d   0     -20.352  -7.802 -21.449  0.00  0.00    -0.650 OA
ATOM      2  C   UNK d   0     -20.858  -8.942 -21.352  0.00  0.00     0.139 C 
ENDROOT
BRANCH   2   3
ATOM      3  O   UNK d   0     -21.333  -9.565 -22.481  0.00  0.00    -0.776 OA
ATOM      4  H   UNK d   0     -22.309  -9.464 -22.768  0.00  0.00     0.167 HD
ENDBRANCH   2   3
BRANCH   2   5
ATOM      5  C   UNK d   0     -20.941  -9.614 -20.025  0.00  0.00     0.115 C 
BRANCH   5   6
ATOM      6  C   UNK d   0     -19.993 -10.781 -19.974  0.00  0.00     0.052 C 
BRANCH   6   7
ATOM      7  C   UNK d   0     -19.202 -10.832 -18.689  0.00  0.00    -0.020 A 
ATOM      8  C   UNK d   0     -18.147 -10.125 -18.372  0.00  0.00    -0.011 A 
ATOM      9  C   UNK d   0     -17.727 -10.525 -17.040  0.00  0.00     0.067 A 
ATOM     10  C   UNK d   0     -16.714 -10.152 -16.143  0.00  0.00     0.062 C 
ATOM     11  N   UNK d   0     -18.579 -11.485 -16.623  0.00  0.00    -0.248 NA
ATOM     12  C   UNK d   0     -16.634 -10.458 -14.780  0.00  0.00     0.041 A 
ATOM     13  N   UNK d   0     -16.880 -11.602 -14.113  0.00  0.00    -0.355 N 
ATOM     14  C   UNK d   0     -16.296  -9.438 -13.872  0.00  0.00    -0.022 A 
ATOM     15  C   UNK d   0     -16.715 -11.332 -12.804  0.00  0.00     0.042 A 
ATOM     16  H   UNK d   0     -17.146 -12.585 -14.559  0.00  0.00     0.166 HD
ATOM     17  C   UNK d   0     -16.846 -12.165 -11.676  0.00  0.00     0.062 C 
ATOM     18  C   UNK d   0     -16.349  -9.985 -12.614  0.00  0.00    -0.013 A 
ATOM     19  C   UNK d   0     -17.833 -13.071 -11.383  0.00  0.00     0.067 A 
ATOM     20  N   UNK d   0     -18.692 -13.368 -12.362  0.00  0.00    -0.248 NA
ATOM     21  C   UNK d   0     -18.235 -13.837 -10.215  0.00  0.00    -0.011 A 
ATOM     22  C   UNK d   0     -19.627 -14.271 -11.918  0.00  0.00     0.066 A 
ATOM     23  C   UNK d   0     -20.562 -14.697 -12.850  0.00  0.00     0.062 C 
ATOM     24  C   UNK d   0     -19.288 -14.534 -10.533  0.00  0.00    -0.020 A 
ATOM     25  C   UNK d   0     -20.617 -14.387 -14.217  0.00  0.00     0.041 A 
ATOM     26  N   UNK d   0     -20.387 -13.247 -14.879  0.00  0.00    -0.355 N 
ATOM     27  C   UNK d   0     -20.952 -15.413 -15.128  0.00  0.00    -0.022 A 
ATOM     28  C   UNK d   0     -20.560 -13.512 -16.184  0.00  0.00     0.042 A 
ATOM     29  H   UNK d   0     -20.131 -12.257 -14.428  0.00  0.00     0.166 HD
ATOM     30  C   UNK d   0     -20.442 -12.690 -17.316  0.00  0.00     0.062 C 
ATOM     31  C   UNK d   0     -20.917 -14.868 -16.375  0.00  0.00    -0.013 A 
ATOM     32  C   UNK d   0     -19.490 -11.715 -17.569  0.00  0.00     0.066 A 
BRANCH   8  33
ATOM     33  C   UNK d   0     -17.484  -9.104 -19.204  0.00  0.00     0.151 C 
BRANCH  33  34
ATOM     34  C   UNK d   0     -17.965  -7.739 -18.924  0.00  0.00     0.143 C 
ATOM     35  O   UNK d   0     -18.246  -7.388 -17.769  0.00  0.00    -0.650 OA
BRANCH  34  36
ATOM     36  O   UNK d   0     -18.103  -6.845 -19.961  0.00  0.00    -0.776 OA
ATOM     37  H   UNK d   0     -17.506  -6.010 -20.029  0.00  0.00     0.167 HD
ENDBRANCH  34  36
ENDBRANCH  33  34
ENDBRANCH   8  33
BRANCH  31  38
ATOM     38  C   UNK d   0     -21.193 -15.591 -17.672  0.00  0.00     0.151 C 
BRANCH  38  39
ATOM     39  C   UNK d   0     -20.011 -16.210 -18.233  0.00  0.00     0.143 C 
ATOM     40  O   UNK d   0     -19.983 -17.406 -18.571  0.00  0.00    -0.650 OA
BRANCH  39  41
ATOM     41  O   UNK d   0     -18.855 -15.449 -18.406  0.00  0.00    -0.776 OA
ATOM     42  H   UNK d   0     -18.472 -14.995 -17.571  0.00  0.00     0.167 HD
ENDBRANCH  39  41
ENDBRANCH  38  39
ENDBRANCH  31  38
BRANCH  27  43
ATOM     43  C   UNK d   0     -21.297 -16.857 -14.862  0.00  0.00     0.052 C 
BRANCH  43  44
ATOM     44  C   UNK d   0     -20.554 -17.437 -13.703  0.00  0.00     0.115 C 
BRANCH  44  45
ATOM     45  C   UNK d   0     -20.146 -18.809 -14.104  0.00  0.00     0.139 C 
ATOM     46  O   UNK d   0     -20.530 -19.237 -15.221  0.00  0.00    -0.650 OA
BRANCH  45  47
ATOM     47  O   UNK d   0     -19.364 -19.619 -13.309  0.00  0.00    -0.776 OA
ATOM     48  H   UNK d   0     -18.629 -20.236 -13.690  0.00  0.00     0.167 HD
ENDBRANCH  45  47
ENDBRANCH  44  45
ENDBRANCH  43  44
ENDBRANCH  27  43
BRANCH  24  49
ATOM     49  C   UNK d   0     -20.001 -15.480  -9.658  0.00  0.00     0.052 C 
BRANCH  49  50
ATOM     50  C   UNK d   0     -19.967 -16.867 -10.247  0.00  0.00     0.115 C 
BRANCH  50  51
ATOM     51  C   UNK d   0     -18.704 -17.589 -10.176  0.00  0.00     0.139 C 
ATOM     52  O   UNK d   0     -18.102 -18.002 -11.195  0.00  0.00    -0.650 OA
BRANCH  51  53
ATOM     53  O   UNK d   0     -18.128 -17.844  -8.941  0.00  0.00    -0.776 OA
ATOM     54  H   UNK d   0     -18.716 -18.197  -8.206  0.00  0.00     0.167 HD
ENDBRANCH  51  53
ENDBRANCH  50  51
ENDBRANCH  49  50
ENDBRANCH  24  49
BRANCH  21  55
ATOM     55  C   UNK d   0     -17.523 -13.796  -8.903  0.00  0.00     0.151 C 
BRANCH  55  56
ATOM     56  C   UNK d   0     -16.451 -14.800  -8.827  0.00  0.00     0.143 C 
ATOM     57  O   UNK d   0     -16.191 -15.583  -9.761  0.00  0.00    -0.650 OA
BRANCH  56  58
ATOM     58  O   UNK d   0     -15.704 -14.864  -7.651  0.00  0.00    -0.776 OA
ATOM     59  H   UNK d   0     -15.033 -14.087  -7.518  0.00  0.00     0.167 HD
ENDBRANCH  56  58
ENDBRANCH  55  56
ENDBRANCH  21  55
BRANCH  18  60
ATOM     60  C   UNK d   0     -16.065  -9.238 -11.334  0.00  0.00     0.151 C 
BRANCH  60  61
ATOM     61  C   UNK d   0     -17.238  -8.382 -11.097  0.00  0.00     0.143 C 
ATOM     62  O   UNK d   0     -17.238  -7.218 -10.697  0.00  0.00    -0.650 OA
BRANCH  61  63
ATOM     63  O   UNK d   0     -18.489  -8.987 -11.367  0.00  0.00    -0.776 OA
ATOM     64  H   UNK d   0     -19.129  -8.581 -12.026  0.00  0.00     0.167 HD
ENDBRANCH  61  63
ENDBRANCH  60  61
ENDBRANCH  18  60
BRANCH  14  65
ATOM     65  C   UNK d   0     -15.837  -8.028 -14.108  0.00  0.00     0.052 C 
BRANCH  65  66
ATOM     66  C   UNK d   0     -14.388  -7.935 -14.432  0.00  0.00     0.115 C 
BRANCH  66  67
ATOM     67  C   UNK d   0     -13.666  -6.732 -14.125  0.00  0.00     0.139 C 
ATOM     68  O   UNK d   0     -14.274  -5.605 -14.241  0.00  0.00    -0.650 OA
BRANCH  67  69
ATOM     69  O   UNK d   0     -12.342  -6.616 -13.703  0.00  0.00    -0.776 OA
ATOM     70  H   UNK d   0     -11.631  -6.624 -14.448  0.00  0.00     0.167 HD
ENDBRANCH  67  69
ENDBRANCH  66  67
ENDBRANCH  65  66
ENDBRANCH  14  65
ENDBRANCH   6   7
ENDBRANCH   5   6
ENDBRANCH   2   5
TORSDOF 28
ENDMDL
MODEL 3
REMARK VINA RESULT:      -8.8      3.038      8.361
REMARK  28 active torsions:
REMARK  status: ('A' for Active; 'I' for Inactive)
REMARK    1  A    between atoms: C_2  and  O_3 
REMARK    2  A    between atoms: C_2  and  C_4 
REMARK    3  A    between atoms: C_4  and  C_5 
REMARK    4  A    between atoms: C_5  and  C_6 
REMARK    5  A    between atoms: C_7  and  C_8 
REMARK    6  A    between atoms: C_8  and  C_9 
REMARK    7  A    between atoms: C_9  and  O_11 
REMARK    8  A    between atoms: C_28  and  C_29 
REMARK    9  A    between atoms: C_29  and  C_30 
REMARK   10  A    between atoms: C_30  and  O_32 
REMARK   11  A    between atoms: C_33  and  C_34 
REMARK   12  A    between atoms: C_34  and  C_35 
REMARK   13  A    between atoms: C_35  and  C_36 
REMARK   14  A    between atoms: C_36  and  O_38 
REMARK   15  A    between atoms: C_39  and  C_40 
REMARK   16  A    between atoms: C_40  and  C_41 
REMARK   17  A    between atoms: C_41  and  C_42 
REMARK   18  A    between atoms: C_42  and  O_44 
REMARK   19  A    between atoms: C_45  and  C_46 
REMARK   20  A    between atoms: C_46  and  C_47 
REMARK   21  A    between atoms: C_47  and  O_49 
REMARK   22  A    between atoms: C_50  and  C_51 
REMARK   23  A    between atoms: C_51  and  C_52 
REMARK   24  A    between atoms: C_52  and  O_54 
REMARK   25  A    between atoms: C_55  and  C_56 
REMARK   26  A    between atoms: C_56  and  C_57 
REMARK   27  A    between atoms: C_57  and  C_58 
REMARK   28  A    between atoms: C_58  and  O_60 
ROOT
ATOM      1  O   UNK d   0     -16.794  -4.812 -22.324  0.00  0.00    -0.650 OA
ATOM      2  C   UNK d   0     -17.380  -5.897 -22.531  0.00  0.00     0.139 C 
ENDROOT
BRANCH   2   3
ATOM      3  O   UNK d   0     -17.240  -6.516 -23.750  0.00  0.00    -0.776 OA
ATOM      4  H   UNK d   0     -18.057  -6.806 -24.291  0.00  0.00     0.167 HD
ENDBRANCH   2   3
BRANCH   2   5
ATOM      5  C   UNK d   0     -18.223  -6.509 -21.464  0.00  0.00     0.115 C 
BRANCH   5   6
ATOM      6  C   UNK d   0     -17.637  -7.826 -21.033  0.00  0.00     0.052 C 
BRANCH   6   7
ATOM      7  C   UNK d   0     -18.050  -8.215 -19.634  0.00  0.00    -0.020 A 
ATOM      8  C   UNK d   0     -18.952  -9.096 -19.284  0.00  0.00    -0.011 A 
ATOM      9  C   UNK d   0     -19.008  -9.122 -17.832  0.00  0.00     0.067 A 
ATOM     10  C   UNK d   0     -19.724  -9.837 -16.859  0.00  0.00     0.062 C 
ATOM     11  N   UNK d   0     -18.110  -8.222 -17.380  0.00  0.00    -0.248 NA
ATOM     12  C   UNK d   0     -19.441  -9.923 -15.492  0.00  0.00     0.041 A 
ATOM     13  N   UNK d   0     -19.064  -8.984 -14.603  0.00  0.00    -0.355 N 
ATOM     14  C   UNK d   0     -19.482 -11.182 -14.866  0.00  0.00    -0.022 A 
ATOM     15  C   UNK d   0     -18.857  -9.616 -13.433  0.00  0.00     0.042 A 
ATOM     16  H   UNK d   0     -18.965  -7.892 -14.795  0.00  0.00     0.166 HD
ATOM     17  C   UNK d   0     -18.454  -9.111 -12.181  0.00  0.00     0.062 C 
ATOM     18  C   UNK d   0     -19.108 -10.996 -13.559  0.00  0.00    -0.013 A 
ATOM     19  C   UNK d   0     -17.457  -8.213 -11.893  0.00  0.00     0.067 A 
ATOM     20  N   UNK d   0     -16.909  -7.567 -12.925  0.00  0.00    -0.248 NA
ATOM     21  C   UNK d   0     -16.780  -7.753 -10.692  0.00  0.00    -0.011 A 
ATOM     22  C   UNK d   0     -15.922  -6.719 -12.487  0.00  0.00     0.066 A 
ATOM     23  C   UNK d   0     -15.291  -5.953 -13.456  0.00  0.00     0.062 C 
ATOM     24  C   UNK d   0     -15.880  -6.882 -11.047  0.00  0.00    -0.020 A 
ATOM     25  C   UNK d   0     -15.599  -5.872 -14.823  0.00  0.00     0.041 A 
ATOM     26  N   UNK d   0     -15.959  -6.808 -15.709  0.00  0.00    -0.355 N 
ATOM     27  C   UNK d   0     -15.562  -4.607 -15.449  0.00  0.00    -0.022 A 
ATOM     28  C   UNK d   0     -16.158  -6.181 -16.880  0.00  0.00     0.042 A 
ATOM     29  H   UNK d   0     -16.048  -7.905 -15.518  0.00  0.00     0.166 HD
ATOM     30  C   UNK d   0     -16.550  -6.672 -18.135  0.00  0.00     0.062 C 
ATOM     31  C   UNK d   0     -15.915  -4.793 -16.750  0.00  0.00    -0.013 A 
ATOM     32  C   UNK d   0     -17.500  -7.642 -18.414  0.00  0.00     0.066 A 
BRANCH   8  33
ATOM     33  C   UNK d   0     -19.780  -9.920 -20.184  0.00  0.00     0.151 C 
BRANCH  33  34
ATOM     34  C   UNK d   0     -21.139  -9.380 -20.363  0.00  0.00     0.143 C 
ATOM     35  O   UNK d   0     -22.049  -9.672 -19.573  0.00  0.00    -0.650 OA
BRANCH  34  36
ATOM     36  O   UNK d   0     -21.399  -8.543 -21.422  0.00  0.00    -0.776 OA
ATOM     37  H   UNK d   0     -20.637  -8.128 -21.975  0.00  0.00     0.167 HD
ENDBRANCH  34  36
ENDBRANCH  33  34
ENDBRANCH   8  33
BRANCH  31  38
ATOM     38  C   UNK d   0     -16.029  -3.718 -17.805  0.00  0.00     0.151 C 
BRANCH  38  39
ATOM     39  C   UNK d   0     -17.351  -3.642 -18.390  0.00  0.00     0.143 C 
ATOM     40  O   UNK d   0     -18.387  -3.756 -17.710  0.00  0.00    -0.650 OA
BRANCH  39  41
ATOM     41  O   UNK d   0     -17.484  -3.434 -19.762  0.00  0.00    -0.776 OA
ATOM     42  H   UNK d   0     -17.601  -2.465 -20.073  0.00  0.00     0.167 HD
ENDBRANCH  39  41
ENDBRANCH  38  39
ENDBRANCH  31  38
BRANCH  27  43
ATOM     43  C   UNK d   0     -15.210  -3.260 -14.868  0.00  0.00     0.052 C 
BRANCH  43  44
ATOM     44  C   UNK d   0     -16.357  -2.303 -14.856  0.00  0.00     0.115 C 
BRANCH  44  45
ATOM     45  C   UNK d   0     -16.219  -1.489 -13.620  0.00  0.00     0.139 C 
ATOM     46  O   UNK d   0     -16.343  -0.243 -13.715  0.00  0.00    -0.650 OA
BRANCH  45  47
ATOM     47  O   UNK d   0     -15.966  -2.045 -12.384  0.00  0.00    -0.776 OA
ATOM     48  H   UNK d   0     -16.252  -3.005 -12.133  0.00  0.00     0.167 HD
ENDBRANCH  45  47
ENDBRANCH  44  45
ENDBRANCH  43  44
ENDBRANCH  27  43
BRANCH  24  49
ATOM     49  C   UNK d   0     -14.990  -6.135 -10.141  0.00  0.00     0.052 C 
BRANCH  49  50
ATOM     50  C   UNK d   0     -15.799  -5.308  -9.175  0.00  0.00     0.115 C 
BRANCH  50  51
ATOM     51  C   UNK d   0     -15.743  -3.861  -9.329  0.00  0.00     0.139 C 
ATOM     52  O   UNK d   0     -14.677  -3.210  -9.221  0.00  0.00    -0.650 OA
BRANCH  51  53
ATOM     53  O   UNK d   0     -16.904  -3.155  -9.605  0.00  0.00    -0.776 OA
ATOM     54  H   UNK d   0     -17.624  -3.613 -10.136  0.00  0.00     0.167 HD
ENDBRANCH  51  53
ENDBRANCH  50  51
ENDBRANCH  49  50
ENDBRANCH  24  49
BRANCH  21  55
ATOM     55  C   UNK d   0     -17.107  -8.229  -9.315  0.00  0.00     0.151 C 
BRANCH  55  56
ATOM     56  C   UNK d   0     -16.306  -9.402  -8.933  0.00  0.00     0.143 C 
ATOM     57  O   UNK d   0     -15.175  -9.307  -8.415  0.00  0.00    -0.650 OA
BRANCH  56  58
ATOM     58  O   UNK d   0     -16.851 -10.663  -9.166  0.00  0.00    -0.776 OA
ATOM     59  H   UNK d   0     -17.559 -10.967  -8.474  0.00  0.00     0.167 HD
ENDBRANCH  56  58
ENDBRANCH  55  56
ENDBRANCH  21  55
BRANCH  18  60
ATOM     60  C   UNK d   0     -19.006 -12.089 -12.524  0.00  0.00     0.151 C 
BRANCH  60  61
ATOM     61  C   UNK d   0     -17.570 -12.254 -12.251  0.00  0.00     0.143 C 
ATOM     62  O   UNK d   0     -17.051 -12.573 -11.181  0.00  0.00    -0.650 OA
BRANCH  61  63
ATOM     63  O   UNK d   0     -16.716 -12.014 -13.354  0.00  0.00    -0.776 OA
ATOM     64  H   UNK d   0     -16.394 -11.086 -13.568  0.00  0.00     0.167 HD
ENDBRANCH  61  63
ENDBRANCH  60  61
ENDBRANCH  18  60
BRANCH  14  65
ATOM     65  C   UNK d   0     -19.937 -12.519 -15.381  0.00  0.00     0.052 C 
BRANCH  65  66
ATOM     66  C   UNK d   0     -21.376 -12.785 -15.112  0.00  0.00     0.115 C 
BRANCH  66  67
ATOM     67  C   UNK d   0     -22.339 -11.735 -15.286  0.00  0.00     0.139 C 
ATOM     68  O   UNK d   0     -22.802 -11.148 -14.240  0.00  0.00    -0.650 OA
BRANCH  67  69
ATOM     69  O   UNK d   0     -22.862 -11.246 -16.482  0.00  0.00    -0.776 OA
ATOM     70  H   UNK d   0     -23.541 -11.857 -16.958  0.00  0.00     0.167 HD
ENDBRANCH  67  69
ENDBRANCH  66  67
ENDBRANCH  65  66
ENDBRANCH  14  65
ENDBRANCH   6   7
ENDBRANCH   5   6
ENDBRANCH   2   5
TORSDOF 28
ENDMDL
MODEL 4
REMARK VINA RESULT:      -8.8      1.456      1.785
REMARK  28 active torsions:
REMARK  status: ('A' for Active; 'I' for Inactive)
REMARK    1  A    between atoms: C_2  and  O_3 
REMARK    2  A    between atoms: C_2  and  C_4 
REMARK    3  A    between atoms: C_4  and  C_5 
REMARK    4  A    between atoms: C_5  and  C_6 
REMARK    5  A    between atoms: C_7  and  C_8 
REMARK    6  A    between atoms: C_8  and  C_9 
REMARK    7  A    between atoms: C_9  and  O_11 
REMARK    8  A    between atoms: C_28  and  C_29 
REMARK    9  A    between atoms: C_29  and  C_30 
REMARK   10  A    between atoms: C_30  and  O_32 
REMARK   11  A    between atoms: C_33  and  C_34 
REMARK   12  A    between atoms: C_34  and  C_35 
REMARK   13  A    between atoms: C_35  and  C_36 
REMARK   14  A    between atoms: C_36  and  O_38 
REMARK   15  A    between atoms: C_39  and  C_40 
REMARK   16  A    between atoms: C_40  and  C_41 
REMARK   17  A    between atoms: C_41  and  C_42 
REMARK   18  A    between atoms: C_42  and  O_44 
REMARK   19  A    between atoms: C_45  and  C_46 
REMARK   20  A    between atoms: C_46  and  C_47 
REMARK   21  A    between atoms: C_47  and  O_49 
REMARK   22  A    between atoms: C_50  and  C_51 
REMARK   23  A    between atoms: C_51  and  C_52 
REMARK   24  A    between atoms: C_52  and  O_54 
REMARK   25  A    between atoms: C_55  and  C_56 
REMARK   26  A    between atoms: C_56  and  C_57 
REMARK   27  A    between atoms: C_57  and  C_58 
REMARK   28  A    between atoms: C_58  and  O_60 
ROOT
ATOM      1  O   UNK d   0     -18.223  -8.125 -20.592  0.00  0.00    -0.650 OA
ATOM      2  C   UNK d   0     -17.021  -8.104 -20.247  0.00  0.00     0.139 C 
ENDROOT
BRANCH   2   3
ATOM      3  O   UNK d   0     -16.235  -9.207 -20.476  0.00  0.00    -0.776 OA
ATOM      4  H   UNK d   0     -15.298  -9.114 -20.874  0.00  0.00     0.167 HD
ENDBRANCH   2   3
BRANCH   2   5
ATOM      5  C   UNK d   0     -16.452  -6.892 -19.592  0.00  0.00     0.115 C 
BRANCH   5   6
ATOM      6  C   UNK d   0     -17.283  -6.509 -18.398  0.00  0.00     0.052 C 
BRANCH   6   7
ATOM      7  C   UNK d   0     -16.928  -7.303 -17.164  0.00  0.00    -0.020 A 
ATOM      8  C   UNK d   0     -15.986  -7.046 -16.293  0.00  0.00    -0.011 A 
ATOM      9  C   UNK d   0     -16.016  -8.091 -15.284  0.00  0.00     0.067 A 
ATOM     10  C   UNK d   0     -15.309  -8.382 -14.107  0.00  0.00     0.062 C 
ATOM     11  N   UNK d   0     -17.003  -8.946 -15.622  0.00  0.00    -0.248 NA
ATOM     12  C   UNK d   0     -15.667  -9.293 -13.107  0.00  0.00     0.041 A 
ATOM     13  N   UNK d   0     -16.165 -10.542 -13.183  0.00  0.00    -0.355 N 
ATOM     14  C   UNK d   0     -15.571  -8.898 -11.760  0.00  0.00    -0.022 A 
ATOM     15  C   UNK d   0     -16.395 -10.946 -11.919  0.00  0.00     0.042 A 
ATOM     16  H   UNK d   0     -16.332 -11.133 -14.110  0.00  0.00     0.166 HD
ATOM     17  C   UNK d   0     -16.909 -12.163 -11.429  0.00  0.00     0.062 C 
ATOM     18  C   UNK d   0     -16.036  -9.942 -11.000  0.00  0.00    -0.013 A 
ATOM     19  C   UNK d   0     -17.985 -12.888 -11.876  0.00  0.00     0.067 A 
ATOM     20  N   UNK d   0     -18.516 -12.522 -13.046  0.00  0.00    -0.248 NA
ATOM     21  C   UNK d   0     -18.765 -14.011 -11.384  0.00  0.00    -0.011 A 
ATOM     22  C   UNK d   0     -19.587 -13.324 -13.353  0.00  0.00     0.066 A 
ATOM     23  C   UNK d   0     -20.213 -13.078 -14.567  0.00  0.00     0.062 C 
ATOM     24  C   UNK d   0     -19.704 -14.259 -12.251  0.00  0.00    -0.020 A 
ATOM     25  C   UNK d   0     -19.830 -12.166 -15.563  0.00  0.00     0.041 A 
ATOM     26  N   UNK d   0     -19.349 -10.920 -15.488  0.00  0.00    -0.355 N 
ATOM     27  C   UNK d   0     -19.922 -12.566 -16.914  0.00  0.00    -0.022 A 
ATOM     28  C   UNK d   0     -19.127 -10.511 -16.747  0.00  0.00     0.042 A 
ATOM     29  H   UNK d   0     -19.192 -10.323 -14.556  0.00  0.00     0.166 HD
ATOM     30  C   UNK d   0     -18.625  -9.300 -17.250  0.00  0.00     0.062 C 
ATOM     31  C   UNK d   0     -19.479 -11.525 -17.670  0.00  0.00    -0.013 A 
ATOM     32  C   UNK d   0     -17.591  -8.528 -16.744  0.00  0.00     0.066 A 
BRANCH   8  33
ATOM     33  C   UNK d   0     -15.047  -5.909 -16.315  0.00  0.00     0.151 C 
BRANCH  33  34
ATOM     34  C   UNK d   0     -15.342  -4.906 -15.276  0.00  0.00     0.143 C 
ATOM     35  O   UNK d   0     -14.445  -4.187 -14.813  0.00  0.00    -0.650 OA
BRANCH  34  36
ATOM     36  O   UNK d   0     -16.631  -4.769 -14.815  0.00  0.00    -0.776 OA
ATOM     37  H   UNK d   0     -16.887  -4.016 -14.162  0.00  0.00     0.167 HD
ENDBRANCH  34  36
ENDBRANCH  33  34
ENDBRANCH   8  33
BRANCH  31  38
ATOM     38  C   UNK d   0     -19.381 -11.496 -19.178  0.00  0.00     0.151 C 
BRANCH  38  39
ATOM     39  C   UNK d   0     -18.136 -12.046 -19.670  0.00  0.00     0.143 C 
ATOM     40  O   UNK d   0     -18.081 -12.771 -20.679  0.00  0.00    -0.650 OA
BRANCH  39  41
ATOM     41  O   UNK d   0     -16.946 -11.759 -19.000  0.00  0.00    -0.776 OA
ATOM     42  H   UNK d   0     -17.008 -11.115 -18.206  0.00  0.00     0.167 HD
ENDBRANCH  39  41
ENDBRANCH  38  39
ENDBRANCH  31  38
BRANCH  27  43
ATOM     43  C   UNK d   0     -20.407 -13.869 -17.497  0.00  0.00     0.052 C 
BRANCH  43  44
ATOM     44  C   UNK d   0     -19.299 -14.808 -17.848  0.00  0.00     0.115 C 
BRANCH  44  45
ATOM     45  C   UNK d   0     -19.782 -15.625 -18.992  0.00  0.00     0.139 C 
ATOM     46  O   UNK d   0     -20.460 -16.652 -18.741  0.00  0.00    -0.650 OA
BRANCH  45  47
ATOM     47  O   UNK d   0     -19.520 -15.300 -20.305  0.00  0.00    -0.776 OA
ATOM     48  H   UNK d   0     -20.124 -15.600 -21.088  0.00  0.00     0.167 HD
ENDBRANCH  45  47
ENDBRANCH  44  45
ENDBRANCH  43  44
ENDBRANCH  27  43
BRANCH  24  49
ATOM     49  C   UNK d   0     -20.699 -15.341 -12.168  0.00  0.00     0.052 C 
BRANCH  49  50
ATOM     50  C   UNK d   0     -22.090 -14.768 -12.075  0.00  0.00     0.115 C 
BRANCH  50  51
ATOM     51  C   UNK d   0     -22.764 -14.863 -10.787  0.00  0.00     0.139 C 
ATOM     52  O   UNK d   0     -24.009 -14.780 -10.667  0.00  0.00    -0.650 OA
BRANCH  51  53
ATOM     53  O   UNK d   0     -22.017 -15.051  -9.634  0.00  0.00    -0.776 OA
ATOM     54  H   UNK d   0     -22.086 -15.935  -9.162  0.00  0.00     0.167 HD
ENDBRANCH  51  53
ENDBRANCH  50  51
ENDBRANCH  49  50
ENDBRANCH  24  49
BRANCH  21  55
ATOM     55  C   UNK d   0     -18.488 -14.722 -10.101  0.00  0.00     0.151 C 
BRANCH  55  56
ATOM     56  C   UNK d   0     -17.439 -15.742 -10.251  0.00  0.00     0.143 C 
ATOM     57  O   UNK d   0     -17.671 -16.893 -10.670  0.00  0.00    -0.650 OA
BRANCH  56  58
ATOM     58  O   UNK d   0     -16.135 -15.388  -9.907  0.00  0.00    -0.776 OA
ATOM     59  H   UNK d   0     -15.758 -14.567 -10.413  0.00  0.00     0.167 HD
ENDBRANCH  56  58
ENDBRANCH  55  56
ENDBRANCH  21  55
BRANCH  18  60
ATOM     60  C   UNK d   0     -16.119  -9.944  -9.493  0.00  0.00     0.151 C 
BRANCH  60  61
ATOM     61  C   UNK d   0     -17.146  -8.950  -9.144  0.00  0.00     0.143 C 
ATOM     62  O   UNK d   0     -17.303  -8.396  -8.056  0.00  0.00    -0.650 OA
BRANCH  61  63
ATOM     63  O   UNK d   0     -18.037  -8.612 -10.191  0.00  0.00    -0.776 OA
ATOM     64  H   UNK d   0     -18.572  -9.317 -10.665  0.00  0.00     0.167 HD
ENDBRANCH  61  63
ENDBRANCH  60  61
ENDBRANCH  18  60
BRANCH  14  65
ATOM     65  C   UNK d   0     -14.988  -7.660 -11.140  0.00  0.00     0.052 C 
BRANCH  65  66
ATOM     66  C   UNK d   0     -13.508  -7.718 -11.006  0.00  0.00     0.115 C 
BRANCH  66  67
ATOM     67  C   UNK d   0     -12.825  -6.728 -10.221  0.00  0.00     0.139 C 
ATOM     68  O   UNK d   0     -13.150  -5.494 -10.373  0.00  0.00    -0.650 OA
BRANCH  67  69
ATOM     69  O   UNK d   0     -11.817  -6.932  -9.280  0.00  0.00    -0.776 OA
ATOM     70  H   UNK d   0     -11.147  -6.157  -9.167  0.00  0.00     0.167 HD
ENDBRANCH  67  69
ENDBRANCH  66  67
ENDBRANCH  65  66
ENDBRANCH  14  65
ENDBRANCH   6   7
ENDBRANCH   5   6
ENDBRANCH   2   5
TORSDOF 28
ENDMDL
MODEL 5
REMARK VINA RESULT:      -8.7      2.534      3.579
REMARK  28 active torsions:
REMARK  status: ('A' for Active; 'I' for Inactive)
REMARK    1  A    between atoms: C_2  and  O_3 
REMARK    2  A    between atoms: C_2  and  C_4 
REMARK    3  A    between atoms: C_4  and  C_5 
REMARK    4  A    between atoms: C_5  and  C_6 
REMARK    5  A    between atoms: C_7  and  C_8 
REMARK    6  A    between atoms: C_8  and  C_9 
REMARK    7  A    between atoms: C_9  and  O_11 
REMARK    8  A    between atoms: C_28  and  C_29 
REMARK    9  A    between atoms: C_29  and  C_30 
REMARK   10  A    between atoms: C_30  and  O_32 
REMARK   11  A    between atoms: C_33  and  C_34 
REMARK   12  A    between atoms: C_34  and  C_35 
REMARK   13  A    between atoms: C_35  and  C_36 
REMARK   14  A    between atoms: C_36  and  O_38 
REMARK   15  A    between atoms: C_39  and  C_40 
REMARK   16  A    between atoms: C_40  and  C_41 
REMARK   17  A    between atoms: C_41  and  C_42 
REMARK   18  A    between atoms: C_42  and  O_44 
REMARK   19  A    between atoms: C_45  and  C_46 
REMARK   20  A    between atoms: C_46  and  C_47 
REMARK   21  A    between atoms: C_47  and  O_49 
REMARK   22  A    between atoms: C_50  and  C_51 
REMARK   23  A    between atoms: C_51  and  C_52 
REMARK   24  A    between atoms: C_52  and  O_54 
REMARK   25  A    between atoms: C_55  and  C_56 
REMARK   26  A    between atoms: C_56  and  C_57 
REMARK   27  A    between atoms: C_57  and  C_58 
REMARK   28  A    between atoms: C_58  and  O_60 
ROOT
ATOM      1  O   UNK d   0     -18.375  -3.293 -19.320  0.00  0.00    -0.650 OA
ATOM      2  C   UNK d   0     -17.150  -3.545 -19.330  0.00  0.00     0.139 C 
ENDROOT
BRANCH   2   3
ATOM      3  O   UNK d   0     -16.377  -3.093 -20.373  0.00  0.00    -0.776 OA
ATOM      4  H   UNK d   0     -15.438  -2.723 -20.212  0.00  0.00     0.167 HD
ENDBRANCH   2   3
BRANCH   2   5
ATOM      5  C   UNK d   0     -16.538  -4.329 -18.219  0.00  0.00     0.115 C 
BRANCH   5   6
ATOM      6  C   UNK d   0     -17.359  -4.181 -16.967  0.00  0.00     0.052 C 
BRANCH   6   7
ATOM      7  C   UNK d   0     -16.845  -5.032 -15.831  0.00  0.00    -0.020 A 
ATOM      8  C   UNK d   0     -15.976  -4.696 -14.912  0.00  0.00    -0.011 A 
ATOM      9  C   UNK d   0     -15.787  -5.842 -14.039  0.00  0.00     0.067 A 
ATOM     10  C   UNK d   0     -15.033  -6.126 -12.889  0.00  0.00     0.062 C 
ATOM     11  N   UNK d   0     -16.576  -6.834 -14.503  0.00  0.00    -0.248 NA
ATOM     12  C   UNK d   0     -15.193  -7.208 -12.017  0.00  0.00     0.041 A 
ATOM     13  N   UNK d   0     -15.421  -8.514 -12.257  0.00  0.00    -0.355 N 
ATOM     14  C   UNK d   0     -15.180  -6.973 -10.630  0.00  0.00    -0.022 A 
ATOM     15  C   UNK d   0     -15.561  -9.111 -11.058  0.00  0.00     0.042 A 
ATOM     16  H   UNK d   0     -15.463  -9.007 -13.253  0.00  0.00     0.166 HD
ATOM     17  C   UNK d   0     -15.810 -10.459 -10.733  0.00  0.00     0.062 C 
ATOM     18  C   UNK d   0     -15.416  -8.176 -10.014  0.00  0.00    -0.013 A 
ATOM     19  C   UNK d   0     -16.712 -11.328 -11.291  0.00  0.00     0.067 A 
ATOM     20  N   UNK d   0     -17.309 -10.937 -12.420  0.00  0.00    -0.248 NA
ATOM     21  C   UNK d   0     -17.242 -12.640 -10.959  0.00  0.00    -0.011 A 
ATOM     22  C   UNK d   0     -18.192 -11.898 -12.849  0.00  0.00     0.066 A 
ATOM     23  C   UNK d   0     -18.857 -11.637 -14.038  0.00  0.00     0.062 C 
ATOM     24  C   UNK d   0     -18.110 -12.967 -11.873  0.00  0.00    -0.020 A 
ATOM     25  C   UNK d   0     -18.672 -10.550 -14.906  0.00  0.00     0.041 A 
ATOM     26  N   UNK d   0     -18.461  -9.250 -14.668  0.00  0.00    -0.355 N 
ATOM     27  C   UNK d   0     -18.681 -10.788 -16.298  0.00  0.00    -0.022 A 
ATOM     28  C   UNK d   0     -18.330  -8.651 -15.863  0.00  0.00     0.042 A 
ATOM     29  H   UNK d   0     -18.429  -8.754 -13.667  0.00  0.00     0.166 HD
ATOM     30  C   UNK d   0     -18.090  -7.310 -16.201  0.00  0.00     0.062 C 
ATOM     31  C   UNK d   0     -18.464  -9.592 -16.911  0.00  0.00    -0.013 A 
ATOM     32  C   UNK d   0     -17.239  -6.410 -15.579  0.00  0.00     0.066 A 
BRANCH   8  33
ATOM     33  C   UNK d   0     -15.294  -3.397 -14.772  0.00  0.00     0.151 C 
BRANCH  33  34
ATOM     34  C   UNK d   0     -15.890  -2.549 -13.724  0.00  0.00     0.143 C 
ATOM     35  O   UNK d   0     -16.782  -1.733 -13.996  0.00  0.00    -0.650 OA
BRANCH  34  36
ATOM     36  O   UNK d   0     -15.447  -2.667 -12.427  0.00  0.00    -0.776 OA
ATOM     37  H   UNK d   0     -15.818  -3.393 -11.799  0.00  0.00     0.167 HD
ENDBRANCH  34  36
ENDBRANCH  33  34
ENDBRANCH   8  33
BRANCH  31  38
ATOM     38  C   UNK d   0     -18.377  -9.357 -18.400  0.00  0.00     0.151 C 
BRANCH  38  39
ATOM     39  C   UNK d   0     -17.023  -9.447 -18.905  0.00  0.00     0.143 C 
ATOM     40  O   UNK d   0     -16.477 -10.537 -19.154  0.00  0.00    -0.650 OA
BRANCH  39  41
ATOM     41  O   UNK d   0     -16.293  -8.280 -19.124  0.00  0.00    -0.776 OA
ATOM     42  H   UNK d   0     -16.080  -8.045 -20.099  0.00  0.00     0.167 HD
ENDBRANCH  39  41
ENDBRANCH  38  39
ENDBRANCH  31  38
BRANCH  27  43
ATOM     43  C   UNK d   0     -18.886 -12.081 -17.048  0.00  0.00     0.052 C 
BRANCH  43  44
ATOM     44  C   UNK d   0     -20.225 -12.178 -17.703  0.00  0.00     0.115 C 
BRANCH  44  45
ATOM     45  C   UNK d   0     -21.187 -12.587 -16.646  0.00  0.00     0.139 C 
ATOM     46  O   UNK d   0     -20.979 -13.669 -16.043  0.00  0.00    -0.650 OA
BRANCH  45  47
ATOM     47  O   UNK d   0     -22.284 -11.828 -16.300  0.00  0.00    -0.776 OA
ATOM     48  H   UNK d   0     -22.762 -11.199 -16.965  0.00  0.00     0.167 HD
ENDBRANCH  45  47
ENDBRANCH  44  45
ENDBRANCH  43  44
ENDBRANCH  27  43
BRANCH  24  49
ATOM     49  C   UNK d   0     -18.859 -14.233 -11.946  0.00  0.00     0.052 C 
BRANCH  49  50
ATOM     50  C   UNK d   0     -20.332 -13.982 -11.754  0.00  0.00     0.115 C 
BRANCH  50  51
ATOM     51  C   UNK d   0     -21.052 -14.894 -10.874  0.00  0.00     0.139 C 
ATOM     52  O   UNK d   0     -21.939 -15.676 -11.290  0.00  0.00    -0.650 OA
BRANCH  51  53
ATOM     53  O   UNK d   0     -20.762 -14.911  -9.519  0.00  0.00    -0.776 OA
ATOM     54  H   UNK d   0     -21.193 -15.619  -8.949  0.00  0.00     0.167 HD
ENDBRANCH  51  53
ENDBRANCH  50  51
ENDBRANCH  49  50
ENDBRANCH  24  49
BRANCH  21  55
ATOM     55  C   UNK d   0     -16.821 -13.433  -9.766  0.00  0.00     0.151 C 
BRANCH  55  56
ATOM     56  C   UNK d   0     -17.551 -13.033  -8.553  0.00  0.00     0.143 C 
ATOM     57  O   UNK d   0     -17.484 -11.885  -8.072  0.00  0.00    -0.650 OA
BRANCH  56  58
ATOM     58  O   UNK d   0     -18.347 -13.992  -7.929  0.00  0.00    -0.776 OA
ATOM     59  H   UNK d   0     -19.289 -13.663  -7.650  0.00  0.00     0.167 HD
ENDBRANCH  56  58
ENDBRANCH  55  56
ENDBRANCH  21  55
BRANCH  18  60
ATOM     60  C   UNK d   0     -15.495  -8.383  -8.522  0.00  0.00     0.151 C 
BRANCH  60  61
ATOM     61  C   UNK d   0     -16.861  -8.000  -8.133  0.00  0.00     0.143 C 
ATOM     62  O   UNK d   0     -17.211  -6.956  -7.581  0.00  0.00    -0.650 OA
BRANCH  61  63
ATOM     63  O   UNK d   0     -17.864  -8.951  -8.439  0.00  0.00    -0.776 OA
ATOM     64  H   UNK d   0     -17.745  -9.606  -9.192  0.00  0.00     0.167 HD
ENDBRANCH  61  63
ENDBRANCH  60  61
ENDBRANCH  18  60
BRANCH  14  65
ATOM     65  C   UNK d   0     -14.866  -5.728  -9.850  0.00  0.00     0.052 C 
BRANCH  65  66
ATOM     66  C   UNK d   0     -13.421  -5.373  -9.876  0.00  0.00     0.115 C 
BRANCH  66  67
ATOM     67  C   UNK d   0     -12.439  -6.368  -9.549  0.00  0.00     0.139 C 
ATOM     68  O   UNK d   0     -11.603  -6.728 -10.458  0.00  0.00    -0.650 OA
BRANCH  67  69
ATOM     69  O   UNK d   0     -12.260  -7.023  -8.331  0.00  0.00    -0.776 OA
ATOM     70  H   UNK d   0     -12.088  -6.416  -7.517  0.00  0.00     0.167 HD
ENDBRANCH  67  69
ENDBRANCH  66  67
ENDBRANCH  65  66
ENDBRANCH  14  65
ENDBRANCH   6   7
ENDBRANCH   5   6
ENDBRANCH   2   5
TORSDOF 28
ENDMDL
MODEL 6
REMARK VINA RESULT:      -8.7      1.656      7.744
REMARK  28 active torsions:
REMARK  status: ('A' for Active; 'I' for Inactive)
REMARK    1  A    between atoms: C_2  and  O_3 
REMARK    2  A    between atoms: C_2  and  C_4 
REMARK    3  A    between atoms: C_4  and  C_5 
REMARK    4  A    between atoms: C_5  and  C_6 
REMARK    5  A    between atoms: C_7  and  C_8 
REMARK    6  A    between atoms: C_8  and  C_9 
REMARK    7  A    between atoms: C_9  and  O_11 
REMARK    8  A    between atoms: C_28  and  C_29 
REMARK    9  A    between atoms: C_29  and  C_30 
REMARK   10  A    between atoms: C_30  and  O_32 
REMARK   11  A    between atoms: C_33  and  C_34 
REMARK   12  A    between atoms: C_34  and  C_35 
REMARK   13  A    between atoms: C_35  and  C_36 
REMARK   14  A    between atoms: C_36  and  O_38 
REMARK   15  A    between atoms: C_39  and  C_40 
REMARK   16  A    between atoms: C_40  and  C_41 
REMARK   17  A    between atoms: C_41  and  C_42 
REMARK   18  A    between atoms: C_42  and  O_44 
REMARK   19  A    between atoms: C_45  and  C_46 
REMARK   20  A    between atoms: C_46  and  C_47 
REMARK   21  A    between atoms: C_47  and  O_49 
REMARK   22  A    between atoms: C_50  and  C_51 
REMARK   23  A    between atoms: C_51  and  C_52 
REMARK   24  A    between atoms: C_52  and  O_54 
REMARK   25  A    between atoms: C_55  and  C_56 
REMARK   26  A    between atoms: C_56  and  C_57 
REMARK   27  A    between atoms: C_57  and  C_58 
REMARK   28  A    between atoms: C_58  and  O_60 
ROOT
ATOM      1  O   UNK d   0     -15.298  -4.427 -13.790  0.00  0.00    -0.650 OA
ATOM      2  C   UNK d   0     -14.796  -4.926 -14.822  0.00  0.00     0.139 C 
ENDROOT
BRANCH   2   3
ATOM      3  O   UNK d   0     -13.476  -5.308 -14.813  0.00  0.00    -0.776 OA
ATOM      4  H   UNK d   0     -13.017  -5.598 -13.947  0.00  0.00     0.167 HD
ENDBRANCH   2   3
BRANCH   2   5
ATOM      5  C   UNK d   0     -15.627  -5.102 -16.047  0.00  0.00     0.115 C 
BRANCH   5   6
ATOM      6  C   UNK d   0     -15.273  -6.395 -16.731  0.00  0.00     0.052 C 
BRANCH   6   7
ATOM      7  C   UNK d   0     -16.337  -7.453 -16.561  0.00  0.00    -0.020 A 
ATOM      8  C   UNK d   0     -17.304  -7.752 -17.389  0.00  0.00    -0.011 A 
ATOM      9  C   UNK d   0     -18.081  -8.827 -16.796  0.00  0.00     0.067 A 
ATOM     10  C   UNK d   0     -19.198  -9.592 -17.166  0.00  0.00     0.062 C 
ATOM     11  N   UNK d   0     -17.519  -9.117 -15.604  0.00  0.00    -0.248 NA
ATOM     12  C   UNK d   0     -19.641 -10.784 -16.581  0.00  0.00     0.041 A 
ATOM     13  N   UNK d   0     -19.747 -11.151 -15.290  0.00  0.00    -0.355 N 
ATOM     14  C   UNK d   0     -20.006 -11.857 -17.415  0.00  0.00    -0.022 A 
ATOM     15  C   UNK d   0     -20.163 -12.432 -15.283  0.00  0.00     0.042 A 
ATOM     16  H   UNK d   0     -19.551 -10.512 -14.401  0.00  0.00     0.166 HD
ATOM     17  C   UNK d   0     -20.436 -13.298 -14.205  0.00  0.00     0.062 C 
ATOM     18  C   UNK d   0     -20.336 -12.909 -16.597  0.00  0.00    -0.013 A 
ATOM     19  C   UNK d   0     -19.706 -13.510 -13.063  0.00  0.00     0.067 A 
ATOM     20  N   UNK d   0     -18.705 -12.659 -12.819  0.00  0.00    -0.248 NA
ATOM     21  C   UNK d   0     -19.717 -14.480 -11.982  0.00  0.00    -0.011 A 
ATOM     22  C   UNK d   0     -18.060 -13.005 -11.656  0.00  0.00     0.066 A 
ATOM     23  C   UNK d   0     -17.018 -12.179 -11.261  0.00  0.00     0.062 C 
ATOM     24  C   UNK d   0     -18.748 -14.182 -11.164  0.00  0.00    -0.020 A 
ATOM     25  C   UNK d   0     -16.598 -10.979 -11.856  0.00  0.00     0.041 A 
ATOM     26  N   UNK d   0     -16.478 -10.619 -13.139  0.00  0.00    -0.355 N 
ATOM     27  C   UNK d   0     -16.236  -9.901 -11.019  0.00  0.00    -0.022 A 
ATOM     28  C   UNK d   0     -16.055  -9.345 -13.149  0.00  0.00     0.042 A 
ATOM     29  H   UNK d   0     -16.665 -11.266 -14.031  0.00  0.00     0.166 HD
ATOM     30  C   UNK d   0     -15.771  -8.475 -14.213  0.00  0.00     0.062 C 
ATOM     31  C   UNK d   0     -15.891  -8.863 -11.829  0.00  0.00    -0.013 A 
ATOM     32  C   UNK d   0     -16.465  -8.326 -15.404  0.00  0.00     0.066 A 
BRANCH   8  33
ATOM     33  C   UNK d   0     -17.580  -7.120 -18.693  0.00  0.00     0.151 C 
BRANCH  33  34
ATOM     34  C   UNK d   0     -17.285  -8.009 -19.831  0.00  0.00     0.143 C 
ATOM     35  O   UNK d   0     -18.029  -8.043 -20.822  0.00  0.00    -0.650 OA
BRANCH  34  36
ATOM     36  O   UNK d   0     -16.168  -8.811 -19.790  0.00  0.00    -0.776 OA
ATOM     37  H   UNK d   0     -15.353  -8.623 -20.390  0.00  0.00     0.167 HD
ENDBRANCH  34  36
ENDBRANCH  33  34
ENDBRANCH   8  33
BRANCH  31  38
ATOM     38  C   UNK d   0     -15.446  -7.491 -11.379  0.00  0.00     0.151 C 
BRANCH  38  39
ATOM     39  C   UNK d   0     -14.007  -7.370 -11.287  0.00  0.00     0.143 C 
ATOM     40  O   UNK d   0     -13.421  -6.281 -11.420  0.00  0.00    -0.650 OA
BRANCH  39  41
ATOM     41  O   UNK d   0     -13.237  -8.506 -11.039  0.00  0.00    -0.776 OA
ATOM     42  H   UNK d   0     -13.744  -9.364 -10.798  0.00  0.00     0.167 HD
ENDBRANCH  39  41
ENDBRANCH  38  39
ENDBRANCH  31  38
BRANCH  27  43
ATOM     43  C   UNK d   0     -16.204  -9.826  -9.513  0.00  0.00     0.052 C 
BRANCH  43  44
ATOM     44  C   UNK d   0     -17.126  -8.792  -8.953  0.00  0.00     0.115 C 
BRANCH  44  45
ATOM     45  C   UNK d   0     -17.373  -9.165  -7.536  0.00  0.00     0.139 C 
ATOM     46  O   UNK d   0     -17.890 -10.285  -7.300  0.00  0.00    -0.650 OA
BRANCH  45  47
ATOM     47  O   UNK d   0     -17.054  -8.340  -6.479  0.00  0.00    -0.776 OA
ATOM     48  H   UNK d   0     -17.756  -7.997  -5.805  0.00  0.00     0.167 HD
ENDBRANCH  45  47
ENDBRANCH  44  45
ENDBRANCH  43  44
ENDBRANCH  27  43
BRANCH  24  49
ATOM     49  C   UNK d   0     -18.423 -14.884  -9.911  0.00  0.00     0.052 C 
BRANCH  49  50
ATOM     50  C   UNK d   0     -17.441 -15.997 -10.173  0.00  0.00     0.115 C 
BRANCH  50  51
ATOM     51  C   UNK d   0     -16.232 -16.022  -9.362  0.00  0.00     0.139 C 
ATOM     52  O   UNK d   0     -15.962 -15.130  -8.522  0.00  0.00    -0.650 OA
BRANCH  51  53
ATOM     53  O   UNK d   0     -15.327 -17.062  -9.510  0.00  0.00    -0.776 OA
ATOM     54  H   UNK d   0     -15.535 -17.781 -10.181  0.00  0.00     0.167 HD
ENDBRANCH  51  53
ENDBRANCH  50  51
ENDBRANCH  49  50
ENDBRANCH  24  49
BRANCH  21  55
ATOM     55  C   UNK d   0     -20.696 -15.602 -11.876  0.00  0.00     0.151 C 
BRANCH  55  56
ATOM     56  C   UNK d   0     -21.958 -15.175 -11.254  0.00  0.00     0.143 C 
ATOM     57  O   UNK d   0     -22.070 -14.961 -10.031  0.00  0.00    -0.650 OA
BRANCH  56  58
ATOM     58  O   UNK d   0     -23.067 -15.008 -12.083  0.00  0.00    -0.776 OA
ATOM     59  H   UNK d   0     -23.659 -15.851 -12.194  0.00  0.00     0.167 HD
ENDBRANCH  56  58
ENDBRANCH  55  56
ENDBRANCH  21  55
BRANCH  18  60
ATOM     60  C   UNK d   0     -20.781 -14.269 -17.075  0.00  0.00     0.151 C 
BRANCH  60  61
ATOM     61  C   UNK d   0     -19.721 -14.747 -17.975  0.00  0.00     0.143 C 
ATOM     62  O   UNK d   0     -18.506 -14.704 -17.779  0.00  0.00    -0.650 OA
BRANCH  61  63
ATOM     63  O   UNK d   0     -20.173 -15.314 -19.190  0.00  0.00    -0.776 OA
ATOM     64  H   UNK d   0     -20.900 -16.008 -19.200  0.00  0.00     0.167 HD
ENDBRANCH  61  63
ENDBRANCH  60  61
ENDBRANCH  18  60
BRANCH  14  65
ATOM     65  C   UNK d   0     -20.160 -11.931 -18.907  0.00  0.00     0.052 C 
BRANCH  65  66
ATOM     66  C   UNK d   0     -19.056 -11.255 -19.640  0.00  0.00     0.115 C 
BRANCH  66  67
ATOM     67  C   UNK d   0     -17.793 -11.919 -19.796  0.00  0.00     0.139 C 
ATOM     68  O   UNK d   0     -16.867 -11.688 -18.934  0.00  0.00    -0.650 OA
BRANCH  67  69
ATOM     69  O   UNK d   0     -17.418 -12.817 -20.795  0.00  0.00    -0.776 OA
ATOM     70  H   UNK d   0     -16.785 -13.575 -20.503  0.00  0.00     0.167 HD
ENDBRANCH  67  69
ENDBRANCH  66  67
ENDBRANCH  65  66
ENDBRANCH  14  65
ENDBRANCH   6   7
ENDBRANCH   5   6
ENDBRANCH   2   5
TORSDOF 28
ENDMDL
MODEL 7
REMARK VINA RESULT:      -8.7      3.049      8.295
REMARK  28 active torsions:
REMARK  status: ('A' for Active; 'I' for Inactive)
REMARK    1  A    between atoms: C_2  and  O_3 
REMARK    2  A    between atoms: C_2  and  C_4 
REMARK    3  A    between atoms: C_4  and  C_5 
REMARK    4  A    between atoms: C_5  and  C_6 
REMARK    5  A    between atoms: C_7  and  C_8 
REMARK    6  A    between atoms: C_8  and  C_9 
REMARK    7  A    between atoms: C_9  and  O_11 
REMARK    8  A    between atoms: C_28  and  C_29 
REMARK    9  A    between atoms: C_29  and  C_30 
REMARK   10  A    between atoms: C_30  and  O_32 
REMARK   11  A    between atoms: C_33  and  C_34 
REMARK   12  A    between atoms: C_34  and  C_35 
REMARK   13  A    between atoms: C_35  and  C_36 
REMARK   14  A    between atoms: C_36  and  O_38 
REMARK   15  A    between atoms: C_39  and  C_40 
REMARK   16  A    between atoms: C_40  and  C_41 
REMARK   17  A    between atoms: C_41  and  C_42 
REMARK   18  A    between atoms: C_42  and  O_44 
REMARK   19  A    between atoms: C_45  and  C_46 
REMARK   20  A    between atoms: C_46  and  C_47 
REMARK   21  A    between atoms: C_47  and  O_49 
REMARK   22  A    between atoms: C_50  and  C_51 
REMARK   23  A    between atoms: C_51  and  C_52 
REMARK   24  A    between atoms: C_52  and  O_54 
REMARK   25  A    between atoms: C_55  and  C_56 
REMARK   26  A    between atoms: C_56  and  C_57 
REMARK   27  A    between atoms: C_57  and  C_58 
REMARK   28  A    between atoms: C_58  and  O_60 
ROOT
ATOM      1  O   UNK d   0     -13.438  -6.663  -5.707  0.00  0.00    -0.650 OA
ATOM      2  C   UNK d   0     -13.352  -6.987  -6.913  0.00  0.00     0.139 C 
ENDROOT
BRANCH   2   3
ATOM      3  O   UNK d   0     -12.130  -7.346  -7.428  0.00  0.00    -0.776 OA
ATOM      4  H   UNK d   0     -11.666  -8.207  -7.134  0.00  0.00     0.167 HD
ENDBRANCH   2   3
BRANCH   2   5
ATOM      5  C   UNK d   0     -14.566  -6.980  -7.777  0.00  0.00     0.115 C 
BRANCH   5   6
ATOM      6  C   UNK d   0     -14.177  -7.176  -9.218  0.00  0.00     0.052 C 
BRANCH   6   7
ATOM      7  C   UNK d   0     -15.351  -7.546 -10.092  0.00  0.00    -0.020 A 
ATOM      8  C   UNK d   0     -16.006  -6.771 -10.918  0.00  0.00    -0.011 A 
ATOM      9  C   UNK d   0     -17.059  -7.564 -11.531  0.00  0.00     0.067 A 
ATOM     10  C   UNK d   0     -18.065  -7.347 -12.486  0.00  0.00     0.062 C 
ATOM     11  N   UNK d   0     -16.976  -8.808 -11.015  0.00  0.00    -0.248 NA
ATOM     12  C   UNK d   0     -18.816  -8.316 -13.160  0.00  0.00     0.041 A 
ATOM     13  N   UNK d   0     -19.399  -9.448 -12.723  0.00  0.00    -0.355 N 
ATOM     14  C   UNK d   0     -18.999  -8.190 -14.549  0.00  0.00    -0.022 A 
ATOM     15  C   UNK d   0     -19.940 -10.048 -13.800  0.00  0.00     0.042 A 
ATOM     16  H   UNK d   0     -19.444  -9.806 -11.671  0.00  0.00     0.166 HD
ATOM     17  C   UNK d   0     -20.663 -11.253 -13.908  0.00  0.00     0.062 C 
ATOM     18  C   UNK d   0     -19.709  -9.290 -14.964  0.00  0.00    -0.013 A 
ATOM     19  C   UNK d   0     -20.396 -12.473 -13.339  0.00  0.00     0.067 A 
ATOM     20  N   UNK d   0     -19.447 -12.508 -12.401  0.00  0.00    -0.248 NA
ATOM     21  C   UNK d   0     -20.889 -13.830 -13.501  0.00  0.00    -0.011 A 
ATOM     22  C   UNK d   0     -19.282 -13.790 -11.938  0.00  0.00     0.066 A 
ATOM     23  C   UNK d   0     -18.348 -13.965 -10.927  0.00  0.00     0.062 C 
ATOM     24  C   UNK d   0     -20.230 -14.597 -12.681  0.00  0.00    -0.020 A 
ATOM     25  C   UNK d   0     -17.613 -12.977 -10.255  0.00  0.00     0.041 A 
ATOM     26  N   UNK d   0     -17.021 -11.859 -10.691  0.00  0.00    -0.355 N 
ATOM     27  C   UNK d   0     -17.434 -13.102  -8.859  0.00  0.00    -0.022 A 
ATOM     28  C   UNK d   0     -16.473 -11.263  -9.620  0.00  0.00     0.042 A 
ATOM     29  H   UNK d   0     -16.967 -11.506 -11.751  0.00  0.00     0.166 HD
ATOM     30  C   UNK d   0     -15.744 -10.070  -9.500  0.00  0.00     0.062 C 
ATOM     31  C   UNK d   0     -16.715 -12.021  -8.450  0.00  0.00    -0.013 A 
ATOM     32  C   UNK d   0     -15.968  -8.863 -10.143  0.00  0.00     0.066 A 
BRANCH   8  33
ATOM     33  C   UNK d   0     -15.745  -5.346 -11.191  0.00  0.00     0.151 C 
BRANCH  33  34
ATOM     34  C   UNK d   0     -15.095  -5.124 -12.495  0.00  0.00     0.143 C 
ATOM     35  O   UNK d   0     -14.266  -5.932 -12.939  0.00  0.00    -0.650 OA
BRANCH  34  36
ATOM     36  O   UNK d   0     -15.414  -4.004 -13.227  0.00  0.00    -0.776 OA
ATOM     37  H   UNK d   0     -15.833  -4.079 -14.164  0.00  0.00     0.167 HD
ENDBRANCH  34  36
ENDBRANCH  33  34
ENDBRANCH   8  33
BRANCH  31  38
ATOM     38  C   UNK d   0     -16.293 -11.717  -7.032  0.00  0.00     0.151 C 
BRANCH  38  39
ATOM     39  C   UNK d   0     -16.982 -10.573  -6.473  0.00  0.00     0.143 C 
ATOM     40  O   UNK d   0     -18.219 -10.457  -6.514  0.00  0.00    -0.650 OA
BRANCH  39  41
ATOM     41  O   UNK d   0     -16.245  -9.558  -5.864  0.00  0.00    -0.776 OA
ATOM     42  H   UNK d   0     -15.460  -9.174  -6.399  0.00  0.00     0.167 HD
ENDBRANCH  39  41
ENDBRANCH  38  39
ENDBRANCH  31  38
BRANCH  27  43
ATOM     43  C   UNK d   0     -17.910 -14.186  -7.925  0.00  0.00     0.052 C 
BRANCH  43  44
ATOM     44  C   UNK d   0     -16.925 -15.298  -7.761  0.00  0.00     0.115 C 
BRANCH  44  45
ATOM     45  C   UNK d   0     -17.690 -16.565  -7.887  0.00  0.00     0.139 C 
ATOM     46  O   UNK d   0     -17.165 -17.514  -8.521  0.00  0.00    -0.650 OA
BRANCH  45  47
ATOM     47  O   UNK d   0     -18.941 -16.741  -7.335  0.00  0.00    -0.776 OA
ATOM     48  H   UNK d   0     -19.096 -17.245  -6.447  0.00  0.00     0.167 HD
ENDBRANCH  45  47
ENDBRANCH  44  45
ENDBRANCH  43  44
ENDBRANCH  27  43
BRANCH  24  49
ATOM     49  C   UNK d   0     -20.436 -16.043 -12.489  0.00  0.00     0.052 C 
BRANCH  49  50
ATOM     50  C   UNK d   0     -21.685 -16.293 -11.684  0.00  0.00     0.115 C 
BRANCH  50  51
ATOM     51  C   UNK d   0     -21.751 -15.696 -10.356  0.00  0.00     0.139 C 
ATOM     52  O   UNK d   0     -22.565 -14.790 -10.061  0.00  0.00    -0.650 OA
BRANCH  51  53
ATOM     53  O   UNK d   0     -20.885 -16.132  -9.365  0.00  0.00    -0.776 OA
ATOM     54  H   UNK d   0     -21.020 -17.053  -8.987  0.00  0.00     0.167 HD
ENDBRANCH  51  53
ENDBRANCH  50  51
ENDBRANCH  49  50
ENDBRANCH  24  49
BRANCH  21  55
ATOM     55  C   UNK d   0     -21.970 -14.219 -14.455  0.00  0.00     0.151 C 
BRANCH  55  56
ATOM     56  C   UNK d   0     -21.464 -14.374 -15.827  0.00  0.00     0.143 C 
ATOM     57  O   UNK d   0     -21.269 -13.406 -16.588  0.00  0.00    -0.650 OA
BRANCH  56  58
ATOM     58  O   UNK d   0     -21.198 -15.666 -16.279  0.00  0.00    -0.776 OA
ATOM     59  H   UNK d   0     -20.728 -15.717 -17.200  0.00  0.00     0.167 HD
ENDBRANCH  56  58
ENDBRANCH  55  56
ENDBRANCH  21  55
BRANCH  18  60
ATOM     60  C   UNK d   0     -20.120  -9.566 -16.389  0.00  0.00     0.151 C 
BRANCH  60  61
ATOM     61  C   UNK d   0     -19.113 -10.493 -16.927  0.00  0.00     0.143 C 
ATOM     62  O   UNK d   0     -17.916 -10.536 -16.641  0.00  0.00    -0.650 OA
BRANCH  61  63
ATOM     63  O   UNK d   0     -19.598 -11.427 -17.874  0.00  0.00    -0.776 OA
ATOM     64  H   UNK d   0     -18.978 -12.069 -18.334  0.00  0.00     0.167 HD
ENDBRANCH  61  63
ENDBRANCH  60  61
ENDBRANCH  18  60
BRANCH  14  65
ATOM     65  C   UNK d   0     -18.642  -7.073 -15.489  0.00  0.00     0.052 C 
BRANCH  65  66
ATOM     66  C   UNK d   0     -17.224  -7.121 -15.936  0.00  0.00     0.115 C 
BRANCH  66  67
ATOM     67  C   UNK d   0     -16.408  -5.943 -15.842  0.00  0.00     0.139 C 
ATOM     68  O   UNK d   0     -16.985  -4.811 -15.644  0.00  0.00    -0.650 OA
BRANCH  67  69
ATOM     69  O   UNK d   0     -15.020  -5.857 -15.939  0.00  0.00    -0.776 OA
ATOM     70  H   UNK d   0     -14.505  -5.888 -15.048  0.00  0.00     0.167 HD
ENDBRANCH  67  69
ENDBRANCH  66  67
ENDBRANCH  65  66
ENDBRANCH  14  65
ENDBRANCH   6   7
ENDBRANCH   5   6
ENDBRANCH   2   5
TORSDOF 28
ENDMDL
MODEL 8
REMARK VINA RESULT:      -8.6      3.063      7.059
REMARK  28 active torsions:
REMARK  status: ('A' for Active; 'I' for Inactive)
REMARK    1  A    between atoms: C_2  and  O_3 
REMARK    2  A    between atoms: C_2  and  C_4 
REMARK    3  A    between atoms: C_4  and  C_5 
REMARK    4  A    between atoms: C_5  and  C_6 
REMARK    5  A    between atoms: C_7  and  C_8 
REMARK    6  A    between atoms: C_8  and  C_9 
REMARK    7  A    between atoms: C_9  and  O_11 
REMARK    8  A    between atoms: C_28  and  C_29 
REMARK    9  A    between atoms: C_29  and  C_30 
REMARK   10  A    between atoms: C_30  and  O_32 
REMARK   11  A    between atoms: C_33  and  C_34 
REMARK   12  A    between atoms: C_34  and  C_35 
REMARK   13  A    between atoms: C_35  and  C_36 
REMARK   14  A    between atoms: C_36  and  O_38 
REMARK   15  A    between atoms: C_39  and  C_40 
REMARK   16  A    between atoms: C_40  and  C_41 
REMARK   17  A    between atoms: C_41  and  C_42 
REMARK   18  A    between atoms: C_42  and  O_44 
REMARK   19  A    between atoms: C_45  and  C_46 
REMARK   20  A    between atoms: C_46  and  C_47 
REMARK   21  A    between atoms: C_47  and  O_49 
REMARK   22  A    between atoms: C_50  and  C_51 
REMARK   23  A    between atoms: C_51  and  C_52 
REMARK   24  A    between atoms: C_52  and  O_54 
REMARK   25  A    between atoms: C_55  and  C_56 
REMARK   26  A    between atoms: C_56  and  C_57 
REMARK   27  A    between atoms: C_57  and  C_58 
REMARK   28  A    between atoms: C_58  and  O_60 
ROOT
ATOM      1  O   UNK d   0     -16.713  -3.672  -7.459  0.00  0.00    -0.650 OA
ATOM      2  C   UNK d   0     -16.496  -3.521  -8.682  0.00  0.00     0.139 C 
ENDROOT
BRANCH   2   3
ATOM      3  O   UNK d   0     -17.547  -3.242  -9.522  0.00  0.00    -0.776 OA
ATOM      4  H   UNK d   0     -18.004  -2.328  -9.509  0.00  0.00     0.167 HD
ENDBRANCH   2   3
BRANCH   2   5
ATOM      5  C   UNK d   0     -15.111  -3.646  -9.217  0.00  0.00     0.115 C 
BRANCH   5   6
ATOM      6  C   UNK d   0     -15.127  -4.391 -10.525  0.00  0.00     0.052 C 
BRANCH   6   7
ATOM      7  C   UNK d   0     -15.325  -5.877 -10.345  0.00  0.00    -0.020 A 
ATOM      8  C   UNK d   0     -14.799  -6.647  -9.427  0.00  0.00    -0.011 A 
ATOM      9  C   UNK d   0     -15.270  -8.002  -9.660  0.00  0.00     0.067 A 
ATOM     10  C   UNK d   0     -15.103  -9.252  -9.044  0.00  0.00     0.062 C 
ATOM     11  N   UNK d   0     -16.075  -7.966 -10.743  0.00  0.00    -0.248 NA
ATOM     12  C   UNK d   0     -15.866 -10.407  -9.249  0.00  0.00     0.041 A 
ATOM     13  N   UNK d   0     -16.342 -10.965 -10.378  0.00  0.00    -0.355 N 
ATOM     14  C   UNK d   0     -16.299 -11.144  -8.132  0.00  0.00    -0.022 A 
ATOM     15  C   UNK d   0     -17.073 -12.033 -10.006  0.00  0.00     0.042 A 
ATOM     16  H   UNK d   0     -16.150 -10.623 -11.419  0.00  0.00     0.166 HD
ATOM     17  C   UNK d   0     -17.789 -12.966 -10.783  0.00  0.00     0.062 C 
ATOM     18  C   UNK d   0     -17.070 -12.177  -8.605  0.00  0.00    -0.013 A 
ATOM     19  C   UNK d   0     -18.625 -12.742 -11.846  0.00  0.00     0.067 A 
ATOM     20  N   UNK d   0     -18.631 -11.510 -12.362  0.00  0.00    -0.248 NA
ATOM     21  C   UNK d   0     -19.581 -13.529 -12.608  0.00  0.00    -0.011 A 
ATOM     22  C   UNK d   0     -19.522 -11.434 -13.404  0.00  0.00     0.066 A 
ATOM     23  C   UNK d   0     -19.602 -10.213 -14.059  0.00  0.00     0.062 C 
ATOM     24  C   UNK d   0     -20.105 -12.756 -13.515  0.00  0.00    -0.020 A 
ATOM     25  C   UNK d   0     -18.818  -9.069 -13.845  0.00  0.00     0.041 A 
ATOM     26  N   UNK d   0     -18.357  -8.506 -12.722  0.00  0.00    -0.355 N 
ATOM     27  C   UNK d   0     -18.380  -8.333 -14.967  0.00  0.00    -0.022 A 
ATOM     28  C   UNK d   0     -17.635  -7.436 -13.090  0.00  0.00     0.042 A 
ATOM     29  H   UNK d   0     -18.560  -8.845 -11.677  0.00  0.00     0.166 HD
ATOM     30  C   UNK d   0     -16.926  -6.494 -12.328  0.00  0.00     0.062 C 
ATOM     31  C   UNK d   0     -17.630  -7.298 -14.499  0.00  0.00    -0.013 A 
ATOM     32  C   UNK d   0     -16.150  -6.716 -11.202  0.00  0.00     0.066 A 
BRANCH   8  33
ATOM     33  C   UNK d   0     -13.884  -6.237  -8.346  0.00  0.00     0.151 C 
BRANCH  33  34
ATOM     34  C   UNK d   0     -12.502  -6.030  -8.815  0.00  0.00     0.143 C 
ATOM     35  O   UNK d   0     -11.913  -4.959  -8.608  0.00  0.00    -0.650 OA
BRANCH  34  36
ATOM     36  O   UNK d   0     -11.860  -7.041  -9.493  0.00  0.00    -0.776 OA
ATOM     37  H   UNK d   0     -12.386  -7.820  -9.913  0.00  0.00     0.167 HD
ENDBRANCH  34  36
ENDBRANCH  33  34
ENDBRANCH   8  33
BRANCH  31  38
ATOM     38  C   UNK d   0     -16.938  -6.247 -15.336  0.00  0.00     0.151 C 
BRANCH  38  39
ATOM     39  C   UNK d   0     -15.614  -6.649 -15.759  0.00  0.00     0.143 C 
ATOM     40  O   UNK d   0     -14.953  -7.508 -15.150  0.00  0.00    -0.650 OA
BRANCH  39  41
ATOM     41  O   UNK d   0     -15.047  -6.060 -16.889  0.00  0.00    -0.776 OA
ATOM     42  H   UNK d   0     -14.040  -5.871 -16.855  0.00  0.00     0.167 HD
ENDBRANCH  39  41
ENDBRANCH  38  39
ENDBRANCH  31  38
BRANCH  27  43
ATOM     43  C   UNK d   0     -18.644  -8.571 -16.433  0.00  0.00     0.052 C 
BRANCH  43  44
ATOM     44  C   UNK d   0     -17.643  -9.476 -17.074  0.00  0.00     0.115 C 
BRANCH  44  45
ATOM     45  C   UNK d   0     -18.414 -10.466 -17.870  0.00  0.00     0.139 C 
ATOM     46  O   UNK d   0     -19.408 -11.014 -17.330  0.00  0.00    -0.650 OA
BRANCH  45  47
ATOM     47  O   UNK d   0     -18.089 -10.800 -19.166  0.00  0.00    -0.776 OA
ATOM     48  H   UNK d   0     -18.793 -10.883 -19.917  0.00  0.00     0.167 HD
ENDBRANCH  45  47
ENDBRANCH  44  45
ENDBRANCH  43  44
ENDBRANCH  27  43
BRANCH  24  49
ATOM     49  C   UNK d   0     -21.094 -13.157 -14.530  0.00  0.00     0.052 C 
BRANCH  49  50
ATOM     50  C   UNK d   0     -22.494 -12.938 -14.015  0.00  0.00     0.115 C 
BRANCH  50  51
ATOM     51  C   UNK d   0     -23.234 -11.808 -14.559  0.00  0.00     0.139 C 
ATOM     52  O   UNK d   0     -22.752 -11.036 -15.422  0.00  0.00    -0.650 OA
BRANCH  51  53
ATOM     53  O   UNK d   0     -24.524 -11.556 -14.119  0.00  0.00    -0.776 OA
ATOM     54  H   UNK d   0     -24.652 -10.882 -13.384  0.00  0.00     0.167 HD
ENDBRANCH  51  53
ENDBRANCH  50  51
ENDBRANCH  49  50
ENDBRANCH  24  49
BRANCH  21  55
ATOM     55  C   UNK d   0     -19.867 -14.971 -12.352  0.00  0.00     0.151 C 
BRANCH  55  56
ATOM     56  C   UNK d   0     -20.578 -15.176 -11.081  0.00  0.00     0.143 C 
ATOM     57  O   UNK d   0     -21.700 -14.684 -10.848  0.00  0.00    -0.650 OA
BRANCH  56  58
ATOM     58  O   UNK d   0     -19.956 -15.955 -10.107  0.00  0.00    -0.776 OA
ATOM     59  H   UNK d   0     -20.547 -16.706  -9.706  0.00  0.00     0.167 HD
ENDBRANCH  56  58
ENDBRANCH  55  56
ENDBRANCH  21  55
BRANCH  18  60
ATOM     60  C   UNK d   0     -17.747 -13.215  -7.744  0.00  0.00     0.151 C 
BRANCH  60  61
ATOM     61  C   UNK d   0     -16.919 -14.426  -7.846  0.00  0.00     0.143 C 
ATOM     62  O   UNK d   0     -15.724 -14.534  -7.566  0.00  0.00    -0.650 OA
BRANCH  61  63
ATOM     63  O   UNK d   0     -17.592 -15.578  -8.318  0.00  0.00    -0.776 OA
ATOM     64  H   UNK d   0     -17.135 -16.232  -8.929  0.00  0.00     0.167 HD
ENDBRANCH  61  63
ENDBRANCH  60  61
ENDBRANCH  18  60
BRANCH  14  65
ATOM     65  C   UNK d   0     -15.963 -11.005  -6.675  0.00  0.00     0.052 C 
BRANCH  65  66
ATOM     66  C   UNK d   0     -16.776  -9.967  -5.987  0.00  0.00     0.115 C 
BRANCH  66  67
ATOM     67  C   UNK d   0     -18.063  -9.607  -6.511  0.00  0.00     0.139 C 
ATOM     68  O   UNK d   0     -19.087 -10.295  -6.149  0.00  0.00    -0.650 OA
BRANCH  67  69
ATOM     69  O   UNK d   0     -18.365  -8.572  -7.396  0.00  0.00    -0.776 OA
ATOM     70  H   UNK d   0     -18.063  -7.632  -7.105  0.00  0.00     0.167 HD
ENDBRANCH  67  69
ENDBRANCH  66  67
ENDBRANCH  65  66
ENDBRANCH  14  65
ENDBRANCH   6   7
ENDBRANCH   5   6
ENDBRANCH   2   5
TORSDOF 28
ENDMDL
MODEL 9
REMARK VINA RESULT:      -8.6      1.955      7.989
REMARK  28 active torsions:
REMARK  status: ('A' for Active; 'I' for Inactive)
REMARK    1  A    between atoms: C_2  and  O_3 
REMARK    2  A    between atoms: C_2  and  C_4 
REMARK    3  A    between atoms: C_4  and  C_5 
REMARK    4  A    between atoms: C_5  and  C_6 
REMARK    5  A    between atoms: C_7  and  C_8 
REMARK    6  A    between atoms: C_8  and  C_9 
REMARK    7  A    between atoms: C_9  and  O_11 
REMARK    8  A    between atoms: C_28  and  C_29 
REMARK    9  A    between atoms: C_29  and  C_30 
REMARK   10  A    between atoms: C_30  and  O_32 
REMARK   11  A    between atoms: C_33  and  C_34 
REMARK   12  A    between atoms: C_34  and  C_35 
REMARK   13  A    between atoms: C_35  and  C_36 
REMARK   14  A    between atoms: C_36  and  O_38 
REMARK   15  A    between atoms: C_39  and  C_40 
REMARK   16  A    between atoms: C_40  and  C_41 
REMARK   17  A    between atoms: C_41  and  C_42 
REMARK   18  A    between atoms: C_42  and  O_44 
REMARK   19  A    between atoms: C_45  and  C_46 
REMARK   20  A    between atoms: C_46  and  C_47 
REMARK   21  A    between atoms: C_47  and  O_49 
REMARK   22  A    between atoms: C_50  and  C_51 
REMARK   23  A    between atoms: C_51  and  C_52 
REMARK   24  A    between atoms: C_52  and  O_54 
REMARK   25  A    between atoms: C_55  and  C_56 
REMARK   26  A    between atoms: C_56  and  C_57 
REMARK   27  A    between atoms: C_57  and  C_58 
REMARK   28  A    between atoms: C_58  and  O_60 
ROOT
ATOM      1  O   UNK d   0     -15.515  -4.044 -13.664  0.00  0.00    -0.650 OA
ATOM      2  C   UNK d   0     -15.198  -3.909 -14.867  0.00  0.00     0.139 C 
ENDROOT
BRANCH   2   3
ATOM      3  O   UNK d   0     -14.108  -3.139 -15.194  0.00  0.00    -0.776 OA
ATOM      4  H   UNK d   0     -13.878  -2.936 -16.169  0.00  0.00     0.167 HD
ENDBRANCH   2   3
BRANCH   2   5
ATOM      5  C   UNK d   0     -15.999  -4.577 -15.931  0.00  0.00     0.115 C 
BRANCH   5   6
ATOM      6  C   UNK d   0     -15.367  -5.889 -16.308  0.00  0.00     0.052 C 
BRANCH   6   7
ATOM      7  C   UNK d   0     -16.312  -7.057 -16.150  0.00  0.00    -0.020 A 
ATOM      8  C   UNK d   0     -17.193  -7.492 -17.013  0.00  0.00    -0.011 A 
ATOM      9  C   UNK d   0     -17.874  -8.630 -16.417  0.00  0.00     0.067 A 
ATOM     10  C   UNK d   0     -18.876  -9.531 -16.812  0.00  0.00     0.062 C 
ATOM     11  N   UNK d   0     -17.348  -8.813 -15.188  0.00  0.00    -0.248 NA
ATOM     12  C   UNK d   0     -19.211 -10.745 -16.203  0.00  0.00     0.041 A 
ATOM     13  N   UNK d   0     -19.346 -11.078 -14.905  0.00  0.00    -0.355 N 
ATOM     14  C   UNK d   0     -19.407 -11.880 -17.011  0.00  0.00    -0.022 A 
ATOM     15  C   UNK d   0     -19.614 -12.397 -14.868  0.00  0.00     0.042 A 
ATOM     16  H   UNK d   0     -19.272 -10.391 -14.034  0.00  0.00     0.166 HD
ATOM     17  C   UNK d   0     -19.844 -13.252 -13.772  0.00  0.00     0.062 C 
ATOM     18  C   UNK d   0     -19.660 -12.935 -16.169  0.00  0.00    -0.013 A 
ATOM     19  C   UNK d   0     -19.159 -13.340 -12.588  0.00  0.00     0.067 A 
ATOM     20  N   UNK d   0     -18.275 -12.372 -12.327  0.00  0.00    -0.248 NA
ATOM     21  C   UNK d   0     -19.118 -14.268 -11.470  0.00  0.00    -0.011 A 
ATOM     22  C   UNK d   0     -17.659 -12.602 -11.121  0.00  0.00     0.066 A 
ATOM     23  C   UNK d   0     -16.741 -11.649 -10.707  0.00  0.00     0.062 C 
ATOM     24  C   UNK d   0     -18.236 -13.833 -10.618  0.00  0.00    -0.020 A 
ATOM     25  C   UNK d   0     -16.427 -10.429 -11.327  0.00  0.00     0.041 A 
ATOM     26  N   UNK d   0     -16.279 -10.101 -12.616  0.00  0.00    -0.355 N 
ATOM     27  C   UNK d   0     -16.235  -9.290 -10.516  0.00  0.00    -0.022 A 
ATOM     28  C   UNK d   0     -16.003  -8.788 -12.656  0.00  0.00     0.042 A 
ATOM     29  H   UNK d   0     -16.343 -10.795 -13.490  0.00  0.00     0.166 HD
ATOM     30  C   UNK d   0     -15.762  -7.927 -13.738  0.00  0.00     0.062 C 
ATOM     31  C   UNK d   0     -15.967  -8.247 -11.349  0.00  0.00    -0.013 A 
ATOM     32  C   UNK d   0     -16.403  -7.899 -14.967  0.00  0.00     0.066 A 
BRANCH   8  33
ATOM     33  C   UNK d   0     -17.467  -6.941 -18.353  0.00  0.00     0.151 C 
BRANCH  33  34
ATOM     34  C   UNK d   0     -16.830  -7.718 -19.431  0.00  0.00     0.143 C 
ATOM     35  O   UNK d   0     -15.644  -7.530 -19.736  0.00  0.00    -0.650 OA
BRANCH  34  36
ATOM     36  O   UNK d   0     -17.566  -8.664 -20.107  0.00  0.00    -0.776 OA
ATOM     37  H   UNK d   0     -17.296  -8.977 -21.050  0.00  0.00     0.167 HD
ENDBRANCH  34  36
ENDBRANCH  33  34
ENDBRANCH   8  33
BRANCH  31  38
ATOM     38  C   UNK d   0     -15.705  -6.818 -10.932  0.00  0.00     0.151 C 
BRANCH  38  39
ATOM     39  C   UNK d   0     -14.297  -6.534 -10.755  0.00  0.00     0.143 C 
ATOM     40  O   UNK d   0     -13.604  -6.021 -11.651  0.00  0.00    -0.650 OA
BRANCH  39  41
ATOM     41  O   UNK d   0     -13.682  -6.840  -9.541  0.00  0.00    -0.776 OA
ATOM     42  H   UNK d   0     -14.298  -6.969  -8.732  0.00  0.00     0.167 HD
ENDBRANCH  39  41
ENDBRANCH  38  39
ENDBRANCH  31  38
BRANCH  27  43
ATOM     43  C   UNK d   0     -16.294  -9.161  -9.015  0.00  0.00     0.052 C 
BRANCH  43  44
ATOM     44  C   UNK d   0     -17.436  -8.323  -8.538  0.00  0.00     0.115 C 
BRANCH  44  45
ATOM     45  C   UNK d   0     -17.868  -8.896  -7.237  0.00  0.00     0.139 C 
ATOM     46  O   UNK d   0     -17.002  -9.046  -6.339  0.00  0.00    -0.650 OA
BRANCH  45  47
ATOM     47  O   UNK d   0     -19.172  -9.260  -6.976  0.00  0.00    -0.776 OA
ATOM     48  H   UNK d   0     -19.606 -10.110  -7.372  0.00  0.00     0.167 HD
ENDBRANCH  45  47
ENDBRANCH  44  45
ENDBRANCH  43  44
ENDBRANCH  27  43
BRANCH  24  49
ATOM     49  C   UNK d   0     -17.901 -14.450  -9.323  0.00  0.00     0.052 C 
BRANCH  49  50
ATOM     50  C   UNK d   0     -16.540 -15.095  -9.385  0.00  0.00     0.115 C 
BRANCH  50  51
ATOM     51  C   UNK d   0     -16.497 -16.545  -9.524  0.00  0.00     0.139 C 
ATOM     52  O   UNK d   0     -17.532 -17.248  -9.597  0.00  0.00    -0.650 OA
BRANCH  51  53
ATOM     53  O   UNK d   0     -15.273 -17.193  -9.576  0.00  0.00    -0.776 OA
ATOM     54  H   UNK d   0     -14.765 -17.181 -10.443  0.00  0.00     0.167 HD
ENDBRANCH  51  53
ENDBRANCH  50  51
ENDBRANCH  49  50
ENDBRANCH  24  49
BRANCH  21  55
ATOM     55  C   UNK d   0     -19.968 -15.491 -11.370  0.00  0.00     0.151 C 
BRANCH  55  56
ATOM     56  C   UNK d   0     -21.328 -15.180 -10.904  0.00  0.00     0.143 C 
ATOM     57  O   UNK d   0     -22.317 -15.175 -11.663  0.00  0.00    -0.650 OA
BRANCH  56  58
ATOM     58  O   UNK d   0     -21.500 -14.882  -9.553  0.00  0.00    -0.776 OA
ATOM     59  H   UNK d   0     -22.428 -15.130  -9.166  0.00  0.00     0.167 HD
ENDBRANCH  56  58
ENDBRANCH  55  56
ENDBRANCH  21  55
BRANCH  18  60
ATOM     60  C   UNK d   0     -19.921 -14.352 -16.615  0.00  0.00     0.151 C 
BRANCH  60  61
ATOM     61  C   UNK d   0     -21.383 -14.480 -16.719  0.00  0.00     0.143 C 
ATOM     62  O   UNK d   0     -22.230 -13.748 -16.205  0.00  0.00    -0.650 OA
BRANCH  61  63
ATOM     63  O   UNK d   0     -21.838 -15.569 -17.500  0.00  0.00    -0.776 OA
ATOM     64  H   UNK d   0     -21.260 -16.376 -17.651  0.00  0.00     0.167 HD
ENDBRANCH  61  63
ENDBRANCH  60  61
ENDBRANCH  18  60
BRANCH  14  65
ATOM     65  C   UNK d   0     -19.470 -12.022 -18.505  0.00  0.00     0.052 C 
BRANCH  65  66
ATOM     66  C   UNK d   0     -18.127 -12.112 -19.138  0.00  0.00     0.115 C 
BRANCH  66  67
ATOM     67  C   UNK d   0     -17.924 -12.991 -20.255  0.00  0.00     0.139 C 
ATOM     68  O   UNK d   0     -18.687 -14.019 -20.373  0.00  0.00    -0.650 OA
BRANCH  67  69
ATOM     69  O   UNK d   0     -16.974 -12.876 -21.269  0.00  0.00    -0.776 OA
ATOM     70  H   UNK d   0     -16.483 -11.972 -21.323  0.00  0.00     0.167 HD
ENDBRANCH  67  69
ENDBRANCH  66  67
ENDBRANCH  65  66
ENDBRANCH  14  65
ENDBRANCH   6   7
ENDBRANCH   5   6
ENDBRANCH   2   5
TORSDOF 28
ENDMDL
MODEL 10
REMARK VINA RESULT:      -8.6      2.253      7.861
REMARK  28 active torsions:
REMARK  status: ('A' for Active; 'I' for Inactive)
REMARK    1  A    between atoms: C_2  and  O_3 
REMARK    2  A    between atoms: C_2  and  C_4 
REMARK    3  A    between atoms: C_4  and  C_5 
REMARK    4  A    between atoms: C_5  and  C_6 
REMARK    5  A    between atoms: C_7  and  C_8 
REMARK    6  A    between atoms: C_8  and  C_9 
REMARK    7  A    between atoms: C_9  and  O_11 
REMARK    8  A    between atoms: C_28  and  C_29 
REMARK    9  A    between atoms: C_29  and  C_30 
REMARK   10  A    between atoms: C_30  and  O_32 
REMARK   11  A    between atoms: C_33  and  C_34 
REMARK   12  A    between atoms: C_34  and  C_35 
REMARK   13  A    between atoms: C_35  and  C_36 
REMARK   14  A    between atoms: C_36  and  O_38 
REMARK   15  A    between atoms: C_39  and  C_40 
REMARK   16  A    between atoms: C_40  and  C_41 
REMARK   17  A    between atoms: C_41  and  C_42 
REMARK   18  A    between atoms: C_42  and  O_44 
REMARK   19  A    between atoms: C_45  and  C_46 
REMARK   20  A    between atoms: C_46  and  C_47 
REMARK   21  A    between atoms: C_47  and  O_49 
REMARK   22  A    between atoms: C_50  and  C_51 
REMARK   23  A    between atoms: C_51  and  C_52 
REMARK   24  A    between atoms: C_52  and  O_54 
REMARK   25  A    between atoms: C_55  and  C_56 
REMARK   26  A    between atoms: C_56  and  C_57 
REMARK   27  A    between atoms: C_57  and  C_58 
REMARK   28  A    between atoms: C_58  and  O_60 
ROOT
ATOM      1  O   UNK d   0     -14.904  -1.050 -14.236  0.00  0.00    -0.650 OA
ATOM      2  C   UNK d   0     -15.622  -2.019 -13.904  0.00  0.00     0.139 C 
ENDROOT
BRANCH   2   3
ATOM      3  O   UNK d   0     -16.013  -2.150 -12.593  0.00  0.00    -0.776 OA
ATOM      4  H   UNK d   0     -15.844  -1.404 -11.915  0.00  0.00     0.167 HD
ENDBRANCH   2   3
BRANCH   2   5
ATOM      5  C   UNK d   0     -16.047  -3.019 -14.923  0.00  0.00     0.115 C 
BRANCH   5   6
ATOM      6  C   UNK d   0     -15.374  -4.340 -14.664  0.00  0.00     0.052 C 
BRANCH   6   7
ATOM      7  C   UNK d   0     -16.333  -5.504 -14.734  0.00  0.00    -0.020 A 
ATOM      8  C   UNK d   0     -17.271  -5.714 -15.622  0.00  0.00    -0.011 A 
ATOM      9  C   UNK d   0     -17.942  -6.956 -15.276  0.00  0.00     0.067 A 
ATOM     10  C   UNK d   0     -18.983  -7.729 -15.814  0.00  0.00     0.062 C 
ATOM     11  N   UNK d   0     -17.351  -7.433 -14.160  0.00  0.00    -0.248 NA
ATOM     12  C   UNK d   0     -19.309  -9.051 -15.494  0.00  0.00     0.041 A 
ATOM     13  N   UNK d   0     -19.377  -9.686 -14.308  0.00  0.00    -0.355 N 
ATOM     14  C   UNK d   0     -19.574  -9.958 -16.537  0.00  0.00    -0.022 A 
ATOM     15  C   UNK d   0     -19.670 -10.973 -14.572  0.00  0.00     0.042 A 
ATOM     16  H   UNK d   0     -19.239  -9.228 -13.304  0.00  0.00     0.166 HD
ATOM     17  C   UNK d   0     -19.857 -12.064 -13.700  0.00  0.00     0.062 C 
ATOM     18  C   UNK d   0     -19.801 -11.182 -15.959  0.00  0.00    -0.013 A 
ATOM     19  C   UNK d   0     -19.107 -12.439 -12.615  0.00  0.00     0.067 A 
ATOM     20  N   UNK d   0     -18.191 -11.569 -12.184  0.00  0.00    -0.248 NA
ATOM     21  C   UNK d   0     -19.023 -13.609 -11.757  0.00  0.00    -0.011 A 
ATOM     22  C   UNK d   0     -17.513 -12.085 -11.107  0.00  0.00     0.066 A 
ATOM     23  C   UNK d   0     -16.552 -11.266 -10.533  0.00  0.00     0.062 C 
ATOM     24  C   UNK d   0     -18.086 -13.397 -10.879  0.00  0.00    -0.020 A 
ATOM     25  C   UNK d   0     -16.248  -9.935 -10.860  0.00  0.00     0.041 A 
ATOM     26  N   UNK d   0     -16.166  -9.308 -12.040  0.00  0.00    -0.355 N 
ATOM     27  C   UNK d   0     -15.987  -9.025  -9.813  0.00  0.00    -0.022 A 
ATOM     28  C   UNK d   0     -15.865  -8.026 -11.780  0.00  0.00     0.042 A 
ATOM     29  H   UNK d   0     -16.294  -9.771 -13.049  0.00  0.00     0.166 HD
ATOM     30  C   UNK d   0     -15.667  -6.932 -12.638  0.00  0.00     0.062 C 
ATOM     31  C   UNK d   0     -15.744  -7.815 -10.386  0.00  0.00    -0.013 A 
ATOM     32  C   UNK d   0     -16.375  -6.606 -13.783  0.00  0.00     0.066 A 
BRANCH   8  33
ATOM     33  C   UNK d   0     -17.609  -4.855 -16.772  0.00  0.00     0.151 C 
BRANCH  33  34
ATOM     34  C   UNK d   0     -16.923  -5.265 -18.011  0.00  0.00     0.143 C 
ATOM     35  O   UNK d   0     -17.494  -5.191 -19.108  0.00  0.00    -0.650 OA
BRANCH  34  36
ATOM     36  O   UNK d   0     -15.633  -5.737 -17.945  0.00  0.00    -0.776 OA
ATOM     37  H   UNK d   0     -14.878  -5.173 -17.532  0.00  0.00     0.167 HD
ENDBRANCH  34  36
ENDBRANCH  33  34
ENDBRANCH   8  33
BRANCH  31  38
ATOM     38  C   UNK d   0     -15.429  -6.530  -9.656  0.00  0.00     0.151 C 
BRANCH  38  39
ATOM     39  C   UNK d   0     -14.008  -6.261  -9.580  0.00  0.00     0.143 C 
ATOM     40  O   UNK d   0     -13.544  -5.110  -9.651  0.00  0.00    -0.650 OA
BRANCH  39  41
ATOM     41  O   UNK d   0     -13.117  -7.322  -9.420  0.00  0.00    -0.776 OA
ATOM     42  H   UNK d   0     -13.402  -8.072  -8.782  0.00  0.00     0.167 HD
ENDBRANCH  39  41
ENDBRANCH  38  39
ENDBRANCH  31  38
BRANCH  27  43
ATOM     43  C   UNK d   0     -15.958  -9.260  -8.324  0.00  0.00     0.052 C 
BRANCH  43  44
ATOM     44  C   UNK d   0     -16.950  -8.430  -7.575  0.00  0.00     0.115 C 
BRANCH  44  45
ATOM     45  C   UNK d   0     -18.069  -9.336  -7.207  0.00  0.00     0.139 C 
ATOM     46  O   UNK d   0     -17.831 -10.566  -7.121  0.00  0.00    -0.650 OA
BRANCH  45  47
ATOM     47  O   UNK d   0     -19.345  -8.882  -6.953  0.00  0.00    -0.776 OA
ATOM     48  H   UNK d   0     -20.070  -9.467  -6.507  0.00  0.00     0.167 HD
ENDBRANCH  45  47
ENDBRANCH  44  45
ENDBRANCH  43  44
ENDBRANCH  27  43
BRANCH  24  49
ATOM     49  C   UNK d   0     -17.692 -14.310  -9.792  0.00  0.00     0.052 C 
BRANCH  49  50
ATOM     50  C   UNK d   0     -16.473 -15.103 -10.188  0.00  0.00     0.115 C 
BRANCH  50  51
ATOM     51  C   UNK d   0     -16.483 -16.529  -9.892  0.00  0.00     0.139 C 
ATOM     52  O   UNK d   0     -17.505 -17.242 -10.032  0.00  0.00    -0.650 OA
BRANCH  51  53
ATOM     53  O   UNK d   0     -15.328 -17.143  -9.433  0.00  0.00    -0.776 OA
ATOM     54  H   UNK d   0     -14.734 -16.629  -8.806  0.00  0.00     0.167 HD
ENDBRANCH  51  53
ENDBRANCH  50  51
ENDBRANCH  49  50
ENDBRANCH  24  49
BRANCH  21  55
ATOM     55  C   UNK d   0     -19.892 -14.814 -11.901  0.00  0.00     0.151 C 
BRANCH  55  56
ATOM     56  C   UNK d   0     -21.162 -14.669 -11.171  0.00  0.00     0.143 C 
ATOM     57  O   UNK d   0     -22.230 -14.356 -11.732  0.00  0.00    -0.650 OA
BRANCH  56  58
ATOM     58  O   UNK d   0     -21.150 -14.895  -9.796  0.00  0.00    -0.776 OA
ATOM     59  H   UNK d   0     -21.188 -14.040  -9.213  0.00  0.00     0.167 HD
ENDBRANCH  56  58
ENDBRANCH  55  56
ENDBRANCH  21  55
BRANCH  18  60
ATOM     60  C   UNK d   0     -20.117 -12.449 -16.714  0.00  0.00     0.151 C 
BRANCH  60  61
ATOM     61  C   UNK d   0     -18.821 -13.078 -17.009  0.00  0.00     0.143 C 
ATOM     62  O   UNK d   0     -17.714 -12.723 -16.601  0.00  0.00    -0.650 OA
BRANCH  61  63
ATOM     63  O   UNK d   0     -18.879 -14.211 -17.855  0.00  0.00    -0.776 OA
ATOM     64  H   UNK d   0     -18.170 -14.922 -17.818  0.00  0.00     0.167 HD
ENDBRANCH  61  63
ENDBRANCH  60  61
ENDBRANCH  18  60
BRANCH  14  65
ATOM     65  C   UNK d   0     -19.724  -9.736 -18.015  0.00  0.00     0.052 C 
BRANCH  65  66
ATOM     66  C   UNK d   0     -18.465  -9.977 -18.770  0.00  0.00     0.115 C 
BRANCH  66  67
ATOM     67  C   UNK d   0     -17.600  -8.874 -19.081  0.00  0.00     0.139 C 
ATOM     68  O   UNK d   0     -16.685  -8.554 -18.235  0.00  0.00    -0.650 OA
BRANCH  67  69
ATOM     69  O   UNK d   0     -17.617  -8.070 -20.220  0.00  0.00    -0.776 OA
ATOM     70  H   UNK d   0     -18.286  -8.347 -20.953  0.00  0.00     0.167 HD
ENDBRANCH  67  69
ENDBRANCH  66  67
ENDBRANCH  65  66
ENDBRANCH  14  65
ENDBRANCH   6   7
ENDBRANCH   5   6
ENDBRANCH   2   5
TORSDOF 28
ENDMDL
MODEL 11
REMARK VINA RESULT:      -8.6      2.097      9.189
REMARK  28 active torsions:
REMARK  status: ('A' for Active; 'I' for Inactive)
REMARK    1  A    between atoms: C_2  and  O_3 
REMARK    2  A    between atoms: C_2  and  C_4 
REMARK    3  A    between atoms: C_4  and  C_5 
REMARK    4  A    between atoms: C_5  and  C_6 
REMARK    5  A    between atoms: C_7  and  C_8 
REMARK    6  A    between atoms: C_8  and  C_9 
REMARK    7  A    between atoms: C_9  and  O_11 
REMARK    8  A    between atoms: C_28  and  C_29 
REMARK    9  A    between atoms: C_29  and  C_30 
REMARK   10  A    between atoms: C_30  and  O_32 
REMARK   11  A    between atoms: C_33  and  C_34 
REMARK   12  A    between atoms: C_34  and  C_35 
REMARK   13  A    between atoms: C_35  and  C_36 
REMARK   14  A    between atoms: C_36  and  O_38 
REMARK   15  A    between atoms: C_39  and  C_40 
REMARK   16  A    between atoms: C_40  and  C_41 
REMARK   17  A    between atoms: C_41  and  C_42 
REMARK   18  A    between atoms: C_42  and  O_44 
REMARK   19  A    between atoms: C_45  and  C_46 
REMARK   20  A    between atoms: C_46  and  C_47 
REMARK   21  A    between atoms: C_47  and  O_49 
REMARK   22  A    between atoms: C_50  and  C_51 
REMARK   23  A    between atoms: C_51  and  C_52 
REMARK   24  A    between atoms: C_52  and  O_54 
REMARK   25  A    between atoms: C_55  and  C_56 
REMARK   26  A    between atoms: C_56  and  C_57 
REMARK   27  A    between atoms: C_57  and  C_58 
REMARK   28  A    between atoms: C_58  and  O_60 
ROOT
ATOM      1  O   UNK d   0     -14.173  -6.064 -10.113  0.00  0.00    -0.650 OA
ATOM      2  C   UNK d   0     -13.903  -7.182  -9.621  0.00  0.00     0.139 C 
ENDROOT
BRANCH   2   3
ATOM      3  O   UNK d   0     -13.110  -8.055 -10.328  0.00  0.00    -0.776 OA
ATOM      4  H   UNK d   0     -12.126  -8.188 -10.085  0.00  0.00     0.167 HD
ENDBRANCH   2   3
BRANCH   2   5
ATOM      5  C   UNK d   0     -14.439  -7.561  -8.283  0.00  0.00     0.115 C 
BRANCH   5   6
ATOM      6  C   UNK d   0     -15.935  -7.702  -8.346  0.00  0.00     0.052 C 
BRANCH   6   7
ATOM      7  C   UNK d   0     -16.375  -8.821  -9.260  0.00  0.00    -0.020 A 
ATOM      8  C   UNK d   0     -16.364 -10.106  -9.011  0.00  0.00    -0.011 A 
ATOM      9  C   UNK d   0     -16.870 -10.791 -10.189  0.00  0.00     0.067 A 
ATOM     10  C   UNK d   0     -17.124 -12.122 -10.556  0.00  0.00     0.062 C 
ATOM     11  N   UNK d   0     -17.159  -9.846 -11.109  0.00  0.00    -0.248 NA
ATOM     12  C   UNK d   0     -17.879 -12.571 -11.644  0.00  0.00     0.041 A 
ATOM     13  N   UNK d   0     -17.928 -12.152 -12.923  0.00  0.00    -0.355 N 
ATOM     14  C   UNK d   0     -18.814 -13.603 -11.444  0.00  0.00    -0.022 A 
ATOM     15  C   UNK d   0     -18.876 -12.886 -13.537  0.00  0.00     0.042 A 
ATOM     16  H   UNK d   0     -17.292 -11.367 -13.387  0.00  0.00     0.166 HD
ATOM     17  C   UNK d   0     -19.330 -12.859 -14.870  0.00  0.00     0.062 C 
ATOM     18  C   UNK d   0     -19.454 -13.806 -12.641  0.00  0.00    -0.013 A 
ATOM     19  C   UNK d   0     -19.633 -11.777 -15.657  0.00  0.00     0.067 A 
ATOM     20  N   UNK d   0     -19.275 -10.575 -15.196  0.00  0.00    -0.248 NA
ATOM     21  C   UNK d   0     -20.293 -11.566 -16.934  0.00  0.00    -0.011 A 
ATOM     22  C   UNK d   0     -19.655  -9.594 -16.079  0.00  0.00     0.066 A 
ATOM     23  C   UNK d   0     -19.310  -8.294 -15.740  0.00  0.00     0.062 C 
ATOM     24  C   UNK d   0     -20.306 -10.286 -17.173  0.00  0.00    -0.020 A 
ATOM     25  C   UNK d   0     -18.540  -7.864 -14.649  0.00  0.00     0.041 A 
ATOM     26  N   UNK d   0     -18.501  -8.271 -13.374  0.00  0.00    -0.355 N 
ATOM     27  C   UNK d   0     -17.598  -6.832 -14.852  0.00  0.00    -0.022 A 
ATOM     28  C   UNK d   0     -17.563  -7.535 -12.758  0.00  0.00     0.042 A 
ATOM     29  H   UNK d   0     -19.149  -9.053 -12.907  0.00  0.00     0.166 HD
ATOM     30  C   UNK d   0     -17.108  -7.544 -11.430  0.00  0.00     0.062 C 
ATOM     31  C   UNK d   0     -16.975  -6.617 -13.661  0.00  0.00    -0.013 A 
ATOM     32  C   UNK d   0     -16.885  -8.640 -10.611  0.00  0.00     0.066 A 
BRANCH   8  33
ATOM     33  C   UNK d   0     -15.917 -10.763  -7.769  0.00  0.00     0.151 C 
BRANCH  33  34
ATOM     34  C   UNK d   0     -17.027 -11.380  -7.020  0.00  0.00     0.143 C 
ATOM     35  O   UNK d   0     -18.055 -10.739  -6.763  0.00  0.00    -0.650 OA
BRANCH  34  36
ATOM     36  O   UNK d   0     -16.915 -12.686  -6.601  0.00  0.00    -0.776 OA
ATOM     37  H   UNK d   0     -17.407 -13.447  -7.088  0.00  0.00     0.167 HD
ENDBRANCH  34  36
ENDBRANCH  33  34
ENDBRANCH   8  33
BRANCH  31  38
ATOM     38  C   UNK d   0     -15.879  -5.612 -13.396  0.00  0.00     0.151 C 
BRANCH  38  39
ATOM     39  C   UNK d   0     -14.572  -6.089 -13.795  0.00  0.00     0.143 C 
ATOM     40  O   UNK d   0     -13.983  -5.654 -14.800  0.00  0.00    -0.650 OA
BRANCH  39  41
ATOM     41  O   UNK d   0     -13.938  -7.071 -13.034  0.00  0.00    -0.776 OA
ATOM     42  H   UNK d   0     -14.330  -7.261 -12.107  0.00  0.00     0.167 HD
ENDBRANCH  39  41
ENDBRANCH  38  39
ENDBRANCH  31  38
BRANCH  27  43
ATOM     43  C   UNK d   0     -17.279  -6.059 -16.107  0.00  0.00     0.052 C 
BRANCH  43  44
ATOM     44  C   UNK d   0     -17.830  -4.670 -16.103  0.00  0.00     0.115 C 
BRANCH  44  45
ATOM     45  C   UNK d   0     -16.668  -3.752 -16.228  0.00  0.00     0.139 C 
ATOM     46  O   UNK d   0     -16.707  -2.661 -15.607  0.00  0.00    -0.650 OA
BRANCH  45  47
ATOM     47  O   UNK d   0     -15.558  -4.051 -16.988  0.00  0.00    -0.776 OA
ATOM     48  H   UNK d   0     -14.922  -4.834 -16.767  0.00  0.00     0.167 HD
ENDBRANCH  45  47
ENDBRANCH  44  45
ENDBRANCH  43  44
ENDBRANCH  27  43
BRANCH  24  49
ATOM     49  C   UNK d   0     -20.846  -9.633 -18.379  0.00  0.00     0.052 C 
BRANCH  49  50
ATOM     50  C   UNK d   0     -19.919  -9.845 -19.548  0.00  0.00     0.115 C 
BRANCH  50  51
ATOM     51  C   UNK d   0     -18.531  -9.435 -19.380  0.00  0.00     0.139 C 
ATOM     52  O   UNK d   0     -18.201  -8.252 -19.130  0.00  0.00    -0.650 OA
BRANCH  51  53
ATOM     53  O   UNK d   0     -17.519 -10.375 -19.498  0.00  0.00    -0.776 OA
ATOM     54  H   UNK d   0     -17.670 -11.162 -20.104  0.00  0.00     0.167 HD
ENDBRANCH  51  53
ENDBRANCH  50  51
ENDBRANCH  49  50
ENDBRANCH  24  49
BRANCH  21  55
ATOM     55  C   UNK d   0     -20.838 -12.665 -17.784  0.00  0.00     0.151 C 
BRANCH  55  56
ATOM     56  C   UNK d   0     -19.769 -13.481 -18.382  0.00  0.00     0.143 C 
ATOM     57  O   UNK d   0     -18.911 -13.009 -19.153  0.00  0.00    -0.650 OA
BRANCH  56  58
ATOM     58  O   UNK d   0     -19.731 -14.837 -18.061  0.00  0.00    -0.776 OA
ATOM     59  H   UNK d   0     -20.655 -15.265 -17.867  0.00  0.00     0.167 HD
ENDBRANCH  56  58
ENDBRANCH  55  56
ENDBRANCH  21  55
BRANCH  18  60
ATOM     60  C   UNK d   0     -20.545 -14.821 -12.877  0.00  0.00     0.151 C 
BRANCH  60  61
ATOM     61  C   UNK d   0     -21.810 -14.127 -12.592  0.00  0.00     0.143 C 
ATOM     62  O   UNK d   0     -22.397 -13.326 -13.320  0.00  0.00    -0.650 OA
BRANCH  61  63
ATOM     63  O   UNK d   0     -22.395 -14.432 -11.340  0.00  0.00    -0.776 OA
ATOM     64  H   UNK d   0     -22.549 -13.716 -10.651  0.00  0.00     0.167 HD
ENDBRANCH  61  63
ENDBRANCH  60  61
ENDBRANCH  18  60
BRANCH  14  65
ATOM     65  C   UNK d   0     -19.077 -14.469 -10.245  0.00  0.00     0.052 C 
BRANCH  65  66
ATOM     66  C   UNK d   0     -18.075 -15.556 -10.081  0.00  0.00     0.115 C 
BRANCH  66  67
ATOM     67  C   UNK d   0     -17.096 -15.470  -9.034  0.00  0.00     0.139 C 
ATOM     68  O   UNK d   0     -17.499 -15.243  -7.834  0.00  0.00    -0.650 OA
BRANCH  67  69
ATOM     69  O   UNK d   0     -15.712 -15.603  -9.147  0.00  0.00    -0.776 OA
ATOM     70  H   UNK d   0     -15.202 -14.754  -9.430  0.00  0.00     0.167 HD
ENDBRANCH  67  69
ENDBRANCH  66  67
ENDBRANCH  65  66
ENDBRANCH  14  65
ENDBRANCH   6   7
ENDBRANCH   5   6
ENDBRANCH   2   5
TORSDOF 28
ENDMDL
MODEL 12
REMARK VINA RESULT:      -8.6      2.081      8.686
REMARK  28 active torsions:
REMARK  status: ('A' for Active; 'I' for Inactive)
REMARK    1  A    between atoms: C_2  and  O_3 
REMARK    2  A    between atoms: C_2  and  C_4 
REMARK    3  A    between atoms: C_4  and  C_5 
REMARK    4  A    between atoms: C_5  and  C_6 
REMARK    5  A    between atoms: C_7  and  C_8 
REMARK    6  A    between atoms: C_8  and  C_9 
REMARK    7  A    between atoms: C_9  and  O_11 
REMARK    8  A    between atoms: C_28  and  C_29 
REMARK    9  A    between atoms: C_29  and  C_30 
REMARK   10  A    between atoms: C_30  and  O_32 
REMARK   11  A    between atoms: C_33  and  C_34 
REMARK   12  A    between atoms: C_34  and  C_35 
REMARK   13  A    between atoms: C_35  and  C_36 
REMARK   14  A    between atoms: C_36  and  O_38 
REMARK   15  A    between atoms: C_39  and  C_40 
REMARK   16  A    between atoms: C_40  and  C_41 
REMARK   17  A    between atoms: C_41  and  C_42 
REMARK   18  A    between atoms: C_42  and  O_44 
REMARK   19  A    between atoms: C_45  and  C_46 
REMARK   20  A    between atoms: C_46  and  C_47 
REMARK   21  A    between atoms: C_47  and  O_49 
REMARK   22  A    between atoms: C_50  and  C_51 
REMARK   23  A    between atoms: C_51  and  C_52 
REMARK   24  A    between atoms: C_52  and  O_54 
REMARK   25  A    between atoms: C_55  and  C_56 
REMARK   26  A    between atoms: C_56  and  C_57 
REMARK   27  A    between atoms: C_57  and  C_58 
REMARK   28  A    between atoms: C_58  and  O_60 
ROOT
ATOM      1  O   UNK d   0     -19.460 -14.552  -9.793  0.00  0.00    -0.650 OA
ATOM      2  C   UNK d   0     -18.536 -14.516 -10.636  0.00  0.00     0.139 C 
ENDROOT
BRANCH   2   3
ATOM      3  O   UNK d   0     -17.585 -15.508 -10.636  0.00  0.00    -0.776 OA
ATOM      4  H   UNK d   0     -16.610 -15.304 -10.863  0.00  0.00     0.167 HD
ENDBRANCH   2   3
BRANCH   2   5
ATOM      5  C   UNK d   0     -18.470 -13.405 -11.628  0.00  0.00     0.115 C 
BRANCH   5   6
ATOM      6  C   UNK d   0     -17.109 -12.765 -11.598  0.00  0.00     0.052 C 
BRANCH   6   7
ATOM      7  C   UNK d   0     -17.109 -11.374 -12.186  0.00  0.00    -0.020 A 
ATOM      8  C   UNK d   0     -16.987 -10.238 -11.548  0.00  0.00    -0.011 A 
ATOM      9  C   UNK d   0     -17.053  -9.167 -12.528  0.00  0.00     0.067 A 
ATOM     10  C   UNK d   0     -16.970  -7.766 -12.505  0.00  0.00     0.062 C 
ATOM     11  N   UNK d   0     -17.222  -9.742 -13.738  0.00  0.00    -0.248 NA
ATOM     12  C   UNK d   0     -16.776  -6.911 -13.596  0.00  0.00     0.041 A 
ATOM     13  N   UNK d   0     -17.313  -6.914 -14.831  0.00  0.00    -0.355 N 
ATOM     14  C   UNK d   0     -15.834  -5.872 -13.486  0.00  0.00    -0.022 A 
ATOM     15  C   UNK d   0     -16.730  -5.908 -15.510  0.00  0.00     0.042 A 
ATOM     16  H   UNK d   0     -18.102  -7.601 -15.208  0.00  0.00     0.166 HD
ATOM     17  C   UNK d   0     -16.923  -5.469 -16.835  0.00  0.00     0.062 C 
ATOM     18  C   UNK d   0     -15.797  -5.232 -14.700  0.00  0.00    -0.013 A 
ATOM     19  C   UNK d   0     -17.022  -6.212 -17.984  0.00  0.00     0.067 A 
ATOM     20  N   UNK d   0     -17.154  -7.533 -17.840  0.00  0.00    -0.248 NA
ATOM     21  C   UNK d   0     -17.009  -5.936 -19.411  0.00  0.00    -0.011 A 
ATOM     22  C   UNK d   0     -17.226  -8.141 -19.070  0.00  0.00     0.066 A 
ATOM     23  C   UNK d   0     -17.402  -9.517 -19.067  0.00  0.00     0.062 C 
ATOM     24  C   UNK d   0     -17.124  -7.070 -20.041  0.00  0.00    -0.020 A 
ATOM     25  C   UNK d   0     -17.608 -10.356 -17.961  0.00  0.00     0.041 A 
ATOM     26  N   UNK d   0     -17.063 -10.363 -16.739  0.00  0.00    -0.355 N 
ATOM     27  C   UNK d   0     -18.556 -11.397 -18.070  0.00  0.00    -0.022 A 
ATOM     28  C   UNK d   0     -17.636 -11.370 -16.062  0.00  0.00     0.042 A 
ATOM     29  H   UNK d   0     -16.263  -9.679 -16.364  0.00  0.00     0.166 HD
ATOM     30  C   UNK d   0     -17.448 -11.824 -14.747  0.00  0.00     0.062 C 
ATOM     31  C   UNK d   0     -18.581 -12.043 -16.873  0.00  0.00    -0.013 A 
ATOM     32  C   UNK d   0     -17.262 -11.068 -13.600  0.00  0.00     0.066 A 
BRANCH   8  33
ATOM     33  C   UNK d   0     -16.818 -10.053 -10.094  0.00  0.00     0.151 C 
BRANCH  33  34
ATOM     34  C   UNK d   0     -15.698  -9.156  -9.760  0.00  0.00     0.143 C 
ATOM     35  O   UNK d   0     -15.883  -8.128  -9.093  0.00  0.00    -0.650 OA
BRANCH  34  36
ATOM     36  O   UNK d   0     -14.431  -9.465 -10.197  0.00  0.00    -0.776 OA
ATOM     37  H   UNK d   0     -13.606  -9.295  -9.606  0.00  0.00     0.167 HD
ENDBRANCH  34  36
ENDBRANCH  33  34
ENDBRANCH   8  33
BRANCH  31  38
ATOM     38  C   UNK d   0     -19.458 -13.219 -16.513  0.00  0.00     0.151 C 
BRANCH  38  39
ATOM     39  C   UNK d   0     -20.771 -12.821 -16.051  0.00  0.00     0.143 C 
ATOM     40  O   UNK d   0     -21.017 -11.666 -15.661  0.00  0.00    -0.650 OA
BRANCH  39  41
ATOM     41  O   UNK d   0     -21.806 -13.755 -16.038  0.00  0.00    -0.776 OA
ATOM     42  H   UNK d   0     -21.786 -14.477 -16.766  0.00  0.00     0.167 HD
ENDBRANCH  39  41
ENDBRANCH  38  39
ENDBRANCH  31  38
BRANCH  27  43
ATOM     43  C   UNK d   0     -19.417 -11.790 -19.245  0.00  0.00     0.052 C 
BRANCH  43  44
ATOM     44  C   UNK d   0     -19.367 -13.251 -19.551  0.00  0.00     0.115 C 
BRANCH  44  45
ATOM     45  C   UNK d   0     -18.411 -13.417 -20.677  0.00  0.00     0.139 C 
ATOM     46  O   UNK d   0     -18.596 -14.368 -21.475  0.00  0.00    -0.650 OA
BRANCH  45  47
ATOM     47  O   UNK d   0     -17.343 -12.571 -20.880  0.00  0.00    -0.776 OA
ATOM     48  H   UNK d   0     -16.834 -12.114 -20.106  0.00  0.00     0.167 HD
ENDBRANCH  45  47
ENDBRANCH  44  45
ENDBRANCH  43  44
ENDBRANCH  27  43
BRANCH  24  49
ATOM     49  C   UNK d   0     -17.193  -7.249 -21.501  0.00  0.00     0.052 C 
BRANCH  49  50
ATOM     50  C   UNK d   0     -18.605  -7.047 -21.988  0.00  0.00     0.115 C 
BRANCH  50  51
ATOM     51  C   UNK d   0     -18.783  -6.728 -23.398  0.00  0.00     0.139 C 
ATOM     52  O   UNK d   0     -18.473  -7.524 -24.316  0.00  0.00    -0.650 OA
BRANCH  51  53
ATOM     53  O   UNK d   0     -19.313  -5.499 -23.762  0.00  0.00    -0.776 OA
ATOM     54  H   UNK d   0     -19.741  -5.416 -24.667  0.00  0.00     0.167 HD
ENDBRANCH  51  53
ENDBRANCH  50  51
ENDBRANCH  49  50
ENDBRANCH  24  49
BRANCH  21  55
ATOM     55  C   UNK d   0     -16.886  -4.568 -19.996  0.00  0.00     0.151 C 
BRANCH  55  56
ATOM     56  C   UNK d   0     -18.167  -3.845 -19.980  0.00  0.00     0.143 C 
ATOM     57  O   UNK d   0     -18.491  -3.064 -19.064  0.00  0.00    -0.650 OA
BRANCH  56  58
ATOM     58  O   UNK d   0     -19.044  -4.055 -21.044  0.00  0.00    -0.776 OA
ATOM     59  H   UNK d   0     -19.090  -3.280 -21.730  0.00  0.00     0.167 HD
ENDBRANCH  56  58
ENDBRANCH  55  56
ENDBRANCH  21  55
BRANCH  18  60
ATOM     60  C   UNK d   0     -14.912  -4.056 -15.031  0.00  0.00     0.151 C 
BRANCH  60  61
ATOM     61  C   UNK d   0     -15.618  -2.866 -14.530  0.00  0.00     0.143 C 
ATOM     62  O   UNK d   0     -15.396  -2.257 -13.484  0.00  0.00    -0.650 OA
BRANCH  61  63
ATOM     63  O   UNK d   0     -16.662  -2.391 -15.360  0.00  0.00    -0.776 OA
ATOM     64  H   UNK d   0     -17.625  -2.528 -15.112  0.00  0.00     0.167 HD
ENDBRANCH  61  63
ENDBRANCH  60  61
ENDBRANCH  18  60
BRANCH  14  65
ATOM     65  C   UNK d   0     -15.048  -5.381 -12.304  0.00  0.00     0.052 C 
BRANCH  65  66
ATOM     66  C   UNK d   0     -14.020  -6.353 -11.845  0.00  0.00     0.115 C 
BRANCH  66  67
ATOM     67  C   UNK d   0     -13.294  -7.130 -12.810  0.00  0.00     0.139 C 
ATOM     68  O   UNK d   0     -13.458  -8.405 -12.821  0.00  0.00    -0.650 OA
BRANCH  67  69
ATOM     69  O   UNK d   0     -12.399  -6.671 -13.776  0.00  0.00    -0.776 OA
ATOM     70  H   UNK d   0     -12.809  -6.433 -14.690  0.00  0.00     0.167 HD
ENDBRANCH  67  69
ENDBRANCH  66  67
ENDBRANCH  65  66
ENDBRANCH  14  65
ENDBRANCH   6   7
ENDBRANCH   5   6
ENDBRANCH   2   5
TORSDOF 28
ENDMDL
MODEL 13
REMARK VINA RESULT:      -8.6      2.553     10.447
REMARK  28 active torsions:
REMARK  status: ('A' for Active; 'I' for Inactive)
REMARK    1  A    between atoms: C_2  and  O_3 
REMARK    2  A    between atoms: C_2  and  C_4 
REMARK    3  A    between atoms: C_4  and  C_5 
REMARK    4  A    between atoms: C_5  and  C_6 
REMARK    5  A    between atoms: C_7  and  C_8 
REMARK    6  A    between atoms: C_8  and  C_9 
REMARK    7  A    between atoms: C_9  and  O_11 
REMARK    8  A    between atoms: C_28  and  C_29 
REMARK    9  A    between atoms: C_29  and  C_30 
REMARK   10  A    between atoms: C_30  and  O_32 
REMARK   11  A    between atoms: C_33  and  C_34 
REMARK   12  A    between atoms: C_34  and  C_35 
REMARK   13  A    between atoms: C_35  and  C_36 
REMARK   14  A    between atoms: C_36  and  O_38 
REMARK   15  A    between atoms: C_39  and  C_40 
REMARK   16  A    between atoms: C_40  and  C_41 
REMARK   17  A    between atoms: C_41  and  C_42 
REMARK   18  A    between atoms: C_42  and  O_44 
REMARK   19  A    between atoms: C_45  and  C_46 
REMARK   20  A    between atoms: C_46  and  C_47 
REMARK   21  A    between atoms: C_47  and  O_49 
REMARK   22  A    between atoms: C_50  and  C_51 
REMARK   23  A    between atoms: C_51  and  C_52 
REMARK   24  A    between atoms: C_52  and  O_54 
REMARK   25  A    between atoms: C_55  and  C_56 
REMARK   26  A    between atoms: C_56  and  C_57 
REMARK   27  A    between atoms: C_57  and  C_58 
REMARK   28  A    between atoms: C_58  and  O_60 
ROOT
ATOM      1  O   UNK d   0     -16.011  -7.027  -6.034  0.00  0.00    -0.650 OA
ATOM      2  C   UNK d   0     -14.912  -7.624  -5.999  0.00  0.00     0.139 C 
ENDROOT
BRANCH   2   3
ATOM      3  O   UNK d   0     -13.778  -6.929  -5.653  0.00  0.00    -0.776 OA
ATOM      4  H   UNK d   0     -13.222  -7.199  -4.839  0.00  0.00     0.167 HD
ENDBRANCH   2   3
BRANCH   2   5
ATOM      5  C   UNK d   0     -14.838  -9.075  -6.332  0.00  0.00     0.115 C 
BRANCH   5   6
ATOM      6  C   UNK d   0     -16.214  -9.682  -6.311  0.00  0.00     0.052 C 
BRANCH   6   7
ATOM      7  C   UNK d   0     -16.552 -10.401  -7.594  0.00  0.00    -0.020 A 
ATOM      8  C   UNK d   0     -16.813 -11.674  -7.751  0.00  0.00    -0.011 A 
ATOM      9  C   UNK d   0     -17.071 -11.905  -9.163  0.00  0.00     0.067 A 
ATOM     10  C   UNK d   0     -17.419 -13.005  -9.962  0.00  0.00     0.062 C 
ATOM     11  N   UNK d   0     -16.941 -10.719  -9.793  0.00  0.00    -0.248 NA
ATOM     12  C   UNK d   0     -17.902 -12.980 -11.274  0.00  0.00     0.041 A 
ATOM     13  N   UNK d   0     -17.526 -12.252 -12.343  0.00  0.00    -0.355 N 
ATOM     14  C   UNK d   0     -19.006 -13.785 -11.609  0.00  0.00    -0.022 A 
ATOM     15  C   UNK d   0     -18.368 -12.569 -13.345  0.00  0.00     0.042 A 
ATOM     16  H   UNK d   0     -16.671 -11.543 -12.394  0.00  0.00     0.166 HD
ATOM     17  C   UNK d   0     -18.423 -12.103 -14.674  0.00  0.00     0.062 C 
ATOM     18  C   UNK d   0     -19.310 -13.527 -12.923  0.00  0.00    -0.013 A 
ATOM     19  C   UNK d   0     -18.321 -10.818 -15.142  0.00  0.00     0.067 A 
ATOM     20  N   UNK d   0     -17.921  -9.887 -14.272  0.00  0.00    -0.248 NA
ATOM     21  C   UNK d   0     -18.557 -10.146 -16.409  0.00  0.00    -0.011 A 
ATOM     22  C   UNK d   0     -17.881  -8.655 -14.877  0.00  0.00     0.066 A 
ATOM     23  C   UNK d   0     -17.444  -7.598 -14.093  0.00  0.00     0.062 C 
ATOM     24  C   UNK d   0     -18.302  -8.880 -16.246  0.00  0.00    -0.020 A 
ATOM     25  C   UNK d   0     -16.951  -7.646 -12.780  0.00  0.00     0.041 A 
ATOM     26  N   UNK d   0     -17.334  -8.358 -11.714  0.00  0.00    -0.355 N 
ATOM     27  C   UNK d   0     -15.840  -6.841 -12.446  0.00  0.00    -0.022 A 
ATOM     28  C   UNK d   0     -16.501  -8.037 -10.711  0.00  0.00     0.042 A 
ATOM     29  H   UNK d   0     -18.201  -9.062 -11.661  0.00  0.00     0.166 HD
ATOM     30  C   UNK d   0     -16.441  -8.486  -9.382  0.00  0.00     0.062 C 
ATOM     31  C   UNK d   0     -15.549  -7.083 -11.139  0.00  0.00    -0.013 A 
ATOM     32  C   UNK d   0     -16.630  -9.773  -8.905  0.00  0.00     0.066 A 
BRANCH   8  33
ATOM     33  C   UNK d   0     -16.839 -12.708  -6.700  0.00  0.00     0.151 C 
BRANCH  33  34
ATOM     34  C   UNK d   0     -16.949 -14.073  -7.245  0.00  0.00     0.143 C 
ATOM     35  O   UNK d   0     -15.939 -14.710  -7.575  0.00  0.00    -0.650 OA
BRANCH  34  36
ATOM     36  O   UNK d   0     -18.192 -14.645  -7.389  0.00  0.00    -0.776 OA
ATOM     37  H   UNK d   0     -18.974 -14.125  -7.811  0.00  0.00     0.167 HD
ENDBRANCH  34  36
ENDBRANCH  33  34
ENDBRANCH   8  33
BRANCH  31  38
ATOM     38  C   UNK d   0     -14.426  -6.457 -10.346  0.00  0.00     0.151 C 
BRANCH  38  39
ATOM     39  C   UNK d   0     -13.178  -7.181 -10.471  0.00  0.00     0.143 C 
ATOM     40  O   UNK d   0     -12.072  -6.621 -10.376  0.00  0.00    -0.650 OA
BRANCH  39  41
ATOM     41  O   UNK d   0     -13.203  -8.555 -10.705  0.00  0.00    -0.776 OA
ATOM     42  H   UNK d   0     -12.857  -8.874 -11.616  0.00  0.00     0.167 HD
ENDBRANCH  39  41
ENDBRANCH  38  39
ENDBRANCH  31  38
BRANCH  27  43
ATOM     43  C   UNK d   0     -15.067  -5.872 -13.305  0.00  0.00     0.052 C 
BRANCH  43  44
ATOM     44  C   UNK d   0     -14.399  -6.521 -14.474  0.00  0.00     0.115 C 
BRANCH  44  45
ATOM     45  C   UNK d   0     -13.218  -7.246 -13.940  0.00  0.00     0.139 C 
ATOM     46  O   UNK d   0     -13.291  -8.495 -13.827  0.00  0.00    -0.650 OA
BRANCH  45  47
ATOM     47  O   UNK d   0     -12.053  -6.608 -13.571  0.00  0.00    -0.776 OA
ATOM     48  H   UNK d   0     -11.294  -6.397 -14.240  0.00  0.00     0.167 HD
ENDBRANCH  45  47
ENDBRANCH  44  45
ENDBRANCH  43  44
ENDBRANCH  27  43
BRANCH  24  49
ATOM     49  C   UNK d   0     -18.375  -7.839 -17.285  0.00  0.00     0.052 C 
BRANCH  49  50
ATOM     50  C   UNK d   0     -17.060  -7.734 -18.015  0.00  0.00     0.115 C 
BRANCH  50  51
ATOM     51  C   UNK d   0     -17.114  -7.581 -19.463  0.00  0.00     0.139 C 
ATOM     52  O   UNK d   0     -16.304  -6.866 -20.098  0.00  0.00    -0.650 OA
BRANCH  51  53
ATOM     53  O   UNK d   0     -18.094  -8.243 -20.186  0.00  0.00    -0.776 OA
ATOM     54  H   UNK d   0     -18.562  -9.019 -19.753  0.00  0.00     0.167 HD
ENDBRANCH  51  53
ENDBRANCH  50  51
ENDBRANCH  49  50
ENDBRANCH  24  49
BRANCH  21  55
ATOM     55  C   UNK d   0     -19.009 -10.840 -17.651  0.00  0.00     0.151 C 
BRANCH  55  56
ATOM     56  C   UNK d   0     -17.876 -11.304 -18.467  0.00  0.00     0.143 C 
ATOM     57  O   UNK d   0     -16.899 -11.908 -17.984  0.00  0.00    -0.650 OA
BRANCH  56  58
ATOM     58  O   UNK d   0     -17.915 -11.047 -19.837  0.00  0.00    -0.776 OA
ATOM     59  H   UNK d   0     -17.074 -10.575 -20.216  0.00  0.00     0.167 HD
ENDBRANCH  56  58
ENDBRANCH  55  56
ENDBRANCH  21  55
BRANCH  18  60
ATOM     60  C   UNK d   0     -20.438 -14.170 -13.691  0.00  0.00     0.151 C 
BRANCH  60  61
ATOM     61  C   UNK d   0     -21.636 -13.369 -13.397  0.00  0.00     0.143 C 
ATOM     62  O   UNK d   0     -22.427 -13.531 -12.468  0.00  0.00    -0.650 OA
BRANCH  61  63
ATOM     63  O   UNK d   0     -21.883 -12.303 -14.295  0.00  0.00    -0.776 OA
ATOM     64  H   UNK d   0     -22.458 -12.432 -15.108  0.00  0.00     0.167 HD
ENDBRANCH  61  63
ENDBRANCH  60  61
ENDBRANCH  18  60
BRANCH  14  65
ATOM     65  C   UNK d   0     -19.726 -14.841 -10.819  0.00  0.00     0.052 C 
BRANCH  65  66
ATOM     66  C   UNK d   0     -19.352 -16.224 -11.220  0.00  0.00     0.115 C 
BRANCH  66  67
ATOM     67  C   UNK d   0     -18.143 -16.810 -10.713  0.00  0.00     0.139 C 
ATOM     68  O   UNK d   0     -17.578 -17.740 -11.398  0.00  0.00    -0.650 OA
BRANCH  67  69
ATOM     69  O   UNK d   0     -17.474 -16.497  -9.530  0.00  0.00    -0.776 OA
ATOM     70  H   UNK d   0     -16.478 -16.759  -9.496  0.00  0.00     0.167 HD
ENDBRANCH  67  69
ENDBRANCH  66  67
ENDBRANCH  65  66
ENDBRANCH  14  65
ENDBRANCH   6   7
ENDBRANCH   5   6
ENDBRANCH   2   5
TORSDOF 28
ENDMDL
MODEL 14
REMARK VINA RESULT:      -8.5      1.980      3.616
REMARK  28 active torsions:
REMARK  status: ('A' for Active; 'I' for Inactive)
REMARK    1  A    between atoms: C_2  and  O_3 
REMARK    2  A    between atoms: C_2  and  C_4 
REMARK    3  A    between atoms: C_4  and  C_5 
REMARK    4  A    between atoms: C_5  and  C_6 
REMARK    5  A    between atoms: C_7  and  C_8 
REMARK    6  A    between atoms: C_8  and  C_9 
REMARK    7  A    between atoms: C_9  and  O_11 
REMARK    8  A    between atoms: C_28  and  C_29 
REMARK    9  A    between atoms: C_29  and  C_30 
REMARK   10  A    between atoms: C_30  and  O_32 
REMARK   11  A    between atoms: C_33  and  C_34 
REMARK   12  A    between atoms: C_34  and  C_35 
REMARK   13  A    between atoms: C_35  and  C_36 
REMARK   14  A    between atoms: C_36  and  O_38 
REMARK   15  A    between atoms: C_39  and  C_40 
REMARK   16  A    between atoms: C_40  and  C_41 
REMARK   17  A    between atoms: C_41  and  C_42 
REMARK   18  A    between atoms: C_42  and  O_44 
REMARK   19  A    between atoms: C_45  and  C_46 
REMARK   20  A    between atoms: C_46  and  C_47 
REMARK   21  A    between atoms: C_47  and  O_49 
REMARK   22  A    between atoms: C_50  and  C_51 
REMARK   23  A    between atoms: C_51  and  C_52 
REMARK   24  A    between atoms: C_52  and  O_54 
REMARK   25  A    between atoms: C_55  and  C_56 
REMARK   26  A    between atoms: C_56  and  C_57 
REMARK   27  A    between atoms: C_57  and  C_58 
REMARK   28  A    between atoms: C_58  and  O_60 
ROOT
ATOM      1  O   UNK d   0     -19.464  -6.087 -24.447  0.00  0.00    -0.650 OA
ATOM      2  C   UNK d   0     -18.605  -5.747 -23.603  0.00  0.00     0.139 C 
ENDROOT
BRANCH   2   3
ATOM      3  O   UNK d   0     -18.204  -4.434 -23.542  0.00  0.00    -0.776 OA
ATOM      4  H   UNK d   0     -18.537  -3.815 -22.801  0.00  0.00     0.167 HD
ENDBRANCH   2   3
BRANCH   2   5
ATOM      5  C   UNK d   0     -18.026  -6.759 -22.676  0.00  0.00     0.115 C 
BRANCH   5   6
ATOM      6  C   UNK d   0     -18.932  -6.954 -21.491  0.00  0.00     0.052 C 
BRANCH   6   7
ATOM      7  C   UNK d   0     -18.174  -7.039 -20.187  0.00  0.00    -0.020 A 
ATOM      8  C   UNK d   0     -17.238  -6.234 -19.754  0.00  0.00    -0.011 A 
ATOM      9  C   UNK d   0     -16.799  -6.719 -18.456  0.00  0.00     0.067 A 
ATOM     10  C   UNK d   0     -15.872  -6.313 -17.484  0.00  0.00     0.062 C 
ATOM     11  N   UNK d   0     -17.517  -7.828 -18.179  0.00  0.00    -0.248 NA
ATOM     12  C   UNK d   0     -15.784  -6.756 -16.160  0.00  0.00     0.041 A 
ATOM     13  N   UNK d   0     -15.883  -7.990 -15.630  0.00  0.00    -0.355 N 
ATOM     14  C   UNK d   0     -15.616  -5.807 -15.135  0.00  0.00    -0.022 A 
ATOM     15  C   UNK d   0     -15.790  -7.847 -14.294  0.00  0.00     0.042 A 
ATOM     16  H   UNK d   0     -15.996  -8.944 -16.189  0.00  0.00     0.166 HD
ATOM     17  C   UNK d   0     -15.831  -8.812 -13.268  0.00  0.00     0.062 C 
ATOM     18  C   UNK d   0     -15.623  -6.493 -13.946  0.00  0.00    -0.013 A 
ATOM     19  C   UNK d   0     -16.688  -9.872 -13.114  0.00  0.00     0.067 A 
ATOM     20  N   UNK d   0     -17.471 -10.173 -14.153  0.00  0.00    -0.248 NA
ATOM     21  C   UNK d   0     -17.007 -10.812 -12.052  0.00  0.00    -0.011 A 
ATOM     22  C   UNK d   0     -18.280 -11.239 -13.847  0.00  0.00     0.066 A 
ATOM     23  C   UNK d   0     -19.122 -11.683 -14.856  0.00  0.00     0.062 C 
ATOM     24  C   UNK d   0     -17.942 -11.606 -12.486  0.00  0.00    -0.020 A 
ATOM     25  C   UNK d   0     -19.186 -11.233 -16.183  0.00  0.00     0.041 A 
ATOM     26  N   UNK d   0     -19.103 -10.005 -16.710  0.00  0.00    -0.355 N 
ATOM     27  C   UNK d   0     -19.350 -12.186 -17.212  0.00  0.00    -0.022 A 
ATOM     28  C   UNK d   0     -19.203 -10.143 -18.041  0.00  0.00     0.042 A 
ATOM     29  H   UNK d   0     -19.000  -9.046 -16.145  0.00  0.00     0.166 HD
ATOM     30  C   UNK d   0     -19.174  -9.192 -19.073  0.00  0.00     0.062 C 
ATOM     31  C   UNK d   0     -19.361 -11.506 -18.391  0.00  0.00    -0.013 A 
ATOM     32  C   UNK d   0     -18.363  -8.074 -19.181  0.00  0.00     0.066 A 
BRANCH   8  33
ATOM     33  C   UNK d   0     -16.705  -5.045 -20.444  0.00  0.00     0.151 C 
BRANCH  33  34
ATOM     34  C   UNK d   0     -17.405  -3.804 -20.067  0.00  0.00     0.143 C 
ATOM     35  O   UNK d   0     -16.927  -3.035 -19.221  0.00  0.00    -0.650 OA
BRANCH  34  36
ATOM     36  O   UNK d   0     -18.607  -3.499 -20.663  0.00  0.00    -0.776 OA
ATOM     37  H   UNK d   0     -19.447  -3.301 -20.102  0.00  0.00     0.167 HD
ENDBRANCH  34  36
ENDBRANCH  33  34
ENDBRANCH   8  33
BRANCH  31  38
ATOM     38  C   UNK d   0     -19.499 -12.111 -19.768  0.00  0.00     0.151 C 
BRANCH  38  39
ATOM     39  C   UNK d   0     -18.254 -12.647 -20.274  0.00  0.00     0.143 C 
ATOM     40  O   UNK d   0     -17.179 -12.027 -20.187  0.00  0.00    -0.650 OA
BRANCH  39  41
ATOM     41  O   UNK d   0     -18.243 -13.902 -20.882  0.00  0.00    -0.776 OA
ATOM     42  H   UNK d   0     -19.017 -14.533 -20.652  0.00  0.00     0.167 HD
ENDBRANCH  39  41
ENDBRANCH  38  39
ENDBRANCH  31  38
BRANCH  27  43
ATOM     43  C   UNK d   0     -19.495 -13.684 -17.116  0.00  0.00     0.052 C 
BRANCH  43  44
ATOM     44  C   UNK d   0     -20.913 -14.147 -17.197  0.00  0.00     0.115 C 
BRANCH  44  45
ATOM     45  C   UNK d   0     -20.906 -15.399 -17.998  0.00  0.00     0.139 C 
ATOM     46  O   UNK d   0     -21.257 -16.465 -17.434  0.00  0.00    -0.650 OA
BRANCH  45  47
ATOM     47  O   UNK d   0     -20.538 -15.434 -19.326  0.00  0.00    -0.776 OA
ATOM     48  H   UNK d   0     -20.733 -16.242 -19.940  0.00  0.00     0.167 HD
ENDBRANCH  45  47
ENDBRANCH  44  45
ENDBRANCH  43  44
ENDBRANCH  27  43
BRANCH  24  49
ATOM     49  C   UNK d   0     -18.536 -12.733 -11.747  0.00  0.00     0.052 C 
BRANCH  49  50
ATOM     50  C   UNK d   0     -17.455 -13.593 -11.143  0.00  0.00     0.115 C 
BRANCH  50  51
ATOM     51  C   UNK d   0     -17.712 -14.155  -9.823  0.00  0.00     0.139 C 
ATOM     52  O   UNK d   0     -17.686 -13.464  -8.778  0.00  0.00    -0.650 OA
BRANCH  51  53
ATOM     53  O   UNK d   0     -17.996 -15.506  -9.696  0.00  0.00    -0.776 OA
ATOM     54  H   UNK d   0     -18.959 -15.784  -9.618  0.00  0.00     0.167 HD
ENDBRANCH  51  53
ENDBRANCH  50  51
ENDBRANCH  49  50
ENDBRANCH  24  49
BRANCH  21  55
ATOM     55  C   UNK d   0     -16.340 -10.820 -10.716  0.00  0.00     0.151 C 
BRANCH  55  56
ATOM     56  C   UNK d   0     -16.380  -9.498 -10.072  0.00  0.00     0.143 C 
ATOM     57  O   UNK d   0     -15.350  -8.872  -9.752  0.00  0.00    -0.650 OA
BRANCH  56  58
ATOM     58  O   UNK d   0     -17.630  -8.938  -9.816  0.00  0.00    -0.776 OA
ATOM     59  H   UNK d   0     -18.165  -9.393  -9.055  0.00  0.00     0.167 HD
ENDBRANCH  56  58
ENDBRANCH  55  56
ENDBRANCH  21  55
BRANCH  18  60
ATOM     60  C   UNK d   0     -15.479  -5.862 -12.583  0.00  0.00     0.151 C 
BRANCH  60  61
ATOM     61  C   UNK d   0     -14.160  -6.277 -12.083  0.00  0.00     0.143 C 
ATOM     62  O   UNK d   0     -13.162  -6.543 -12.753  0.00  0.00    -0.650 OA
BRANCH  61  63
ATOM     63  O   UNK d   0     -14.053  -6.373 -10.674  0.00  0.00    -0.776 OA
ATOM     64  H   UNK d   0     -14.868  -6.337 -10.089  0.00  0.00     0.167 HD
ENDBRANCH  61  63
ENDBRANCH  60  61
ENDBRANCH  18  60
BRANCH  14  65
ATOM     65  C   UNK d   0     -15.354  -4.329 -15.199  0.00  0.00     0.052 C 
BRANCH  65  66
ATOM     66  C   UNK d   0     -16.591  -3.513 -15.069  0.00  0.00     0.115 C 
BRANCH  66  67
ATOM     67  C   UNK d   0     -16.516  -2.190 -14.517  0.00  0.00     0.139 C 
ATOM     68  O   UNK d   0     -16.575  -1.186 -15.318  0.00  0.00    -0.650 OA
BRANCH  67  69
ATOM     69  O   UNK d   0     -16.381  -1.831 -13.176  0.00  0.00    -0.776 OA
ATOM     70  H   UNK d   0     -15.600  -2.273 -12.670  0.00  0.00     0.167 HD
ENDBRANCH  67  69
ENDBRANCH  66  67
ENDBRANCH  65  66
ENDBRANCH  14  65
ENDBRANCH   6   7
ENDBRANCH   5   6
ENDBRANCH   2   5
TORSDOF 28
ENDMDL
MODEL 15
REMARK VINA RESULT:      -8.5      2.269      9.212
REMARK  28 active torsions:
REMARK  status: ('A' for Active; 'I' for Inactive)
REMARK    1  A    between atoms: C_2  and  O_3 
REMARK    2  A    between atoms: C_2  and  C_4 
REMARK    3  A    between atoms: C_4  and  C_5 
REMARK    4  A    between atoms: C_5  and  C_6 
REMARK    5  A    between atoms: C_7  and  C_8 
REMARK    6  A    between atoms: C_8  and  C_9 
REMARK    7  A    between atoms: C_9  and  O_11 
REMARK    8  A    between atoms: C_28  and  C_29 
REMARK    9  A    between atoms: C_29  and  C_30 
REMARK   10  A    between atoms: C_30  and  O_32 
REMARK   11  A    between atoms: C_33  and  C_34 
REMARK   12  A    between atoms: C_34  and  C_35 
REMARK   13  A    between atoms: C_35  and  C_36 
REMARK   14  A    between atoms: C_36  and  O_38 
REMARK   15  A    between atoms: C_39  and  C_40 
REMARK   16  A    between atoms: C_40  and  C_41 
REMARK   17  A    between atoms: C_41  and  C_42 
REMARK   18  A    between atoms: C_42  and  O_44 
REMARK   19  A    between atoms: C_45  and  C_46 
REMARK   20  A    between atoms: C_46  and  C_47 
REMARK   21  A    between atoms: C_47  and  O_49 
REMARK   22  A    between atoms: C_50  and  C_51 
REMARK   23  A    between atoms: C_51  and  C_52 
REMARK   24  A    between atoms: C_52  and  O_54 
REMARK   25  A    between atoms: C_55  and  C_56 
REMARK   26  A    between atoms: C_56  and  C_57 
REMARK   27  A    between atoms: C_57  and  C_58 
REMARK   28  A    between atoms: C_58  and  O_60 
ROOT
ATOM      1  O   UNK d   0     -16.119  -6.687  -6.155  0.00  0.00    -0.650 OA
ATOM      2  C   UNK d   0     -16.748  -5.946  -6.941  0.00  0.00     0.139 C 
ENDROOT
BRANCH   2   3
ATOM      3  O   UNK d   0     -17.202  -4.726  -6.500  0.00  0.00    -0.776 OA
ATOM      4  H   UNK d   0     -16.687  -3.867  -6.703  0.00  0.00     0.167 HD
ENDBRANCH   2   3
BRANCH   2   5
ATOM      5  C   UNK d   0     -17.002  -6.385  -8.343  0.00  0.00     0.115 C 
BRANCH   5   6
ATOM      6  C   UNK d   0     -15.823  -7.163  -8.863  0.00  0.00     0.052 C 
BRANCH   6   7
ATOM      7  C   UNK d   0     -16.232  -8.312  -9.753  0.00  0.00    -0.020 A 
ATOM      8  C   UNK d   0     -16.194  -9.590  -9.475  0.00  0.00    -0.011 A 
ATOM      9  C   UNK d   0     -16.676 -10.313 -10.640  0.00  0.00     0.067 A 
ATOM     10  C   UNK d   0     -16.898 -11.657 -10.977  0.00  0.00     0.062 C 
ATOM     11  N   UNK d   0     -16.981  -9.397 -11.582  0.00  0.00    -0.248 NA
ATOM     12  C   UNK d   0     -17.636 -12.149 -12.059  0.00  0.00     0.041 A 
ATOM     13  N   UNK d   0     -17.687 -11.761 -13.347  0.00  0.00    -0.355 N 
ATOM     14  C   UNK d   0     -18.549 -13.197 -11.840  0.00  0.00    -0.022 A 
ATOM     15  C   UNK d   0     -18.614 -12.529 -13.949  0.00  0.00     0.042 A 
ATOM     16  H   UNK d   0     -17.065 -10.972 -13.826  0.00  0.00     0.166 HD
ATOM     17  C   UNK d   0     -19.060 -12.544 -15.286  0.00  0.00     0.062 C 
ATOM     18  C   UNK d   0     -19.177 -13.442 -13.036  0.00  0.00    -0.013 A 
ATOM     19  C   UNK d   0     -19.382 -11.487 -16.099  0.00  0.00     0.067 A 
ATOM     20  N   UNK d   0     -19.054 -10.268 -15.664  0.00  0.00    -0.248 NA
ATOM     21  C   UNK d   0     -20.039 -11.320 -17.384  0.00  0.00    -0.011 A 
ATOM     22  C   UNK d   0     -19.451  -9.316 -16.571  0.00  0.00     0.066 A 
ATOM     23  C   UNK d   0     -19.137  -8.000 -16.261  0.00  0.00     0.062 C 
ATOM     24  C   UNK d   0     -20.080 -10.047 -17.653  0.00  0.00    -0.020 A 
ATOM     25  C   UNK d   0     -18.384  -7.529 -15.175  0.00  0.00     0.041 A 
ATOM     26  N   UNK d   0     -18.345  -7.905 -13.891  0.00  0.00    -0.355 N 
ATOM     27  C   UNK d   0     -17.464  -6.480 -15.397  0.00  0.00    -0.022 A 
ATOM     28  C   UNK d   0     -17.427  -7.134 -13.287  0.00  0.00     0.042 A 
ATOM     29  H   UNK d   0     -18.977  -8.690 -13.410  0.00  0.00     0.166 HD
ATOM     30  C   UNK d   0     -16.980  -7.102 -11.956  0.00  0.00     0.062 C 
ATOM     31  C   UNK d   0     -16.854  -6.224 -14.207  0.00  0.00    -0.013 A 
ATOM     32  C   UNK d   0     -16.737  -8.173 -11.111  0.00  0.00     0.066 A 
BRANCH   8  33
ATOM     33  C   UNK d   0     -15.740 -10.208  -8.216  0.00  0.00     0.151 C 
BRANCH  33  34
ATOM     34  C   UNK d   0     -16.856 -10.706  -7.391  0.00  0.00     0.143 C 
ATOM     35  O   UNK d   0     -17.945 -10.115  -7.369  0.00  0.00    -0.650 OA
BRANCH  34  36
ATOM     36  O   UNK d   0     -16.682 -11.842  -6.635  0.00  0.00    -0.776 OA
ATOM     37  H   UNK d   0     -15.882 -11.941  -5.995  0.00  0.00     0.167 HD
ENDBRANCH  34  36
ENDBRANCH  33  34
ENDBRANCH   8  33
BRANCH  31  38
ATOM     38  C   UNK d   0     -15.782  -5.189 -13.960  0.00  0.00     0.151 C 
BRANCH  38  39
ATOM     39  C   UNK d   0     -14.444  -5.716 -14.123  0.00  0.00     0.143 C 
ATOM     40  O   UNK d   0     -13.925  -6.482 -13.293  0.00  0.00    -0.650 OA
BRANCH  39  41
ATOM     41  O   UNK d   0     -13.699  -5.360 -15.247  0.00  0.00    -0.776 OA
ATOM     42  H   UNK d   0     -14.182  -5.393 -16.150  0.00  0.00     0.167 HD
ENDBRANCH  39  41
ENDBRANCH  38  39
ENDBRANCH  31  38
BRANCH  27  43
ATOM     43  C   UNK d   0     -17.155  -5.729 -16.668  0.00  0.00     0.052 C 
BRANCH  43  44
ATOM     44  C   UNK d   0     -16.118  -6.399 -17.512  0.00  0.00     0.115 C 
BRANCH  44  45
ATOM     45  C   UNK d   0     -16.690  -6.508 -18.879  0.00  0.00     0.139 C 
ATOM     46  O   UNK d   0     -16.097  -7.237 -19.712  0.00  0.00    -0.650 OA
BRANCH  45  47
ATOM     47  O   UNK d   0     -17.839  -5.851 -19.263  0.00  0.00    -0.776 OA
ATOM     48  H   UNK d   0     -18.117  -4.935 -18.875  0.00  0.00     0.167 HD
ENDBRANCH  45  47
ENDBRANCH  44  45
ENDBRANCH  43  44
ENDBRANCH  27  43
BRANCH  24  49
ATOM     49  C   UNK d   0     -20.626  -9.435 -18.876  0.00  0.00     0.052 C 
BRANCH  49  50
ATOM     50  C   UNK d   0     -19.508  -8.984 -19.781  0.00  0.00     0.115 C 
BRANCH  50  51
ATOM     51  C   UNK d   0     -19.879  -8.234 -20.974  0.00  0.00     0.139 C 
ATOM     52  O   UNK d   0     -19.071  -7.502 -21.591  0.00  0.00    -0.650 OA
BRANCH  51  53
ATOM     53  O   UNK d   0     -21.175  -8.317 -21.461  0.00  0.00    -0.776 OA
ATOM     54  H   UNK d   0     -21.625  -7.470 -21.760  0.00  0.00     0.167 HD
ENDBRANCH  51  53
ENDBRANCH  50  51
ENDBRANCH  49  50
ENDBRANCH  24  49
BRANCH  21  55
ATOM     55  C   UNK d   0     -20.553 -12.451 -18.212  0.00  0.00     0.151 C 
BRANCH  55  56
ATOM     56  C   UNK d   0     -19.528 -12.976 -19.127  0.00  0.00     0.143 C 
ATOM     57  O   UNK d   0     -18.757 -13.905 -18.815  0.00  0.00    -0.650 OA
BRANCH  56  58
ATOM     58  O   UNK d   0     -19.429 -12.398 -20.392  0.00  0.00    -0.776 OA
ATOM     59  H   UNK d   0     -20.302 -12.416 -20.948  0.00  0.00     0.167 HD
ENDBRANCH  56  58
ENDBRANCH  55  56
ENDBRANCH  21  55
BRANCH  18  60
ATOM     60  C   UNK d   0     -20.243 -14.486 -13.255  0.00  0.00     0.151 C 
BRANCH  60  61
ATOM     61  C   UNK d   0     -21.522 -13.829 -12.943  0.00  0.00     0.143 C 
ATOM     62  O   UNK d   0     -22.099 -12.973 -13.613  0.00  0.00    -0.650 OA
BRANCH  61  63
ATOM     63  O   UNK d   0     -22.134 -14.246 -11.736  0.00  0.00    -0.776 OA
ATOM     64  H   UNK d   0     -22.415 -13.578 -11.040  0.00  0.00     0.167 HD
ENDBRANCH  61  63
ENDBRANCH  60  61
ENDBRANCH  18  60
BRANCH  14  65
ATOM     65  C   UNK d   0     -18.800 -14.041 -10.623  0.00  0.00     0.052 C 
BRANCH  65  66
ATOM     66  C   UNK d   0     -17.824 -15.153 -10.475  0.00  0.00     0.115 C 
BRANCH  66  67
ATOM     67  C   UNK d   0     -16.856 -15.114  -9.415  0.00  0.00     0.139 C 
ATOM     68  O   UNK d   0     -16.006 -16.076  -9.324  0.00  0.00    -0.650 OA
BRANCH  67  69
ATOM     69  O   UNK d   0     -16.706 -14.137  -8.432  0.00  0.00    -0.776 OA
ATOM     70  H   UNK d   0     -16.546 -14.485  -7.476  0.00  0.00     0.167 HD
ENDBRANCH  67  69
ENDBRANCH  66  67
ENDBRANCH  65  66
ENDBRANCH  14  65
ENDBRANCH   6   7
ENDBRANCH   5   6
ENDBRANCH   2   5
TORSDOF 28
ENDMDL
MODEL 16
REMARK VINA RESULT:      -8.4      3.039      8.177
REMARK  28 active torsions:
REMARK  status: ('A' for Active; 'I' for Inactive)
REMARK    1  A    between atoms: C_2  and  O_3 
REMARK    2  A    between atoms: C_2  and  C_4 
REMARK    3  A    between atoms: C_4  and  C_5 
REMARK    4  A    between atoms: C_5  and  C_6 
REMARK    5  A    between atoms: C_7  and  C_8 
REMARK    6  A    between atoms: C_8  and  C_9 
REMARK    7  A    between atoms: C_9  and  O_11 
REMARK    8  A    between atoms: C_28  and  C_29 
REMARK    9  A    between atoms: C_29  and  C_30 
REMARK   10  A    between atoms: C_30  and  O_32 
REMARK   11  A    between atoms: C_33  and  C_34 
REMARK   12  A    between atoms: C_34  and  C_35 
REMARK   13  A    between atoms: C_35  and  C_36 
REMARK   14  A    between atoms: C_36  and  O_38 
REMARK   15  A    between atoms: C_39  and  C_40 
REMARK   16  A    between atoms: C_40  and  C_41 
REMARK   17  A    between atoms: C_41  and  C_42 
REMARK   18  A    between atoms: C_42  and  O_44 
REMARK   19  A    between atoms: C_45  and  C_46 
REMARK   20  A    between atoms: C_46  and  C_47 
REMARK   21  A    between atoms: C_47  and  O_49 
REMARK   22  A    between atoms: C_50  and  C_51 
REMARK   23  A    between atoms: C_51  and  C_52 
REMARK   24  A    between atoms: C_52  and  O_54 
REMARK   25  A    between atoms: C_55  and  C_56 
REMARK   26  A    between atoms: C_56  and  C_57 
REMARK   27  A    between atoms: C_57  and  C_58 
REMARK   28  A    between atoms: C_58  and  O_60 
ROOT
ATOM      1  O   UNK d   0     -12.002  -7.724 -12.443  0.00  0.00    -0.650 OA
ATOM      2  C   UNK d   0     -13.109  -7.787 -11.863  0.00  0.00     0.139 C 
ENDROOT
BRANCH   2   3
ATOM      3  O   UNK d   0     -13.221  -8.517 -10.704  0.00  0.00    -0.776 OA
ATOM      4  H   UNK d   0     -12.481  -9.157 -10.410  0.00  0.00     0.167 HD
ENDBRANCH   2   3
BRANCH   2   5
ATOM      5  C   UNK d   0     -14.291  -7.076 -12.427  0.00  0.00     0.115 C 
BRANCH   5   6
ATOM      6  C   UNK d   0     -15.479  -7.247 -11.520  0.00  0.00     0.052 C 
BRANCH   6   7
ATOM      7  C   UNK d   0     -16.541  -8.139 -12.117  0.00  0.00    -0.020 A 
ATOM      8  C   UNK d   0     -17.370  -7.853 -13.088  0.00  0.00    -0.011 A 
ATOM      9  C   UNK d   0     -18.212  -9.017 -13.312  0.00  0.00     0.067 A 
ATOM     10  C   UNK d   0     -19.250  -9.362 -14.191  0.00  0.00     0.062 C 
ATOM     11  N   UNK d   0     -17.830  -9.963 -12.428  0.00  0.00    -0.248 NA
ATOM     12  C   UNK d   0     -19.758 -10.641 -14.442  0.00  0.00     0.041 A 
ATOM     13  N   UNK d   0     -20.051 -11.658 -13.609  0.00  0.00    -0.355 N 
ATOM     14  C   UNK d   0     -19.979 -11.037 -15.774  0.00  0.00    -0.022 A 
ATOM     15  C   UNK d   0     -20.445 -12.690 -14.378  0.00  0.00     0.042 A 
ATOM     16  H   UNK d   0     -19.999 -11.640 -12.498  0.00  0.00     0.166 HD
ATOM     17  C   UNK d   0     -20.864 -13.988 -14.021  0.00  0.00     0.062 C 
ATOM     18  C   UNK d   0     -20.413 -12.339 -15.741  0.00  0.00    -0.013 A 
ATOM     19  C   UNK d   0     -20.310 -14.853 -13.113  0.00  0.00     0.067 A 
ATOM     20  N   UNK d   0     -19.369 -14.360 -12.303  0.00  0.00    -0.248 NA
ATOM     21  C   UNK d   0     -20.468 -16.258 -12.778  0.00  0.00    -0.011 A 
ATOM     22  C   UNK d   0     -18.900 -15.340 -11.464  0.00  0.00     0.066 A 
ATOM     23  C   UNK d   0     -17.941 -14.954 -10.540  0.00  0.00     0.062 C 
ATOM     24  C   UNK d   0     -19.638 -16.538 -11.815  0.00  0.00    -0.020 A 
ATOM     25  C   UNK d   0     -17.454 -13.661 -10.295  0.00  0.00     0.041 A 
ATOM     26  N   UNK d   0     -17.148 -12.656 -11.124  0.00  0.00    -0.355 N 
ATOM     27  C   UNK d   0     -17.236 -13.264  -8.958  0.00  0.00    -0.022 A 
ATOM     28  C   UNK d   0     -16.746 -11.628 -10.360  0.00  0.00     0.042 A 
ATOM     29  H   UNK d   0     -17.190 -12.679 -12.241  0.00  0.00     0.166 HD
ATOM     30  C   UNK d   0     -16.319 -10.335 -10.702  0.00  0.00     0.062 C 
ATOM     31  C   UNK d   0     -16.789 -11.978  -8.989  0.00  0.00    -0.013 A 
ATOM     32  C   UNK d   0     -16.829  -9.497 -11.680  0.00  0.00     0.066 A 
BRANCH   8  33
ATOM     33  C   UNK d   0     -17.457  -6.584 -13.833  0.00  0.00     0.151 C 
BRANCH  33  34
ATOM     34  C   UNK d   0     -16.951  -6.696 -15.213  0.00  0.00     0.143 C 
ATOM     35  O   UNK d   0     -16.027  -7.474 -15.491  0.00  0.00    -0.650 OA
BRANCH  34  36
ATOM     36  O   UNK d   0     -17.513  -5.925 -16.204  0.00  0.00    -0.776 OA
ATOM     37  H   UNK d   0     -17.781  -6.331 -17.110  0.00  0.00     0.167 HD
ENDBRANCH  34  36
ENDBRANCH  33  34
ENDBRANCH   8  33
BRANCH  31  38
ATOM     38  C   UNK d   0     -16.435 -11.128  -7.792  0.00  0.00     0.151 C 
BRANCH  38  39
ATOM     39  C   UNK d   0     -17.533 -10.293  -7.352  0.00  0.00     0.143 C 
ATOM     40  O   UNK d   0     -17.686  -9.127  -7.758  0.00  0.00    -0.650 OA
BRANCH  39  41
ATOM     41  O   UNK d   0     -18.460 -10.801  -6.443  0.00  0.00    -0.776 OA
ATOM     42  H   UNK d   0     -18.196 -11.655  -5.943  0.00  0.00     0.167 HD
ENDBRANCH  39  41
ENDBRANCH  38  39
ENDBRANCH  31  38
BRANCH  27  43
ATOM     43  C   UNK d   0     -17.431 -14.045  -7.682  0.00  0.00     0.052 C 
BRANCH  43  44
ATOM     44  C   UNK d   0     -16.418 -15.127  -7.491  0.00  0.00     0.115 C 
BRANCH  44  45
ATOM     45  C   UNK d   0     -17.167 -16.410  -7.474  0.00  0.00     0.139 C 
ATOM     46  O   UNK d   0     -16.514 -17.478  -7.571  0.00  0.00    -0.650 OA
BRANCH  45  47
ATOM     47  O   UNK d   0     -18.538 -16.474  -7.351  0.00  0.00    -0.776 OA
ATOM     48  H   UNK d   0     -19.124 -17.101  -7.926  0.00  0.00     0.167 HD
ENDBRANCH  45  47
ENDBRANCH  44  45
ENDBRANCH  43  44
ENDBRANCH  27  43
BRANCH  24  49
ATOM     49  C   UNK d   0     -19.493 -17.842 -11.144  0.00  0.00     0.052 C 
BRANCH  49  50
ATOM     50  C   UNK d   0     -18.535 -18.721 -11.907  0.00  0.00     0.115 C 
BRANCH  50  51
ATOM     51  C   UNK d   0     -18.802 -20.153 -11.904  0.00  0.00     0.139 C 
ATOM     52  O   UNK d   0     -18.881 -20.824 -10.848  0.00  0.00    -0.650 OA
BRANCH  51  53
ATOM     53  O   UNK d   0     -18.975 -20.821 -13.107  0.00  0.00    -0.776 OA
ATOM     54  H   UNK d   0     -19.178 -20.277 -13.927  0.00  0.00     0.167 HD
ENDBRANCH  51  53
ENDBRANCH  50  51
ENDBRANCH  49  50
ENDBRANCH  24  49
BRANCH  21  55
ATOM     55  C   UNK d   0     -21.436 -17.173 -13.451  0.00  0.00     0.151 C 
BRANCH  55  56
ATOM     56  C   UNK d   0     -20.920 -17.675 -14.734  0.00  0.00     0.143 C 
ATOM     57  O   UNK d   0     -20.883 -16.978 -15.766  0.00  0.00    -0.650 OA
BRANCH  56  58
ATOM     58  O   UNK d   0     -20.456 -18.989 -14.777  0.00  0.00    -0.776 OA
ATOM     59  H   UNK d   0     -19.500 -19.127 -14.401  0.00  0.00     0.167 HD
ENDBRANCH  56  58
ENDBRANCH  55  56
ENDBRANCH  21  55
BRANCH  18  60
ATOM     60  C   UNK d   0     -20.762 -13.164 -16.955  0.00  0.00     0.151 C 
BRANCH  60  61
ATOM     61  C   UNK d   0     -19.531 -13.877 -17.327  0.00  0.00     0.143 C 
ATOM     62  O   UNK d   0     -18.391 -13.413 -17.376  0.00  0.00    -0.650 OA
BRANCH  61  63
ATOM     63  O   UNK d   0     -19.702 -15.242 -17.659  0.00  0.00    -0.776 OA
ATOM     64  H   UNK d   0     -18.926 -15.802 -17.966  0.00  0.00     0.167 HD
ENDBRANCH  61  63
ENDBRANCH  60  61
ENDBRANCH  18  60
BRANCH  14  65
ATOM     65  C   UNK d   0     -19.907 -10.254 -17.054  0.00  0.00     0.052 C 
BRANCH  65  66
ATOM     66  C   UNK d   0     -20.978  -9.227 -17.169  0.00  0.00     0.115 C 
BRANCH  66  67
ATOM     67  C   UNK d   0     -22.281  -9.494 -16.628  0.00  0.00     0.139 C 
ATOM     68  O   UNK d   0     -22.703  -8.764 -15.658  0.00  0.00    -0.650 OA
BRANCH  67  69
ATOM     69  O   UNK d   0     -23.186 -10.477 -17.028  0.00  0.00    -0.776 OA
ATOM     70  H   UNK d   0     -22.793 -11.245 -17.591  0.00  0.00     0.167 HD
ENDBRANCH  67  69
ENDBRANCH  66  67
ENDBRANCH  65  66
ENDBRANCH  14  65
ENDBRANCH   6   7
ENDBRANCH   5   6
ENDBRANCH   2   5
TORSDOF 28
ENDMDL
MODEL 17
REMARK VINA RESULT:      -8.4      2.183      7.734
REMARK  28 active torsions:
REMARK  status: ('A' for Active; 'I' for Inactive)
REMARK    1  A    between atoms: C_2  and  O_3 
REMARK    2  A    between atoms: C_2  and  C_4 
REMARK    3  A    between atoms: C_4  and  C_5 
REMARK    4  A    between atoms: C_5  and  C_6 
REMARK    5  A    between atoms: C_7  and  C_8 
REMARK    6  A    between atoms: C_8  and  C_9 
REMARK    7  A    between atoms: C_9  and  O_11 
REMARK    8  A    between atoms: C_28  and  C_29 
REMARK    9  A    between atoms: C_29  and  C_30 
REMARK   10  A    between atoms: C_30  and  O_32 
REMARK   11  A    between atoms: C_33  and  C_34 
REMARK   12  A    between atoms: C_34  and  C_35 
REMARK   13  A    between atoms: C_35  and  C_36 
REMARK   14  A    between atoms: C_36  and  O_38 
REMARK   15  A    between atoms: C_39  and  C_40 
REMARK   16  A    between atoms: C_40  and  C_41 
REMARK   17  A    between atoms: C_41  and  C_42 
REMARK   18  A    between atoms: C_42  and  O_44 
REMARK   19  A    between atoms: C_45  and  C_46 
REMARK   20  A    between atoms: C_46  and  C_47 
REMARK   21  A    between atoms: C_47  and  O_49 
REMARK   22  A    between atoms: C_50  and  C_51 
REMARK   23  A    between atoms: C_51  and  C_52 
REMARK   24  A    between atoms: C_52  and  O_54 
REMARK   25  A    between atoms: C_55  and  C_56 
REMARK   26  A    between atoms: C_56  and  C_57 
REMARK   27  A    between atoms: C_57  and  C_58 
REMARK   28  A    between atoms: C_58  and  O_60 
ROOT
ATOM      1  O   UNK d   0     -15.280  -3.394 -14.714  0.00  0.00    -0.650 OA
ATOM      2  C   UNK d   0     -15.532  -4.601 -14.501  0.00  0.00     0.139 C 
ENDROOT
BRANCH   2   3
ATOM      3  O   UNK d   0     -16.815  -4.975 -14.182  0.00  0.00    -0.776 OA
ATOM      4  H   UNK d   0     -17.587  -4.818 -14.833  0.00  0.00     0.167 HD
ENDBRANCH   2   3
BRANCH   2   5
ATOM      5  C   UNK d   0     -14.447  -5.619 -14.592  0.00  0.00     0.115 C 
BRANCH   5   6
ATOM      6  C   UNK d   0     -14.537  -6.354 -15.902  0.00  0.00     0.052 C 
BRANCH   6   7
ATOM      7  C   UNK d   0     -15.717  -7.294 -15.962  0.00  0.00    -0.020 A 
ATOM      8  C   UNK d   0     -16.624  -7.377 -16.901  0.00  0.00    -0.011 A 
ATOM      9  C   UNK d   0     -17.564  -8.418 -16.521  0.00  0.00     0.067 A 
ATOM     10  C   UNK d   0     -18.713  -8.998 -17.081  0.00  0.00     0.062 C 
ATOM     11  N   UNK d   0     -17.156  -8.912 -15.333  0.00  0.00    -0.248 NA
ATOM     12  C   UNK d   0     -19.334 -10.191 -16.695  0.00  0.00     0.041 A 
ATOM     13  N   UNK d   0     -19.605 -10.696 -15.476  0.00  0.00    -0.355 N 
ATOM     14  C   UNK d   0     -19.725 -11.107 -17.689  0.00  0.00    -0.022 A 
ATOM     15  C   UNK d   0     -20.152 -11.911 -15.671  0.00  0.00     0.042 A 
ATOM     16  H   UNK d   0     -19.432 -10.194 -14.498  0.00  0.00     0.166 HD
ATOM     17  C   UNK d   0     -20.619 -12.862 -14.742  0.00  0.00     0.062 C 
ATOM     18  C   UNK d   0     -20.243 -12.204 -17.045  0.00  0.00    -0.013 A 
ATOM     19  C   UNK d   0     -20.032 -13.292 -13.579  0.00  0.00     0.067 A 
ATOM     20  N   UNK d   0     -18.977 -12.599 -13.142  0.00  0.00    -0.248 NA
ATOM     21  C   UNK d   0     -20.251 -14.377 -12.638  0.00  0.00    -0.011 A 
ATOM     22  C   UNK d   0     -18.489 -13.154 -11.984  0.00  0.00     0.066 A 
ATOM     23  C   UNK d   0     -17.411 -12.508 -11.398  0.00  0.00     0.062 C 
ATOM     24  C   UNK d   0     -19.343 -14.293 -11.709  0.00  0.00    -0.020 A 
ATOM     25  C   UNK d   0     -16.811 -11.303 -11.794  0.00  0.00     0.041 A 
ATOM     26  N   UNK d   0     -16.527 -10.808 -13.005  0.00  0.00    -0.355 N 
ATOM     27  C   UNK d   0     -16.422 -10.383 -10.796  0.00  0.00    -0.022 A 
ATOM     28  C   UNK d   0     -15.974  -9.600 -12.813  0.00  0.00     0.042 A 
ATOM     29  H   UNK d   0     -16.692 -11.318 -13.986  0.00  0.00     0.166 HD
ATOM     30  C   UNK d   0     -15.496  -8.648 -13.727  0.00  0.00     0.062 C 
ATOM     31  C   UNK d   0     -15.892  -9.302 -11.432  0.00  0.00    -0.013 A 
ATOM     32  C   UNK d   0     -16.050  -8.278 -14.943  0.00  0.00     0.066 A 
BRANCH   8  33
ATOM     33  C   UNK d   0     -16.702  -6.566 -18.131  0.00  0.00     0.151 C 
BRANCH  33  34
ATOM     34  C   UNK d   0     -16.873  -5.128 -17.856  0.00  0.00     0.143 C 
ATOM     35  O   UNK d   0     -17.816  -4.720 -17.163  0.00  0.00    -0.650 OA
BRANCH  34  36
ATOM     36  O   UNK d   0     -15.972  -4.229 -18.378  0.00  0.00    -0.776 OA
ATOM     37  H   UNK d   0     -16.285  -3.348 -18.809  0.00  0.00     0.167 HD
ENDBRANCH  34  36
ENDBRANCH  33  34
ENDBRANCH   8  33
BRANCH  31  38
ATOM     38  C   UNK d   0     -15.352  -8.055 -10.772  0.00  0.00     0.151 C 
BRANCH  38  39
ATOM     39  C   UNK d   0     -16.376  -7.060 -10.529  0.00  0.00     0.143 C 
ATOM     40  O   UNK d   0     -17.048  -6.560 -11.448  0.00  0.00    -0.650 OA
BRANCH  39  41
ATOM     41  O   UNK d   0     -16.628  -6.640  -9.224  0.00  0.00    -0.776 OA
ATOM     42  H   UNK d   0     -16.474  -7.327  -8.480  0.00  0.00     0.167 HD
ENDBRANCH  39  41
ENDBRANCH  38  39
ENDBRANCH  31  38
BRANCH  27  43
ATOM     43  C   UNK d   0     -16.532 -10.493  -9.296  0.00  0.00     0.052 C 
BRANCH  43  44
ATOM     44  C   UNK d   0     -15.250 -10.200  -8.586  0.00  0.00     0.115 C 
BRANCH  44  45
ATOM     45  C   UNK d   0     -15.615  -9.577  -7.288  0.00  0.00     0.139 C 
ATOM     46  O   UNK d   0     -16.615  -8.817  -7.257  0.00  0.00    -0.650 OA
BRANCH  45  47
ATOM     47  O   UNK d   0     -14.910  -9.802  -6.126  0.00  0.00    -0.776 OA
ATOM     48  H   UNK d   0     -14.761 -10.746  -5.735  0.00  0.00     0.167 HD
ENDBRANCH  45  47
ENDBRANCH  44  45
ENDBRANCH  43  44
ENDBRANCH  27  43
BRANCH  24  49
ATOM     49  C   UNK d   0     -19.218 -15.173 -10.534  0.00  0.00     0.052 C 
BRANCH  49  50
ATOM     50  C   UNK d   0     -18.071 -16.134 -10.718  0.00  0.00     0.115 C 
BRANCH  50  51
ATOM     51  C   UNK d   0     -18.213 -17.459 -10.130  0.00  0.00     0.139 C 
ATOM     52  O   UNK d   0     -18.664 -18.438 -10.770  0.00  0.00    -0.650 OA
BRANCH  51  53
ATOM     53  O   UNK d   0     -17.842 -17.667  -8.810  0.00  0.00    -0.776 OA
ATOM     54  H   UNK d   0     -18.011 -16.931  -8.147  0.00  0.00     0.167 HD
ENDBRANCH  51  53
ENDBRANCH  50  51
ENDBRANCH  49  50
ENDBRANCH  24  49
BRANCH  21  55
ATOM     55  C   UNK d   0     -21.348 -15.382 -12.762  0.00  0.00     0.151 C 
BRANCH  55  56
ATOM     56  C   UNK d   0     -20.940 -16.548 -13.560  0.00  0.00     0.143 C 
ATOM     57  O   UNK d   0     -20.914 -16.538 -14.806  0.00  0.00    -0.650 OA
BRANCH  56  58
ATOM     58  O   UNK d   0     -20.568 -17.705 -12.876  0.00  0.00    -0.776 OA
ATOM     59  H   UNK d   0     -21.337 -18.379 -12.709  0.00  0.00     0.167 HD
ENDBRANCH  56  58
ENDBRANCH  55  56
ENDBRANCH  21  55
BRANCH  18  60
ATOM     60  C   UNK d   0     -20.778 -13.436 -17.732  0.00  0.00     0.151 C 
BRANCH  60  61
ATOM     61  C   UNK d   0     -19.675 -14.409 -17.734  0.00  0.00     0.143 C 
ATOM     62  O   UNK d   0     -18.483 -14.178 -17.934  0.00  0.00    -0.650 OA
BRANCH  61  63
ATOM     63  O   UNK d   0     -20.053 -15.748 -17.473  0.00  0.00    -0.776 OA
ATOM     64  H   UNK d   0     -20.906 -15.961 -16.987  0.00  0.00     0.167 HD
ENDBRANCH  61  63
ENDBRANCH  60  61
ENDBRANCH  18  60
BRANCH  14  65
ATOM     65  C   UNK d   0     -19.738 -10.984 -19.186  0.00  0.00     0.052 C 
BRANCH  65  66
ATOM     66  C   UNK d   0     -20.865 -10.155 -19.692  0.00  0.00     0.115 C 
BRANCH  66  67
ATOM     67  C   UNK d   0     -20.604  -9.087 -20.615  0.00  0.00     0.139 C 
ATOM     68  O   UNK d   0     -19.445  -8.530 -20.598  0.00  0.00    -0.650 OA
BRANCH  67  69
ATOM     69  O   UNK d   0     -21.472  -8.549 -21.565  0.00  0.00    -0.776 OA
ATOM     70  H   UNK d   0     -21.194  -8.677 -22.549  0.00  0.00     0.167 HD
ENDBRANCH  67  69
ENDBRANCH  66  67
ENDBRANCH  65  66
ENDBRANCH  14  65
ENDBRANCH   6   7
ENDBRANCH   5   6
ENDBRANCH   2   5
TORSDOF 28
ENDMDL
MODEL 18
REMARK VINA RESULT:      -8.4      2.076     10.490
REMARK  28 active torsions:
REMARK  status: ('A' for Active; 'I' for Inactive)
REMARK    1  A    between atoms: C_2  and  O_3 
REMARK    2  A    between atoms: C_2  and  C_4 
REMARK    3  A    between atoms: C_4  and  C_5 
REMARK    4  A    between atoms: C_5  and  C_6 
REMARK    5  A    between atoms: C_7  and  C_8 
REMARK    6  A    between atoms: C_8  and  C_9 
REMARK    7  A    between atoms: C_9  and  O_11 
REMARK    8  A    between atoms: C_28  and  C_29 
REMARK    9  A    between atoms: C_29  and  C_30 
REMARK   10  A    between atoms: C_30  and  O_32 
REMARK   11  A    between atoms: C_33  and  C_34 
REMARK   12  A    between atoms: C_34  and  C_35 
REMARK   13  A    between atoms: C_35  and  C_36 
REMARK   14  A    between atoms: C_36  and  O_38 
REMARK   15  A    between atoms: C_39  and  C_40 
REMARK   16  A    between atoms: C_40  and  C_41 
REMARK   17  A    between atoms: C_41  and  C_42 
REMARK   18  A    between atoms: C_42  and  O_44 
REMARK   19  A    between atoms: C_45  and  C_46 
REMARK   20  A    between atoms: C_46  and  C_47 
REMARK   21  A    between atoms: C_47  and  O_49 
REMARK   22  A    between atoms: C_50  and  C_51 
REMARK   23  A    between atoms: C_51  and  C_52 
REMARK   24  A    between atoms: C_52  and  O_54 
REMARK   25  A    between atoms: C_55  and  C_56 
REMARK   26  A    between atoms: C_56  and  C_57 
REMARK   27  A    between atoms: C_57  and  C_58 
REMARK   28  A    between atoms: C_58  and  O_60 
ROOT
ATOM      1  O   UNK d   0     -15.843  -7.565  -6.192  0.00  0.00    -0.650 OA
ATOM      2  C   UNK d   0     -15.532  -8.556  -6.890  0.00  0.00     0.139 C 
ENDROOT
BRANCH   2   3
ATOM      3  O   UNK d   0     -14.285  -8.612  -7.464  0.00  0.00    -0.776 OA
ATOM      4  H   UNK d   0     -13.981  -7.903  -8.134  0.00  0.00     0.167 HD
ENDBRANCH   2   3
BRANCH   2   5
ATOM      5  C   UNK d   0     -16.509  -9.663  -7.094  0.00  0.00     0.115 C 
BRANCH   5   6
ATOM      6  C   UNK d   0     -15.814 -10.868  -7.668  0.00  0.00     0.052 C 
BRANCH   6   7
ATOM      7  C   UNK d   0     -16.498 -11.399  -8.905  0.00  0.00    -0.020 A 
ATOM      8  C   UNK d   0     -17.193 -12.501  -9.022  0.00  0.00    -0.011 A 
ATOM      9  C   UNK d   0     -17.648 -12.597 -10.399  0.00  0.00     0.067 A 
ATOM     10  C   UNK d   0     -18.426 -13.493 -11.148  0.00  0.00     0.062 C 
ATOM     11  N   UNK d   0     -17.178 -11.513 -11.052  0.00  0.00    -0.248 NA
ATOM     12  C   UNK d   0     -18.993 -13.274 -12.409  0.00  0.00     0.041 A 
ATOM     13  N   UNK d   0     -18.493 -12.695 -13.517  0.00  0.00    -0.355 N 
ATOM     14  C   UNK d   0     -20.332 -13.644 -12.626  0.00  0.00    -0.022 A 
ATOM     15  C   UNK d   0     -19.483 -12.681 -14.429  0.00  0.00     0.042 A 
ATOM     16  H   UNK d   0     -17.455 -12.321 -13.658  0.00  0.00     0.166 HD
ATOM     17  C   UNK d   0     -19.500 -12.194 -15.752  0.00  0.00     0.062 C 
ATOM     18  C   UNK d   0     -20.652 -13.267 -13.907  0.00  0.00    -0.013 A 
ATOM     19  C   UNK d   0     -19.008 -11.012 -16.242  0.00  0.00     0.067 A 
ATOM     20  N   UNK d   0     -18.233 -10.294 -15.424  0.00  0.00    -0.248 NA
ATOM     21  C   UNK d   0     -19.118 -10.271 -17.487  0.00  0.00    -0.011 A 
ATOM     22  C   UNK d   0     -17.829  -9.137 -16.044  0.00  0.00     0.066 A 
ATOM     23  C   UNK d   0     -16.984  -8.311 -15.318  0.00  0.00     0.062 C 
ATOM     24  C   UNK d   0     -18.429  -9.173 -17.363  0.00  0.00    -0.020 A 
ATOM     25  C   UNK d   0     -16.416  -8.556 -14.058  0.00  0.00     0.041 A 
ATOM     26  N   UNK d   0     -16.917  -9.118 -12.952  0.00  0.00    -0.355 N 
ATOM     27  C   UNK d   0     -15.069  -8.188 -13.842  0.00  0.00    -0.022 A 
ATOM     28  C   UNK d   0     -15.934  -9.125 -12.038  0.00  0.00     0.042 A 
ATOM     29  H   UNK d   0     -17.963  -9.483 -12.808  0.00  0.00     0.166 HD
ATOM     30  C   UNK d   0     -15.906  -9.597 -10.716  0.00  0.00     0.062 C 
ATOM     31  C   UNK d   0     -14.756  -8.545 -12.567  0.00  0.00    -0.013 A 
ATOM     32  C   UNK d   0     -16.479 -10.752 -10.209  0.00  0.00     0.066 A 
BRANCH   8  33
ATOM     33  C   UNK d   0     -17.474 -13.487  -7.962  0.00  0.00     0.151 C 
BRANCH  33  34
ATOM     34  C   UNK d   0     -16.600 -14.672  -8.039  0.00  0.00     0.143 C 
ATOM     35  O   UNK d   0     -15.652 -14.816  -7.255  0.00  0.00    -0.650 OA
BRANCH  34  36
ATOM     36  O   UNK d   0     -16.843 -15.628  -8.997  0.00  0.00    -0.776 OA
ATOM     37  H   UNK d   0     -16.072 -16.116  -9.473  0.00  0.00     0.167 HD
ENDBRANCH  34  36
ENDBRANCH  33  34
ENDBRANCH   8  33
BRANCH  31  38
ATOM     38  C   UNK d   0     -13.417  -8.360 -11.893  0.00  0.00     0.151 C 
BRANCH  38  39
ATOM     39  C   UNK d   0     -13.431  -7.313 -10.893  0.00  0.00     0.143 C 
ATOM     40  O   UNK d   0     -14.007  -6.226 -11.076  0.00  0.00    -0.650 OA
BRANCH  39  41
ATOM     41  O   UNK d   0     -12.780  -7.517  -9.677  0.00  0.00    -0.776 OA
ATOM     42  H   UNK d   0     -11.759  -7.431  -9.679  0.00  0.00     0.167 HD
ENDBRANCH  39  41
ENDBRANCH  38  39
ENDBRANCH  31  38
BRANCH  27  43
ATOM     43  C   UNK d   0     -14.095  -7.523 -14.782  0.00  0.00     0.052 C 
BRANCH  43  44
ATOM     44  C   UNK d   0     -13.796  -6.105 -14.418  0.00  0.00     0.115 C 
BRANCH  44  45
ATOM     45  C   UNK d   0     -14.831  -5.270 -15.080  0.00  0.00     0.139 C 
ATOM     46  O   UNK d   0     -15.308  -4.301 -14.438  0.00  0.00    -0.650 OA
BRANCH  45  47
ATOM     47  O   UNK d   0     -15.280  -5.511 -16.360  0.00  0.00    -0.776 OA
ATOM     48  H   UNK d   0     -15.043  -4.903 -17.161  0.00  0.00     0.167 HD
ENDBRANCH  45  47
ENDBRANCH  44  45
ENDBRANCH  43  44
ENDBRANCH  27  43
BRANCH  24  49
ATOM     49  C   UNK d   0     -18.238  -8.146 -18.402  0.00  0.00     0.052 C 
BRANCH  49  50
ATOM     50  C   UNK d   0     -16.894  -8.313 -19.063  0.00  0.00     0.115 C 
BRANCH  50  51
ATOM     51  C   UNK d   0     -16.377  -7.177 -19.815  0.00  0.00     0.139 C 
ATOM     52  O   UNK d   0     -15.950  -7.281 -20.989  0.00  0.00    -0.650 OA
BRANCH  51  53
ATOM     53  O   UNK d   0     -16.344  -5.923 -19.226  0.00  0.00    -0.776 OA
ATOM     54  H   UNK d   0     -17.082  -5.676 -18.590  0.00  0.00     0.167 HD
ENDBRANCH  51  53
ENDBRANCH  50  51
ENDBRANCH  49  50
ENDBRANCH  24  49
BRANCH  21  55
ATOM     55  C   UNK d   0     -19.896 -10.739 -18.672  0.00  0.00     0.151 C 
BRANCH  55  56
ATOM     56  C   UNK d   0     -19.194 -11.803 -19.406  0.00  0.00     0.143 C 
ATOM     57  O   UNK d   0     -18.178 -11.590 -20.096  0.00  0.00    -0.650 OA
BRANCH  56  58
ATOM     58  O   UNK d   0     -19.702 -13.098 -19.316  0.00  0.00    -0.776 OA
ATOM     59  H   UNK d   0     -19.344 -13.758 -20.029  0.00  0.00     0.167 HD
ENDBRANCH  56  58
ENDBRANCH  55  56
ENDBRANCH  21  55
BRANCH  18  60
ATOM     60  C   UNK d   0     -21.999 -13.468 -14.556  0.00  0.00     0.151 C 
BRANCH  60  61
ATOM     61  C   UNK d   0     -22.817 -12.313 -14.154  0.00  0.00     0.143 C 
ATOM     62  O   UNK d   0     -22.505 -11.124 -14.221  0.00  0.00    -0.650 OA
BRANCH  61  63
ATOM     63  O   UNK d   0     -24.097 -12.631 -13.639  0.00  0.00    -0.776 OA
ATOM     64  H   UNK d   0     -24.439 -12.199 -12.799  0.00  0.00     0.167 HD
ENDBRANCH  61  63
ENDBRANCH  60  61
ENDBRANCH  18  60
BRANCH  14  65
ATOM     65  C   UNK d   0     -21.292 -14.407 -11.758  0.00  0.00     0.052 C 
BRANCH  65  66
ATOM     66  C   UNK d   0     -21.191 -15.881 -11.935  0.00  0.00     0.115 C 
BRANCH  66  67
ATOM     67  C   UNK d   0     -22.104 -16.745 -11.242  0.00  0.00     0.139 C 
ATOM     68  O   UNK d   0     -22.905 -17.475 -11.935  0.00  0.00    -0.650 OA
BRANCH  67  69
ATOM     69  O   UNK d   0     -22.246 -16.907  -9.864  0.00  0.00    -0.776 OA
ATOM     70  H   UNK d   0     -21.372 -16.904  -9.320  0.00  0.00     0.167 HD
ENDBRANCH  67  69
ENDBRANCH  66  67
ENDBRANCH  65  66
ENDBRANCH  14  65
ENDBRANCH   6   7
ENDBRANCH   5   6
ENDBRANCH   2   5
TORSDOF 28
ENDMDL
MODEL 19
REMARK VINA RESULT:      -8.4      2.227      8.207
REMARK  28 active torsions:
REMARK  status: ('A' for Active; 'I' for Inactive)
REMARK    1  A    between atoms: C_2  and  O_3 
REMARK    2  A    between atoms: C_2  and  C_4 
REMARK    3  A    between atoms: C_4  and  C_5 
REMARK    4  A    between atoms: C_5  and  C_6 
REMARK    5  A    between atoms: C_7  and  C_8 
REMARK    6  A    between atoms: C_8  and  C_9 
REMARK    7  A    between atoms: C_9  and  O_11 
REMARK    8  A    between atoms: C_28  and  C_29 
REMARK    9  A    between atoms: C_29  and  C_30 
REMARK   10  A    between atoms: C_30  and  O_32 
REMARK   11  A    between atoms: C_33  and  C_34 
REMARK   12  A    between atoms: C_34  and  C_35 
REMARK   13  A    between atoms: C_35  and  C_36 
REMARK   14  A    between atoms: C_36  and  O_38 
REMARK   15  A    between atoms: C_39  and  C_40 
REMARK   16  A    between atoms: C_40  and  C_41 
REMARK   17  A    between atoms: C_41  and  C_42 
REMARK   18  A    between atoms: C_42  and  O_44 
REMARK   19  A    between atoms: C_45  and  C_46 
REMARK   20  A    between atoms: C_46  and  C_47 
REMARK   21  A    between atoms: C_47  and  O_49 
REMARK   22  A    between atoms: C_50  and  C_51 
REMARK   23  A    between atoms: C_51  and  C_52 
REMARK   24  A    between atoms: C_52  and  O_54 
REMARK   25  A    between atoms: C_55  and  C_56 
REMARK   26  A    between atoms: C_56  and  C_57 
REMARK   27  A    between atoms: C_57  and  C_58 
REMARK   28  A    between atoms: C_58  and  O_60 
ROOT
ATOM      1  O   UNK d   0     -20.983 -17.155 -16.968  0.00  0.00    -0.650 OA
ATOM      2  C   UNK d   0     -21.000 -15.988 -16.519  0.00  0.00     0.139 C 
ENDROOT
BRANCH   2   3
ATOM      3  O   UNK d   0     -20.970 -15.789 -15.159  0.00  0.00    -0.776 OA
ATOM      4  H   UNK d   0     -20.791 -14.863 -14.765  0.00  0.00     0.167 HD
ENDBRANCH   2   3
BRANCH   2   5
ATOM      5  C   UNK d   0     -21.053 -14.827 -17.452  0.00  0.00     0.115 C 
BRANCH   5   6
ATOM      6  C   UNK d   0     -21.396 -13.571 -16.698  0.00  0.00     0.052 C 
BRANCH   6   7
ATOM      7  C   UNK d   0     -20.198 -12.676 -16.485  0.00  0.00    -0.020 A 
ATOM      8  C   UNK d   0     -19.549 -11.984 -17.385  0.00  0.00    -0.011 A 
ATOM      9  C   UNK d   0     -18.467 -11.284 -16.713  0.00  0.00     0.067 A 
ATOM     10  C   UNK d   0     -17.451 -10.391 -17.089  0.00  0.00     0.062 C 
ATOM     11  N   UNK d   0     -18.528 -11.613 -15.406  0.00  0.00    -0.248 NA
ATOM     12  C   UNK d   0     -16.665  -9.599 -16.245  0.00  0.00     0.041 A 
ATOM     13  N   UNK d   0     -16.062  -9.879 -15.074  0.00  0.00    -0.355 N 
ATOM     14  C   UNK d   0     -16.463  -8.246 -16.574  0.00  0.00    -0.022 A 
ATOM     15  C   UNK d   0     -15.489  -8.737 -14.648  0.00  0.00     0.042 A 
ATOM     16  H   UNK d   0     -16.025 -10.869 -14.568  0.00  0.00     0.166 HD
ATOM     17  C   UNK d   0     -14.734  -8.471 -13.488  0.00  0.00     0.062 C 
ATOM     18  C   UNK d   0     -15.719  -7.691 -15.563  0.00  0.00    -0.013 A 
ATOM     19  C   UNK d   0     -14.980  -8.852 -12.194  0.00  0.00     0.067 A 
ATOM     20  N   UNK d   0     -15.943  -9.756 -12.002  0.00  0.00    -0.248 NA
ATOM     21  C   UNK d   0     -14.451  -8.506 -10.885  0.00  0.00    -0.011 A 
ATOM     22  C   UNK d   0     -16.084 -10.026 -10.662  0.00  0.00     0.066 A 
ATOM     23  C   UNK d   0     -17.030 -10.981 -10.322  0.00  0.00     0.062 C 
ATOM     24  C   UNK d   0     -15.105  -9.193  -9.993  0.00  0.00    -0.020 A 
ATOM     25  C   UNK d   0     -17.801 -11.775 -11.186  0.00  0.00     0.041 A 
ATOM     26  N   UNK d   0     -18.413 -11.493 -12.342  0.00  0.00    -0.355 N 
ATOM     27  C   UNK d   0     -17.999 -13.134 -10.856  0.00  0.00    -0.022 A 
ATOM     28  C   UNK d   0     -18.992 -12.628 -12.764  0.00  0.00     0.042 A 
ATOM     29  H   UNK d   0     -18.458 -10.495 -12.843  0.00  0.00     0.166 HD
ATOM     30  C   UNK d   0     -19.753 -12.904 -13.911  0.00  0.00     0.062 C 
ATOM     31  C   UNK d   0     -18.751 -13.681 -11.850  0.00  0.00    -0.013 A 
ATOM     32  C   UNK d   0     -19.549 -12.447 -15.203  0.00  0.00     0.066 A 
BRANCH   8  33
ATOM     33  C   UNK d   0     -19.841 -11.915 -18.829  0.00  0.00     0.151 C 
BRANCH  33  34
ATOM     34  C   UNK d   0     -20.324 -10.588 -19.251  0.00  0.00     0.143 C 
ATOM     35  O   UNK d   0     -19.741  -9.952 -20.141  0.00  0.00    -0.650 OA
BRANCH  34  36
ATOM     36  O   UNK d   0     -21.436 -10.050 -18.646  0.00  0.00    -0.776 OA
ATOM     37  H   UNK d   0     -22.343 -10.012 -19.131  0.00  0.00     0.167 HD
ENDBRANCH  34  36
ENDBRANCH  33  34
ENDBRANCH   8  33
BRANCH  31  38
ATOM     38  C   UNK d   0     -19.205 -15.120 -11.936  0.00  0.00     0.151 C 
BRANCH  38  39
ATOM     39  C   UNK d   0     -20.559 -15.311 -11.461  0.00  0.00     0.143 C 
ATOM     40  O   UNK d   0     -21.431 -15.872 -12.146  0.00  0.00    -0.650 OA
BRANCH  39  41
ATOM     41  O   UNK d   0     -20.911 -14.856 -10.191  0.00  0.00    -0.776 OA
ATOM     42  H   UNK d   0     -20.856 -15.535  -9.425  0.00  0.00     0.167 HD
ENDBRANCH  39  41
ENDBRANCH  38  39
ENDBRANCH  31  38
BRANCH  27  43
ATOM     43  C   UNK d   0     -17.512 -13.911  -9.658  0.00  0.00     0.052 C 
BRANCH  43  44
ATOM     44  C   UNK d   0     -16.510 -14.963 -10.005  0.00  0.00     0.115 C 
BRANCH  44  45
ATOM     45  C   UNK d   0     -16.158 -15.648  -8.734  0.00  0.00     0.139 C 
ATOM     46  O   UNK d   0     -15.800 -14.941  -7.760  0.00  0.00    -0.650 OA
BRANCH  45  47
ATOM     47  O   UNK d   0     -16.214 -17.017  -8.582  0.00  0.00    -0.776 OA
ATOM     48  H   UNK d   0     -15.418 -17.638  -8.798  0.00  0.00     0.167 HD
ENDBRANCH  45  47
ENDBRANCH  44  45
ENDBRANCH  43  44
ENDBRANCH  27  43
BRANCH  24  49
ATOM     49  C   UNK d   0     -14.866  -9.178  -8.539  0.00  0.00     0.052 C 
BRANCH  49  50
ATOM     50  C   UNK d   0     -15.800  -8.205  -7.865  0.00  0.00     0.115 C 
BRANCH  50  51
ATOM     51  C   UNK d   0     -15.321  -7.558  -6.651  0.00  0.00     0.139 C 
ATOM     52  O   UNK d   0     -14.227  -7.851  -6.114  0.00  0.00    -0.650 OA
BRANCH  51  53
ATOM     53  O   UNK d   0     -16.093  -6.577  -6.046  0.00  0.00    -0.776 OA
ATOM     54  H   UNK d   0     -15.705  -6.084  -5.261  0.00  0.00     0.167 HD
ENDBRANCH  51  53
ENDBRANCH  50  51
ENDBRANCH  49  50
ENDBRANCH  24  49
BRANCH  21  55
ATOM     55  C   UNK d   0     -13.346  -7.527 -10.663  0.00  0.00     0.151 C 
BRANCH  55  56
ATOM     56  C   UNK d   0     -13.846  -6.150 -10.531  0.00  0.00     0.143 C 
ATOM     57  O   UNK d   0     -14.249  -5.483 -11.503  0.00  0.00    -0.650 OA
BRANCH  56  58
ATOM     58  O   UNK d   0     -13.861  -5.585  -9.257  0.00  0.00    -0.776 OA
ATOM     59  H   UNK d   0     -13.876  -6.267  -8.477  0.00  0.00     0.167 HD
ENDBRANCH  56  58
ENDBRANCH  55  56
ENDBRANCH  21  55
BRANCH  18  60
ATOM     60  C   UNK d   0     -15.278  -6.250 -15.505  0.00  0.00     0.151 C 
BRANCH  60  61
ATOM     61  C   UNK d   0     -16.177  -5.590 -14.547  0.00  0.00     0.143 C 
ATOM     62  O   UNK d   0     -17.355  -5.871 -14.320  0.00  0.00    -0.650 OA
BRANCH  61  63
ATOM     63  O   UNK d   0     -15.602  -4.520 -13.819  0.00  0.00    -0.776 OA
ATOM     64  H   UNK d   0     -15.902  -4.310 -12.883  0.00  0.00     0.167 HD
ENDBRANCH  61  63
ENDBRANCH  60  61
ENDBRANCH  18  60
BRANCH  14  65
ATOM     65  C   UNK d   0     -16.832  -7.471 -17.807  0.00  0.00     0.052 C 
BRANCH  65  66
ATOM     66  C   UNK d   0     -15.821  -7.590 -18.893  0.00  0.00     0.115 C 
BRANCH  66  67
ATOM     67  C   UNK d   0     -16.205  -8.130 -20.167  0.00  0.00     0.139 C 
ATOM     68  O   UNK d   0     -15.285  -8.573 -20.948  0.00  0.00    -0.650 OA
BRANCH  67  69
ATOM     69  O   UNK d   0     -17.491  -8.242 -20.693  0.00  0.00    -0.776 OA
ATOM     70  H   UNK d   0     -17.990  -9.116 -20.473  0.00  0.00     0.167 HD
ENDBRANCH  67  69
ENDBRANCH  66  67
ENDBRANCH  65  66
ENDBRANCH  14  65
ENDBRANCH   6   7
ENDBRANCH   5   6
ENDBRANCH   2   5
TORSDOF 28
ENDMDL
MODEL 20
REMARK VINA RESULT:      -8.3      2.875      5.610
REMARK  28 active torsions:
REMARK  status: ('A' for Active; 'I' for Inactive)
REMARK    1  A    between atoms: C_2  and  O_3 
REMARK    2  A    between atoms: C_2  and  C_4 
REMARK    3  A    between atoms: C_4  and  C_5 
REMARK    4  A    between atoms: C_5  and  C_6 
REMARK    5  A    between atoms: C_7  and  C_8 
REMARK    6  A    between atoms: C_8  and  C_9 
REMARK    7  A    between atoms: C_9  and  O_11 
REMARK    8  A    between atoms: C_28  and  C_29 
REMARK    9  A    between atoms: C_29  and  C_30 
REMARK   10  A    between atoms: C_30  and  O_32 
REMARK   11  A    between atoms: C_33  and  C_34 
REMARK   12  A    between atoms: C_34  and  C_35 
REMARK   13  A    between atoms: C_35  and  C_36 
REMARK   14  A    between atoms: C_36  and  O_38 
REMARK   15  A    between atoms: C_39  and  C_40 
REMARK   16  A    between atoms: C_40  and  C_41 
REMARK   17  A    between atoms: C_41  and  C_42 
REMARK   18  A    between atoms: C_42  and  O_44 
REMARK   19  A    between atoms: C_45  and  C_46 
REMARK   20  A    between atoms: C_46  and  C_47 
REMARK   21  A    between atoms: C_47  and  O_49 
REMARK   22  A    between atoms: C_50  and  C_51 
REMARK   23  A    between atoms: C_51  and  C_52 
REMARK   24  A    between atoms: C_52  and  O_54 
REMARK   25  A    between atoms: C_55  and  C_56 
REMARK   26  A    between atoms: C_56  and  C_57 
REMARK   27  A    between atoms: C_57  and  C_58 
REMARK   28  A    between atoms: C_58  and  O_60 
ROOT
ATOM      1  O   UNK d   0     -16.617  -5.035 -15.041  0.00  0.00    -0.650 OA
ATOM      2  C   UNK d   0     -15.424  -5.181 -14.693  0.00  0.00     0.139 C 
ENDROOT
BRANCH   2   3
ATOM      3  O   UNK d   0     -14.458  -4.373 -15.243  0.00  0.00    -0.776 OA
ATOM      4  H   UNK d   0     -14.710  -3.562 -15.812  0.00  0.00     0.167 HD
ENDBRANCH   2   3
BRANCH   2   5
ATOM      5  C   UNK d   0     -15.058  -6.223 -13.692  0.00  0.00     0.115 C 
BRANCH   5   6
ATOM      6  C   UNK d   0     -15.961  -6.127 -12.492  0.00  0.00     0.052 C 
BRANCH   6   7
ATOM      7  C   UNK d   0     -16.046  -7.424 -11.724  0.00  0.00    -0.020 A 
ATOM      8  C   UNK d   0     -15.455  -7.725 -10.596  0.00  0.00    -0.011 A 
ATOM      9  C   UNK d   0     -15.827  -9.085 -10.248  0.00  0.00     0.067 A 
ATOM     10  C   UNK d   0     -15.562  -9.968  -9.189  0.00  0.00     0.062 C 
ATOM     11  N   UNK d   0     -16.644  -9.540 -11.222  0.00  0.00    -0.248 NA
ATOM     12  C   UNK d   0     -16.239 -11.154  -8.885  0.00  0.00     0.041 A 
ATOM     13  N   UNK d   0     -16.685 -12.149  -9.675  0.00  0.00    -0.355 N 
ATOM     14  C   UNK d   0     -16.605 -11.405  -7.550  0.00  0.00    -0.022 A 
ATOM     15  C   UNK d   0     -17.331 -13.020  -8.878  0.00  0.00     0.042 A 
ATOM     16  H   UNK d   0     -16.529 -12.243 -10.773  0.00  0.00     0.166 HD
ATOM     17  C   UNK d   0     -17.983 -14.230  -9.187  0.00  0.00     0.062 C 
ATOM     18  C   UNK d   0     -17.302 -12.588  -7.538  0.00  0.00    -0.013 A 
ATOM     19  C   UNK d   0     -18.845 -14.507 -10.217  0.00  0.00     0.067 A 
ATOM     20  N   UNK d   0     -18.947 -13.590 -11.182  0.00  0.00    -0.248 NA
ATOM     21  C   UNK d   0     -19.748 -15.593 -10.561  0.00  0.00    -0.011 A 
ATOM     22  C   UNK d   0     -19.853 -13.996 -12.132  0.00  0.00     0.066 A 
ATOM     23  C   UNK d   0     -20.030 -13.151 -13.217  0.00  0.00     0.062 C 
ATOM     24  C   UNK d   0     -20.338 -15.286 -11.680  0.00  0.00    -0.020 A 
ATOM     25  C   UNK d   0     -19.330 -11.970 -13.511  0.00  0.00     0.041 A 
ATOM     26  N   UNK d   0     -18.900 -10.974 -12.727  0.00  0.00    -0.355 N 
ATOM     27  C   UNK d   0     -18.959 -11.721 -14.850  0.00  0.00    -0.022 A 
ATOM     28  C   UNK d   0     -18.263 -10.099 -13.521  0.00  0.00     0.042 A 
ATOM     29  H   UNK d   0     -19.067 -10.876 -11.626  0.00  0.00     0.166 HD
ATOM     30  C   UNK d   0     -17.618  -8.888 -13.229  0.00  0.00     0.062 C 
ATOM     31  C   UNK d   0     -18.284 -10.540 -14.866  0.00  0.00    -0.013 A 
ATOM     32  C   UNK d   0     -16.816  -8.587 -12.140  0.00  0.00     0.066 A 
BRANCH   8  33
ATOM     33  C   UNK d   0     -14.562  -6.857  -9.807  0.00  0.00     0.151 C 
BRANCH  33  34
ATOM     34  C   UNK d   0     -13.135  -7.149 -10.034  0.00  0.00     0.143 C 
ATOM     35  O   UNK d   0     -12.719  -7.455 -11.161  0.00  0.00    -0.650 OA
BRANCH  34  36
ATOM     36  O   UNK d   0     -12.255  -7.081  -8.978  0.00  0.00    -0.776 OA
ATOM     37  H   UNK d   0     -12.136  -6.214  -8.437  0.00  0.00     0.167 HD
ENDBRANCH  34  36
ENDBRANCH  33  34
ENDBRANCH   8  33
BRANCH  31  38
ATOM     38  C   UNK d   0     -17.681  -9.874 -16.081  0.00  0.00     0.151 C 
BRANCH  38  39
ATOM     39  C   UNK d   0     -18.649  -9.116 -16.844  0.00  0.00     0.143 C 
ATOM     40  O   UNK d   0     -18.880  -9.350 -18.044  0.00  0.00    -0.650 OA
BRANCH  39  41
ATOM     41  O   UNK d   0     -19.356  -8.086 -16.226  0.00  0.00    -0.776 OA
ATOM     42  H   UNK d   0     -19.395  -8.102 -15.202  0.00  0.00     0.167 HD
ENDBRANCH  39  41
ENDBRANCH  38  39
ENDBRANCH  31  38
BRANCH  27  43
ATOM     43  C   UNK d   0     -19.221 -12.546 -16.086  0.00  0.00     0.052 C 
BRANCH  43  44
ATOM     44  C   UNK d   0     -20.604 -12.377 -16.627  0.00  0.00     0.115 C 
BRANCH  44  45
ATOM     45  C   UNK d   0     -21.271 -13.700 -16.505  0.00  0.00     0.139 C 
ATOM     46  O   UNK d   0     -20.971 -14.592 -17.337  0.00  0.00    -0.650 OA
BRANCH  45  47
ATOM     47  O   UNK d   0     -22.193 -13.984 -15.522  0.00  0.00    -0.776 OA
ATOM     48  H   UNK d   0     -22.987 -13.361 -15.301  0.00  0.00     0.167 HD
ENDBRANCH  45  47
ENDBRANCH  44  45
ENDBRANCH  43  44
ENDBRANCH  27  43
BRANCH  24  49
ATOM     49  C   UNK d   0     -21.305 -16.123 -12.410  0.00  0.00     0.052 C 
BRANCH  49  50
ATOM     50  C   UNK d   0     -22.645 -16.098 -11.721  0.00  0.00     0.115 C 
BRANCH  50  51
ATOM     51  C   UNK d   0     -23.235 -14.792 -11.462  0.00  0.00     0.139 C 
ATOM     52  O   UNK d   0     -23.567 -14.416 -10.313  0.00  0.00    -0.650 OA
BRANCH  51  53
ATOM     53  O   UNK d   0     -23.450 -13.915 -12.514  0.00  0.00    -0.776 OA
ATOM     54  H   UNK d   0     -23.447 -12.929 -12.319  0.00  0.00     0.167 HD
ENDBRANCH  51  53
ENDBRANCH  50  51
ENDBRANCH  49  50
ENDBRANCH  24  49
BRANCH  21  55
ATOM     55  C   UNK d   0     -19.923 -16.825  -9.737  0.00  0.00     0.151 C 
BRANCH  55  56
ATOM     56  C   UNK d   0     -18.743 -17.701  -9.796  0.00  0.00     0.143 C 
ATOM     57  O   UNK d   0     -18.322 -18.334  -8.808  0.00  0.00    -0.650 OA
BRANCH  56  58
ATOM     58  O   UNK d   0     -18.080 -17.815 -11.017  0.00  0.00    -0.776 OA
ATOM     59  H   UNK d   0     -17.069 -18.032 -10.946  0.00  0.00     0.167 HD
ENDBRANCH  56  58
ENDBRANCH  55  56
ENDBRANCH  21  55
BRANCH  18  60
ATOM     60  C   UNK d   0     -17.891 -13.232  -6.307  0.00  0.00     0.151 C 
BRANCH  60  61
ATOM     61  C   UNK d   0     -17.326 -14.589  -6.252  0.00  0.00     0.143 C 
ATOM     62  O   UNK d   0     -16.168 -14.921  -6.504  0.00  0.00    -0.650 OA
BRANCH  61  63
ATOM     63  O   UNK d   0     -18.234 -15.603  -5.864  0.00  0.00    -0.776 OA
ATOM     64  H   UNK d   0     -17.975 -16.299  -5.187  0.00  0.00     0.167 HD
ENDBRANCH  61  63
ENDBRANCH  60  61
ENDBRANCH  18  60
BRANCH  14  65
ATOM     65  C   UNK d   0     -16.264 -10.670  -6.284  0.00  0.00     0.052 C 
BRANCH  65  66
ATOM     66  C   UNK d   0     -16.734  -9.259  -6.287  0.00  0.00     0.115 C 
BRANCH  66  67
ATOM     67  C   UNK d   0     -18.140  -8.977  -6.356  0.00  0.00     0.139 C 
ATOM     68  O   UNK d   0     -18.518  -7.749  -6.412  0.00  0.00    -0.650 OA
BRANCH  67  69
ATOM     69  O   UNK d   0     -19.194  -9.890  -6.370  0.00  0.00    -0.776 OA
ATOM     70  H   UNK d   0     -19.613 -10.076  -7.292  0.00  0.00     0.167 HD
ENDBRANCH  67  69
ENDBRANCH  66  67
ENDBRANCH  65  66
ENDBRANCH  14  65
ENDBRANCH   6   7
ENDBRANCH   5   6
ENDBRANCH   2   5
TORSDOF 28
ENDMDL
