MODEL 1
REMARK VINA RESULT:     -10.8      0.000      0.000
REMARK  16 active torsions:
REMARK  status: ('A' for Active; 'I' for Inactive)
REMARK    1  A    between atoms: C_6  and  C_7 
REMARK    2  A    between atoms: C_7  and  C_8 
REMARK    3  A    between atoms: C_8  and  C_9 
REMARK    4  A    between atoms: C_9  and  O_11 
REMARK    5  A    between atoms: C_16  and  C_17 
REMARK    6  A    between atoms: C_17  and  C_18 
REMARK    7  A    between atoms: C_18  and  C_19 
REMARK    8  A    between atoms: C_19  and  O_21 
REMARK    9  A    between atoms: C_28  and  C_29 
REMARK   10  A    between atoms: C_29  and  C_30 
REMARK   11  A    between atoms: C_30  and  C_31 
REMARK   12  A    between atoms: C_31  and  O_33 
REMARK   13  A    between atoms: C_42  and  C_43 
REMARK   14  A    between atoms: C_43  and  C_44 
REMARK   15  A    between atoms: C_44  and  C_45 
REMARK   16  A    between atoms: C_45  and  O_47 
ROOT
HETATM    1  C   UNK     0       7.543   3.700  22.902  0.00  0.00     0.051 C 
HETATM    2  C   UNK     0       6.368   4.558  23.325  0.00  0.00    -0.031 A 
HETATM    3  C   UNK     0       6.339   5.899  23.676  0.00  0.00     0.021 A 
HETATM    4  N   UNK     0       5.072   6.238  24.015  0.00  0.00    -0.361 N 
HETATM    5  C   UNK     0       4.293   5.146  23.880  0.00  0.00     0.022 A 
HETATM    6  C   UNK     0       5.072   4.076  23.452  0.00  0.00    -0.027 A 
HETATM    7  C   UNK     0       2.811   5.008  24.038  0.00  0.00     0.115 C 
HETATM    8  C   UNK     0       1.957   6.116  23.447  0.00  0.00     0.021 A 
HETATM    9  N   UNK     0       2.163   6.824  22.326  0.00  0.00    -0.361 N 
HETATM   10  C   UNK     0       1.200   7.766  22.241  0.00  0.00     0.022 A 
HETATM   11  C   UNK     0       0.344   7.656  23.333  0.00  0.00    -0.027 A 
HETATM   12  C   UNK     0       0.815   6.619  24.097  0.00  0.00    -0.031 A 
HETATM   13  C   UNK     0       0.194   6.131  25.386  0.00  0.00     0.051 C 
HETATM   14  C   UNK     0       1.079   8.836  21.160  0.00  0.00     0.115 C 
HETATM   15  C   UNK     0       2.268   9.780  21.093  0.00  0.00     0.021 A 
HETATM   16  N   UNK     0       3.559   9.462  20.881  0.00  0.00    -0.361 N 
HETATM   17  C   UNK     0       4.303  10.567  20.965  0.00  0.00     0.022 A 
HETATM   18  C   UNK     0       3.455  11.660  21.235  0.00  0.00    -0.027 A 
HETATM   19  C   UNK     0       2.183  11.154  21.311  0.00  0.00    -0.031 A 
HETATM   20  C   UNK     0       0.950  12.005  21.553  0.00  0.00     0.051 C 
HETATM   21  C   UNK     0       5.803  10.738  20.878  0.00  0.00     0.115 C 
HETATM   22  C   UNK     0       6.665   9.623  21.422  0.00  0.00     0.022 A 
HETATM   23  N   UNK     0       6.481   8.899  22.534  0.00  0.00    -0.361 N 
HETATM   24  C   UNK     0       7.406   7.918  22.558  0.00  0.00     0.021 A 
HETATM   25  C   UNK     0       8.211   8.019  21.439  0.00  0.00    -0.031 A 
HETATM   26  C   UNK     0       9.405   7.175  21.045  0.00  0.00     0.051 C 
HETATM   27  C   UNK     0       7.756   9.103  20.697  0.00  0.00    -0.027 A 
HETATM   28  C   UNK     0       7.541   6.793  23.569  0.00  0.00     0.115 C 
HETATM   29  H   UNK     0       4.746   7.237  24.386  0.00  0.00     0.165 HD
HETATM   30  H   UNK     0       2.959   6.629  21.566  0.00  0.00     0.165 HD
HETATM   31  H   UNK     0       3.949   8.444  20.620  0.00  0.00     0.165 HD
HETATM   32  H   UNK     0       5.723   9.100  23.335  0.00  0.00     0.165 HD
ENDROOT
BRANCH   6  33
HETATM   33  C   UNK     0       4.684   2.648  23.162  0.00  0.00     0.051 C 
BRANCH  33  34
HETATM   34  C   UNK     0       4.793   1.800  24.407  0.00  0.00     0.114 C 
BRANCH  34  35
HETATM   35  C   UNK     0       3.422   1.665  24.977  0.00  0.00     0.139 C 
HETATM   36  O   UNK     0       2.556   0.951  24.393  0.00  0.00    -0.650 OA
BRANCH  35  37
HETATM   37  O   UNK     0       3.034   2.298  26.152  0.00  0.00    -0.776 OA
HETATM   38  H   UNK     0       2.415   1.861  26.815  0.00  0.00     0.167 HD
ENDBRANCH  35  37
ENDBRANCH  34  35
ENDBRANCH  33  34
ENDBRANCH   6  33
BRANCH  27  39
HETATM   39  C   UNK     0       8.424   9.570  19.452  0.00  0.00     0.051 C 
BRANCH  39  40
HETATM   40  C   UNK     0       9.607  10.420  19.576  0.00  0.00     0.114 C 
BRANCH  40  41
HETATM   41  C   UNK     0      10.751  10.281  18.702  0.00  0.00     0.139 C 
HETATM   42  O   UNK     0      11.217  11.212  18.032  0.00  0.00    -0.650 OA
BRANCH  41  43
HETATM   43  O   UNK     0      11.388   9.012  18.595  0.00  0.00    -0.776 OA
HETATM   44  H   UNK     0      11.546   8.701  17.644  0.00  0.00     0.167 HD
ENDBRANCH  41  43
ENDBRANCH  40  41
ENDBRANCH  39  40
ENDBRANCH  27  39
BRANCH  11  45
HETATM   45  C   UNK     0      -0.873   8.478  23.662  0.00  0.00     0.051 C 
BRANCH  45  46
HETATM   46  C   UNK     0      -2.154   7.865  23.228  0.00  0.00     0.114 C 
BRANCH  46  47
HETATM   47  C   UNK     0      -2.719   8.734  22.156  0.00  0.00     0.139 C 
HETATM   48  O   UNK     0      -2.169   9.819  21.922  0.00  0.00    -0.650 OA
BRANCH  47  49
HETATM   49  O   UNK     0      -3.825   8.343  21.445  0.00  0.00    -0.776 OA
HETATM   50  H   UNK     0      -4.578   8.999  21.204  0.00  0.00     0.167 HD
ENDBRANCH  47  49
ENDBRANCH  46  47
ENDBRANCH  45  46
ENDBRANCH  11  45
BRANCH  18  51
HETATM   51  C   UNK     0       3.834  13.110  21.391  0.00  0.00     0.051 C 
BRANCH  51  52
HETATM   52  C   UNK     0       4.095  13.635  19.987  0.00  0.00     0.114 C 
BRANCH  52  53
HETATM   53  C   UNK     0       5.344  14.417  19.916  0.00  0.00     0.139 C 
HETATM   54  O   UNK     0       6.139  14.406  20.869  0.00  0.00    -0.650 OA
BRANCH  53  55
HETATM   55  O   UNK     0       5.619  15.159  18.793  0.00  0.00    -0.776 OA
HETATM   56  H   UNK     0       6.357  14.994  18.150  0.00  0.00     0.167 HD
ENDBRANCH  53  55
ENDBRANCH  52  53
ENDBRANCH  51  52
ENDBRANCH  18  51
TORSDOF 16
ENDMDL
MODEL 2
REMARK VINA RESULT:     -10.7      1.907      2.078
REMARK  16 active torsions:
REMARK  status: ('A' for Active; 'I' for Inactive)
REMARK    1  A    between atoms: C_6  and  C_7 
REMARK    2  A    between atoms: C_7  and  C_8 
REMARK    3  A    between atoms: C_8  and  C_9 
REMARK    4  A    between atoms: C_9  and  O_11 
REMARK    5  A    between atoms: C_16  and  C_17 
REMARK    6  A    between atoms: C_17  and  C_18 
REMARK    7  A    between atoms: C_18  and  C_19 
REMARK    8  A    between atoms: C_19  and  O_21 
REMARK    9  A    between atoms: C_28  and  C_29 
REMARK   10  A    between atoms: C_29  and  C_30 
REMARK   11  A    between atoms: C_30  and  C_31 
REMARK   12  A    between atoms: C_31  and  O_33 
REMARK   13  A    between atoms: C_42  and  C_43 
REMARK   14  A    between atoms: C_43  and  C_44 
REMARK   15  A    between atoms: C_44  and  C_45 
REMARK   16  A    between atoms: C_45  and  O_47 
ROOT
HETATM    1  C   UNK     0       8.465   4.291  22.653  0.00  0.00     0.051 C 
HETATM    2  C   UNK     0       7.127   4.811  23.137  0.00  0.00    -0.031 A 
HETATM    3  C   UNK     0       6.790   6.072  23.604  0.00  0.00     0.021 A 
HETATM    4  N   UNK     0       5.483   6.077  23.958  0.00  0.00    -0.361 N 
HETATM    5  C   UNK     0       4.978   4.849  23.719  0.00  0.00     0.022 A 
HETATM    6  C   UNK     0       5.980   4.032  23.208  0.00  0.00    -0.027 A 
HETATM    7  C   UNK     0       3.570   4.358  23.848  0.00  0.00     0.115 C 
HETATM    8  C   UNK     0       2.476   5.285  23.347  0.00  0.00     0.021 A 
HETATM    9  N   UNK     0       2.501   6.116  22.294  0.00  0.00    -0.361 N 
HETATM   10  C   UNK     0       1.344   6.812  22.282  0.00  0.00     0.022 A 
HETATM   11  C   UNK     0       0.548   6.411  23.350  0.00  0.00    -0.027 A 
HETATM   12  C   UNK     0       1.255   5.448  24.026  0.00  0.00    -0.031 A 
HETATM   13  C   UNK     0       0.777   4.718  25.261  0.00  0.00     0.051 C 
HETATM   14  C   UNK     0       0.967   7.916  21.298  0.00  0.00     0.115 C 
HETATM   15  C   UNK     0       1.904   9.113  21.326  0.00  0.00     0.021 A 
HETATM   16  N   UNK     0       3.231   9.123  21.102  0.00  0.00    -0.361 N 
HETATM   17  C   UNK     0       3.699  10.359  21.291  0.00  0.00     0.022 A 
HETATM   18  C   UNK     0       2.623  11.196  21.646  0.00  0.00    -0.027 A 
HETATM   19  C   UNK     0       1.504  10.404  21.663  0.00  0.00    -0.031 A 
HETATM   20  C   UNK     0       0.109  10.920  21.966  0.00  0.00     0.051 C 
HETATM   21  C   UNK     0       5.116  10.881  21.236  0.00  0.00     0.115 C 
HETATM   22  C   UNK     0       6.219   9.953  21.689  0.00  0.00     0.022 A 
HETATM   23  N   UNK     0       6.220   9.111  22.731  0.00  0.00    -0.361 N 
HETATM   24  C   UNK     0       7.348   8.374  22.679  0.00  0.00     0.021 A 
HETATM   25  C   UNK     0       8.096   8.757  21.583  0.00  0.00    -0.031 A 
HETATM   26  C   UNK     0       9.450   8.252  21.129  0.00  0.00     0.051 C 
HETATM   27  C   UNK     0       7.395   9.767  20.934  0.00  0.00    -0.027 A 
HETATM   28  C   UNK     0       7.751   7.227  23.589  0.00  0.00     0.115 C 
HETATM   29  H   UNK     0       4.937   6.936  24.411  0.00  0.00     0.165 HD
HETATM   30  H   UNK     0       3.313   6.179  21.529  0.00  0.00     0.165 HD
HETATM   31  H   UNK     0       3.844   8.250  20.757  0.00  0.00     0.165 HD
HETATM   32  H   UNK     0       5.444   9.060  23.538  0.00  0.00     0.165 HD
ENDROOT
BRANCH   6  33
HETATM   33  C   UNK     0       5.932   2.584  22.789  0.00  0.00     0.051 C 
BRANCH  33  34
HETATM   34  C   UNK     0       6.213   1.677  23.964  0.00  0.00     0.114 C 
BRANCH  34  35
HETATM   35  C   UNK     0       4.910   1.100  24.404  0.00  0.00     0.139 C 
HETATM   36  O   UNK     0       4.415   0.107  23.795  0.00  0.00    -0.650 OA
BRANCH  35  37
HETATM   37  O   UNK     0       4.191   1.607  25.479  0.00  0.00    -0.776 OA
HETATM   38  H   UNK     0       3.326   1.192  25.787  0.00  0.00     0.167 HD
ENDBRANCH  35  37
ENDBRANCH  34  35
ENDBRANCH  33  34
ENDBRANCH   6  33
BRANCH  27  39
HETATM   39  C   UNK     0       7.923  10.484  19.741  0.00  0.00     0.051 C 
BRANCH  39  40
HETATM   40  C   UNK     0       8.772  11.656  19.956  0.00  0.00     0.114 C 
BRANCH  40  41
HETATM   41  C   UNK     0       8.617  12.520  21.104  0.00  0.00     0.139 C 
HETATM   42  O   UNK     0       7.835  13.480  21.136  0.00  0.00    -0.650 OA
BRANCH  41  43
HETATM   43  O   UNK     0       9.397  12.269  22.268  0.00  0.00    -0.776 OA
HETATM   44  H   UNK     0       9.472  13.057  22.900  0.00  0.00     0.167 HD
ENDBRANCH  41  43
ENDBRANCH  40  41
ENDBRANCH  39  40
ENDBRANCH  27  39
BRANCH  11  45
HETATM   45  C   UNK     0      -0.823   6.896  23.737  0.00  0.00     0.051 C 
BRANCH  45  46
HETATM   46  C   UNK     0      -0.895   8.353  24.015  0.00  0.00     0.114 C 
BRANCH  46  47
HETATM   47  C   UNK     0      -0.048   8.616  25.214  0.00  0.00     0.139 C 
HETATM   48  O   UNK     0       0.855   9.460  25.127  0.00  0.00    -0.650 OA
BRANCH  47  49
HETATM   49  O   UNK     0      -0.263   7.939  26.388  0.00  0.00    -0.776 OA
HETATM   50  H   UNK     0      -0.505   6.941  26.405  0.00  0.00     0.167 HD
ENDBRANCH  47  49
ENDBRANCH  46  47
ENDBRANCH  45  46
ENDBRANCH  11  45
BRANCH  18  51
HETATM   51  C   UNK     0       2.655  12.675  21.932  0.00  0.00     0.051 C 
BRANCH  51  52
HETATM   52  C   UNK     0       2.638  13.372  20.580  0.00  0.00     0.114 C 
BRANCH  52  53
HETATM   53  C   UNK     0       3.541  14.539  20.551  0.00  0.00     0.139 C 
HETATM   54  O   UNK     0       4.718  14.424  20.928  0.00  0.00    -0.650 OA
BRANCH  53  55
HETATM   55  O   UNK     0       3.070  15.751  20.108  0.00  0.00    -0.776 OA
HETATM   56  H   UNK     0       3.421  16.268  19.337  0.00  0.00     0.167 HD
ENDBRANCH  53  55
ENDBRANCH  52  53
ENDBRANCH  51  52
ENDBRANCH  18  51
TORSDOF 16
ENDMDL
MODEL 3
REMARK VINA RESULT:     -10.6      2.450      8.535
REMARK  16 active torsions:
REMARK  status: ('A' for Active; 'I' for Inactive)
REMARK    1  A    between atoms: C_6  and  C_7 
REMARK    2  A    between atoms: C_7  and  C_8 
REMARK    3  A    between atoms: C_8  and  C_9 
REMARK    4  A    between atoms: C_9  and  O_11 
REMARK    5  A    between atoms: C_16  and  C_17 
REMARK    6  A    between atoms: C_17  and  C_18 
REMARK    7  A    between atoms: C_18  and  C_19 
REMARK    8  A    between atoms: C_19  and  O_21 
REMARK    9  A    between atoms: C_28  and  C_29 
REMARK   10  A    between atoms: C_29  and  C_30 
REMARK   11  A    between atoms: C_30  and  C_31 
REMARK   12  A    between atoms: C_31  and  O_33 
REMARK   13  A    between atoms: C_42  and  C_43 
REMARK   14  A    between atoms: C_43  and  C_44 
REMARK   15  A    between atoms: C_44  and  C_45 
REMARK   16  A    between atoms: C_45  and  O_47 
ROOT
HETATM    1  C   UNK     0       0.599   6.486  22.915  0.00  0.00     0.051 C 
HETATM    2  C   UNK     0       1.715   7.495  22.730  0.00  0.00    -0.031 A 
HETATM    3  C   UNK     0       2.923   7.603  23.400  0.00  0.00     0.021 A 
HETATM    4  N   UNK     0       3.596   8.678  22.924  0.00  0.00    -0.361 N 
HETATM    5  C   UNK     0       2.847   9.251  21.960  0.00  0.00     0.022 A 
HETATM    6  C   UNK     0       1.662   8.538  21.814  0.00  0.00    -0.027 A 
HETATM    7  C   UNK     0       3.172  10.403  21.061  0.00  0.00     0.115 C 
HETATM    8  C   UNK     0       4.573  10.436  20.475  0.00  0.00     0.021 A 
HETATM    9  N   UNK     0       5.338   9.408  20.080  0.00  0.00    -0.361 N 
HETATM   10  C   UNK     0       6.541   9.897  19.712  0.00  0.00     0.022 A 
HETATM   11  C   UNK     0       6.548  11.281  19.867  0.00  0.00    -0.027 A 
HETATM   12  C   UNK     0       5.310  11.627  20.346  0.00  0.00    -0.031 A 
HETATM   13  C   UNK     0       4.857  13.035  20.661  0.00  0.00     0.051 C 
HETATM   14  C   UNK     0       7.746   9.080  19.254  0.00  0.00     0.115 C 
HETATM   15  C   UNK     0       8.255   8.097  20.296  0.00  0.00     0.021 A 
HETATM   16  N   UNK     0       7.574   7.094  20.882  0.00  0.00    -0.361 N 
HETATM   17  C   UNK     0       8.354   6.508  21.792  0.00  0.00     0.022 A 
HETATM   18  C   UNK     0       9.607   7.153  21.793  0.00  0.00    -0.027 A 
HETATM   19  C   UNK     0       9.532   8.146  20.851  0.00  0.00    -0.031 A 
HETATM   20  C   UNK     0      10.688   9.066  20.502  0.00  0.00     0.051 C 
HETATM   21  C   UNK     0       8.045   5.391  22.763  0.00  0.00     0.115 C 
HETATM   22  C   UNK     0       6.642   5.319  23.320  0.00  0.00     0.022 A 
HETATM   23  N   UNK     0       5.855   6.327  23.718  0.00  0.00    -0.361 N 
HETATM   24  C   UNK     0       4.637   5.825  24.005  0.00  0.00     0.021 A 
HETATM   25  C   UNK     0       4.643   4.459  23.796  0.00  0.00    -0.031 A 
HETATM   26  C   UNK     0       3.530   3.456  24.018  0.00  0.00     0.051 C 
HETATM   27  C   UNK     0       5.916   4.112  23.358  0.00  0.00    -0.027 A 
HETATM   28  C   UNK     0       3.388   6.590  24.407  0.00  0.00     0.115 C 
HETATM   29  H   UNK     0       4.578   9.047  23.301  0.00  0.00     0.165 HD
HETATM   30  H   UNK     0       5.016   8.340  20.011  0.00  0.00     0.165 HD
HETATM   31  H   UNK     0       6.537   6.762  20.615  0.00  0.00     0.165 HD
HETATM   32  H   UNK     0       6.165   7.397  23.841  0.00  0.00     0.165 HD
ENDROOT
BRANCH   6  33
HETATM   33  C   UNK     0       0.497   8.771  20.886  0.00  0.00     0.051 C 
BRANCH  33  34
HETATM   34  C   UNK     0      -0.446   9.802  21.459  0.00  0.00     0.114 C 
BRANCH  34  35
HETATM   35  C   UNK     0      -1.808   9.194  21.485  0.00  0.00     0.139 C 
HETATM   36  O   UNK     0      -2.432   8.981  20.405  0.00  0.00    -0.650 OA
BRANCH  35  37
HETATM   37  O   UNK     0      -2.446   8.837  22.667  0.00  0.00    -0.776 OA
HETATM   38  H   UNK     0      -2.385   9.402  23.499  0.00  0.00     0.167 HD
ENDBRANCH  35  37
ENDBRANCH  34  35
ENDBRANCH  33  34
ENDBRANCH   6  33
BRANCH  27  39
HETATM   39  C   UNK     0       6.327   2.706  23.096  0.00  0.00     0.051 C 
BRANCH  39  40
HETATM   40  C   UNK     0       6.612   1.841  24.241  0.00  0.00     0.114 C 
BRANCH  40  41
HETATM   41  C   UNK     0       6.157   0.471  24.304  0.00  0.00     0.139 C 
HETATM   42  O   UNK     0       5.250   0.018  23.592  0.00  0.00    -0.650 OA
BRANCH  41  43
HETATM   43  O   UNK     0       6.773  -0.420  25.228  0.00  0.00    -0.776 OA
HETATM   44  H   UNK     0       7.724  -0.176  25.475  0.00  0.00     0.167 HD
ENDBRANCH  41  43
ENDBRANCH  40  41
ENDBRANCH  39  40
ENDBRANCH  27  39
BRANCH  11  45
HETATM   45  C   UNK     0       7.658  12.255  19.578  0.00  0.00     0.051 C 
BRANCH  45  46
HETATM   46  C   UNK     0       8.931  11.949  20.280  0.00  0.00     0.114 C 
BRANCH  46  47
HETATM   47  C   UNK     0       8.898  12.665  21.587  0.00  0.00     0.139 C 
HETATM   48  O   UNK     0       8.449  13.819  21.619  0.00  0.00    -0.650 OA
BRANCH  47  49
HETATM   49  O   UNK     0       9.357  12.062  22.731  0.00  0.00    -0.776 OA
HETATM   50  H   UNK     0       9.711  12.603  23.528  0.00  0.00     0.167 HD
ENDBRANCH  47  49
ENDBRANCH  46  47
ENDBRANCH  45  46
ENDBRANCH  11  45
BRANCH  18  51
HETATM   51  C   UNK     0      10.816   6.827  22.631  0.00  0.00     0.051 C 
BRANCH  51  52
HETATM   52  C   UNK     0      10.778   7.775  23.821  0.00  0.00     0.114 C 
BRANCH  52  53
HETATM   53  C   UNK     0      11.136   7.092  25.079  0.00  0.00     0.139 C 
HETATM   54  O   UNK     0      10.369   6.248  25.569  0.00  0.00    -0.650 OA
BRANCH  53  55
HETATM   55  O   UNK     0      12.320   7.399  25.705  0.00  0.00    -0.776 OA
HETATM   56  H   UNK     0      13.131   7.772  25.270  0.00  0.00     0.167 HD
ENDBRANCH  53  55
ENDBRANCH  52  53
ENDBRANCH  51  52
ENDBRANCH  18  51
TORSDOF 16
ENDMDL
MODEL 4
REMARK VINA RESULT:     -10.3      2.427      7.902
REMARK  16 active torsions:
REMARK  status: ('A' for Active; 'I' for Inactive)
REMARK    1  A    between atoms: C_6  and  C_7 
REMARK    2  A    between atoms: C_7  and  C_8 
REMARK    3  A    between atoms: C_8  and  C_9 
REMARK    4  A    between atoms: C_9  and  O_11 
REMARK    5  A    between atoms: C_16  and  C_17 
REMARK    6  A    between atoms: C_17  and  C_18 
REMARK    7  A    between atoms: C_18  and  C_19 
REMARK    8  A    between atoms: C_19  and  O_21 
REMARK    9  A    between atoms: C_28  and  C_29 
REMARK   10  A    between atoms: C_29  and  C_30 
REMARK   11  A    between atoms: C_30  and  C_31 
REMARK   12  A    between atoms: C_31  and  O_33 
REMARK   13  A    between atoms: C_42  and  C_43 
REMARK   14  A    between atoms: C_43  and  C_44 
REMARK   15  A    between atoms: C_44  and  C_45 
REMARK   16  A    between atoms: C_45  and  O_47 
ROOT
HETATM    1  C   UNK     0       6.117  13.050  19.782  0.00  0.00     0.051 C 
HETATM    2  C   UNK     0       5.179  11.884  20.022  0.00  0.00    -0.031 A 
HETATM    3  C   UNK     0       5.340  10.545  19.702  0.00  0.00     0.021 A 
HETATM    4  N   UNK     0       4.231   9.865  20.077  0.00  0.00    -0.361 N 
HETATM    5  C   UNK     0       3.370  10.740  20.637  0.00  0.00     0.022 A 
HETATM    6  C   UNK     0       3.930  12.012  20.617  0.00  0.00    -0.027 A 
HETATM    7  C   UNK     0       2.049  10.487  21.294  0.00  0.00     0.115 C 
HETATM    8  C   UNK     0       1.965   9.283  22.215  0.00  0.00     0.021 A 
HETATM    9  N   UNK     0       2.906   8.790  23.035  0.00  0.00    -0.361 N 
HETATM   10  C   UNK     0       2.426   7.657  23.591  0.00  0.00     0.022 A 
HETATM   11  C   UNK     0       1.137   7.419  23.124  0.00  0.00    -0.027 A 
HETATM   12  C   UNK     0       0.840   8.440  22.257  0.00  0.00    -0.031 A 
HETATM   13  C   UNK     0      -0.464   8.599  21.508  0.00  0.00     0.051 C 
HETATM   14  C   UNK     0       3.180   6.729  24.539  0.00  0.00     0.115 C 
HETATM   15  C   UNK     0       4.438   6.123  23.937  0.00  0.00     0.021 A 
HETATM   16  N   UNK     0       5.506   6.773  23.440  0.00  0.00    -0.361 N 
HETATM   17  C   UNK     0       6.368   5.883  22.942  0.00  0.00     0.022 A 
HETATM   18  C   UNK     0       5.840   4.591  23.132  0.00  0.00    -0.027 A 
HETATM   19  C   UNK     0       4.631   4.755  23.757  0.00  0.00    -0.031 A 
HETATM   20  C   UNK     0       3.738   3.603  24.182  0.00  0.00     0.051 C 
HETATM   21  C   UNK     0       7.676   6.099  22.215  0.00  0.00     0.115 C 
HETATM   22  C   UNK     0       7.788   7.318  21.329  0.00  0.00     0.022 A 
HETATM   23  N   UNK     0       6.866   7.834  20.506  0.00  0.00    -0.361 N 
HETATM   24  C   UNK     0       7.336   9.002  20.023  0.00  0.00     0.021 A 
HETATM   25  C   UNK     0       8.595   9.239  20.540  0.00  0.00    -0.031 A 
HETATM   26  C   UNK     0       9.537  10.393  20.265  0.00  0.00     0.051 C 
HETATM   27  C   UNK     0       8.907   8.175  21.378  0.00  0.00    -0.027 A 
HETATM   28  C   UNK     0       6.615   9.994  19.127  0.00  0.00     0.115 C 
HETATM   29  H   UNK     0       4.047   8.779  19.907  0.00  0.00     0.165 HD
HETATM   30  H   UNK     0       3.891   9.266  23.262  0.00  0.00     0.165 HD
HETATM   31  H   UNK     0       5.679   7.880  23.485  0.00  0.00     0.165 HD
HETATM   32  H   UNK     0       5.892   7.356  20.224  0.00  0.00     0.165 HD
ENDROOT
BRANCH   6  33
HETATM   33  C   UNK     0       3.376  13.325  21.110  0.00  0.00     0.051 C 
BRANCH  33  34
HETATM   34  C   UNK     0       2.525  13.980  20.048  0.00  0.00     0.114 C 
BRANCH  34  35
HETATM   35  C   UNK     0       2.798  15.445  20.098  0.00  0.00     0.139 C 
HETATM   36  O   UNK     0       1.852  16.263  20.293  0.00  0.00    -0.650 OA
BRANCH  35  37
HETATM   37  O   UNK     0       4.072  15.976  19.941  0.00  0.00    -0.776 OA
HETATM   38  H   UNK     0       4.443  16.671  20.569  0.00  0.00     0.167 HD
ENDBRANCH  35  37
ENDBRANCH  34  35
ENDBRANCH  33  34
ENDBRANCH   6  33
BRANCH  27  39
HETATM   39  C   UNK     0      10.220   8.042  22.065  0.00  0.00     0.051 C 
BRANCH  39  40
HETATM   40  C   UNK     0      10.330   8.505  23.448  0.00  0.00     0.114 C 
BRANCH  40  41
HETATM   41  C   UNK     0      11.309   7.967  24.366  0.00  0.00     0.139 C 
HETATM   42  O   UNK     0      11.068   7.721  25.555  0.00  0.00    -0.650 OA
BRANCH  41  43
HETATM   43  O   UNK     0      12.626   7.701  23.894  0.00  0.00    -0.776 OA
HETATM   44  H   UNK     0      13.304   8.420  24.114  0.00  0.00     0.167 HD
ENDBRANCH  41  43
ENDBRANCH  40  41
ENDBRANCH  39  40
ENDBRANCH  27  39
BRANCH  11  45
HETATM   45  C   UNK     0       0.205   6.288  23.467  0.00  0.00     0.051 C 
BRANCH  45  46
HETATM   46  C   UNK     0      -0.741   6.596  24.570  0.00  0.00     0.114 C 
BRANCH  46  47
HETATM   47  C   UNK     0      -0.092   6.166  25.841  0.00  0.00     0.139 C 
HETATM   48  O   UNK     0       0.362   5.016  25.915  0.00  0.00    -0.650 OA
BRANCH  47  49
HETATM   49  O   UNK     0       0.002   7.025  26.907  0.00  0.00    -0.776 OA
HETATM   50  H   UNK     0      -0.808   7.553  27.254  0.00  0.00     0.167 HD
ENDBRANCH  47  49
ENDBRANCH  46  47
ENDBRANCH  45  46
ENDBRANCH  11  45
BRANCH  18  51
HETATM   51  C   UNK     0       6.462   3.271  22.757  0.00  0.00     0.051 C 
BRANCH  51  52
HETATM   52  C   UNK     0       6.987   2.665  24.050  0.00  0.00     0.114 C 
BRANCH  52  53
HETATM   53  C   UNK     0       6.496   1.287  24.249  0.00  0.00     0.139 C 
HETATM   54  O   UNK     0       6.094   0.625  23.280  0.00  0.00    -0.650 OA
BRANCH  53  55
HETATM   55  O   UNK     0       6.485   0.746  25.512  0.00  0.00    -0.776 OA
HETATM   56  H   UNK     0       6.895  -0.117  25.781  0.00  0.00     0.167 HD
ENDBRANCH  53  55
ENDBRANCH  52  53
ENDBRANCH  51  52
ENDBRANCH  18  51
TORSDOF 16
ENDMDL
MODEL 5
REMARK VINA RESULT:     -10.2      1.863      7.874
REMARK  16 active torsions:
REMARK  status: ('A' for Active; 'I' for Inactive)
REMARK    1  A    between atoms: C_6  and  C_7 
REMARK    2  A    between atoms: C_7  and  C_8 
REMARK    3  A    between atoms: C_8  and  C_9 
REMARK    4  A    between atoms: C_9  and  O_11 
REMARK    5  A    between atoms: C_16  and  C_17 
REMARK    6  A    between atoms: C_17  and  C_18 
REMARK    7  A    between atoms: C_18  and  C_19 
REMARK    8  A    between atoms: C_19  and  O_21 
REMARK    9  A    between atoms: C_28  and  C_29 
REMARK   10  A    between atoms: C_29  and  C_30 
REMARK   11  A    between atoms: C_30  and  C_31 
REMARK   12  A    between atoms: C_31  and  O_33 
REMARK   13  A    between atoms: C_42  and  C_43 
REMARK   14  A    between atoms: C_43  and  C_44 
REMARK   15  A    between atoms: C_44  and  C_45 
REMARK   16  A    between atoms: C_45  and  O_47 
ROOT
HETATM    1  C   UNK     0      -0.745   4.769  22.984  0.00  0.00     0.051 C 
HETATM    2  C   UNK     0       0.135   6.002  22.978  0.00  0.00    -0.031 A 
HETATM    3  C   UNK     0       1.274   6.274  23.719  0.00  0.00     0.021 A 
HETATM    4  N   UNK     0       1.717   7.516  23.409  0.00  0.00    -0.361 N 
HETATM    5  C   UNK     0       0.890   8.038  22.480  0.00  0.00     0.022 A 
HETATM    6  C   UNK     0      -0.113   7.119  22.189  0.00  0.00    -0.027 A 
HETATM    7  C   UNK     0       0.987   9.335  21.740  0.00  0.00     0.115 C 
HETATM    8  C   UNK     0       2.364   9.732  21.238  0.00  0.00     0.021 A 
HETATM    9  N   UNK     0       3.341   8.942  20.766  0.00  0.00    -0.361 N 
HETATM   10  C   UNK     0       4.422   9.713  20.523  0.00  0.00     0.022 A 
HETATM   11  C   UNK     0       4.131  11.036  20.838  0.00  0.00    -0.027 A 
HETATM   12  C   UNK     0       2.836  11.056  21.289  0.00  0.00    -0.031 A 
HETATM   13  C   UNK     0       2.086  12.288  21.742  0.00  0.00     0.051 C 
HETATM   14  C   UNK     0       5.785   9.226  20.036  0.00  0.00     0.115 C 
HETATM   15  C   UNK     0       6.463   8.248  20.982  0.00  0.00     0.021 A 
HETATM   16  N   UNK     0       5.994   7.060  21.409  0.00  0.00    -0.361 N 
HETATM   17  C   UNK     0       6.856   6.538  22.285  0.00  0.00     0.022 A 
HETATM   18  C   UNK     0       7.943   7.424  22.428  0.00  0.00    -0.027 A 
HETATM   19  C   UNK     0       7.685   8.490  21.605  0.00  0.00    -0.031 A 
HETATM   20  C   UNK     0       8.627   9.666  21.428  0.00  0.00     0.051 C 
HETATM   21  C   UNK     0       6.764   5.268  23.100  0.00  0.00     0.115 C 
HETATM   22  C   UNK     0       5.394   4.839  23.570  0.00  0.00     0.022 A 
HETATM   23  N   UNK     0       4.400   5.603  24.040  0.00  0.00    -0.361 N 
HETATM   24  C   UNK     0       3.309   4.828  24.202  0.00  0.00     0.021 A 
HETATM   25  C   UNK     0       3.611   3.530  23.836  0.00  0.00    -0.031 A 
HETATM   26  C   UNK     0       2.730   2.298  23.879  0.00  0.00     0.051 C 
HETATM   27  C   UNK     0       4.939   3.512  23.428  0.00  0.00    -0.027 A 
HETATM   28  C   UNK     0       1.916   5.260  24.624  0.00  0.00     0.115 C 
HETATM   29  H   UNK     0       2.588   8.030  23.878  0.00  0.00     0.165 HD
HETATM   30  H   UNK     0       3.255   7.848  20.556  0.00  0.00     0.165 HD
HETATM   31  H   UNK     0       5.059   6.557  21.050  0.00  0.00     0.165 HD
HETATM   32  H   UNK     0       4.472   6.690  24.305  0.00  0.00     0.165 HD
ENDROOT
BRANCH   6  33
HETATM   33  C   UNK     0      -1.275   7.220  21.234  0.00  0.00     0.051 C 
BRANCH  33  34
HETATM   34  C   UNK     0      -2.516   7.698  21.949  0.00  0.00     0.114 C 
BRANCH  34  35
HETATM   35  C   UNK     0      -3.653   6.851  21.486  0.00  0.00     0.139 C 
HETATM   36  O   UNK     0      -4.818   7.046  21.938  0.00  0.00    -0.650 OA
BRANCH  35  37
HETATM   37  O   UNK     0      -3.496   5.831  20.555  0.00  0.00    -0.776 OA
HETATM   38  H   UNK     0      -3.789   5.933  19.597  0.00  0.00     0.167 HD
ENDBRANCH  35  37
ENDBRANCH  34  35
ENDBRANCH  33  34
ENDBRANCH   6  33
BRANCH  27  39
HETATM   39  C   UNK     0       5.647   2.266  23.026  0.00  0.00     0.051 C 
BRANCH  39  40
HETATM   40  C   UNK     0       6.337   1.495  24.059  0.00  0.00     0.114 C 
BRANCH  40  41
HETATM   41  C   UNK     0       6.314   0.050  24.088  0.00  0.00     0.139 C 
HETATM   42  O   UNK     0       5.892  -0.645  23.155  0.00  0.00    -0.650 OA
BRANCH  41  43
HETATM   43  O   UNK     0       6.797  -0.626  25.245  0.00  0.00    -0.776 OA
HETATM   44  H   UNK     0       7.804  -0.726  25.281  0.00  0.00     0.167 HD
ENDBRANCH  41  43
ENDBRANCH  40  41
ENDBRANCH  39  40
ENDBRANCH  27  39
BRANCH  11  45
HETATM   45  C   UNK     0       5.016  12.248  20.725  0.00  0.00     0.051 C 
BRANCH  45  46
HETATM   46  C   UNK     0       4.446  13.341  19.896  0.00  0.00     0.114 C 
BRANCH  46  47
HETATM   47  C   UNK     0       5.434  14.457  19.896  0.00  0.00     0.139 C 
HETATM   48  O   UNK     0       6.014  14.735  20.955  0.00  0.00    -0.650 OA
BRANCH  47  49
HETATM   49  O   UNK     0       5.696  15.163  18.749  0.00  0.00    -0.776 OA
HETATM   50  H   UNK     0       5.794  16.186  18.749  0.00  0.00     0.167 HD
ENDBRANCH  47  49
ENDBRANCH  46  47
ENDBRANCH  45  46
ENDBRANCH  11  45
BRANCH  18  51
HETATM   51  C   UNK     0       9.170   7.253  23.285  0.00  0.00     0.051 C 
BRANCH  51  52
HETATM   52  C   UNK     0      10.021   6.191  22.604  0.00  0.00     0.114 C 
BRANCH  52  53
HETATM   53  C   UNK     0      10.810   6.750  21.490  0.00  0.00     0.139 C 
HETATM   54  O   UNK     0      11.643   7.644  21.706  0.00  0.00    -0.650 OA
BRANCH  53  55
HETATM   55  O   UNK     0      10.615   6.277  20.215  0.00  0.00    -0.776 OA
HETATM   56  H   UNK     0      10.113   6.736  19.492  0.00  0.00     0.167 HD
ENDBRANCH  53  55
ENDBRANCH  52  53
ENDBRANCH  51  52
ENDBRANCH  18  51
TORSDOF 16
ENDMDL
MODEL 6
REMARK VINA RESULT:     -10.2      2.560      8.012
REMARK  16 active torsions:
REMARK  status: ('A' for Active; 'I' for Inactive)
REMARK    1  A    between atoms: C_6  and  C_7 
REMARK    2  A    between atoms: C_7  and  C_8 
REMARK    3  A    between atoms: C_8  and  C_9 
REMARK    4  A    between atoms: C_9  and  O_11 
REMARK    5  A    between atoms: C_16  and  C_17 
REMARK    6  A    between atoms: C_17  and  C_18 
REMARK    7  A    between atoms: C_18  and  C_19 
REMARK    8  A    between atoms: C_19  and  O_21 
REMARK    9  A    between atoms: C_28  and  C_29 
REMARK   10  A    between atoms: C_29  and  C_30 
REMARK   11  A    between atoms: C_30  and  C_31 
REMARK   12  A    between atoms: C_31  and  O_33 
REMARK   13  A    between atoms: C_42  and  C_43 
REMARK   14  A    between atoms: C_43  and  C_44 
REMARK   15  A    between atoms: C_44  and  C_45 
REMARK   16  A    between atoms: C_45  and  O_47 
ROOT
HETATM    1  C   UNK     0       8.860  11.968  20.339  0.00  0.00     0.051 C 
HETATM    2  C   UNK     0       7.630  11.084  20.332  0.00  0.00    -0.031 A 
HETATM    3  C   UNK     0       7.516   9.737  20.027  0.00  0.00     0.021 A 
HETATM    4  N   UNK     0       6.216   9.370  20.123  0.00  0.00    -0.361 N 
HETATM    5  C   UNK     0       5.500  10.453  20.492  0.00  0.00     0.022 A 
HETATM    6  C   UNK     0       6.353  11.543  20.629  0.00  0.00    -0.027 A 
HETATM    7  C   UNK     0       4.045  10.563  20.824  0.00  0.00     0.115 C 
HETATM    8  C   UNK     0       3.453   9.452  21.674  0.00  0.00     0.021 A 
HETATM    9  N   UNK     0       4.029   8.769  22.676  0.00  0.00    -0.361 N 
HETATM   10  C   UNK     0       3.166   7.813  23.081  0.00  0.00     0.022 A 
HETATM   11  C   UNK     0       1.999   7.889  22.327  0.00  0.00    -0.027 A 
HETATM   12  C   UNK     0       2.173   8.920  21.439  0.00  0.00    -0.031 A 
HETATM   13  C   UNK     0       1.156   9.374  20.417  0.00  0.00     0.051 C 
HETATM   14  C   UNK     0       3.427   6.761  24.155  0.00  0.00     0.115 C 
HETATM   15  C   UNK     0       4.593   5.837  23.842  0.00  0.00     0.021 A 
HETATM   16  N   UNK     0       5.875   6.180  23.617  0.00  0.00    -0.361 N 
HETATM   17  C   UNK     0       6.575   5.086  23.308  0.00  0.00     0.022 A 
HETATM   18  C   UNK     0       5.709   3.975  23.343  0.00  0.00    -0.027 A 
HETATM   19  C   UNK     0       4.471   4.459  23.680  0.00  0.00    -0.031 A 
HETATM   20  C   UNK     0       3.244   3.584  23.863  0.00  0.00     0.051 C 
HETATM   21  C   UNK     0       8.024   4.941  22.904  0.00  0.00     0.115 C 
HETATM   22  C   UNK     0       8.638   6.060  22.095  0.00  0.00     0.022 A 
HETATM   23  N   UNK     0       8.087   6.761  21.095  0.00  0.00    -0.361 N 
HETATM   24  C   UNK     0       8.932   7.756  20.760  0.00  0.00     0.021 A 
HETATM   25  C   UNK     0      10.059   7.688  21.555  0.00  0.00    -0.031 A 
HETATM   26  C   UNK     0      11.299   8.558  21.529  0.00  0.00     0.051 C 
HETATM   27  C   UNK     0       9.895   6.611  22.418  0.00  0.00    -0.027 A 
HETATM   28  C   UNK     0       8.707   8.864  19.746  0.00  0.00     0.115 C 
HETATM   29  H   UNK     0       5.808   8.360  19.891  0.00  0.00     0.165 HD
HETATM   30  H   UNK     0       5.025   8.990  23.132  0.00  0.00     0.165 HD
HETATM   31  H   UNK     0       6.307   7.210  23.725  0.00  0.00     0.165 HD
HETATM   32  H   UNK     0       7.113   6.533  20.588  0.00  0.00     0.165 HD
ENDROOT
BRANCH   6  33
HETATM   33  C   UNK     0       6.050  12.969  21.013  0.00  0.00     0.051 C 
BRANCH  33  34
HETATM   34  C   UNK     0       5.413  13.710  19.862  0.00  0.00     0.114 C 
BRANCH  34  35
HETATM   35  C   UNK     0       4.254  14.472  20.408  0.00  0.00     0.139 C 
HETATM   36  O   UNK     0       3.575  14.000  21.366  0.00  0.00    -0.650 OA
BRANCH  35  37
HETATM   37  O   UNK     0       3.870  15.711  19.909  0.00  0.00    -0.776 OA
HETATM   38  H   UNK     0       3.878  15.916  18.923  0.00  0.00     0.167 HD
ENDBRANCH  35  37
ENDBRANCH  34  35
ENDBRANCH  33  34
ENDBRANCH   6  33
BRANCH  27  39
HETATM   39  C   UNK     0      10.941   6.177  23.383  0.00  0.00     0.051 C 
BRANCH  39  40
HETATM   40  C   UNK     0      10.988   6.825  24.694  0.00  0.00     0.114 C 
BRANCH  40  41
HETATM   41  C   UNK     0      10.070   6.481  25.756  0.00  0.00     0.139 C 
HETATM   42  O   UNK     0       9.205   5.601  25.654  0.00  0.00    -0.650 OA
BRANCH  41  43
HETATM   43  O   UNK     0      10.150   7.182  26.993  0.00  0.00    -0.776 OA
HETATM   44  H   UNK     0      10.408   8.157  26.906  0.00  0.00     0.167 HD
ENDBRANCH  41  43
ENDBRANCH  40  41
ENDBRANCH  39  40
ENDBRANCH  27  39
BRANCH  11  45
HETATM   45  C   UNK     0       0.759   7.041  22.422  0.00  0.00     0.051 C 
BRANCH  45  46
HETATM   46  C   UNK     0      -0.429   7.762  22.946  0.00  0.00     0.114 C 
BRANCH  46  47
HETATM   47  C   UNK     0      -0.130   8.139  24.357  0.00  0.00     0.139 C 
HETATM   48  O   UNK     0      -0.013   7.238  25.199  0.00  0.00    -0.650 OA
BRANCH  47  49
HETATM   49  O   UNK     0       0.011   9.456  24.718  0.00  0.00    -0.776 OA
HETATM   50  H   UNK     0      -0.124  10.222  24.047  0.00  0.00     0.167 HD
ENDBRANCH  47  49
ENDBRANCH  46  47
ENDBRANCH  45  46
ENDBRANCH  11  45
BRANCH  18  51
HETATM   51  C   UNK     0       6.047   2.529  23.090  0.00  0.00     0.051 C 
BRANCH  51  52
HETATM   52  C   UNK     0       6.363   1.921  24.448  0.00  0.00     0.114 C 
BRANCH  52  53
HETATM   53  C   UNK     0       6.034   0.483  24.497  0.00  0.00     0.139 C 
HETATM   54  O   UNK     0       6.934  -0.354  24.669  0.00  0.00    -0.650 OA
BRANCH  53  55
HETATM   55  O   UNK     0       4.730   0.079  24.348  0.00  0.00    -0.776 OA
HETATM   56  H   UNK     0       4.347  -0.784  24.655  0.00  0.00     0.167 HD
ENDBRANCH  53  55
ENDBRANCH  52  53
ENDBRANCH  51  52
ENDBRANCH  18  51
TORSDOF 16
ENDMDL
MODEL 7
REMARK VINA RESULT:     -10.1      1.802      2.131
REMARK  16 active torsions:
REMARK  status: ('A' for Active; 'I' for Inactive)
REMARK    1  A    between atoms: C_6  and  C_7 
REMARK    2  A    between atoms: C_7  and  C_8 
REMARK    3  A    between atoms: C_8  and  C_9 
REMARK    4  A    between atoms: C_9  and  O_11 
REMARK    5  A    between atoms: C_16  and  C_17 
REMARK    6  A    between atoms: C_17  and  C_18 
REMARK    7  A    between atoms: C_18  and  C_19 
REMARK    8  A    between atoms: C_19  and  O_21 
REMARK    9  A    between atoms: C_28  and  C_29 
REMARK   10  A    between atoms: C_29  and  C_30 
REMARK   11  A    between atoms: C_30  and  C_31 
REMARK   12  A    between atoms: C_31  and  O_33 
REMARK   13  A    between atoms: C_42  and  C_43 
REMARK   14  A    between atoms: C_43  and  C_44 
REMARK   15  A    between atoms: C_44  and  C_45 
REMARK   16  A    between atoms: C_45  and  O_47 
ROOT
HETATM    1  C   UNK     0       8.922   5.086  22.348  0.00  0.00     0.051 C 
HETATM    2  C   UNK     0       7.614   5.642  22.874  0.00  0.00    -0.031 A 
HETATM    3  C   UNK     0       7.301   6.935  23.261  0.00  0.00     0.021 A 
HETATM    4  N   UNK     0       6.019   6.967  23.696  0.00  0.00    -0.361 N 
HETATM    5  C   UNK     0       5.506   5.725  23.586  0.00  0.00     0.022 A 
HETATM    6  C   UNK     0       6.478   4.870  23.077  0.00  0.00    -0.027 A 
HETATM    7  C   UNK     0       4.111   5.244  23.842  0.00  0.00     0.115 C 
HETATM    8  C   UNK     0       2.983   6.129  23.342  0.00  0.00     0.021 A 
HETATM    9  N   UNK     0       2.937   6.876  22.228  0.00  0.00    -0.361 N 
HETATM   10  C   UNK     0       1.778   7.568  22.235  0.00  0.00     0.022 A 
HETATM   11  C   UNK     0       1.053   7.251  23.380  0.00  0.00    -0.027 A 
HETATM   12  C   UNK     0       1.806   6.345  24.082  0.00  0.00    -0.031 A 
HETATM   13  C   UNK     0       1.412   5.713  25.398  0.00  0.00     0.051 C 
HETATM   14  C   UNK     0       1.334   8.592  21.194  0.00  0.00     0.115 C 
HETATM   15  C   UNK     0       2.264   9.788  21.069  0.00  0.00     0.021 A 
HETATM   16  N   UNK     0       3.574   9.780  20.761  0.00  0.00    -0.361 N 
HETATM   17  C   UNK     0       4.046  11.028  20.823  0.00  0.00     0.022 A 
HETATM   18  C   UNK     0       2.991  11.890  21.179  0.00  0.00    -0.027 A 
HETATM   19  C   UNK     0       1.880  11.101  21.330  0.00  0.00    -0.031 A 
HETATM   20  C   UNK     0       0.504  11.639  21.679  0.00  0.00     0.051 C 
HETATM   21  C   UNK     0       5.455  11.544  20.637  0.00  0.00     0.115 C 
HETATM   22  C   UNK     0       6.589  10.655  21.090  0.00  0.00     0.022 A 
HETATM   23  N   UNK     0       6.660   9.897  22.192  0.00  0.00    -0.361 N 
HETATM   24  C   UNK     0       7.786   9.158  22.126  0.00  0.00     0.021 A 
HETATM   25  C   UNK     0       8.462   9.455  20.958  0.00  0.00    -0.031 A 
HETATM   26  C   UNK     0       9.787   8.916  20.460  0.00  0.00     0.051 C 
HETATM   27  C   UNK     0       7.715  10.411  20.278  0.00  0.00    -0.027 A 
HETATM   28  C   UNK     0       8.253   8.086  23.096  0.00  0.00     0.115 C 
HETATM   29  H   UNK     0       5.498   7.859  24.115  0.00  0.00     0.165 HD
HETATM   30  H   UNK     0       3.699   6.879  21.410  0.00  0.00     0.165 HD
HETATM   31  H   UNK     0       4.169   8.883  20.446  0.00  0.00     0.165 HD
HETATM   32  H   UNK     0       5.937   9.909  23.049  0.00  0.00     0.165 HD
ENDROOT
BRANCH   6  33
HETATM   33  C   UNK     0       6.411   3.394  22.776  0.00  0.00     0.051 C 
BRANCH  33  34
HETATM   34  C   UNK     0       6.690   2.581  24.019  0.00  0.00     0.114 C 
BRANCH  34  35
HETATM   35  C   UNK     0       5.547   1.642  24.203  0.00  0.00     0.139 C 
HETATM   36  O   UNK     0       4.630   1.909  25.034  0.00  0.00    -0.650 OA
BRANCH  35  37
HETATM   37  O   UNK     0       5.430   0.455  23.490  0.00  0.00    -0.776 OA
HETATM   38  H   UNK     0       5.544   0.419  22.490  0.00  0.00     0.167 HD
ENDBRANCH  35  37
ENDBRANCH  34  35
ENDBRANCH  33  34
ENDBRANCH   6  33
BRANCH  27  39
HETATM   39  C   UNK     0       8.163  11.032  19.002  0.00  0.00     0.051 C 
BRANCH  39  40
HETATM   40  C   UNK     0       7.788  10.385  17.746  0.00  0.00     0.114 C 
BRANCH  40  41
HETATM   41  C   UNK     0       7.673  11.118  16.505  0.00  0.00     0.139 C 
HETATM   42  O   UNK     0       7.546  10.575  15.399  0.00  0.00    -0.650 OA
BRANCH  41  43
HETATM   43  O   UNK     0       7.707  12.541  16.538  0.00  0.00    -0.776 OA
HETATM   44  H   UNK     0       8.506  12.953  16.070  0.00  0.00     0.167 HD
ENDBRANCH  41  43
ENDBRANCH  40  41
ENDBRANCH  39  40
ENDBRANCH  27  39
BRANCH  11  45
HETATM   45  C   UNK     0      -0.293   7.765  23.814  0.00  0.00     0.051 C 
BRANCH  45  46
HETATM   46  C   UNK     0      -1.413   7.354  22.929  0.00  0.00     0.114 C 
BRANCH  46  47
HETATM   47  C   UNK     0      -2.058   8.601  22.426  0.00  0.00     0.139 C 
HETATM   48  O   UNK     0      -1.987   9.626  23.119  0.00  0.00    -0.650 OA
BRANCH  47  49
HETATM   49  O   UNK     0      -2.717   8.615  21.223  0.00  0.00    -0.776 OA
HETATM   50  H   UNK     0      -3.683   8.281  21.127  0.00  0.00     0.167 HD
ENDBRANCH  47  49
ENDBRANCH  46  47
ENDBRANCH  45  46
ENDBRANCH  11  45
BRANCH  18  51
HETATM   51  C   UNK     0       3.034  13.387  21.347  0.00  0.00     0.051 C 
BRANCH  51  52
HETATM   52  C   UNK     0       2.870  13.976  19.954  0.00  0.00     0.114 C 
BRANCH  52  53
HETATM   53  C   UNK     0       1.777  14.966  19.901  0.00  0.00     0.139 C 
HETATM   54  O   UNK     0       0.641  14.620  19.540  0.00  0.00    -0.650 OA
BRANCH  53  55
HETATM   55  O   UNK     0       2.025  16.272  20.251  0.00  0.00    -0.776 OA
HETATM   56  H   UNK     0       1.581  16.775  20.983  0.00  0.00     0.167 HD
ENDBRANCH  53  55
ENDBRANCH  52  53
ENDBRANCH  51  52
ENDBRANCH  18  51
TORSDOF 16
ENDMDL
MODEL 8
REMARK VINA RESULT:      -9.9      1.341      1.623
REMARK  16 active torsions:
REMARK  status: ('A' for Active; 'I' for Inactive)
REMARK    1  A    between atoms: C_6  and  C_7 
REMARK    2  A    between atoms: C_7  and  C_8 
REMARK    3  A    between atoms: C_8  and  C_9 
REMARK    4  A    between atoms: C_9  and  O_11 
REMARK    5  A    between atoms: C_16  and  C_17 
REMARK    6  A    between atoms: C_17  and  C_18 
REMARK    7  A    between atoms: C_18  and  C_19 
REMARK    8  A    between atoms: C_19  and  O_21 
REMARK    9  A    between atoms: C_28  and  C_29 
REMARK   10  A    between atoms: C_29  and  C_30 
REMARK   11  A    between atoms: C_30  and  C_31 
REMARK   12  A    between atoms: C_31  and  O_33 
REMARK   13  A    between atoms: C_42  and  C_43 
REMARK   14  A    between atoms: C_43  and  C_44 
REMARK   15  A    between atoms: C_44  and  C_45 
REMARK   16  A    between atoms: C_45  and  O_47 
ROOT
HETATM    1  C   UNK     0       8.441   4.143  22.623  0.00  0.00     0.051 C 
HETATM    2  C   UNK     0       7.140   4.735  23.125  0.00  0.00    -0.031 A 
HETATM    3  C   UNK     0       6.859   6.035  23.517  0.00  0.00     0.021 A 
HETATM    4  N   UNK     0       5.569   6.104  23.923  0.00  0.00    -0.361 N 
HETATM    5  C   UNK     0       5.020   4.879  23.790  0.00  0.00     0.022 A 
HETATM    6  C   UNK     0       5.976   3.998  23.296  0.00  0.00    -0.027 A 
HETATM    7  C   UNK     0       3.605   4.441  24.011  0.00  0.00     0.115 C 
HETATM    8  C   UNK     0       2.517   5.365  23.494  0.00  0.00     0.021 A 
HETATM    9  N   UNK     0       2.520   6.123  22.386  0.00  0.00    -0.361 N 
HETATM   10  C   UNK     0       1.384   6.851  22.373  0.00  0.00     0.022 A 
HETATM   11  C   UNK     0       0.624   6.548  23.499  0.00  0.00    -0.027 A 
HETATM   12  C   UNK     0       1.332   5.612  24.209  0.00  0.00    -0.031 A 
HETATM   13  C   UNK     0       0.888   4.982  25.510  0.00  0.00     0.051 C 
HETATM   14  C   UNK     0       0.995   7.897  21.332  0.00  0.00     0.115 C 
HETATM   15  C   UNK     0       1.965   9.064  21.240  0.00  0.00     0.021 A 
HETATM   16  N   UNK     0       3.282   9.018  20.961  0.00  0.00    -0.361 N 
HETATM   17  C   UNK     0       3.791  10.249  21.045  0.00  0.00     0.022 A 
HETATM   18  C   UNK     0       2.755  11.141  21.386  0.00  0.00    -0.027 A 
HETATM   19  C   UNK     0       1.617  10.387  21.504  0.00  0.00    -0.031 A 
HETATM   20  C   UNK     0       0.251  10.965  21.827  0.00  0.00     0.051 C 
HETATM   21  C   UNK     0       5.219  10.722  20.895  0.00  0.00     0.115 C 
HETATM   22  C   UNK     0       6.314   9.794  21.365  0.00  0.00     0.022 A 
HETATM   23  N   UNK     0       6.337   9.024  22.462  0.00  0.00    -0.361 N 
HETATM   24  C   UNK     0       7.440   8.251  22.414  0.00  0.00     0.021 A 
HETATM   25  C   UNK     0       8.150   8.536  21.264  0.00  0.00    -0.031 A 
HETATM   26  C   UNK     0       9.469   7.960  20.790  0.00  0.00     0.051 C 
HETATM   27  C   UNK     0       7.450   9.521  20.576  0.00  0.00    -0.027 A 
HETATM   28  C   UNK     0       7.850   7.156  23.384  0.00  0.00     0.115 C 
HETATM   29  H   UNK     0       5.067   7.008  24.339  0.00  0.00     0.165 HD
HETATM   30  H   UNK     0       3.300   6.109  21.585  0.00  0.00     0.165 HD
HETATM   31  H   UNK     0       3.854   8.105  20.651  0.00  0.00     0.165 HD
HETATM   32  H   UNK     0       5.595   9.051  23.302  0.00  0.00     0.165 HD
ENDROOT
BRANCH   6  33
HETATM   33  C   UNK     0       5.869   2.528  22.980  0.00  0.00     0.051 C 
BRANCH  33  34
HETATM   34  C   UNK     0       6.283   1.693  24.169  0.00  0.00     0.114 C 
BRANCH  34  35
HETATM   35  C   UNK     0       6.103   0.261  23.794  0.00  0.00     0.139 C 
HETATM   36  O   UNK     0       6.805  -0.635  24.346  0.00  0.00    -0.650 OA
BRANCH  35  37
HETATM   37  O   UNK     0       5.177  -0.154  22.845  0.00  0.00    -0.776 OA
HETATM   38  H   UNK     0       4.347   0.378  22.639  0.00  0.00     0.167 HD
ENDBRANCH  35  37
ENDBRANCH  34  35
ENDBRANCH  33  34
ENDBRANCH   6  33
BRANCH  27  39
HETATM   39  C   UNK     0       7.946  10.139  19.317  0.00  0.00     0.051 C 
BRANCH  39  40
HETATM   40  C   UNK     0       9.088  11.050  19.394  0.00  0.00     0.114 C 
BRANCH  40  41
HETATM   41  C   UNK     0      10.265  10.881  18.572  0.00  0.00     0.139 C 
HETATM   42  O   UNK     0      10.907   9.823  18.506  0.00  0.00    -0.650 OA
BRANCH  41  43
HETATM   43  O   UNK     0      10.727  11.978  17.791  0.00  0.00    -0.776 OA
HETATM   44  H   UNK     0      11.655  12.303  18.032  0.00  0.00     0.167 HD
ENDBRANCH  41  43
ENDBRANCH  40  41
ENDBRANCH  39  40
ENDBRANCH  27  39
BRANCH  11  45
HETATM   45  C   UNK     0      -0.715   7.100  23.908  0.00  0.00     0.051 C 
BRANCH  45  46
HETATM   46  C   UNK     0      -1.873   6.322  23.397  0.00  0.00     0.114 C 
BRANCH  46  47
HETATM   47  C   UNK     0      -3.007   7.277  23.231  0.00  0.00     0.139 C 
HETATM   48  O   UNK     0      -4.145   6.906  23.552  0.00  0.00    -0.650 OA
BRANCH  47  49
HETATM   49  O   UNK     0      -2.797   8.537  22.732  0.00  0.00    -0.776 OA
HETATM   50  H   UNK     0      -2.802   8.733  21.724  0.00  0.00     0.167 HD
ENDBRANCH  47  49
ENDBRANCH  46  47
ENDBRANCH  45  46
ENDBRANCH  11  45
BRANCH  18  51
HETATM   51  C   UNK     0       2.842  12.634  21.568  0.00  0.00     0.051 C 
BRANCH  51  52
HETATM   52  C   UNK     0       3.211  13.209  20.209  0.00  0.00     0.114 C 
BRANCH  52  53
HETATM   53  C   UNK     0       4.045  14.420  20.332  0.00  0.00     0.139 C 
HETATM   54  O   UNK     0       5.216  14.329  20.737  0.00  0.00    -0.650 OA
BRANCH  53  55
HETATM   55  O   UNK     0       3.519  15.644  20.000  0.00  0.00    -0.776 OA
HETATM   56  H   UNK     0       3.749  16.180  19.197  0.00  0.00     0.167 HD
ENDBRANCH  53  55
ENDBRANCH  52  53
ENDBRANCH  51  52
ENDBRANCH  18  51
TORSDOF 16
ENDMDL
MODEL 9
REMARK VINA RESULT:      -9.7      2.063      7.559
REMARK  16 active torsions:
REMARK  status: ('A' for Active; 'I' for Inactive)
REMARK    1  A    between atoms: C_6  and  C_7 
REMARK    2  A    between atoms: C_7  and  C_8 
REMARK    3  A    between atoms: C_8  and  C_9 
REMARK    4  A    between atoms: C_9  and  O_11 
REMARK    5  A    between atoms: C_16  and  C_17 
REMARK    6  A    between atoms: C_17  and  C_18 
REMARK    7  A    between atoms: C_18  and  C_19 
REMARK    8  A    between atoms: C_19  and  O_21 
REMARK    9  A    between atoms: C_28  and  C_29 
REMARK   10  A    between atoms: C_29  and  C_30 
REMARK   11  A    between atoms: C_30  and  C_31 
REMARK   12  A    between atoms: C_31  and  O_33 
REMARK   13  A    between atoms: C_42  and  C_43 
REMARK   14  A    between atoms: C_43  and  C_44 
REMARK   15  A    between atoms: C_44  and  C_45 
REMARK   16  A    between atoms: C_45  and  O_47 
ROOT
HETATM    1  C   UNK     0       5.628  13.486  20.024  0.00  0.00     0.051 C 
HETATM    2  C   UNK     0       4.501  12.514  20.312  0.00  0.00    -0.031 A 
HETATM    3  C   UNK     0       4.420  11.156  20.047  0.00  0.00     0.021 A 
HETATM    4  N   UNK     0       3.211  10.699  20.450  0.00  0.00    -0.361 N 
HETATM    5  C   UNK     0       2.523  11.734  20.974  0.00  0.00     0.022 A 
HETATM    6  C   UNK     0       3.299  12.886  20.901  0.00  0.00    -0.027 A 
HETATM    7  C   UNK     0       1.183  11.746  21.641  0.00  0.00     0.115 C 
HETATM    8  C   UNK     0       0.895  10.614  22.611  0.00  0.00     0.021 A 
HETATM    9  N   UNK     0       1.740   9.995  23.450  0.00  0.00    -0.361 N 
HETATM   10  C   UNK     0       1.072   8.989  24.052  0.00  0.00     0.022 A 
HETATM   11  C   UNK     0      -0.242   8.964  23.596  0.00  0.00    -0.027 A 
HETATM   12  C   UNK     0      -0.361   9.985  22.688  0.00  0.00    -0.031 A 
HETATM   13  C   UNK     0      -1.623  10.342  21.934  0.00  0.00     0.051 C 
HETATM   14  C   UNK     0       1.658   7.981  25.038  0.00  0.00     0.115 C 
HETATM   15  C   UNK     0       2.783   7.138  24.461  0.00  0.00     0.021 A 
HETATM   16  N   UNK     0       3.947   7.569  23.937  0.00  0.00    -0.361 N 
HETATM   17  C   UNK     0       4.634   6.522  23.476  0.00  0.00     0.022 A 
HETATM   18  C   UNK     0       3.887   5.352  23.719  0.00  0.00    -0.027 A 
HETATM   19  C   UNK     0       2.731   5.752  24.337  0.00  0.00    -0.031 A 
HETATM   20  C   UNK     0       1.652   4.794  24.809  0.00  0.00     0.051 C 
HETATM   21  C   UNK     0       5.953   6.473  22.739  0.00  0.00     0.115 C 
HETATM   22  C   UNK     0       6.273   7.616  21.804  0.00  0.00     0.022 A 
HETATM   23  N   UNK     0       5.450   8.253  20.961  0.00  0.00    -0.361 N 
HETATM   24  C   UNK     0       6.114   9.300  20.431  0.00  0.00     0.021 A 
HETATM   25  C   UNK     0       7.400   9.331  20.937  0.00  0.00    -0.031 A 
HETATM   26  C   UNK     0       8.528  10.288  20.614  0.00  0.00     0.051 C 
HETATM   27  C   UNK     0       7.525   8.263  21.818  0.00  0.00    -0.027 A 
HETATM   28  C   UNK     0       5.573  10.367  19.495  0.00  0.00     0.115 C 
HETATM   29  H   UNK     0       2.837   9.656  20.325  0.00  0.00     0.165 HD
HETATM   30  H   UNK     0       2.796  10.299  23.657  0.00  0.00     0.165 HD
HETATM   31  H   UNK     0       4.313   8.628  23.936  0.00  0.00     0.165 HD
HETATM   32  H   UNK     0       4.404   7.944  20.699  0.00  0.00     0.165 HD
ENDROOT
BRANCH   6  33
HETATM   33  C   UNK     0       2.989  14.294  21.341  0.00  0.00     0.051 C 
BRANCH  33  34
HETATM   34  C   UNK     0       2.073  14.974  20.351  0.00  0.00     0.114 C 
BRANCH  34  35
HETATM   35  C   UNK     0       2.662  16.308  20.040  0.00  0.00     0.139 C 
HETATM   36  O   UNK     0       1.921  17.330  19.963  0.00  0.00    -0.650 OA
BRANCH  35  37
HETATM   37  O   UNK     0       4.023  16.494  19.827  0.00  0.00    -0.776 OA
HETATM   38  H   UNK     0       4.460  16.278  18.946  0.00  0.00     0.167 HD
ENDBRANCH  35  37
ENDBRANCH  34  35
ENDBRANCH  33  34
ENDBRANCH   6  33
BRANCH  27  39
HETATM   39  C   UNK     0       8.799   7.928  22.509  0.00  0.00     0.051 C 
BRANCH  39  40
HETATM   40  C   UNK     0       9.584   6.799  22.009  0.00  0.00     0.114 C 
BRANCH  40  41
HETATM   41  C   UNK     0      10.692   6.976  21.096  0.00  0.00     0.139 C 
HETATM   42  O   UNK     0      10.922   6.216  20.146  0.00  0.00    -0.650 OA
BRANCH  41  43
HETATM   43  O   UNK     0      11.575   8.076  21.286  0.00  0.00    -0.776 OA
HETATM   44  H   UNK     0      11.937   8.166  22.227  0.00  0.00     0.167 HD
ENDBRANCH  41  43
ENDBRANCH  40  41
ENDBRANCH  39  40
ENDBRANCH  27  39
BRANCH  11  45
HETATM   45  C   UNK     0      -1.357   8.030  23.985  0.00  0.00     0.051 C 
BRANCH  45  46
HETATM   46  C   UNK     0      -1.219   6.658  23.434  0.00  0.00     0.114 C 
BRANCH  46  47
HETATM   47  C   UNK     0      -1.204   6.779  21.948  0.00  0.00     0.139 C 
HETATM   48  O   UNK     0      -2.286   6.877  21.351  0.00  0.00    -0.650 OA
BRANCH  47  49
HETATM   49  O   UNK     0      -0.020   6.781  21.255  0.00  0.00    -0.776 OA
HETATM   50  H   UNK     0       0.202   6.064  20.554  0.00  0.00     0.167 HD
ENDBRANCH  47  49
ENDBRANCH  46  47
ENDBRANCH  45  46
ENDBRANCH  11  45
BRANCH  18  51
HETATM   51  C   UNK     0       4.264   3.929  23.398  0.00  0.00     0.051 C 
BRANCH  51  52
HETATM   52  C   UNK     0       5.673   3.730  23.936  0.00  0.00     0.114 C 
BRANCH  52  53
HETATM   53  C   UNK     0       6.535   3.020  22.971  0.00  0.00     0.139 C 
HETATM   54  O   UNK     0       7.719   3.363  22.827  0.00  0.00    -0.650 OA
BRANCH  53  55
HETATM   55  O   UNK     0       6.018   1.983  22.233  0.00  0.00    -0.776 OA
HETATM   56  H   UNK     0       5.824   1.069  22.567  0.00  0.00     0.167 HD
ENDBRANCH  53  55
ENDBRANCH  52  53
ENDBRANCH  51  52
ENDBRANCH  18  51
TORSDOF 16
ENDMDL
MODEL 10
REMARK VINA RESULT:      -9.7      2.685      9.819
REMARK  16 active torsions:
REMARK  status: ('A' for Active; 'I' for Inactive)
REMARK    1  A    between atoms: C_6  and  C_7 
REMARK    2  A    between atoms: C_7  and  C_8 
REMARK    3  A    between atoms: C_8  and  C_9 
REMARK    4  A    between atoms: C_9  and  O_11 
REMARK    5  A    between atoms: C_16  and  C_17 
REMARK    6  A    between atoms: C_17  and  C_18 
REMARK    7  A    between atoms: C_18  and  C_19 
REMARK    8  A    between atoms: C_19  and  O_21 
REMARK    9  A    between atoms: C_28  and  C_29 
REMARK   10  A    between atoms: C_29  and  C_30 
REMARK   11  A    between atoms: C_30  and  C_31 
REMARK   12  A    between atoms: C_31  and  O_33 
REMARK   13  A    between atoms: C_42  and  C_43 
REMARK   14  A    between atoms: C_43  and  C_44 
REMARK   15  A    between atoms: C_44  and  C_45 
REMARK   16  A    between atoms: C_45  and  O_47 
ROOT
HETATM    1  C   UNK     0       2.658  11.699  22.176  0.00  0.00     0.051 C 
HETATM    2  C   UNK     0       3.319  10.497  22.818  0.00  0.00    -0.031 A 
HETATM    3  C   UNK     0       2.969   9.811  23.971  0.00  0.00     0.021 A 
HETATM    4  N   UNK     0       3.864   8.818  24.183  0.00  0.00    -0.361 N 
HETATM    5  C   UNK     0       4.772   8.849  23.185  0.00  0.00     0.022 A 
HETATM    6  C   UNK     0       4.462   9.889  22.315  0.00  0.00    -0.027 A 
HETATM    7  C   UNK     0       5.907   7.915  22.901  0.00  0.00     0.115 C 
HETATM    8  C   UNK     0       5.626   6.432  23.065  0.00  0.00     0.021 A 
HETATM    9  N   UNK     0       4.495   5.760  22.799  0.00  0.00    -0.361 N 
HETATM   10  C   UNK     0       4.668   4.478  23.183  0.00  0.00     0.022 A 
HETATM   11  C   UNK     0       5.949   4.317  23.702  0.00  0.00    -0.027 A 
HETATM   12  C   UNK     0       6.558   5.544  23.631  0.00  0.00    -0.031 A 
HETATM   13  C   UNK     0       7.970   5.847  24.080  0.00  0.00     0.051 C 
HETATM   14  C   UNK     0       3.620   3.370  23.126  0.00  0.00     0.115 C 
HETATM   15  C   UNK     0       2.382   3.650  23.963  0.00  0.00     0.021 A 
HETATM   16  N   UNK     0       1.540   4.695  23.861  0.00  0.00    -0.361 N 
HETATM   17  C   UNK     0       0.619   4.612  24.824  0.00  0.00     0.022 A 
HETATM   18  C   UNK     0       0.868   3.452  25.584  0.00  0.00    -0.027 A 
HETATM   19  C   UNK     0       1.974   2.857  25.034  0.00  0.00    -0.031 A 
HETATM   20  C   UNK     0       2.565   1.551  25.532  0.00  0.00     0.051 C 
HETATM   21  C   UNK     0      -0.498   5.564  25.185  0.00  0.00     0.115 C 
HETATM   22  C   UNK     0      -0.248   7.040  24.985  0.00  0.00     0.022 A 
HETATM   23  N   UNK     0       0.869   7.735  25.237  0.00  0.00    -0.361 N 
HETATM   24  C   UNK     0       0.701   8.990  24.775  0.00  0.00     0.021 A 
HETATM   25  C   UNK     0      -0.559   9.110  24.221  0.00  0.00    -0.031 A 
HETATM   26  C   UNK     0      -1.221  10.329  23.613  0.00  0.00     0.051 C 
HETATM   27  C   UNK     0      -1.186   7.875  24.343  0.00  0.00    -0.027 A 
HETATM   28  C   UNK     0       1.720  10.116  24.750  0.00  0.00     0.115 C 
HETATM   29  H   UNK     0       3.871   8.126  25.057  0.00  0.00     0.165 HD
HETATM   30  H   UNK     0       3.589   6.177  22.293  0.00  0.00     0.165 HD
HETATM   31  H   UNK     0       1.567   5.483  23.064  0.00  0.00     0.165 HD
HETATM   32  H   UNK     0       1.772   7.356  25.784  0.00  0.00     0.165 HD
ENDROOT
BRANCH   6  33
HETATM   33  C   UNK     0       5.162  10.345  21.060  0.00  0.00     0.051 C 
BRANCH  33  34
HETATM   34  C   UNK     0       4.622   9.619  19.852  0.00  0.00     0.114 C 
BRANCH  34  35
HETATM   35  C   UNK     0       5.781   9.284  18.976  0.00  0.00     0.139 C 
HETATM   36  O   UNK     0       5.983   9.934  17.910  0.00  0.00    -0.650 OA
BRANCH  35  37
HETATM   37  O   UNK     0       6.679   8.268  19.279  0.00  0.00    -0.776 OA
HETATM   38  H   UNK     0       7.224   7.806  18.568  0.00  0.00     0.167 HD
ENDBRANCH  35  37
ENDBRANCH  34  35
ENDBRANCH  33  34
ENDBRANCH   6  33
BRANCH  27  39
HETATM   39  C   UNK     0      -2.592   7.634  23.920  0.00  0.00     0.051 C 
BRANCH  39  40
HETATM   40  C   UNK     0      -2.831   7.077  22.589  0.00  0.00     0.114 C 
BRANCH  40  41
HETATM   41  C   UNK     0      -2.103   7.527  21.424  0.00  0.00     0.139 C 
HETATM   42  O   UNK     0      -1.030   7.030  21.054  0.00  0.00    -0.650 OA
BRANCH  41  43
HETATM   43  O   UNK     0      -2.633   8.597  20.649  0.00  0.00    -0.776 OA
HETATM   44  H   UNK     0      -2.894   9.415  21.186  0.00  0.00     0.167 HD
ENDBRANCH  41  43
ENDBRANCH  40  41
ENDBRANCH  39  40
ENDBRANCH  27  39
BRANCH  11  45
HETATM   45  C   UNK     0       6.595   3.071  24.246  0.00  0.00     0.051 C 
BRANCH  45  46
HETATM   46  C   UNK     0       6.511   1.899  23.337  0.00  0.00     0.114 C 
BRANCH  46  47
HETATM   47  C   UNK     0       6.310   0.692  24.190  0.00  0.00     0.139 C 
HETATM   48  O   UNK     0       5.975  -0.369  23.645  0.00  0.00    -0.650 OA
BRANCH  47  49
HETATM   49  O   UNK     0       6.488   0.755  25.549  0.00  0.00    -0.776 OA
HETATM   50  H   UNK     0       5.713   0.614  26.207  0.00  0.00     0.167 HD
ENDBRANCH  47  49
ENDBRANCH  46  47
ENDBRANCH  45  46
ENDBRANCH  11  45
BRANCH  18  51
HETATM   51  C   UNK     0       0.081   2.927  26.757  0.00  0.00     0.051 C 
BRANCH  51  52
HETATM   52  C   UNK     0       0.535   3.729  27.968  0.00  0.00     0.114 C 
BRANCH  52  53
HETATM   53  C   UNK     0       1.399   2.934  28.861  0.00  0.00     0.139 C 
HETATM   54  O   UNK     0       2.244   3.499  29.574  0.00  0.00    -0.650 OA
BRANCH  53  55
HETATM   55  O   UNK     0       1.266   1.567  28.896  0.00  0.00    -0.776 OA
HETATM   56  H   UNK     0       1.414   0.986  29.688  0.00  0.00     0.167 HD
ENDBRANCH  53  55
ENDBRANCH  52  53
ENDBRANCH  51  52
ENDBRANCH  18  51
TORSDOF 16
ENDMDL
MODEL 11
REMARK VINA RESULT:      -9.4      5.525     10.529
REMARK  16 active torsions:
REMARK  status: ('A' for Active; 'I' for Inactive)
REMARK    1  A    between atoms: C_6  and  C_7 
REMARK    2  A    between atoms: C_7  and  C_8 
REMARK    3  A    between atoms: C_8  and  C_9 
REMARK    4  A    between atoms: C_9  and  O_11 
REMARK    5  A    between atoms: C_16  and  C_17 
REMARK    6  A    between atoms: C_17  and  C_18 
REMARK    7  A    between atoms: C_18  and  C_19 
REMARK    8  A    between atoms: C_19  and  O_21 
REMARK    9  A    between atoms: C_28  and  C_29 
REMARK   10  A    between atoms: C_29  and  C_30 
REMARK   11  A    between atoms: C_30  and  C_31 
REMARK   12  A    between atoms: C_31  and  O_33 
REMARK   13  A    between atoms: C_42  and  C_43 
REMARK   14  A    between atoms: C_43  and  C_44 
REMARK   15  A    between atoms: C_44  and  C_45 
REMARK   16  A    between atoms: C_45  and  O_47 
ROOT
HETATM    1  C   UNK     0      -6.106   5.845  21.747  0.00  0.00     0.051 C 
HETATM    2  C   UNK     0      -5.094   4.721  21.851  0.00  0.00    -0.031 A 
HETATM    3  C   UNK     0      -3.763   4.698  21.465  0.00  0.00     0.021 A 
HETATM    4  N   UNK     0      -3.252   3.470  21.719  0.00  0.00    -0.361 N 
HETATM    5  C   UNK     0      -4.225   2.713  22.266  0.00  0.00     0.022 A 
HETATM    6  C   UNK     0      -5.392   3.464  22.361  0.00  0.00    -0.027 A 
HETATM    7  C   UNK     0      -4.156   1.321  22.811  0.00  0.00     0.115 C 
HETATM    8  C   UNK     0      -2.939   0.977  23.652  0.00  0.00     0.021 A 
HETATM    9  N   UNK     0      -2.264   1.762  24.506  0.00  0.00    -0.361 N 
HETATM   10  C   UNK     0      -1.198   1.070  24.959  0.00  0.00     0.022 A 
HETATM   11  C   UNK     0      -1.190  -0.200  24.388  0.00  0.00    -0.027 A 
HETATM   12  C   UNK     0      -2.284  -0.264  23.563  0.00  0.00    -0.031 A 
HETATM   13  C   UNK     0      -2.684  -1.464  22.734  0.00  0.00     0.051 C 
HETATM   14  C   UNK     0      -0.118   1.592  25.903  0.00  0.00     0.115 C 
HETATM   15  C   UNK     0       0.652   2.784  25.358  0.00  0.00     0.021 A 
HETATM   16  N   UNK     0       0.158   3.977  24.978  0.00  0.00    -0.361 N 
HETATM   17  C   UNK     0       1.149   4.727  24.491  0.00  0.00     0.022 A 
HETATM   18  C   UNK     0       2.348   3.991  24.566  0.00  0.00    -0.027 A 
HETATM   19  C   UNK     0       2.023   2.776  25.112  0.00  0.00    -0.031 A 
HETATM   20  C   UNK     0       3.036   1.684  25.404  0.00  0.00     0.051 C 
HETATM   21  C   UNK     0       1.110   6.107  23.873  0.00  0.00     0.115 C 
HETATM   22  C   UNK     0      -0.115   6.477  23.071  0.00  0.00     0.022 A 
HETATM   23  N   UNK     0      -0.809   5.715  22.216  0.00  0.00    -0.361 N 
HETATM   24  C   UNK     0      -1.909   6.397  21.837  0.00  0.00     0.021 A 
HETATM   25  C   UNK     0      -1.918   7.633  22.456  0.00  0.00    -0.031 A 
HETATM   26  C   UNK     0      -2.919   8.761  22.317  0.00  0.00     0.051 C 
HETATM   27  C   UNK     0      -0.780   7.707  23.251  0.00  0.00    -0.027 A 
HETATM   28  C   UNK     0      -3.044   5.913  20.952  0.00  0.00     0.115 C 
HETATM   29  H   UNK     0      -2.218   3.134  21.473  0.00  0.00     0.165 HD
HETATM   30  H   UNK     0      -2.566   2.788  24.830  0.00  0.00     0.165 HD
HETATM   31  H   UNK     0      -0.904   4.316  25.099  0.00  0.00     0.165 HD
HETATM   32  H   UNK     0      -0.506   4.704  21.837  0.00  0.00     0.165 HD
ENDROOT
BRANCH   6  33
HETATM   33  C   UNK     0      -6.751   3.083  22.890  0.00  0.00     0.051 C 
BRANCH  33  34
HETATM   34  C   UNK     0      -7.520   2.285  21.864  0.00  0.00     0.114 C 
BRANCH  34  35
HETATM   35  C   UNK     0      -8.577   3.176  21.305  0.00  0.00     0.139 C 
HETATM   36  O   UNK     0      -8.439   3.684  20.154  0.00  0.00    -0.650 OA
BRANCH  35  37
HETATM   37  O   UNK     0      -9.739   3.487  21.999  0.00  0.00    -0.776 OA
HETATM   38  H   UNK     0     -10.365   2.775  22.340  0.00  0.00     0.167 HD
ENDBRANCH  35  37
ENDBRANCH  34  35
ENDBRANCH  33  34
ENDBRANCH   6  33
BRANCH  27  39
HETATM   39  C   UNK     0      -0.407   8.925  24.021  0.00  0.00     0.051 C 
BRANCH  39  40
HETATM   40  C   UNK     0      -0.923   9.070  25.382  0.00  0.00     0.114 C 
BRANCH  40  41
HETATM   41  C   UNK     0      -0.061   9.022  26.541  0.00  0.00     0.139 C 
HETATM   42  O   UNK     0      -0.082   8.103  27.371  0.00  0.00    -0.650 OA
BRANCH  41  43
HETATM   43  O   UNK     0       0.866  10.081  26.758  0.00  0.00    -0.776 OA
HETATM   44  H   UNK     0       0.505  10.847  27.313  0.00  0.00     0.167 HD
ENDBRANCH  41  43
ENDBRANCH  40  41
ENDBRANCH  39  40
ENDBRANCH  27  39
BRANCH  11  45
HETATM   45  C   UNK     0      -0.207  -1.320  24.596  0.00  0.00     0.051 C 
BRANCH  45  46
HETATM   46  C   UNK     0      -0.561  -2.237  25.710  0.00  0.00     0.114 C 
BRANCH  46  47
HETATM   47  C   UNK     0       0.278  -1.851  26.881  0.00  0.00     0.139 C 
HETATM   48  O   UNK     0      -0.274  -1.324  27.857  0.00  0.00    -0.650 OA
BRANCH  47  49
HETATM   49  O   UNK     0       1.632  -2.074  26.880  0.00  0.00    -0.776 OA
HETATM   50  H   UNK     0       2.310  -1.304  26.841  0.00  0.00     0.167 HD
ENDBRANCH  47  49
ENDBRANCH  46  47
ENDBRANCH  45  46
ENDBRANCH  11  45
BRANCH  18  51
HETATM   51  C   UNK     0       3.731   4.429  24.160  0.00  0.00     0.051 C 
BRANCH  51  52
HETATM   52  C   UNK     0       4.237   3.385  23.176  0.00  0.00     0.114 C 
BRANCH  52  53
HETATM   53  C   UNK     0       5.699   3.209  23.265  0.00  0.00     0.139 C 
HETATM   54  O   UNK     0       6.323   2.700  22.320  0.00  0.00    -0.650 OA
BRANCH  53  55
HETATM   55  O   UNK     0       6.363   3.606  24.400  0.00  0.00    -0.776 OA
HETATM   56  H   UNK     0       6.413   4.533  24.753  0.00  0.00     0.167 HD
ENDBRANCH  53  55
ENDBRANCH  52  53
ENDBRANCH  51  52
ENDBRANCH  18  51
TORSDOF 16
ENDMDL
MODEL 12
REMARK VINA RESULT:      -9.4      2.986      8.092
REMARK  16 active torsions:
REMARK  status: ('A' for Active; 'I' for Inactive)
REMARK    1  A    between atoms: C_6  and  C_7 
REMARK    2  A    between atoms: C_7  and  C_8 
REMARK    3  A    between atoms: C_8  and  C_9 
REMARK    4  A    between atoms: C_9  and  O_11 
REMARK    5  A    between atoms: C_16  and  C_17 
REMARK    6  A    between atoms: C_17  and  C_18 
REMARK    7  A    between atoms: C_18  and  C_19 
REMARK    8  A    between atoms: C_19  and  O_21 
REMARK    9  A    between atoms: C_28  and  C_29 
REMARK   10  A    between atoms: C_29  and  C_30 
REMARK   11  A    between atoms: C_30  and  C_31 
REMARK   12  A    between atoms: C_31  and  O_33 
REMARK   13  A    between atoms: C_42  and  C_43 
REMARK   14  A    between atoms: C_43  and  C_44 
REMARK   15  A    between atoms: C_44  and  C_45 
REMARK   16  A    between atoms: C_45  and  O_47 
ROOT
HETATM    1  C   UNK     0       5.929   1.807  24.266  0.00  0.00     0.051 C 
HETATM    2  C   UNK     0       5.360   3.099  23.717  0.00  0.00    -0.031 A 
HETATM    3  C   UNK     0       4.127   3.339  23.131  0.00  0.00     0.021 A 
HETATM    4  N   UNK     0       4.061   4.639  22.759  0.00  0.00    -0.361 N 
HETATM    5  C   UNK     0       5.221   5.235  23.103  0.00  0.00     0.022 A 
HETATM    6  C   UNK     0       6.058   4.300  23.702  0.00  0.00    -0.027 A 
HETATM    7  C   UNK     0       5.619   6.674  22.998  0.00  0.00     0.115 C 
HETATM    8  C   UNK     0       4.573   7.701  23.395  0.00  0.00     0.021 A 
HETATM    9  N   UNK     0       3.651   7.623  24.367  0.00  0.00    -0.361 N 
HETATM   10  C   UNK     0       2.875   8.726  24.298  0.00  0.00     0.022 A 
HETATM   11  C   UNK     0       3.316   9.541  23.259  0.00  0.00    -0.027 A 
HETATM   12  C   UNK     0       4.385   8.902  22.686  0.00  0.00    -0.031 A 
HETATM   13  C   UNK     0       5.191   9.422  21.517  0.00  0.00     0.051 C 
HETATM   14  C   UNK     0       1.660   9.029  25.170  0.00  0.00     0.115 C 
HETATM   15  C   UNK     0       0.542   8.006  25.045  0.00  0.00     0.021 A 
HETATM   16  N   UNK     0       0.607   6.684  25.287  0.00  0.00    -0.361 N 
HETATM   17  C   UNK     0      -0.569   6.126  24.992  0.00  0.00     0.022 A 
HETATM   18  C   UNK     0      -1.445   7.134  24.545  0.00  0.00    -0.027 A 
HETATM   19  C   UNK     0      -0.738   8.308  24.584  0.00  0.00    -0.031 A 
HETATM   20  C   UNK     0      -1.323   9.658  24.215  0.00  0.00     0.051 C 
HETATM   21  C   UNK     0      -0.989   4.674  25.020  0.00  0.00     0.115 C 
HETATM   22  C   UNK     0       0.054   3.638  24.670  0.00  0.00     0.022 A 
HETATM   23  N   UNK     0       0.987   3.691  23.711  0.00  0.00    -0.361 N 
HETATM   24  C   UNK     0       1.796   2.621  23.847  0.00  0.00     0.021 A 
HETATM   25  C   UNK     0       1.367   1.855  24.914  0.00  0.00    -0.031 A 
HETATM   26  C   UNK     0       1.924   0.546  25.433  0.00  0.00     0.051 C 
HETATM   27  C   UNK     0       0.253   2.486  25.457  0.00  0.00    -0.027 A 
HETATM   28  C   UNK     0       3.048   2.296  23.053  0.00  0.00     0.115 C 
HETATM   29  H   UNK     0       3.210   5.117  22.220  0.00  0.00     0.165 HD
HETATM   30  H   UNK     0       3.576   6.815  25.135  0.00  0.00     0.165 HD
HETATM   31  H   UNK     0       1.486   6.139  25.721  0.00  0.00     0.165 HD
HETATM   32  H   UNK     0       1.057   4.462  22.900  0.00  0.00     0.165 HD
ENDROOT
BRANCH   6  33
HETATM   33  C   UNK     0       7.453   4.458  24.252  0.00  0.00     0.051 C 
BRANCH  33  34
HETATM   34  C   UNK     0       8.470   4.474  23.135  0.00  0.00     0.114 C 
BRANCH  34  35
HETATM   35  C   UNK     0       9.285   5.713  23.292  0.00  0.00     0.139 C 
HETATM   36  O   UNK     0      10.099   6.059  22.386  0.00  0.00    -0.650 OA
BRANCH  35  37
HETATM   37  O   UNK     0       9.194   6.533  24.409  0.00  0.00    -0.776 OA
HETATM   38  H   UNK     0       9.740   6.367  25.240  0.00  0.00     0.167 HD
ENDBRANCH  35  37
ENDBRANCH  34  35
ENDBRANCH  33  34
ENDBRANCH   6  33
BRANCH  27  39
HETATM   39  C   UNK     0      -0.531   1.916  26.586  0.00  0.00     0.051 C 
BRANCH  39  40
HETATM   40  C   UNK     0      -0.086   2.194  27.951  0.00  0.00     0.114 C 
BRANCH  40  41
HETATM   41  C   UNK     0       0.788   3.301  28.266  0.00  0.00     0.139 C 
HETATM   42  O   UNK     0       0.404   4.477  28.332  0.00  0.00    -0.650 OA
BRANCH  41  43
HETATM   43  O   UNK     0       2.166   3.045  28.515  0.00  0.00    -0.776 OA
HETATM   44  H   UNK     0       2.772   3.847  28.384  0.00  0.00     0.167 HD
ENDBRANCH  41  43
ENDBRANCH  40  41
ENDBRANCH  39  40
ENDBRANCH  27  39
BRANCH  11  45
HETATM   45  C   UNK     0       2.771  10.870  22.809  0.00  0.00     0.051 C 
BRANCH  45  46
HETATM   46  C   UNK     0       1.701  10.770  21.784  0.00  0.00     0.114 C 
BRANCH  46  47
HETATM   47  C   UNK     0       0.907  12.030  21.850  0.00  0.00     0.139 C 
HETATM   48  O   UNK     0       1.497  13.089  22.106  0.00  0.00    -0.650 OA
BRANCH  47  49
HETATM   49  O   UNK     0      -0.448  12.020  21.634  0.00  0.00    -0.776 OA
HETATM   50  H   UNK     0      -1.091  12.610  22.175  0.00  0.00     0.167 HD
ENDBRANCH  47  49
ENDBRANCH  46  47
ENDBRANCH  45  46
ENDBRANCH  11  45
BRANCH  18  51
HETATM   51  C   UNK     0      -2.885   6.991  24.124  0.00  0.00     0.051 C 
BRANCH  51  52
HETATM   52  C   UNK     0      -2.861   6.419  22.714  0.00  0.00     0.114 C 
BRANCH  52  53
HETATM   53  C   UNK     0      -2.835   7.482  21.691  0.00  0.00     0.139 C 
HETATM   54  O   UNK     0      -3.770   8.294  21.614  0.00  0.00    -0.650 OA
BRANCH  53  55
HETATM   55  O   UNK     0      -1.772   7.563  20.824  0.00  0.00    -0.776 OA
HETATM   56  H   UNK     0      -1.774   8.014  19.939  0.00  0.00     0.167 HD
ENDBRANCH  53  55
ENDBRANCH  52  53
ENDBRANCH  51  52
ENDBRANCH  18  51
TORSDOF 16
ENDMDL
MODEL 13
REMARK VINA RESULT:      -9.4      6.857     11.315
REMARK  16 active torsions:
REMARK  status: ('A' for Active; 'I' for Inactive)
REMARK    1  A    between atoms: C_6  and  C_7 
REMARK    2  A    between atoms: C_7  and  C_8 
REMARK    3  A    between atoms: C_8  and  C_9 
REMARK    4  A    between atoms: C_9  and  O_11 
REMARK    5  A    between atoms: C_16  and  C_17 
REMARK    6  A    between atoms: C_17  and  C_18 
REMARK    7  A    between atoms: C_18  and  C_19 
REMARK    8  A    between atoms: C_19  and  O_21 
REMARK    9  A    between atoms: C_28  and  C_29 
REMARK   10  A    between atoms: C_29  and  C_30 
REMARK   11  A    between atoms: C_30  and  C_31 
REMARK   12  A    between atoms: C_31  and  O_33 
REMARK   13  A    between atoms: C_42  and  C_43 
REMARK   14  A    between atoms: C_43  and  C_44 
REMARK   15  A    between atoms: C_44  and  C_45 
REMARK   16  A    between atoms: C_45  and  O_47 
ROOT
HETATM    1  C   UNK     0      -5.503  -0.081  19.727  0.00  0.00     0.051 C 
HETATM    2  C   UNK     0      -5.265   1.238  20.435  0.00  0.00    -0.031 A 
HETATM    3  C   UNK     0      -4.977   1.481  21.769  0.00  0.00     0.021 A 
HETATM    4  N   UNK     0      -4.875   2.817  21.962  0.00  0.00    -0.361 N 
HETATM    5  C   UNK     0      -5.083   3.431  20.778  0.00  0.00     0.022 A 
HETATM    6  C   UNK     0      -5.332   2.472  19.802  0.00  0.00    -0.027 A 
HETATM    7  C   UNK     0      -4.989   4.883  20.430  0.00  0.00     0.115 C 
HETATM    8  C   UNK     0      -3.816   5.650  21.014  0.00  0.00     0.021 A 
HETATM    9  N   UNK     0      -2.563   5.222  21.234  0.00  0.00    -0.361 N 
HETATM   10  C   UNK     0      -1.885   6.212  21.853  0.00  0.00     0.022 A 
HETATM   11  C   UNK     0      -2.721   7.310  22.028  0.00  0.00    -0.027 A 
HETATM   12  C   UNK     0      -3.939   6.963  21.502  0.00  0.00    -0.031 A 
HETATM   13  C   UNK     0      -5.161   7.854  21.466  0.00  0.00     0.051 C 
HETATM   14  C   UNK     0      -0.443   6.142  22.349  0.00  0.00     0.115 C 
HETATM   15  C   UNK     0      -0.204   5.068  23.398  0.00  0.00     0.021 A 
HETATM   16  N   UNK     0      -0.414   3.744  23.280  0.00  0.00    -0.361 N 
HETATM   17  C   UNK     0      -0.149   3.153  24.447  0.00  0.00     0.022 A 
HETATM   18  C   UNK     0       0.262   4.138  25.367  0.00  0.00    -0.027 A 
HETATM   19  C   UNK     0       0.225   5.333  24.697  0.00  0.00    -0.031 A 
HETATM   20  C   UNK     0       0.630   6.659  25.314  0.00  0.00     0.051 C 
HETATM   21  C   UNK     0      -0.293   1.705  24.858  0.00  0.00     0.115 C 
HETATM   22  C   UNK     0      -1.430   0.917  24.250  0.00  0.00     0.022 A 
HETATM   23  N   UNK     0      -2.686   1.319  24.016  0.00  0.00    -0.361 N 
HETATM   24  C   UNK     0      -3.321   0.347  23.330  0.00  0.00     0.021 A 
HETATM   25  C   UNK     0      -2.455  -0.710  23.126  0.00  0.00    -0.031 A 
HETATM   26  C   UNK     0      -2.717  -2.038  22.446  0.00  0.00     0.051 C 
HETATM   27  C   UNK     0      -1.239  -0.369  23.706  0.00  0.00    -0.027 A 
HETATM   28  C   UNK     0      -4.729   0.379  22.760  0.00  0.00     0.115 C 
HETATM   29  H   UNK     0      -4.697   3.320  22.941  0.00  0.00     0.165 HD
HETATM   30  H   UNK     0      -2.140   4.240  20.908  0.00  0.00     0.165 HD
HETATM   31  H   UNK     0      -0.709   3.208  22.341  0.00  0.00     0.165 HD
HETATM   32  H   UNK     0      -3.150   2.276  24.372  0.00  0.00     0.165 HD
ENDROOT
BRANCH   6  33
HETATM   33  C   UNK     0      -5.628   2.638  18.333  0.00  0.00     0.051 C 
BRANCH  33  34
HETATM   34  C   UNK     0      -7.097   2.911  18.111  0.00  0.00     0.114 C 
BRANCH  34  35
HETATM   35  C   UNK     0      -7.568   1.980  17.045  0.00  0.00     0.139 C 
HETATM   36  O   UNK     0      -7.619   2.364  15.840  0.00  0.00    -0.650 OA
BRANCH  35  37
HETATM   37  O   UNK     0      -7.963   0.675  17.311  0.00  0.00    -0.776 OA
HETATM   38  H   UNK     0      -8.612   0.453  18.049  0.00  0.00     0.167 HD
ENDBRANCH  35  37
ENDBRANCH  34  35
ENDBRANCH  33  34
ENDBRANCH   6  33
BRANCH  27  39
HETATM   39  C   UNK     0      -0.074  -1.294  23.751  0.00  0.00     0.051 C 
BRANCH  39  40
HETATM   40  C   UNK     0      -0.062  -2.346  24.767  0.00  0.00     0.114 C 
BRANCH  40  41
HETATM   41  C   UNK     0       0.057  -2.052  26.178  0.00  0.00     0.139 C 
HETATM   42  O   UNK     0       1.118  -2.152  26.810  0.00  0.00    -0.650 OA
BRANCH  41  43
HETATM   43  O   UNK     0      -1.096  -1.625  26.895  0.00  0.00    -0.776 OA
HETATM   44  H   UNK     0      -1.860  -1.310  26.310  0.00  0.00     0.167 HD
ENDBRANCH  41  43
ENDBRANCH  40  41
ENDBRANCH  39  40
ENDBRANCH  27  39
BRANCH  11  45
HETATM   45  C   UNK     0      -2.408   8.641  22.658  0.00  0.00     0.051 C 
BRANCH  45  46
HETATM   46  C   UNK     0      -2.375   8.615  24.143  0.00  0.00     0.114 C 
BRANCH  46  47
HETATM   47  C   UNK     0      -1.487   9.729  24.584  0.00  0.00     0.139 C 
HETATM   48  O   UNK     0      -0.573  10.092  23.831  0.00  0.00    -0.650 OA
BRANCH  47  49
HETATM   49  O   UNK     0      -1.677  10.340  25.799  0.00  0.00    -0.776 OA
HETATM   50  H   UNK     0      -2.579  10.749  26.068  0.00  0.00     0.167 HD
ENDBRANCH  47  49
ENDBRANCH  46  47
ENDBRANCH  45  46
ENDBRANCH  11  45
BRANCH  18  51
HETATM   51  C   UNK     0       0.689   3.948  26.800  0.00  0.00     0.051 C 
BRANCH  51  52
HETATM   52  C   UNK     0      -0.420   4.540  27.656  0.00  0.00     0.114 C 
BRANCH  52  53
HETATM   53  C   UNK     0       0.115   5.381  28.744  0.00  0.00     0.139 C 
HETATM   54  O   UNK     0       0.906   4.899  29.571  0.00  0.00    -0.650 OA
BRANCH  53  55
HETATM   55  O   UNK     0      -0.268   6.697  28.837  0.00  0.00    -0.776 OA
HETATM   56  H   UNK     0      -0.873   7.082  29.524  0.00  0.00     0.167 HD
ENDBRANCH  53  55
ENDBRANCH  52  53
ENDBRANCH  51  52
ENDBRANCH  18  51
TORSDOF 16
ENDMDL
MODEL 14
REMARK VINA RESULT:      -8.8      2.587      7.630
REMARK  16 active torsions:
REMARK  status: ('A' for Active; 'I' for Inactive)
REMARK    1  A    between atoms: C_6  and  C_7 
REMARK    2  A    between atoms: C_7  and  C_8 
REMARK    3  A    between atoms: C_8  and  C_9 
REMARK    4  A    between atoms: C_9  and  O_11 
REMARK    5  A    between atoms: C_16  and  C_17 
REMARK    6  A    between atoms: C_17  and  C_18 
REMARK    7  A    between atoms: C_18  and  C_19 
REMARK    8  A    between atoms: C_19  and  O_21 
REMARK    9  A    between atoms: C_28  and  C_29 
REMARK   10  A    between atoms: C_29  and  C_30 
REMARK   11  A    between atoms: C_30  and  C_31 
REMARK   12  A    between atoms: C_31  and  O_33 
REMARK   13  A    between atoms: C_42  and  C_43 
REMARK   14  A    between atoms: C_43  and  C_44 
REMARK   15  A    between atoms: C_44  and  C_45 
REMARK   16  A    between atoms: C_45  and  O_47 
ROOT
HETATM    1  C   UNK     0       5.662  14.001  19.676  0.00  0.00     0.051 C 
HETATM    2  C   UNK     0       4.767  12.814  19.971  0.00  0.00    -0.031 A 
HETATM    3  C   UNK     0       4.932  11.482  19.628  0.00  0.00     0.021 A 
HETATM    4  N   UNK     0       3.866  10.776  20.074  0.00  0.00    -0.361 N 
HETATM    5  C   UNK     0       3.030  11.628  20.702  0.00  0.00     0.022 A 
HETATM    6  C   UNK     0       3.561  12.912  20.653  0.00  0.00    -0.027 A 
HETATM    7  C   UNK     0       1.764  11.343  21.448  0.00  0.00     0.115 C 
HETATM    8  C   UNK     0       1.769  10.131  22.362  0.00  0.00     0.021 A 
HETATM    9  N   UNK     0       2.776   9.651  23.108  0.00  0.00    -0.361 N 
HETATM   10  C   UNK     0       2.360   8.504  23.687  0.00  0.00     0.022 A 
HETATM   11  C   UNK     0       1.046   8.243  23.309  0.00  0.00    -0.027 A 
HETATM   12  C   UNK     0       0.667   9.264  22.475  0.00  0.00    -0.031 A 
HETATM   13  C   UNK     0      -0.690   9.402  21.822  0.00  0.00     0.051 C 
HETATM   14  C   UNK     0       3.197   7.585  24.571  0.00  0.00     0.115 C 
HETATM   15  C   UNK     0       4.421   7.010  23.877  0.00  0.00     0.021 A 
HETATM   16  N   UNK     0       5.439   7.686  23.311  0.00  0.00    -0.361 N 
HETATM   17  C   UNK     0       6.281   6.818  22.746  0.00  0.00     0.022 A 
HETATM   18  C   UNK     0       5.793   5.514  22.960  0.00  0.00    -0.027 A 
HETATM   19  C   UNK     0       4.629   5.647  23.671  0.00  0.00    -0.031 A 
HETATM   20  C   UNK     0       3.791   4.474  24.147  0.00  0.00     0.051 C 
HETATM   21  C   UNK     0       7.529   7.067  21.930  0.00  0.00     0.115 C 
HETATM   22  C   UNK     0       7.554   8.294  21.049  0.00  0.00     0.022 A 
HETATM   23  N   UNK     0       6.566   8.797  20.298  0.00  0.00    -0.361 N 
HETATM   24  C   UNK     0       6.976   9.978  19.794  0.00  0.00     0.021 A 
HETATM   25  C   UNK     0       8.264  10.238  20.223  0.00  0.00    -0.031 A 
HETATM   26  C   UNK     0       9.160  11.413  19.893  0.00  0.00     0.051 C 
HETATM   27  C   UNK     0       8.656   9.173  21.028  0.00  0.00    -0.027 A 
HETATM   28  C   UNK     0       6.174  10.962  18.960  0.00  0.00     0.115 C 
HETATM   29  H   UNK     0       3.693   9.687  19.908  0.00  0.00     0.165 HD
HETATM   30  H   UNK     0       3.765  10.146  23.269  0.00  0.00     0.165 HD
HETATM   31  H   UNK     0       5.592   8.795  23.353  0.00  0.00     0.165 HD
HETATM   32  H   UNK     0       5.584   8.301  20.081  0.00  0.00     0.165 HD
ENDROOT
BRANCH   6  33
HETATM   33  C   UNK     0       3.017  14.209  21.197  0.00  0.00     0.051 C 
BRANCH  33  34
HETATM   34  C   UNK     0       2.104  14.870  20.191  0.00  0.00     0.114 C 
BRANCH  34  35
HETATM   35  C   UNK     0       2.600  16.261  19.984  0.00  0.00     0.139 C 
HETATM   36  O   UNK     0       1.786  17.229  19.947  0.00  0.00    -0.650 OA
BRANCH  35  37
HETATM   37  O   UNK     0       3.948  16.560  19.829  0.00  0.00    -0.776 OA
HETATM   38  H   UNK     0       4.346  17.423  20.164  0.00  0.00     0.167 HD
ENDBRANCH  35  37
ENDBRANCH  34  35
ENDBRANCH  33  34
ENDBRANCH   6  33
BRANCH  27  39
HETATM   39  C   UNK     0      10.017   9.063  21.619  0.00  0.00     0.051 C 
BRANCH  39  40
HETATM   40  C   UNK     0      10.171   9.299  23.054  0.00  0.00     0.114 C 
BRANCH  40  41
HETATM   41  C   UNK     0      10.925   8.406  23.905  0.00  0.00     0.139 C 
HETATM   42  O   UNK     0      10.456   7.868  24.918  0.00  0.00    -0.650 OA
BRANCH  41  43
HETATM   43  O   UNK     0      12.281   8.119  23.577  0.00  0.00    -0.776 OA
HETATM   44  H   UNK     0      12.507   8.229  22.596  0.00  0.00     0.167 HD
ENDBRANCH  41  43
ENDBRANCH  40  41
ENDBRANCH  39  40
ENDBRANCH  27  39
BRANCH  11  45
HETATM   45  C   UNK     0       0.163   7.091  23.707  0.00  0.00     0.051 C 
BRANCH  45  46
HETATM   46  C   UNK     0       0.309   5.890  22.845  0.00  0.00     0.114 C 
BRANCH  46  47
HETATM   47  C   UNK     0      -0.707   4.896  23.296  0.00  0.00     0.139 C 
HETATM   48  O   UNK     0      -0.314   3.824  23.777  0.00  0.00    -0.650 OA
BRANCH  47  49
HETATM   49  O   UNK     0      -2.048   5.161  23.181  0.00  0.00    -0.776 OA
HETATM   50  H   UNK     0      -2.672   4.577  22.612  0.00  0.00     0.167 HD
ENDBRANCH  47  49
ENDBRANCH  46  47
ENDBRANCH  45  46
ENDBRANCH  11  45
BRANCH  18  51
HETATM   51  C   UNK     0       6.414   4.210  22.530  0.00  0.00     0.051 C 
BRANCH  51  52
HETATM   52  C   UNK     0       7.234   3.718  23.714  0.00  0.00     0.114 C 
BRANCH  52  53
HETATM   53  C   UNK     0       8.397   4.588  23.976  0.00  0.00     0.139 C 
HETATM   54  O   UNK     0       8.466   5.230  25.036  0.00  0.00    -0.650 OA
BRANCH  53  55
HETATM   55  O   UNK     0       9.398   4.685  23.041  0.00  0.00    -0.776 OA
HETATM   56  H   UNK     0      10.091   3.998  22.853  0.00  0.00     0.167 HD
ENDBRANCH  53  55
ENDBRANCH  52  53
ENDBRANCH  51  52
ENDBRANCH  18  51
TORSDOF 16
ENDMDL
MODEL 15
REMARK VINA RESULT:      -8.8      2.849     10.181
REMARK  16 active torsions:
REMARK  status: ('A' for Active; 'I' for Inactive)
REMARK    1  A    between atoms: C_6  and  C_7 
REMARK    2  A    between atoms: C_7  and  C_8 
REMARK    3  A    between atoms: C_8  and  C_9 
REMARK    4  A    between atoms: C_9  and  O_11 
REMARK    5  A    between atoms: C_16  and  C_17 
REMARK    6  A    between atoms: C_17  and  C_18 
REMARK    7  A    between atoms: C_18  and  C_19 
REMARK    8  A    between atoms: C_19  and  O_21 
REMARK    9  A    between atoms: C_28  and  C_29 
REMARK   10  A    between atoms: C_29  and  C_30 
REMARK   11  A    between atoms: C_30  and  C_31 
REMARK   12  A    between atoms: C_31  and  O_33 
REMARK   13  A    between atoms: C_42  and  C_43 
REMARK   14  A    between atoms: C_43  and  C_44 
REMARK   15  A    between atoms: C_44  and  C_45 
REMARK   16  A    between atoms: C_45  and  O_47 
ROOT
HETATM    1  C   UNK     0       3.192  10.401  22.658  0.00  0.00     0.051 C 
HETATM    2  C   UNK     0       3.633   9.068  23.226  0.00  0.00    -0.031 A 
HETATM    3  C   UNK     0       3.132   8.364  24.310  0.00  0.00     0.021 A 
HETATM    4  N   UNK     0       3.856   7.231  24.474  0.00  0.00    -0.361 N 
HETATM    5  C   UNK     0       4.803   7.194  23.513  0.00  0.00     0.022 A 
HETATM    6  C   UNK     0       4.694   8.329  22.717  0.00  0.00    -0.027 A 
HETATM    7  C   UNK     0       5.795   6.119  23.196  0.00  0.00     0.115 C 
HETATM    8  C   UNK     0       5.286   4.689  23.234  0.00  0.00     0.021 A 
HETATM    9  N   UNK     0       4.080   4.221  22.878  0.00  0.00    -0.361 N 
HETATM   10  C   UNK     0       4.040   2.903  23.167  0.00  0.00     0.022 A 
HETATM   11  C   UNK     0       5.257   2.509  23.715  0.00  0.00    -0.027 A 
HETATM   12  C   UNK     0       6.047   3.630  23.760  0.00  0.00    -0.031 A 
HETATM   13  C   UNK     0       7.467   3.678  24.280  0.00  0.00     0.051 C 
HETATM   14  C   UNK     0       2.841   1.977  22.987  0.00  0.00     0.115 C 
HETATM   15  C   UNK     0       1.623   2.382  23.802  0.00  0.00     0.021 A 
HETATM   16  N   UNK     0       0.953   3.549  23.752  0.00  0.00    -0.361 N 
HETATM   17  C   UNK     0      -0.013   3.540  24.674  0.00  0.00     0.022 A 
HETATM   18  C   UNK     0       0.023   2.304  25.350  0.00  0.00    -0.027 A 
HETATM   19  C   UNK     0       1.051   1.588  24.793  0.00  0.00    -0.031 A 
HETATM   20  C   UNK     0       1.415   0.174  25.207  0.00  0.00     0.051 C 
HETATM   21  C   UNK     0      -0.989   4.625  25.070  0.00  0.00     0.115 C 
HETATM   22  C   UNK     0      -0.510   6.056  24.994  0.00  0.00     0.022 A 
HETATM   23  N   UNK     0       0.687   6.550  25.338  0.00  0.00    -0.361 N 
HETATM   24  C   UNK     0       0.731   7.846  24.970  0.00  0.00     0.021 A 
HETATM   25  C   UNK     0      -0.469   8.198  24.384  0.00  0.00    -0.031 A 
HETATM   26  C   UNK     0      -0.911   9.545  23.850  0.00  0.00     0.051 C 
HETATM   27  C   UNK     0      -1.280   7.069  24.388  0.00  0.00    -0.027 A 
HETATM   28  C   UNK     0       1.909   8.800  25.067  0.00  0.00     0.115 C 
HETATM   29  H   UNK     0       3.719   6.486  25.291  0.00  0.00     0.165 HD
HETATM   30  H   UNK     0       3.272   4.807  22.376  0.00  0.00     0.165 HD
HETATM   31  H   UNK     0       1.135   4.379  23.020  0.00  0.00     0.165 HD
HETATM   32  H   UNK     0       1.496   5.999  25.883  0.00  0.00     0.165 HD
ENDROOT
BRANCH   6  33
HETATM   33  C   UNK     0       5.511   8.761  21.526  0.00  0.00     0.051 C 
BRANCH  33  34
HETATM   34  C   UNK     0       6.754   9.497  21.968  0.00  0.00     0.114 C 
BRANCH  34  35
HETATM   35  C   UNK     0       7.920   8.608  21.696  0.00  0.00     0.139 C 
HETATM   36  O   UNK     0       8.619   8.164  22.652  0.00  0.00    -0.650 OA
BRANCH  35  37
HETATM   37  O   UNK     0       8.288   8.229  20.411  0.00  0.00    -0.776 OA
HETATM   38  H   UNK     0       8.874   7.428  20.238  0.00  0.00     0.167 HD
ENDBRANCH  35  37
ENDBRANCH  34  35
ENDBRANCH  33  34
ENDBRANCH   6  33
BRANCH  27  39
HETATM   39  C   UNK     0      -2.686   7.078  23.900  0.00  0.00     0.051 C 
BRANCH  39  40
HETATM   40  C   UNK     0      -2.970   6.491  22.591  0.00  0.00     0.114 C 
BRANCH  40  41
HETATM   41  C   UNK     0      -3.959   7.047  21.695  0.00  0.00     0.139 C 
HETATM   42  O   UNK     0      -3.982   8.238  21.357  0.00  0.00    -0.650 OA
BRANCH  41  43
HETATM   43  O   UNK     0      -4.968   6.194  21.164  0.00  0.00    -0.776 OA
HETATM   44  H   UNK     0      -4.917   6.059  20.161  0.00  0.00     0.167 HD
ENDBRANCH  41  43
ENDBRANCH  40  41
ENDBRANCH  39  40
ENDBRANCH  27  39
BRANCH  11  45
HETATM   45  C   UNK     0       5.682   1.143  24.181  0.00  0.00     0.051 C 
BRANCH  45  46
HETATM   46  C   UNK     0       5.949   0.182  23.080  0.00  0.00     0.114 C 
BRANCH  46  47
HETATM   47  C   UNK     0       5.245  -1.087  23.421  0.00  0.00     0.139 C 
HETATM   48  O   UNK     0       4.385  -1.516  22.640  0.00  0.00    -0.650 OA
BRANCH  47  49
HETATM   49  O   UNK     0       5.541  -1.766  24.576  0.00  0.00    -0.776 OA
HETATM   50  H   UNK     0       5.380  -1.359  25.505  0.00  0.00     0.167 HD
ENDBRANCH  47  49
ENDBRANCH  46  47
ENDBRANCH  45  46
ENDBRANCH  11  45
BRANCH  18  51
HETATM   51  C   UNK     0      -0.886   1.824  26.451  0.00  0.00     0.051 C 
BRANCH  51  52
HETATM   52  C   UNK     0      -0.419   2.518  27.722  0.00  0.00     0.114 C 
BRANCH  52  53
HETATM   53  C   UNK     0       0.848   1.952  28.223  0.00  0.00     0.139 C 
HETATM   54  O   UNK     0       0.914   0.751  28.530  0.00  0.00    -0.650 OA
BRANCH  53  55
HETATM   55  O   UNK     0       1.951   2.761  28.350  0.00  0.00    -0.776 OA
HETATM   56  H   UNK     0       2.275   3.179  29.190  0.00  0.00     0.167 HD
ENDBRANCH  53  55
ENDBRANCH  52  53
ENDBRANCH  51  52
ENDBRANCH  18  51
TORSDOF 16
ENDMDL
MODEL 16
REMARK VINA RESULT:      -8.7      2.939      5.617
REMARK  16 active torsions:
REMARK  status: ('A' for Active; 'I' for Inactive)
REMARK    1  A    between atoms: C_6  and  C_7 
REMARK    2  A    between atoms: C_7  and  C_8 
REMARK    3  A    between atoms: C_8  and  C_9 
REMARK    4  A    between atoms: C_9  and  O_11 
REMARK    5  A    between atoms: C_16  and  C_17 
REMARK    6  A    between atoms: C_17  and  C_18 
REMARK    7  A    between atoms: C_18  and  C_19 
REMARK    8  A    between atoms: C_19  and  O_21 
REMARK    9  A    between atoms: C_28  and  C_29 
REMARK   10  A    between atoms: C_29  and  C_30 
REMARK   11  A    between atoms: C_30  and  C_31 
REMARK   12  A    between atoms: C_31  and  O_33 
REMARK   13  A    between atoms: C_42  and  C_43 
REMARK   14  A    between atoms: C_43  and  C_44 
REMARK   15  A    between atoms: C_44  and  C_45 
REMARK   16  A    between atoms: C_45  and  O_47 
ROOT
HETATM    1  C   UNK     0       7.288   4.049  22.360  0.00  0.00     0.051 C 
HETATM    2  C   UNK     0       5.994   3.968  23.142  0.00  0.00    -0.031 A 
HETATM    3  C   UNK     0       5.283   4.977  23.773  0.00  0.00     0.021 A 
HETATM    4  N   UNK     0       4.197   4.439  24.378  0.00  0.00    -0.361 N 
HETATM    5  C   UNK     0       4.196   3.112  24.139  0.00  0.00     0.022 A 
HETATM    6  C   UNK     0       5.308   2.783  23.371  0.00  0.00    -0.027 A 
HETATM    7  C   UNK     0       3.174   2.080  24.502  0.00  0.00     0.115 C 
HETATM    8  C   UNK     0       1.718   2.466  24.310  0.00  0.00     0.021 A 
HETATM    9  N   UNK     0       1.174   3.229  23.349  0.00  0.00    -0.361 N 
HETATM   10  C   UNK     0      -0.138   3.381  23.626  0.00  0.00     0.022 A 
HETATM   11  C   UNK     0      -0.451   2.689  24.792  0.00  0.00    -0.027 A 
HETATM   12  C   UNK     0       0.714   2.110  25.229  0.00  0.00    -0.031 A 
HETATM   13  C   UNK     0       0.853   1.253  26.466  0.00  0.00     0.051 C 
HETATM   14  C   UNK     0      -1.134   4.223  22.835  0.00  0.00     0.115 C 
HETATM   15  C   UNK     0      -0.784   5.702  22.780  0.00  0.00     0.021 A 
HETATM   16  N   UNK     0       0.342   6.262  22.299  0.00  0.00    -0.361 N 
HETATM   17  C   UNK     0       0.295   7.581  22.497  0.00  0.00     0.022 A 
HETATM   18  C   UNK     0      -0.924   7.897  23.129  0.00  0.00    -0.027 A 
HETATM   19  C   UNK     0      -1.591   6.711  23.300  0.00  0.00    -0.031 A 
HETATM   20  C   UNK     0      -2.974   6.602  23.916  0.00  0.00     0.051 C 
HETATM   21  C   UNK     0       1.329   8.645  22.207  0.00  0.00     0.115 C 
HETATM   22  C   UNK     0       2.783   8.262  22.351  0.00  0.00     0.022 A 
HETATM   23  N   UNK     0       3.351   7.501  23.296  0.00  0.00    -0.361 N 
HETATM   24  C   UNK     0       4.641   7.298  22.958  0.00  0.00     0.021 A 
HETATM   25  C   UNK     0       4.913   7.954  21.772  0.00  0.00    -0.031 A 
HETATM   26  C   UNK     0       6.222   8.055  21.018  0.00  0.00     0.051 C 
HETATM   27  C   UNK     0       3.739   8.578  21.365  0.00  0.00    -0.027 A 
HETATM   28  C   UNK     0       5.662   6.427  23.668  0.00  0.00     0.115 C 
HETATM   29  H   UNK     0       3.460   4.996  25.003  0.00  0.00     0.165 HD
HETATM   30  H   UNK     0       1.704   3.620  22.446  0.00  0.00     0.165 HD
HETATM   31  H   UNK     0       1.167   5.721  21.765  0.00  0.00     0.165 HD
HETATM   32  H   UNK     0       2.858   7.134  24.234  0.00  0.00     0.165 HD
ENDROOT
BRANCH   6  33
HETATM   33  C   UNK     0       5.763   1.444  22.847  0.00  0.00     0.051 C 
BRANCH  33  34
HETATM   34  C   UNK     0       6.509   0.678  23.913  0.00  0.00     0.114 C 
BRANCH  34  35
HETATM   35  C   UNK     0       5.962  -0.709  23.932  0.00  0.00     0.139 C 
HETATM   36  O   UNK     0       6.739  -1.702  23.821  0.00  0.00    -0.650 OA
BRANCH  35  37
HETATM   37  O   UNK     0       4.606  -0.977  24.072  0.00  0.00    -0.776 OA
HETATM   38  H   UNK     0       4.083  -1.471  23.367  0.00  0.00     0.167 HD
ENDBRANCH  35  37
ENDBRANCH  34  35
ENDBRANCH  33  34
ENDBRANCH   6  33
BRANCH  27  39
HETATM   39  C   UNK     0       3.659   9.445  20.158  0.00  0.00     0.051 C 
BRANCH  39  40
HETATM   40  C   UNK     0       3.213  10.827  20.325  0.00  0.00     0.114 C 
BRANCH  40  41
HETATM   41  C   UNK     0       3.774  11.702  21.330  0.00  0.00     0.139 C 
HETATM   42  O   UNK     0       3.302  11.827  22.468  0.00  0.00    -0.650 OA
BRANCH  41  43
HETATM   43  O   UNK     0       4.931  12.468  21.011  0.00  0.00    -0.776 OA
HETATM   44  H   UNK     0       4.980  12.773  20.046  0.00  0.00     0.167 HD
ENDBRANCH  41  43
ENDBRANCH  40  41
ENDBRANCH  39  40
ENDBRANCH  27  39
BRANCH  11  45
HETATM   45  C   UNK     0      -1.782   2.562  25.483  0.00  0.00     0.051 C 
BRANCH  45  46
HETATM   46  C   UNK     0      -2.544   1.342  25.111  0.00  0.00     0.114 C 
BRANCH  46  47
HETATM   47  C   UNK     0      -3.622   1.765  24.173  0.00  0.00     0.139 C 
HETATM   48  O   UNK     0      -3.948   0.994  23.259  0.00  0.00    -0.650 OA
BRANCH  47  49
HETATM   49  O   UNK     0      -4.241   2.981  24.315  0.00  0.00    -0.776 OA
HETATM   50  H   UNK     0      -4.858   3.367  23.591  0.00  0.00     0.167 HD
ENDBRANCH  47  49
ENDBRANCH  46  47
ENDBRANCH  45  46
ENDBRANCH  11  45
BRANCH  18  51
HETATM   51  C   UNK     0      -1.435   9.257  23.530  0.00  0.00     0.051 C 
BRANCH  51  52
HETATM   52  C   UNK     0      -1.675   9.197  25.031  0.00  0.00     0.114 C 
BRANCH  52  53
HETATM   53  C   UNK     0      -0.409   9.169  25.789  0.00  0.00     0.139 C 
HETATM   54  O   UNK     0       0.594   9.750  25.345  0.00  0.00    -0.650 OA
BRANCH  53  55
HETATM   55  O   UNK     0      -0.348   8.495  26.985  0.00  0.00    -0.776 OA
HETATM   56  H   UNK     0      -1.081   7.967  27.396  0.00  0.00     0.167 HD
ENDBRANCH  53  55
ENDBRANCH  52  53
ENDBRANCH  51  52
ENDBRANCH  18  51
TORSDOF 16
ENDMDL
MODEL 17
REMARK VINA RESULT:      -8.6      7.588     12.022
REMARK  16 active torsions:
REMARK  status: ('A' for Active; 'I' for Inactive)
REMARK    1  A    between atoms: C_6  and  C_7 
REMARK    2  A    between atoms: C_7  and  C_8 
REMARK    3  A    between atoms: C_8  and  C_9 
REMARK    4  A    between atoms: C_9  and  O_11 
REMARK    5  A    between atoms: C_16  and  C_17 
REMARK    6  A    between atoms: C_17  and  C_18 
REMARK    7  A    between atoms: C_18  and  C_19 
REMARK    8  A    between atoms: C_19  and  O_21 
REMARK    9  A    between atoms: C_28  and  C_29 
REMARK   10  A    between atoms: C_29  and  C_30 
REMARK   11  A    between atoms: C_30  and  C_31 
REMARK   12  A    between atoms: C_31  and  O_33 
REMARK   13  A    between atoms: C_42  and  C_43 
REMARK   14  A    between atoms: C_43  and  C_44 
REMARK   15  A    between atoms: C_44  and  C_45 
REMARK   16  A    between atoms: C_45  and  O_47 
ROOT
HETATM    1  C   UNK     0      -2.669   8.530  22.662  0.00  0.00     0.051 C 
HETATM    2  C   UNK     0      -2.878   7.201  21.965  0.00  0.00    -0.031 A 
HETATM    3  C   UNK     0      -1.972   6.178  21.733  0.00  0.00     0.021 A 
HETATM    4  N   UNK     0      -2.590   5.189  21.045  0.00  0.00    -0.361 N 
HETATM    5  C   UNK     0      -3.873   5.555  20.842  0.00  0.00     0.022 A 
HETATM    6  C   UNK     0      -4.086   6.810  21.403  0.00  0.00    -0.027 A 
HETATM    7  C   UNK     0      -4.996   4.785  20.220  0.00  0.00     0.115 C 
HETATM    8  C   UNK     0      -5.112   3.321  20.604  0.00  0.00     0.021 A 
HETATM    9  N   UNK     0      -4.855   2.743  21.787  0.00  0.00    -0.361 N 
HETATM   10  C   UNK     0      -5.005   1.409  21.645  0.00  0.00     0.022 A 
HETATM   11  C   UNK     0      -5.380   1.121  20.335  0.00  0.00    -0.027 A 
HETATM   12  C   UNK     0      -5.449   2.320  19.674  0.00  0.00    -0.031 A 
HETATM   13  C   UNK     0      -5.825   2.497  18.220  0.00  0.00     0.051 C 
HETATM   14  C   UNK     0      -4.752   0.354  22.717  0.00  0.00     0.115 C 
HETATM   15  C   UNK     0      -3.321   0.325  23.227  0.00  0.00     0.021 A 
HETATM   16  N   UNK     0      -2.634   1.330  23.803  0.00  0.00    -0.361 N 
HETATM   17  C   UNK     0      -1.385   0.925  24.045  0.00  0.00     0.022 A 
HETATM   18  C   UNK     0      -1.254  -0.410  23.614  0.00  0.00    -0.027 A 
HETATM   19  C   UNK     0      -2.474  -0.775  23.106  0.00  0.00    -0.031 A 
HETATM   20  C   UNK     0      -2.782  -2.157  22.561  0.00  0.00     0.051 C 
HETATM   21  C   UNK     0      -0.208   1.688  24.607  0.00  0.00     0.115 C 
HETATM   22  C   UNK     0      -0.103   3.157  24.270  0.00  0.00     0.022 A 
HETATM   23  N   UNK     0      -0.357   3.761  23.102  0.00  0.00    -0.361 N 
HETATM   24  C   UNK     0      -0.277   5.094  23.287  0.00  0.00     0.021 A 
HETATM   25  C   UNK     0       0.047   5.355  24.605  0.00  0.00    -0.031 A 
HETATM   26  C   UNK     0       0.287   6.689  25.281  0.00  0.00     0.051 C 
HETATM   27  C   UNK     0       0.164   4.131  25.254  0.00  0.00    -0.027 A 
HETATM   28  C   UNK     0      -0.572   6.192  22.280  0.00  0.00     0.115 C 
HETATM   29  H   UNK     0      -2.106   4.256  20.674  0.00  0.00     0.165 HD
HETATM   30  H   UNK     0      -4.615   3.278  22.739  0.00  0.00     0.165 HD
HETATM   31  H   UNK     0      -3.052   2.330  24.089  0.00  0.00     0.165 HD
HETATM   32  H   UNK     0      -0.553   3.249  22.124  0.00  0.00     0.165 HD
ENDROOT
BRANCH   6  33
HETATM   33  C   UNK     0      -5.333   7.656  21.441  0.00  0.00     0.051 C 
BRANCH  33  34
HETATM   34  C   UNK     0      -6.413   6.981  22.253  0.00  0.00     0.114 C 
BRANCH  34  35
HETATM   35  C   UNK     0      -7.672   7.037  21.455  0.00  0.00     0.139 C 
HETATM   36  O   UNK     0      -8.206   8.152  21.186  0.00  0.00    -0.650 OA
BRANCH  35  37
HETATM   37  O   UNK     0      -8.306   5.898  20.975  0.00  0.00    -0.776 OA
HETATM   38  H   UNK     0      -7.977   4.971  21.192  0.00  0.00     0.167 HD
ENDBRANCH  35  37
ENDBRANCH  34  35
ENDBRANCH  33  34
ENDBRANCH   6  33
BRANCH  27  39
HETATM   39  C   UNK     0       0.575   4.005  26.679  0.00  0.00     0.051 C 
BRANCH  39  40
HETATM   40  C   UNK     0      -0.324   4.525  27.709  0.00  0.00     0.114 C 
BRANCH  40  41
HETATM   41  C   UNK     0       0.146   5.357  28.793  0.00  0.00     0.139 C 
HETATM   42  O   UNK     0       0.906   4.954  29.684  0.00  0.00    -0.650 OA
BRANCH  41  43
HETATM   43  O   UNK     0      -0.278   6.715  28.856  0.00  0.00    -0.776 OA
HETATM   44  H   UNK     0       0.421   7.356  29.211  0.00  0.00     0.167 HD
ENDBRANCH  41  43
ENDBRANCH  40  41
ENDBRANCH  39  40
ENDBRANCH  27  39
BRANCH  11  45
HETATM   45  C   UNK     0      -5.668  -0.219  19.712  0.00  0.00     0.051 C 
BRANCH  45  46
HETATM   46  C   UNK     0      -4.459  -0.937  19.234  0.00  0.00     0.114 C 
BRANCH  46  47
HETATM   47  C   UNK     0      -4.912  -2.249  18.689  0.00  0.00     0.139 C 
HETATM   48  O   UNK     0      -6.088  -2.361  18.316  0.00  0.00    -0.650 OA
BRANCH  47  49
HETATM   49  O   UNK     0      -4.046  -3.311  18.603  0.00  0.00    -0.776 OA
HETATM   50  H   UNK     0      -4.154  -4.150  19.184  0.00  0.00     0.167 HD
ENDBRANCH  47  49
ENDBRANCH  46  47
ENDBRANCH  45  46
ENDBRANCH  11  45
BRANCH  18  51
HETATM   51  C   UNK     0      -0.040  -1.297  23.702  0.00  0.00     0.051 C 
BRANCH  51  52
HETATM   52  C   UNK     0      -0.230  -2.159  24.942  0.00  0.00     0.114 C 
BRANCH  52  53
HETATM   53  C   UNK     0       0.561  -1.662  26.084  0.00  0.00     0.139 C 
HETATM   54  O   UNK     0       0.020  -0.969  26.960  0.00  0.00    -0.650 OA
BRANCH  53  55
HETATM   55  O   UNK     0       1.898  -1.967  26.169  0.00  0.00    -0.776 OA
HETATM   56  H   UNK     0       2.357  -2.364  26.954  0.00  0.00     0.167 HD
ENDBRANCH  53  55
ENDBRANCH  52  53
ENDBRANCH  51  52
ENDBRANCH  18  51
TORSDOF 16
ENDMDL
MODEL 18
REMARK VINA RESULT:      -8.6      3.848      7.543
REMARK  16 active torsions:
REMARK  status: ('A' for Active; 'I' for Inactive)
REMARK    1  A    between atoms: C_6  and  C_7 
REMARK    2  A    between atoms: C_7  and  C_8 
REMARK    3  A    between atoms: C_8  and  C_9 
REMARK    4  A    between atoms: C_9  and  O_11 
REMARK    5  A    between atoms: C_16  and  C_17 
REMARK    6  A    between atoms: C_17  and  C_18 
REMARK    7  A    between atoms: C_18  and  C_19 
REMARK    8  A    between atoms: C_19  and  O_21 
REMARK    9  A    between atoms: C_28  and  C_29 
REMARK   10  A    between atoms: C_29  and  C_30 
REMARK   11  A    between atoms: C_30  and  C_31 
REMARK   12  A    between atoms: C_31  and  O_33 
REMARK   13  A    between atoms: C_42  and  C_43 
REMARK   14  A    between atoms: C_43  and  C_44 
REMARK   15  A    between atoms: C_44  and  C_45 
REMARK   16  A    between atoms: C_45  and  O_47 
ROOT
HETATM    1  C   UNK     0      -1.801  -0.741  24.285  0.00  0.00     0.051 C 
HETATM    2  C   UNK     0      -1.874   0.766  24.424  0.00  0.00    -0.031 A 
HETATM    3  C   UNK     0      -0.978   1.639  25.023  0.00  0.00     0.021 A 
HETATM    4  N   UNK     0      -1.467   2.899  24.939  0.00  0.00    -0.361 N 
HETATM    5  C   UNK     0      -2.650   2.850  24.292  0.00  0.00     0.022 A 
HETATM    6  C   UNK     0      -2.936   1.530  23.958  0.00  0.00    -0.027 A 
HETATM    7  C   UNK     0      -3.546   3.968  23.861  0.00  0.00     0.115 C 
HETATM    8  C   UNK     0      -2.872   5.187  23.255  0.00  0.00     0.021 A 
HETATM    9  N   UNK     0      -1.784   5.238  22.471  0.00  0.00    -0.361 N 
HETATM   10  C   UNK     0      -1.490   6.536  22.247  0.00  0.00     0.022 A 
HETATM   11  C   UNK     0      -2.419   7.343  22.896  0.00  0.00    -0.027 A 
HETATM   12  C   UNK     0      -3.293   6.500  23.533  0.00  0.00    -0.031 A 
HETATM   13  C   UNK     0      -4.479   6.935  24.364  0.00  0.00     0.051 C 
HETATM   14  C   UNK     0      -0.295   7.066  21.459  0.00  0.00     0.115 C 
HETATM   15  C   UNK     0       1.052   6.668  22.041  0.00  0.00     0.021 A 
HETATM   16  N   UNK     0       1.519   5.424  22.254  0.00  0.00    -0.361 N 
HETATM   17  C   UNK     0       2.714   5.499  22.844  0.00  0.00     0.022 A 
HETATM   18  C   UNK     0       3.045   6.858  23.016  0.00  0.00    -0.027 A 
HETATM   19  C   UNK     0       1.997   7.580  22.507  0.00  0.00    -0.031 A 
HETATM   20  C   UNK     0       1.961   9.096  22.459  0.00  0.00     0.051 C 
HETATM   21  C   UNK     0       3.618   4.399  23.354  0.00  0.00     0.115 C 
HETATM   22  C   UNK     0       2.961   3.162  23.918  0.00  0.00     0.022 A 
HETATM   23  N   UNK     0       1.874   3.081  24.698  0.00  0.00    -0.361 N 
HETATM   24  C   UNK     0       1.554   1.780  24.845  0.00  0.00     0.021 A 
HETATM   25  C   UNK     0       2.462   1.003  24.151  0.00  0.00    -0.031 A 
HETATM   26  C   UNK     0       2.543  -0.506  24.048  0.00  0.00     0.051 C 
HETATM   27  C   UNK     0       3.372   1.865  23.550  0.00  0.00    -0.027 A 
HETATM   28  C   UNK     0       0.351   1.194  25.563  0.00  0.00     0.115 C 
HETATM   29  H   UNK     0      -0.992   3.809  25.372  0.00  0.00     0.165 HD
HETATM   30  H   UNK     0      -1.250   4.359  22.034  0.00  0.00     0.165 HD
HETATM   31  H   UNK     0       1.018   4.472  21.938  0.00  0.00     0.165 HD
HETATM   32  H   UNK     0       1.348   3.941  25.188  0.00  0.00     0.165 HD
ENDROOT
BRANCH   6  33
HETATM   33  C   UNK     0      -4.127   0.948  23.240  0.00  0.00     0.051 C 
BRANCH  33  34
HETATM   34  C   UNK     0      -4.215   1.478  21.829  0.00  0.00     0.114 C 
BRANCH  34  35
HETATM   35  C   UNK     0      -5.653   1.746  21.541  0.00  0.00     0.139 C 
HETATM   36  O   UNK     0      -6.185   1.300  20.483  0.00  0.00    -0.650 OA
BRANCH  35  37
HETATM   37  O   UNK     0      -6.465   2.479  22.398  0.00  0.00    -0.776 OA
HETATM   38  H   UNK     0      -6.275   2.549  23.385  0.00  0.00     0.167 HD
ENDBRANCH  35  37
ENDBRANCH  34  35
ENDBRANCH  33  34
ENDBRANCH   6  33
BRANCH  27  39
HETATM   39  C   UNK     0       4.547   1.389  22.771  0.00  0.00     0.051 C 
BRANCH  39  40
HETATM   40  C   UNK     0       5.836   2.046  22.987  0.00  0.00     0.114 C 
BRANCH  40  41
HETATM   41  C   UNK     0       6.418   2.188  24.302  0.00  0.00     0.139 C 
HETATM   42  O   UNK     0       6.396   1.294  25.159  0.00  0.00    -0.650 OA
BRANCH  41  43
HETATM   43  O   UNK     0       7.053   3.414  24.648  0.00  0.00    -0.776 OA
HETATM   44  H   UNK     0       8.066   3.383  24.625  0.00  0.00     0.167 HD
ENDBRANCH  41  43
ENDBRANCH  40  41
ENDBRANCH  39  40
ENDBRANCH  27  39
BRANCH  11  45
HETATM   45  C   UNK     0      -2.503   8.846  22.926  0.00  0.00     0.051 C 
BRANCH  45  46
HETATM   46  C   UNK     0      -1.264   9.512  23.404  0.00  0.00     0.114 C 
BRANCH  46  47
HETATM   47  C   UNK     0      -1.198   9.316  24.880  0.00  0.00     0.139 C 
HETATM   48  O   UNK     0      -1.778  10.130  25.613  0.00  0.00    -0.650 OA
BRANCH  47  49
HETATM   49  O   UNK     0      -0.510   8.257  25.418  0.00  0.00    -0.776 OA
HETATM   50  H   UNK     0      -0.698   7.910  26.366  0.00  0.00     0.167 HD
ENDBRANCH  47  49
ENDBRANCH  46  47
ENDBRANCH  45  46
ENDBRANCH  11  45
BRANCH  18  51
HETATM   51  C   UNK     0       4.302   7.437  23.612  0.00  0.00     0.051 C 
BRANCH  51  52
HETATM   52  C   UNK     0       5.337   7.449  22.497  0.00  0.00     0.114 C 
BRANCH  52  53
HETATM   53  C   UNK     0       6.616   6.851  22.927  0.00  0.00     0.139 C 
HETATM   54  O   UNK     0       7.624   6.958  22.211  0.00  0.00    -0.650 OA
BRANCH  53  55
HETATM   55  O   UNK     0       6.682   6.175  24.121  0.00  0.00    -0.776 OA
HETATM   56  H   UNK     0       7.280   6.391  24.883  0.00  0.00     0.167 HD
ENDBRANCH  53  55
ENDBRANCH  52  53
ENDBRANCH  51  52
ENDBRANCH  18  51
TORSDOF 16
ENDMDL
MODEL 19
REMARK VINA RESULT:      -8.5      3.911     11.333
REMARK  16 active torsions:
REMARK  status: ('A' for Active; 'I' for Inactive)
REMARK    1  A    between atoms: C_6  and  C_7 
REMARK    2  A    between atoms: C_7  and  C_8 
REMARK    3  A    between atoms: C_8  and  C_9 
REMARK    4  A    between atoms: C_9  and  O_11 
REMARK    5  A    between atoms: C_16  and  C_17 
REMARK    6  A    between atoms: C_17  and  C_18 
REMARK    7  A    between atoms: C_18  and  C_19 
REMARK    8  A    between atoms: C_19  and  O_21 
REMARK    9  A    between atoms: C_28  and  C_29 
REMARK   10  A    between atoms: C_29  and  C_30 
REMARK   11  A    between atoms: C_30  and  C_31 
REMARK   12  A    between atoms: C_31  and  O_33 
REMARK   13  A    between atoms: C_42  and  C_43 
REMARK   14  A    between atoms: C_43  and  C_44 
REMARK   15  A    between atoms: C_44  and  C_45 
REMARK   16  A    between atoms: C_45  and  O_47 
ROOT
HETATM    1  C   UNK     0      -1.903   9.640  21.939  0.00  0.00     0.051 C 
HETATM    2  C   UNK     0      -0.853   8.771  22.602  0.00  0.00    -0.031 A 
HETATM    3  C   UNK     0      -0.966   7.945  23.709  0.00  0.00     0.021 A 
HETATM    4  N   UNK     0       0.239   7.384  23.966  0.00  0.00    -0.361 N 
HETATM    5  C   UNK     0       1.116   7.829  23.042  0.00  0.00     0.022 A 
HETATM    6  C   UNK     0       0.467   8.701  22.175  0.00  0.00    -0.027 A 
HETATM    7  C   UNK     0       2.546   7.445  22.824  0.00  0.00     0.115 C 
HETATM    8  C   UNK     0       2.879   5.967  22.932  0.00  0.00     0.021 A 
HETATM    9  N   UNK     0       2.134   4.913  22.565  0.00  0.00    -0.361 N 
HETATM   10  C   UNK     0       2.787   3.790  22.932  0.00  0.00     0.022 A 
HETATM   11  C   UNK     0       3.990   4.130  23.545  0.00  0.00    -0.027 A 
HETATM   12  C   UNK     0       4.054   5.500  23.548  0.00  0.00    -0.031 A 
HETATM   13  C   UNK     0       5.193   6.320  24.111  0.00  0.00     0.051 C 
HETATM   14  C   UNK     0       2.281   2.359  22.769  0.00  0.00     0.115 C 
HETATM   15  C   UNK     0       0.988   2.075  23.515  0.00  0.00     0.021 A 
HETATM   16  N   UNK     0      -0.197   2.698  23.373  0.00  0.00    -0.361 N 
HETATM   17  C   UNK     0      -1.063   2.203  24.260  0.00  0.00     0.022 A 
HETATM   18  C   UNK     0      -0.414   1.202  25.010  0.00  0.00    -0.027 A 
HETATM   19  C   UNK     0       0.869   1.131  24.533  0.00  0.00    -0.031 A 
HETATM   20  C   UNK     0       1.907   0.148  25.045  0.00  0.00     0.051 C 
HETATM   21  C   UNK     0      -2.489   2.607  24.555  0.00  0.00     0.115 C 
HETATM   22  C   UNK     0      -2.845   4.067  24.409  0.00  0.00     0.022 A 
HETATM   23  N   UNK     0      -2.122   5.137  24.762  0.00  0.00    -0.361 N 
HETATM   24  C   UNK     0      -2.754   6.242  24.317  0.00  0.00     0.021 A 
HETATM   25  C   UNK     0      -3.918   5.875  23.671  0.00  0.00    -0.031 A 
HETATM   26  C   UNK     0      -4.978   6.756  23.041  0.00  0.00     0.051 C 
HETATM   27  C   UNK     0      -3.999   4.488  23.717  0.00  0.00    -0.027 A 
HETATM   28  C   UNK     0      -2.276   7.682  24.396  0.00  0.00     0.115 C 
HETATM   29  H   UNK     0       0.472   6.709  24.822  0.00  0.00     0.165 HD
HETATM   30  H   UNK     0       1.171   4.957  22.001  0.00  0.00     0.165 HD
HETATM   31  H   UNK     0      -0.442   3.470  22.598  0.00  0.00     0.165 HD
HETATM   32  H   UNK     0      -1.178   5.126  25.367  0.00  0.00     0.165 HD
ENDROOT
BRANCH   6  33
HETATM   33  C   UNK     0       0.998   9.464  20.988  0.00  0.00     0.051 C 
BRANCH  33  34
HETATM   34  C   UNK     0       2.154  10.347  21.394  0.00  0.00     0.114 C 
BRANCH  34  35
HETATM   35  C   UNK     0       1.600  11.456  22.223  0.00  0.00     0.139 C 
HETATM   36  O   UNK     0       2.105  11.721  23.352  0.00  0.00    -0.650 OA
BRANCH  35  37
HETATM   37  O   UNK     0       0.528  12.237  21.809  0.00  0.00    -0.776 OA
HETATM   38  H   UNK     0       0.472  12.618  20.879  0.00  0.00     0.167 HD
ENDBRANCH  35  37
ENDBRANCH  34  35
ENDBRANCH  33  34
ENDBRANCH   6  33
BRANCH  27  39
HETATM   39  C   UNK     0      -5.160   3.725  23.181  0.00  0.00     0.051 C 
BRANCH  39  40
HETATM   40  C   UNK     0      -5.130   3.310  21.779  0.00  0.00     0.114 C 
BRANCH  40  41
HETATM   41  C   UNK     0      -6.221   3.584  20.871  0.00  0.00     0.139 C 
HETATM   42  O   UNK     0      -6.896   2.700  20.327  0.00  0.00    -0.650 OA
BRANCH  41  43
HETATM   43  O   UNK     0      -6.551   4.937  20.575  0.00  0.00    -0.776 OA
HETATM   44  H   UNK     0      -6.255   5.604  21.279  0.00  0.00     0.167 HD
ENDBRANCH  41  43
ENDBRANCH  40  41
ENDBRANCH  39  40
ENDBRANCH  27  39
BRANCH  11  45
HETATM   45  C   UNK     0       5.050   3.221  24.107  0.00  0.00     0.051 C 
BRANCH  45  46
HETATM   46  C   UNK     0       6.047   2.761  23.108  0.00  0.00     0.114 C 
BRANCH  46  47
HETATM   47  C   UNK     0       7.279   3.577  23.305  0.00  0.00     0.139 C 
HETATM   48  O   UNK     0       8.019   3.778  22.332  0.00  0.00    -0.650 OA
BRANCH  47  49
HETATM   49  O   UNK     0       7.590   4.094  24.537  0.00  0.00    -0.776 OA
HETATM   50  H   UNK     0       6.872   4.480  25.163  0.00  0.00     0.167 HD
ENDBRANCH  47  49
ENDBRANCH  46  47
ENDBRANCH  45  46
ENDBRANCH  11  45
BRANCH  18  51
HETATM   51  C   UNK     0      -0.991   0.346  26.107  0.00  0.00     0.051 C 
BRANCH  51  52
HETATM   52  C   UNK     0      -1.113   1.244  27.329  0.00  0.00     0.114 C 
BRANCH  52  53
HETATM   53  C   UNK     0       0.204   1.538  27.928  0.00  0.00     0.139 C 
HETATM   54  O   UNK     0       0.583   2.714  28.047  0.00  0.00    -0.650 OA
BRANCH  53  55
HETATM   55  O   UNK     0       1.005   0.505  28.348  0.00  0.00    -0.776 OA
HETATM   56  H   UNK     0       0.695  -0.377  28.680  0.00  0.00     0.167 HD
ENDBRANCH  53  55
ENDBRANCH  52  53
ENDBRANCH  51  52
ENDBRANCH  18  51
TORSDOF 16
ENDMDL
MODEL 20
REMARK VINA RESULT:      -8.0      2.586      8.325
REMARK  16 active torsions:
REMARK  status: ('A' for Active; 'I' for Inactive)
REMARK    1  A    between atoms: C_6  and  C_7 
REMARK    2  A    between atoms: C_7  and  C_8 
REMARK    3  A    between atoms: C_8  and  C_9 
REMARK    4  A    between atoms: C_9  and  O_11 
REMARK    5  A    between atoms: C_16  and  C_17 
REMARK    6  A    between atoms: C_17  and  C_18 
REMARK    7  A    between atoms: C_18  and  C_19 
REMARK    8  A    between atoms: C_19  and  O_21 
REMARK    9  A    between atoms: C_28  and  C_29 
REMARK   10  A    between atoms: C_29  and  C_30 
REMARK   11  A    between atoms: C_30  and  C_31 
REMARK   12  A    between atoms: C_31  and  O_33 
REMARK   13  A    between atoms: C_42  and  C_43 
REMARK   14  A    between atoms: C_43  and  C_44 
REMARK   15  A    between atoms: C_44  and  C_45 
REMARK   16  A    between atoms: C_45  and  O_47 
ROOT
HETATM    1  C   UNK     0       6.706   2.973  24.480  0.00  0.00     0.051 C 
HETATM    2  C   UNK     0       6.096   4.152  23.750  0.00  0.00    -0.031 A 
HETATM    3  C   UNK     0       4.855   4.265  23.144  0.00  0.00     0.021 A 
HETATM    4  N   UNK     0       4.747   5.493  22.584  0.00  0.00    -0.361 N 
HETATM    5  C   UNK     0       5.889   6.169  22.827  0.00  0.00     0.022 A 
HETATM    6  C   UNK     0       6.756   5.358  23.552  0.00  0.00    -0.027 A 
HETATM    7  C   UNK     0       6.242   7.588  22.509  0.00  0.00     0.115 C 
HETATM    8  C   UNK     0       5.166   8.630  22.756  0.00  0.00     0.021 A 
HETATM    9  N   UNK     0       4.249   8.669  23.736  0.00  0.00    -0.361 N 
HETATM   10  C   UNK     0       3.440   9.725  23.511  0.00  0.00     0.022 A 
HETATM   11  C   UNK     0       3.852  10.391  22.360  0.00  0.00    -0.027 A 
HETATM   12  C   UNK     0       4.939   9.706  21.880  0.00  0.00    -0.031 A 
HETATM   13  C   UNK     0       5.725  10.072  20.640  0.00  0.00     0.051 C 
HETATM   14  C   UNK     0       2.218  10.117  24.337  0.00  0.00     0.115 C 
HETATM   15  C   UNK     0       1.132   9.055  24.373  0.00  0.00     0.021 A 
HETATM   16  N   UNK     0       1.239   7.785  24.808  0.00  0.00    -0.361 N 
HETATM   17  C   UNK     0       0.080   7.154  24.607  0.00  0.00     0.022 A 
HETATM   18  C   UNK     0      -0.829   8.058  24.022  0.00  0.00    -0.027 A 
HETATM   19  C   UNK     0      -0.158   9.245  23.882  0.00  0.00    -0.031 A 
HETATM   20  C   UNK     0      -0.786  10.508  23.321  0.00  0.00     0.051 C 
HETATM   21  C   UNK     0      -0.296   5.710  24.852  0.00  0.00     0.115 C 
HETATM   22  C   UNK     0       0.778   4.666  24.652  0.00  0.00     0.022 A 
HETATM   23  N   UNK     0       1.706   4.605  23.689  0.00  0.00    -0.361 N 
HETATM   24  C   UNK     0       2.548   3.592  23.976  0.00  0.00     0.021 A 
HETATM   25  C   UNK     0       2.146   2.980  25.148  0.00  0.00    -0.031 A 
HETATM   26  C   UNK     0       2.746   1.779  25.850  0.00  0.00     0.051 C 
HETATM   27  C   UNK     0       1.015   3.650  25.599  0.00  0.00    -0.027 A 
HETATM   28  C   UNK     0       3.808   3.190  23.229  0.00  0.00     0.115 C 
HETATM   29  H   UNK     0       3.880   5.860  21.987  0.00  0.00     0.165 HD
HETATM   30  H   UNK     0       4.202   7.982  24.616  0.00  0.00     0.165 HD
HETATM   31  H   UNK     0       2.135   7.338  25.310  0.00  0.00     0.165 HD
HETATM   32  H   UNK     0       1.750   5.249  22.772  0.00  0.00     0.165 HD
ENDROOT
BRANCH   6  33
HETATM   33  C   UNK     0       8.147   5.638  24.062  0.00  0.00     0.051 C 
BRANCH  33  34
HETATM   34  C   UNK     0       9.182   5.255  23.031  0.00  0.00     0.114 C 
BRANCH  34  35
HETATM   35  C   UNK     0       9.905   6.500  22.641  0.00  0.00     0.139 C 
HETATM   36  O   UNK     0       9.745   7.565  23.306  0.00  0.00    -0.650 OA
BRANCH  35  37
HETATM   37  O   UNK     0      10.771   6.555  21.555  0.00  0.00    -0.776 OA
HETATM   38  H   UNK     0      11.758   6.382  21.651  0.00  0.00     0.167 HD
ENDBRANCH  35  37
ENDBRANCH  34  35
ENDBRANCH  33  34
ENDBRANCH   6  33
BRANCH  27  39
HETATM   39  C   UNK     0       0.252   3.230  26.806  0.00  0.00     0.051 C 
BRANCH  39  40
HETATM   40  C   UNK     0       0.806   3.545  28.122  0.00  0.00     0.114 C 
BRANCH  40  41
HETATM   41  C   UNK     0       0.453   4.750  28.838  0.00  0.00     0.139 C 
HETATM   42  O   UNK     0       0.877   5.021  29.970  0.00  0.00    -0.650 OA
BRANCH  41  43
HETATM   43  O   UNK     0      -0.427   5.686  28.225  0.00  0.00    -0.776 OA
HETATM   44  H   UNK     0       0.025   6.527  27.888  0.00  0.00     0.167 HD
ENDBRANCH  41  43
ENDBRANCH  40  41
ENDBRANCH  39  40
ENDBRANCH  27  39
BRANCH  11  45
HETATM   45  C   UNK     0       3.265  11.621  21.722  0.00  0.00     0.051 C 
BRANCH  45  46
HETATM   46  C   UNK     0       3.725  11.861  20.330  0.00  0.00     0.114 C 
BRANCH  46  47
HETATM   47  C   UNK     0       4.116  13.296  20.236  0.00  0.00     0.139 C 
HETATM   48  O   UNK     0       5.195  13.650  20.732  0.00  0.00    -0.650 OA
BRANCH  47  49
HETATM   49  O   UNK     0       3.300  14.208  19.615  0.00  0.00    -0.776 OA
HETATM   50  H   UNK     0       2.344  13.974  19.324  0.00  0.00     0.167 HD
ENDBRANCH  47  49
ENDBRANCH  46  47
ENDBRANCH  45  46
ENDBRANCH  11  45
BRANCH  18  51
HETATM   51  C   UNK     0      -2.264   7.811  23.638  0.00  0.00     0.051 C 
BRANCH  51  52
HETATM   52  C   UNK     0      -2.234   7.209  22.241  0.00  0.00     0.114 C 
BRANCH  52  53
HETATM   53  C   UNK     0      -2.892   5.889  22.196  0.00  0.00     0.139 C 
HETATM   54  O   UNK     0      -2.954   5.260  21.128  0.00  0.00    -0.650 OA
BRANCH  53  55
HETATM   55  O   UNK     0      -3.439   5.363  23.342  0.00  0.00    -0.776 OA
HETATM   56  H   UNK     0      -4.051   4.583  23.392  0.00  0.00     0.167 HD
ENDBRANCH  53  55
ENDBRANCH  52  53
ENDBRANCH  51  52
ENDBRANCH  18  51
TORSDOF 16
ENDMDL
