MODEL 1
REMARK VINA RESULT:     -10.2      0.000      0.000
REMARK  16 active torsions:
REMARK  status: ('A' for Active; 'I' for Inactive)
REMARK    1  A    between atoms: C_6  and  C_7 
REMARK    2  A    between atoms: C_7  and  C_8 
REMARK    3  A    between atoms: C_8  and  C_9 
REMARK    4  A    between atoms: C_9  and  O_11 
REMARK    5  A    between atoms: C_16  and  C_17 
REMARK    6  A    between atoms: C_17  and  C_18 
REMARK    7  A    between atoms: C_18  and  C_19 
REMARK    8  A    between atoms: C_19  and  O_21 
REMARK    9  A    between atoms: C_28  and  C_29 
REMARK   10  A    between atoms: C_29  and  C_30 
REMARK   11  A    between atoms: C_30  and  C_31 
REMARK   12  A    between atoms: C_31  and  O_33 
REMARK   13  A    between atoms: C_42  and  C_43 
REMARK   14  A    between atoms: C_43  and  C_44 
REMARK   15  A    between atoms: C_44  and  C_45 
REMARK   16  A    between atoms: C_45  and  O_47 
ROOT
HETATM    1  C   UNK     0      39.074   8.720  63.802  0.00  0.00     0.051 C 
HETATM    2  C   UNK     0      39.262  10.219  63.924  0.00  0.00    -0.031 A 
HETATM    3  C   UNK     0      38.728  11.238  63.152  0.00  0.00     0.021 A 
HETATM    4  N   UNK     0      39.194  12.426  63.605  0.00  0.00    -0.361 N 
HETATM    5  C   UNK     0      40.006  12.186  64.656  0.00  0.00     0.022 A 
HETATM    6  C   UNK     0      40.073  10.816  64.881  0.00  0.00    -0.027 A 
HETATM    7  C   UNK     0      40.695  13.154  65.566  0.00  0.00     0.115 C 
HETATM    8  C   UNK     0      39.887  14.356  66.022  0.00  0.00     0.021 A 
HETATM    9  N   UNK     0      38.577  14.423  66.306  0.00  0.00    -0.361 N 
HETATM   10  C   UNK     0      38.273  15.709  66.581  0.00  0.00     0.022 A 
HETATM   11  C   UNK     0      39.420  16.490  66.481  0.00  0.00    -0.027 A 
HETATM   12  C   UNK     0      40.441  15.644  66.130  0.00  0.00    -0.031 A 
HETATM   13  C   UNK     0      41.880  16.053  65.912  0.00  0.00     0.051 C 
HETATM   14  C   UNK     0      36.884  16.260  66.895  0.00  0.00     0.115 C 
HETATM   15  C   UNK     0      35.877  16.066  65.773  0.00  0.00     0.021 A 
HETATM   16  N   UNK     0      35.484  14.907  65.213  0.00  0.00    -0.361 N 
HETATM   17  C   UNK     0      34.639  15.167  64.213  0.00  0.00     0.022 A 
HETATM   18  C   UNK     0      34.465  16.563  64.123  0.00  0.00    -0.027 A 
HETATM   19  C   UNK     0      35.245  17.114  65.107  0.00  0.00    -0.031 A 
HETATM   20  C   UNK     0      35.324  18.604  65.385  0.00  0.00     0.051 C 
HETATM   21  C   UNK     0      33.975  14.227  63.232  0.00  0.00     0.115 C 
HETATM   22  C   UNK     0      34.751  13.005  62.803  0.00  0.00     0.022 A 
HETATM   23  N   UNK     0      36.056  12.908  62.518  0.00  0.00    -0.361 N 
HETATM   24  C   UNK     0      36.352  11.607  62.324  0.00  0.00     0.021 A 
HETATM   25  C   UNK     0      35.207  10.848  62.477  0.00  0.00    -0.031 A 
HETATM   26  C   UNK     0      35.026   9.353  62.319  0.00  0.00     0.051 C 
HETATM   27  C   UNK     0      34.169  11.721  62.784  0.00  0.00    -0.027 A 
HETATM   28  C   UNK     0      37.717  10.992  62.068  0.00  0.00     0.115 C 
HETATM   29  H   UNK     0      38.977  13.423  63.156  0.00  0.00     0.165 HD
HETATM   30  H   UNK     0      37.873  13.556  66.362  0.00  0.00     0.165 HD
HETATM   31  H   UNK     0      35.771  13.880  65.561  0.00  0.00     0.165 HD
HETATM   32  H   UNK     0      36.773  13.763  62.409  0.00  0.00     0.165 HD
ENDROOT
BRANCH   6  33
HETATM   33  C   UNK     0      40.841  10.040  65.920  0.00  0.00     0.051 C 
BRANCH  33  34
HETATM   34  C   UNK     0      40.005   9.833  67.161  0.00  0.00     0.114 C 
BRANCH  34  35
HETATM   35  C   UNK     0      40.840  10.225  68.333  0.00  0.00     0.139 C 
HETATM   36  O   UNK     0      42.039  10.593  68.166  0.00  0.00    -0.650 OA
BRANCH  35  37
HETATM   37  O   UNK     0      40.357  10.210  69.635  0.00  0.00    -0.776 OA
HETATM   38  H   UNK     0      39.928  11.018  70.056  0.00  0.00     0.167 HD
ENDBRANCH  35  37
ENDBRANCH  34  35
ENDBRANCH  33  34
ENDBRANCH   6  33
BRANCH  27  39
HETATM   39  C   UNK     0      32.759  11.276  62.952  0.00  0.00     0.051 C 
BRANCH  39  40
HETATM   40  C   UNK     0      32.336  10.792  64.266  0.00  0.00     0.114 C 
BRANCH  40  41
HETATM   41  C   UNK     0      32.714  11.459  65.491  0.00  0.00     0.139 C 
HETATM   42  O   UNK     0      32.291  12.576  65.820  0.00  0.00    -0.650 OA
BRANCH  41  43
HETATM   43  O   UNK     0      33.620  10.813  66.379  0.00  0.00    -0.776 OA
HETATM   44  H   UNK     0      33.567   9.801  66.368  0.00  0.00     0.167 HD
ENDBRANCH  41  43
ENDBRANCH  40  41
ENDBRANCH  39  40
ENDBRANCH  27  39
BRANCH  11  45
HETATM   45  C   UNK     0      39.574  17.970  66.704  0.00  0.00     0.051 C 
BRANCH  45  46
HETATM   46  C   UNK     0      39.075  18.808  65.584  0.00  0.00     0.114 C 
BRANCH  46  47
HETATM   47  C   UNK     0      40.187  19.718  65.184  0.00  0.00     0.139 C 
HETATM   48  O   UNK     0      41.329  19.475  65.597  0.00  0.00    -0.650 OA
BRANCH  47  49
HETATM   49  O   UNK     0      39.951  20.803  64.378  0.00  0.00    -0.776 OA
HETATM   50  H   UNK     0      40.172  21.761  64.675  0.00  0.00     0.167 HD
ENDBRANCH  47  49
ENDBRANCH  46  47
ENDBRANCH  45  46
ENDBRANCH  11  45
BRANCH  18  51
HETATM   51  C   UNK     0      33.588  17.327  63.167  0.00  0.00     0.051 C 
BRANCH  51  52
HETATM   52  C   UNK     0      32.230  17.453  63.841  0.00  0.00     0.114 C 
BRANCH  52  53
HETATM   53  C   UNK     0      31.175  16.750  63.087  0.00  0.00     0.139 C 
HETATM   54  O   UNK     0      31.313  16.544  61.870  0.00  0.00    -0.650 OA
BRANCH  53  55
HETATM   55  O   UNK     0      30.039  16.331  63.737  0.00  0.00    -0.776 OA
HETATM   56  H   UNK     0      29.652  16.736  64.556  0.00  0.00     0.167 HD
ENDBRANCH  53  55
ENDBRANCH  52  53
ENDBRANCH  51  52
ENDBRANCH  18  51
TORSDOF 16
ENDMDL
MODEL 2
REMARK VINA RESULT:     -10.2      1.899      2.283
REMARK  16 active torsions:
REMARK  status: ('A' for Active; 'I' for Inactive)
REMARK    1  A    between atoms: C_6  and  C_7 
REMARK    2  A    between atoms: C_7  and  C_8 
REMARK    3  A    between atoms: C_8  and  C_9 
REMARK    4  A    between atoms: C_9  and  O_11 
REMARK    5  A    between atoms: C_16  and  C_17 
REMARK    6  A    between atoms: C_17  and  C_18 
REMARK    7  A    between atoms: C_18  and  C_19 
REMARK    8  A    between atoms: C_19  and  O_21 
REMARK    9  A    between atoms: C_28  and  C_29 
REMARK   10  A    between atoms: C_29  and  C_30 
REMARK   11  A    between atoms: C_30  and  C_31 
REMARK   12  A    between atoms: C_31  and  O_33 
REMARK   13  A    between atoms: C_42  and  C_43 
REMARK   14  A    between atoms: C_43  and  C_44 
REMARK   15  A    between atoms: C_44  and  C_45 
REMARK   16  A    between atoms: C_45  and  O_47 
ROOT
HETATM    1  C   UNK     0      38.180   8.715  63.527  0.00  0.00     0.051 C 
HETATM    2  C   UNK     0      38.517  10.173  63.769  0.00  0.00    -0.031 A 
HETATM    3  C   UNK     0      38.306  11.272  62.952  0.00  0.00     0.021 A 
HETATM    4  N   UNK     0      38.796  12.377  63.564  0.00  0.00    -0.361 N 
HETATM    5  C   UNK     0      39.305  12.007  64.757  0.00  0.00     0.022 A 
HETATM    6  C   UNK     0      39.149  10.634  64.917  0.00  0.00    -0.027 A 
HETATM    7  C   UNK     0      39.877  12.853  65.851  0.00  0.00     0.115 C 
HETATM    8  C   UNK     0      39.137  14.139  66.176  0.00  0.00     0.021 A 
HETATM    9  N   UNK     0      37.816  14.371  66.157  0.00  0.00    -0.361 N 
HETATM   10  C   UNK     0      37.616  15.679  66.424  0.00  0.00     0.022 A 
HETATM   11  C   UNK     0      38.842  16.304  66.631  0.00  0.00    -0.027 A 
HETATM   12  C   UNK     0      39.805  15.340  66.476  0.00  0.00    -0.031 A 
HETATM   13  C   UNK     0      41.294  15.561  66.616  0.00  0.00     0.051 C 
HETATM   14  C   UNK     0      36.271  16.400  66.443  0.00  0.00     0.115 C 
HETATM   15  C   UNK     0      35.536  16.368  65.113  0.00  0.00     0.021 A 
HETATM   16  N   UNK     0      35.146  15.284  64.416  0.00  0.00    -0.361 N 
HETATM   17  C   UNK     0      34.595  15.678  63.265  0.00  0.00     0.022 A 
HETATM   18  C   UNK     0      34.620  17.086  63.214  0.00  0.00    -0.027 A 
HETATM   19  C   UNK     0      35.211  17.506  64.378  0.00  0.00    -0.031 A 
HETATM   20  C   UNK     0      35.405  18.965  64.747  0.00  0.00     0.051 C 
HETATM   21  C   UNK     0      34.068  14.858  62.109  0.00  0.00     0.115 C 
HETATM   22  C   UNK     0      34.767  13.555  61.803  0.00  0.00     0.022 A 
HETATM   23  N   UNK     0      36.081  13.294  61.818  0.00  0.00    -0.361 N 
HETATM   24  C   UNK     0      36.252  11.970  61.626  0.00  0.00     0.021 A 
HETATM   25  C   UNK     0      35.019  11.366  61.473  0.00  0.00    -0.031 A 
HETATM   26  C   UNK     0      34.698   9.912  61.196  0.00  0.00     0.051 C 
HETATM   27  C   UNK     0      34.053  12.360  61.582  0.00  0.00    -0.027 A 
HETATM   28  C   UNK     0      37.554  11.188  61.654  0.00  0.00     0.115 C 
HETATM   29  H   UNK     0      38.813  13.404  63.131  0.00  0.00     0.165 HD
HETATM   30  H   UNK     0      37.018  13.603  66.004  0.00  0.00     0.165 HD
HETATM   31  H   UNK     0      35.216  14.221  64.763  0.00  0.00     0.165 HD
HETATM   32  H   UNK     0      36.903  14.049  61.922  0.00  0.00     0.165 HD
ENDROOT
BRANCH   6  33
HETATM   33  C   UNK     0      39.554   9.738  66.060  0.00  0.00     0.051 C 
BRANCH  33  34
HETATM   34  C   UNK     0      41.046   9.506  66.056  0.00  0.00     0.114 C 
BRANCH  34  35
HETATM   35  C   UNK     0      41.608  10.195  67.253  0.00  0.00     0.139 C 
HETATM   36  O   UNK     0      40.933  10.270  68.321  0.00  0.00    -0.650 OA
BRANCH  35  37
HETATM   37  O   UNK     0      42.871  10.775  67.259  0.00  0.00    -0.776 OA
HETATM   38  H   UNK     0      43.712  10.225  67.186  0.00  0.00     0.167 HD
ENDBRANCH  35  37
ENDBRANCH  34  35
ENDBRANCH  33  34
ENDBRANCH   6  33
BRANCH  27  39
HETATM   39  C   UNK     0      32.599  12.100  61.400  0.00  0.00     0.051 C 
BRANCH  39  40
HETATM   40  C   UNK     0      32.066  12.066  60.038  0.00  0.00     0.114 C 
BRANCH  40  41
HETATM   41  C   UNK     0      31.589  13.254  59.367  0.00  0.00     0.139 C 
HETATM   42  O   UNK     0      31.263  13.280  58.172  0.00  0.00    -0.650 OA
BRANCH  41  43
HETATM   43  O   UNK     0      31.484  14.468  60.103  0.00  0.00    -0.776 OA
HETATM   44  H   UNK     0      32.224  14.615  60.778  0.00  0.00     0.167 HD
ENDBRANCH  41  43
ENDBRANCH  40  41
ENDBRANCH  39  40
ENDBRANCH  27  39
BRANCH  11  45
HETATM   45  C   UNK     0      39.119  17.745  66.964  0.00  0.00     0.051 C 
BRANCH  45  46
HETATM   46  C   UNK     0      39.072  18.658  65.793  0.00  0.00     0.114 C 
BRANCH  46  47
HETATM   47  C   UNK     0      40.229  19.591  65.913  0.00  0.00     0.139 C 
HETATM   48  O   UNK     0      40.035  20.717  66.391  0.00  0.00    -0.650 OA
BRANCH  47  49
HETATM   49  O   UNK     0      41.483  19.212  65.502  0.00  0.00    -0.776 OA
HETATM   50  H   UNK     0      41.691  18.252  65.202  0.00  0.00     0.167 HD
ENDBRANCH  47  49
ENDBRANCH  46  47
ENDBRANCH  45  46
ENDBRANCH  11  45
BRANCH  18  51
HETATM   51  C   UNK     0      34.090  17.983  62.125  0.00  0.00     0.051 C 
BRANCH  51  52
HETATM   52  C   UNK     0      32.681  18.375  62.545  0.00  0.00     0.114 C 
BRANCH  52  53
HETATM   53  C   UNK     0      31.658  17.748  61.687  0.00  0.00     0.139 C 
HETATM   54  O   UNK     0      31.968  17.308  60.568  0.00  0.00    -0.650 OA
BRANCH  53  55
HETATM   55  O   UNK     0      30.361  17.656  62.132  0.00  0.00    -0.776 OA
HETATM   56  H   UNK     0      30.053  17.159  62.934  0.00  0.00     0.167 HD
ENDBRANCH  53  55
ENDBRANCH  52  53
ENDBRANCH  51  52
ENDBRANCH  18  51
TORSDOF 16
ENDMDL
MODEL 3
REMARK VINA RESULT:     -10.0      4.191     10.044
REMARK  16 active torsions:
REMARK  status: ('A' for Active; 'I' for Inactive)
REMARK    1  A    between atoms: C_6  and  C_7 
REMARK    2  A    between atoms: C_7  and  C_8 
REMARK    3  A    between atoms: C_8  and  C_9 
REMARK    4  A    between atoms: C_9  and  O_11 
REMARK    5  A    between atoms: C_16  and  C_17 
REMARK    6  A    between atoms: C_17  and  C_18 
REMARK    7  A    between atoms: C_18  and  C_19 
REMARK    8  A    between atoms: C_19  and  O_21 
REMARK    9  A    between atoms: C_28  and  C_29 
REMARK   10  A    between atoms: C_29  and  C_30 
REMARK   11  A    between atoms: C_30  and  C_31 
REMARK   12  A    between atoms: C_31  and  O_33 
REMARK   13  A    between atoms: C_42  and  C_43 
REMARK   14  A    between atoms: C_43  and  C_44 
REMARK   15  A    between atoms: C_44  and  C_45 
REMARK   16  A    between atoms: C_45  and  O_47 
ROOT
HETATM    1  C   UNK     0      36.193  15.928  64.550  0.00  0.00     0.051 C 
HETATM    2  C   UNK     0      35.598  15.482  63.230  0.00  0.00    -0.031 A 
HETATM    3  C   UNK     0      36.179  14.753  62.205  0.00  0.00     0.021 A 
HETATM    4  N   UNK     0      35.283  14.613  61.199  0.00  0.00    -0.361 N 
HETATM    5  C   UNK     0      34.140  15.229  61.565  0.00  0.00     0.022 A 
HETATM    6  C   UNK     0      34.303  15.786  62.829  0.00  0.00    -0.027 A 
HETATM    7  C   UNK     0      32.821  15.287  60.859  0.00  0.00     0.115 C 
HETATM    8  C   UNK     0      32.330  13.997  60.226  0.00  0.00     0.021 A 
HETATM    9  N   UNK     0      32.478  12.739  60.669  0.00  0.00    -0.361 N 
HETATM   10  C   UNK     0      31.963  11.905  59.741  0.00  0.00     0.022 A 
HETATM   11  C   UNK     0      31.462  12.646  58.675  0.00  0.00    -0.027 A 
HETATM   12  C   UNK     0      31.690  13.965  58.975  0.00  0.00    -0.031 A 
HETATM   13  C   UNK     0      31.305  15.139  58.101  0.00  0.00     0.051 C 
HETATM   14  C   UNK     0      31.972  10.380  59.797  0.00  0.00     0.115 C 
HETATM   15  C   UNK     0      33.365   9.773  59.841  0.00  0.00     0.021 A 
HETATM   16  N   UNK     0      34.326   9.988  60.759  0.00  0.00    -0.361 N 
HETATM   17  C   UNK     0      35.428   9.324  60.403  0.00  0.00     0.022 A 
HETATM   18  C   UNK     0      35.170   8.635  59.201  0.00  0.00    -0.027 A 
HETATM   19  C   UNK     0      33.874   8.924  58.860  0.00  0.00    -0.031 A 
HETATM   20  C   UNK     0      33.175   8.352  57.640  0.00  0.00     0.051 C 
HETATM   21  C   UNK     0      36.794   9.292  61.050  0.00  0.00     0.115 C 
HETATM   22  C   UNK     0      37.277  10.555  61.722  0.00  0.00     0.022 A 
HETATM   23  N   UNK     0      37.141  11.821  61.306  0.00  0.00    -0.361 N 
HETATM   24  C   UNK     0      37.589  12.638  62.281  0.00  0.00     0.021 A 
HETATM   25  C   UNK     0      38.035  11.879  63.346  0.00  0.00    -0.031 A 
HETATM   26  C   UNK     0      38.660  12.338  64.647  0.00  0.00     0.051 C 
HETATM   27  C   UNK     0      37.846  10.543  63.012  0.00  0.00    -0.027 A 
HETATM   28  C   UNK     0      37.554  14.156  62.310  0.00  0.00     0.115 C 
HETATM   29  H   UNK     0      35.477  14.114  60.222  0.00  0.00     0.165 HD
HETATM   30  H   UNK     0      32.900  12.439  61.660  0.00  0.00     0.165 HD
HETATM   31  H   UNK     0      34.210  10.582  61.702  0.00  0.00     0.165 HD
HETATM   32  H   UNK     0      36.766  12.149  60.302  0.00  0.00     0.165 HD
ENDROOT
BRANCH   6  33
HETATM   33  C   UNK     0      33.336  16.577  63.673  0.00  0.00     0.051 C 
BRANCH  33  34
HETATM   34  C   UNK     0      32.228  15.690  64.191  0.00  0.00     0.114 C 
BRANCH  34  35
HETATM   35  C   UNK     0      30.937  16.388  63.926  0.00  0.00     0.139 C 
HETATM   36  O   UNK     0      30.851  17.235  62.990  0.00  0.00    -0.650 OA
BRANCH  35  37
HETATM   37  O   UNK     0      29.790  16.149  64.672  0.00  0.00    -0.776 OA
HETATM   38  H   UNK     0      29.042  16.821  64.732  0.00  0.00     0.167 HD
ENDBRANCH  35  37
ENDBRANCH  34  35
ENDBRANCH  33  34
ENDBRANCH   6  33
BRANCH  27  39
HETATM   39  C   UNK     0      38.275   9.420  63.889  0.00  0.00     0.051 C 
BRANCH  39  40
HETATM   40  C   UNK     0      37.265   8.459  64.330  0.00  0.00     0.114 C 
BRANCH  40  41
HETATM   41  C   UNK     0      37.556   7.051  64.485  0.00  0.00     0.139 C 
HETATM   42  O   UNK     0      37.775   6.515  65.580  0.00  0.00    -0.650 OA
BRANCH  41  43
HETATM   43  O   UNK     0      37.599   6.223  63.328  0.00  0.00    -0.776 OA
HETATM   44  H   UNK     0      36.761   5.674  63.175  0.00  0.00     0.167 HD
ENDBRANCH  41  43
ENDBRANCH  40  41
ENDBRANCH  39  40
ENDBRANCH  27  39
BRANCH  11  45
HETATM   45  C   UNK     0      30.791  12.156  57.420  0.00  0.00     0.051 C 
BRANCH  45  46
HETATM   46  C   UNK     0      29.360  11.801  57.597  0.00  0.00     0.114 C 
BRANCH  46  47
HETATM   47  C   UNK     0      29.266  10.314  57.560  0.00  0.00     0.139 C 
HETATM   48  O   UNK     0      29.868   9.704  56.665  0.00  0.00    -0.650 OA
BRANCH  47  49
HETATM   49  O   UNK     0      28.529   9.633  58.496  0.00  0.00    -0.776 OA
HETATM   50  H   UNK     0      27.926   8.841  58.244  0.00  0.00     0.167 HD
ENDBRANCH  47  49
ENDBRANCH  46  47
ENDBRANCH  45  46
ENDBRANCH  11  45
BRANCH  18  51
HETATM   51  C   UNK     0      36.100   7.735  58.431  0.00  0.00     0.051 C 
BRANCH  51  52
HETATM   52  C   UNK     0      35.615   6.313  58.673  0.00  0.00     0.114 C 
BRANCH  52  53
HETATM   53  C   UNK     0      36.437   5.616  59.680  0.00  0.00     0.139 C 
HETATM   54  O   UNK     0      36.331   5.911  60.882  0.00  0.00    -0.650 OA
BRANCH  53  55
HETATM   55  O   UNK     0      37.320   4.642  59.281  0.00  0.00    -0.776 OA
HETATM   56  H   UNK     0      37.182   3.662  59.354  0.00  0.00     0.167 HD
ENDBRANCH  53  55
ENDBRANCH  52  53
ENDBRANCH  51  52
ENDBRANCH  18  51
TORSDOF 16
ENDMDL
MODEL 4
REMARK VINA RESULT:      -9.8      3.189      7.968
REMARK  16 active torsions:
REMARK  status: ('A' for Active; 'I' for Inactive)
REMARK    1  A    between atoms: C_6  and  C_7 
REMARK    2  A    between atoms: C_7  and  C_8 
REMARK    3  A    between atoms: C_8  and  C_9 
REMARK    4  A    between atoms: C_9  and  O_11 
REMARK    5  A    between atoms: C_16  and  C_17 
REMARK    6  A    between atoms: C_17  and  C_18 
REMARK    7  A    between atoms: C_18  and  C_19 
REMARK    8  A    between atoms: C_19  and  O_21 
REMARK    9  A    between atoms: C_28  and  C_29 
REMARK   10  A    between atoms: C_29  and  C_30 
REMARK   11  A    between atoms: C_30  and  C_31 
REMARK   12  A    between atoms: C_31  and  O_33 
REMARK   13  A    between atoms: C_42  and  C_43 
REMARK   14  A    between atoms: C_43  and  C_44 
REMARK   15  A    between atoms: C_44  and  C_45 
REMARK   16  A    between atoms: C_45  and  O_47 
ROOT
HETATM    1  C   UNK     0      31.527  13.360  59.050  0.00  0.00     0.051 C 
HETATM    2  C   UNK     0      32.305  13.569  60.333  0.00  0.00    -0.031 A 
HETATM    3  C   UNK     0      32.736  12.636  61.263  0.00  0.00     0.021 A 
HETATM    4  N   UNK     0      33.369  13.278  62.273  0.00  0.00    -0.361 N 
HETATM    5  C   UNK     0      33.359  14.600  62.003  0.00  0.00     0.022 A 
HETATM    6  C   UNK     0      32.698  14.817  60.798  0.00  0.00    -0.027 A 
HETATM    7  C   UNK     0      34.001  15.728  62.747  0.00  0.00     0.115 C 
HETATM    8  C   UNK     0      35.411  15.492  63.259  0.00  0.00     0.021 A 
HETATM    9  N   UNK     0      36.402  14.791  62.686  0.00  0.00    -0.361 N 
HETATM   10  C   UNK     0      37.449  14.771  63.538  0.00  0.00     0.022 A 
HETATM   11  C   UNK     0      37.127  15.488  64.687  0.00  0.00    -0.027 A 
HETATM   12  C   UNK     0      35.845  15.944  64.518  0.00  0.00    -0.031 A 
HETATM   13  C   UNK     0      35.075  16.780  65.516  0.00  0.00     0.051 C 
HETATM   14  C   UNK     0      38.769  14.036  63.328  0.00  0.00     0.115 C 
HETATM   15  C   UNK     0      38.619  12.530  63.184  0.00  0.00     0.021 A 
HETATM   16  N   UNK     0      37.896  11.860  62.266  0.00  0.00    -0.361 N 
HETATM   17  C   UNK     0      37.966  10.552  62.522  0.00  0.00     0.022 A 
HETATM   18  C   UNK     0      38.782  10.359  63.654  0.00  0.00    -0.027 A 
HETATM   19  C   UNK     0      39.185  11.605  64.058  0.00  0.00    -0.031 A 
HETATM   20  C   UNK     0      40.115  11.851  65.233  0.00  0.00     0.051 C 
HETATM   21  C   UNK     0      37.282   9.390  61.838  0.00  0.00     0.115 C 
HETATM   22  C   UNK     0      35.896   9.624  61.285  0.00  0.00     0.022 A 
HETATM   23  N   UNK     0      34.891  10.321  61.831  0.00  0.00    -0.361 N 
HETATM   24  C   UNK     0      33.888  10.393  60.933  0.00  0.00     0.021 A 
HETATM   25  C   UNK     0      34.252   9.717  59.784  0.00  0.00    -0.031 A 
HETATM   26  C   UNK     0      33.450   9.486  58.520  0.00  0.00     0.051 C 
HETATM   27  C   UNK     0      35.533   9.216  59.985  0.00  0.00    -0.027 A 
HETATM   28  C   UNK     0      32.580  11.155  61.059  0.00  0.00     0.115 C 
HETATM   29  H   UNK     0      33.783  12.797  63.189  0.00  0.00     0.165 HD
HETATM   30  H   UNK     0      36.384  14.350  61.659  0.00  0.00     0.165 HD
HETATM   31  H   UNK     0      37.363  12.316  61.392  0.00  0.00     0.165 HD
HETATM   32  H   UNK     0      34.863  10.733  62.874  0.00  0.00     0.165 HD
ENDROOT
BRANCH   6  33
HETATM   33  C   UNK     0      32.415  16.105  60.066  0.00  0.00     0.051 C 
BRANCH  33  34
HETATM   34  C   UNK     0      30.929  16.372  60.010  0.00  0.00     0.114 C 
BRANCH  34  35
HETATM   35  C   UNK     0      30.535  16.975  61.316  0.00  0.00     0.139 C 
HETATM   36  O   UNK     0      31.300  17.801  61.893  0.00  0.00    -0.650 OA
BRANCH  35  37
HETATM   37  O   UNK     0      29.336  16.672  61.949  0.00  0.00    -0.776 OA
HETATM   38  H   UNK     0      28.502  16.443  61.433  0.00  0.00     0.167 HD
ENDBRANCH  35  37
ENDBRANCH  34  35
ENDBRANCH  33  34
ENDBRANCH   6  33
BRANCH  27  39
HETATM   39  C   UNK     0      36.236   8.365  58.987  0.00  0.00     0.051 C 
BRANCH  39  40
HETATM   40  C   UNK     0      35.918   6.939  58.944  0.00  0.00     0.114 C 
BRANCH  40  41
HETATM   41  C   UNK     0      36.487   5.993  59.878  0.00  0.00     0.139 C 
HETATM   42  O   UNK     0      36.422   6.124  61.108  0.00  0.00    -0.650 OA
BRANCH  41  43
HETATM   43  O   UNK     0      37.162   4.845  59.375  0.00  0.00    -0.776 OA
HETATM   44  H   UNK     0      38.110   5.019  59.063  0.00  0.00     0.167 HD
ENDBRANCH  41  43
ENDBRANCH  40  41
ENDBRANCH  39  40
ENDBRANCH  27  39
BRANCH  11  45
HETATM   45  C   UNK     0      37.974  15.746  65.904  0.00  0.00     0.051 C 
BRANCH  45  46
HETATM   46  C   UNK     0      38.960  16.844  65.734  0.00  0.00     0.114 C 
BRANCH  46  47
HETATM   47  C   UNK     0      40.276  16.335  66.214  0.00  0.00     0.139 C 
HETATM   48  O   UNK     0      40.684  16.702  67.325  0.00  0.00    -0.650 OA
BRANCH  47  49
HETATM   49  O   UNK     0      41.022  15.479  65.444  0.00  0.00    -0.776 OA
HETATM   50  H   UNK     0      41.906  15.076  65.777  0.00  0.00     0.167 HD
ENDBRANCH  47  49
ENDBRANCH  46  47
ENDBRANCH  45  46
ENDBRANCH  11  45
BRANCH  18  51
HETATM   51  C   UNK     0      39.173   9.056  64.302  0.00  0.00     0.051 C 
BRANCH  51  52
HETATM   52  C   UNK     0      37.935   8.554  65.030  0.00  0.00     0.114 C 
BRANCH  52  53
HETATM   53  C   UNK     0      37.844   7.081  65.008  0.00  0.00     0.139 C 
HETATM   54  O   UNK     0      38.076   6.429  66.038  0.00  0.00    -0.650 OA
BRANCH  53  55
HETATM   55  O   UNK     0      37.506   6.439  63.842  0.00  0.00    -0.776 OA
HETATM   56  H   UNK     0      36.922   6.800  63.124  0.00  0.00     0.167 HD
ENDBRANCH  53  55
ENDBRANCH  52  53
ENDBRANCH  51  52
ENDBRANCH  18  51
TORSDOF 16
ENDMDL
MODEL 5
REMARK VINA RESULT:      -9.8      2.547      7.299
REMARK  16 active torsions:
REMARK  status: ('A' for Active; 'I' for Inactive)
REMARK    1  A    between atoms: C_6  and  C_7 
REMARK    2  A    between atoms: C_7  and  C_8 
REMARK    3  A    between atoms: C_8  and  C_9 
REMARK    4  A    between atoms: C_9  and  O_11 
REMARK    5  A    between atoms: C_16  and  C_17 
REMARK    6  A    between atoms: C_17  and  C_18 
REMARK    7  A    between atoms: C_18  and  C_19 
REMARK    8  A    between atoms: C_19  and  O_21 
REMARK    9  A    between atoms: C_28  and  C_29 
REMARK   10  A    between atoms: C_29  and  C_30 
REMARK   11  A    between atoms: C_30  and  C_31 
REMARK   12  A    between atoms: C_31  and  O_33 
REMARK   13  A    between atoms: C_42  and  C_43 
REMARK   14  A    between atoms: C_43  and  C_44 
REMARK   15  A    between atoms: C_44  and  C_45 
REMARK   16  A    between atoms: C_45  and  O_47 
ROOT
HETATM    1  C   UNK     0      36.921  19.028  65.490  0.00  0.00     0.051 C 
HETATM    2  C   UNK     0      37.190  17.540  65.596  0.00  0.00    -0.031 A 
HETATM    3  C   UNK     0      36.302  16.478  65.528  0.00  0.00     0.021 A 
HETATM    4  N   UNK     0      36.983  15.322  65.706  0.00  0.00    -0.361 N 
HETATM    5  C   UNK     0      38.287  15.622  65.877  0.00  0.00     0.022 A 
HETATM    6  C   UNK     0      38.451  17.002  65.817  0.00  0.00    -0.027 A 
HETATM    7  C   UNK     0      39.464  14.709  66.018  0.00  0.00     0.115 C 
HETATM    8  C   UNK     0      39.507  13.505  65.094  0.00  0.00     0.021 A 
HETATM    9  N   UNK     0      39.096  13.414  63.819  0.00  0.00    -0.361 N 
HETATM   10  C   UNK     0      39.240  12.132  63.423  0.00  0.00     0.022 A 
HETATM   11  C   UNK     0      39.767  11.378  64.467  0.00  0.00    -0.027 A 
HETATM   12  C   UNK     0      39.938  12.237  65.523  0.00  0.00    -0.031 A 
HETATM   13  C   UNK     0      40.493  11.857  66.877  0.00  0.00     0.051 C 
HETATM   14  C   UNK     0      38.838  11.557  62.067  0.00  0.00     0.115 C 
HETATM   15  C   UNK     0      37.354  11.681  61.761  0.00  0.00     0.021 A 
HETATM   16  N   UNK     0      36.619  12.807  61.699  0.00  0.00    -0.361 N 
HETATM   17  C   UNK     0      35.343  12.487  61.474  0.00  0.00     0.022 A 
HETATM   18  C   UNK     0      35.243  11.085  61.374  0.00  0.00    -0.027 A 
HETATM   19  C   UNK     0      36.510  10.592  61.555  0.00  0.00    -0.031 A 
HETATM   20  C   UNK     0      36.859   9.116  61.488  0.00  0.00     0.051 C 
HETATM   21  C   UNK     0      34.119  13.370  61.391  0.00  0.00     0.115 C 
HETATM   22  C   UNK     0      34.083  14.596  62.274  0.00  0.00     0.022 A 
HETATM   23  N   UNK     0      34.489  14.716  63.544  0.00  0.00    -0.361 N 
HETATM   24  C   UNK     0      34.410  16.016  63.893  0.00  0.00     0.021 A 
HETATM   25  C   UNK     0      33.931  16.749  62.824  0.00  0.00    -0.031 A 
HETATM   26  C   UNK     0      33.634  18.232  62.742  0.00  0.00     0.051 C 
HETATM   27  C   UNK     0      33.714  15.862  61.776  0.00  0.00    -0.027 A 
HETATM   28  C   UNK     0      34.846  16.656  65.200  0.00  0.00     0.115 C 
HETATM   29  H   UNK     0      36.532  14.303  65.748  0.00  0.00     0.165 HD
HETATM   30  H   UNK     0      38.750  14.264  63.181  0.00  0.00     0.165 HD
HETATM   31  H   UNK     0      37.016  13.854  61.769  0.00  0.00     0.165 HD
HETATM   32  H   UNK     0      34.795  13.877  64.222  0.00  0.00     0.165 HD
ENDROOT
BRANCH   6  33
HETATM   33  C   UNK     0      39.699  17.837  65.955  0.00  0.00     0.051 C 
BRANCH  33  34
HETATM   34  C   UNK     0      40.115  17.943  67.403  0.00  0.00     0.114 C 
BRANCH  34  35
HETATM   35  C   UNK     0      41.606  17.930  67.441  0.00  0.00     0.139 C 
HETATM   36  O   UNK     0      42.225  18.564  68.344  0.00  0.00    -0.650 OA
BRANCH  35  37
HETATM   37  O   UNK     0      42.373  17.236  66.514  0.00  0.00    -0.776 OA
HETATM   38  H   UNK     0      41.986  16.504  65.941  0.00  0.00     0.167 HD
ENDBRANCH  35  37
ENDBRANCH  34  35
ENDBRANCH  33  34
ENDBRANCH   6  33
BRANCH  27  39
HETATM   39  C   UNK     0      33.129  16.276  60.472  0.00  0.00     0.051 C 
BRANCH  39  40
HETATM   40  C   UNK     0      31.730  15.946  60.203  0.00  0.00     0.114 C 
BRANCH  40  41
HETATM   41  C   UNK     0      30.656  16.879  60.457  0.00  0.00     0.139 C 
HETATM   42  O   UNK     0      30.040  16.937  61.530  0.00  0.00    -0.650 OA
BRANCH  41  43
HETATM   43  O   UNK     0      30.271  17.787  59.429  0.00  0.00    -0.776 OA
HETATM   44  H   UNK     0      29.349  18.189  59.549  0.00  0.00     0.167 HD
ENDBRANCH  41  43
ENDBRANCH  40  41
ENDBRANCH  39  40
ENDBRANCH  27  39
BRANCH  11  45
HETATM   45  C   UNK     0      40.106   9.912  64.493  0.00  0.00     0.051 C 
BRANCH  45  46
HETATM   46  C   UNK     0      38.921   9.016  64.527  0.00  0.00     0.114 C 
BRANCH  46  47
HETATM   47  C   UNK     0      38.997   8.232  65.793  0.00  0.00     0.139 C 
HETATM   48  O   UNK     0      39.715   8.655  66.709  0.00  0.00    -0.650 OA
BRANCH  47  49
HETATM   49  O   UNK     0      38.289   7.066  65.940  0.00  0.00    -0.776 OA
HETATM   50  H   UNK     0      37.268   7.032  65.839  0.00  0.00     0.167 HD
ENDBRANCH  47  49
ENDBRANCH  46  47
ENDBRANCH  45  46
ENDBRANCH  11  45
BRANCH  18  51
HETATM   51  C   UNK     0      34.012  10.261  61.101  0.00  0.00     0.051 C 
BRANCH  51  52
HETATM   52  C   UNK     0      33.752  10.366  59.606  0.00  0.00     0.114 C 
BRANCH  52  53
HETATM   53  C   UNK     0      34.276   9.196  58.874  0.00  0.00     0.139 C 
HETATM   54  O   UNK     0      33.819   8.065  59.102  0.00  0.00    -0.650 OA
BRANCH  53  55
HETATM   55  O   UNK     0      35.273   9.367  57.944  0.00  0.00    -0.776 OA
HETATM   56  H   UNK     0      35.144   9.583  56.983  0.00  0.00     0.167 HD
ENDBRANCH  53  55
ENDBRANCH  52  53
ENDBRANCH  51  52
ENDBRANCH  18  51
TORSDOF 16
ENDMDL
MODEL 6
REMARK VINA RESULT:      -9.7      3.766      7.905
REMARK  16 active torsions:
REMARK  status: ('A' for Active; 'I' for Inactive)
REMARK    1  A    between atoms: C_6  and  C_7 
REMARK    2  A    between atoms: C_7  and  C_8 
REMARK    3  A    between atoms: C_8  and  C_9 
REMARK    4  A    between atoms: C_9  and  O_11 
REMARK    5  A    between atoms: C_16  and  C_17 
REMARK    6  A    between atoms: C_17  and  C_18 
REMARK    7  A    between atoms: C_18  and  C_19 
REMARK    8  A    between atoms: C_19  and  O_21 
REMARK    9  A    between atoms: C_28  and  C_29 
REMARK   10  A    between atoms: C_29  and  C_30 
REMARK   11  A    between atoms: C_30  and  C_31 
REMARK   12  A    between atoms: C_31  and  O_33 
REMARK   13  A    between atoms: C_42  and  C_43 
REMARK   14  A    between atoms: C_43  and  C_44 
REMARK   15  A    between atoms: C_44  and  C_45 
REMARK   16  A    between atoms: C_45  and  O_47 
ROOT
HETATM    1  C   UNK     0      38.774  13.355  66.196  0.00  0.00     0.051 C 
HETATM    2  C   UNK     0      38.025  13.690  64.923  0.00  0.00    -0.031 A 
HETATM    3  C   UNK     0      38.159  13.148  63.654  0.00  0.00     0.021 A 
HETATM    4  N   UNK     0      37.303  13.775  62.813  0.00  0.00    -0.361 N 
HETATM    5  C   UNK     0      36.620  14.700  63.520  0.00  0.00     0.022 A 
HETATM    6  C   UNK     0      37.049  14.675  64.843  0.00  0.00    -0.027 A 
HETATM    7  C   UNK     0      35.498  15.591  63.087  0.00  0.00     0.115 C 
HETATM    8  C   UNK     0      34.426  14.963  62.214  0.00  0.00     0.021 A 
HETATM    9  N   UNK     0      33.933  13.716  62.263  0.00  0.00    -0.361 N 
HETATM   10  C   UNK     0      33.065  13.568  61.240  0.00  0.00     0.022 A 
HETATM   11  C   UNK     0      32.989  14.755  60.519  0.00  0.00    -0.027 A 
HETATM   12  C   UNK     0      33.844  15.639  61.127  0.00  0.00    -0.031 A 
HETATM   13  C   UNK     0      34.086  17.065  60.687  0.00  0.00     0.051 C 
HETATM   14  C   UNK     0      32.315  12.290  60.872  0.00  0.00     0.115 C 
HETATM   15  C   UNK     0      33.223  11.125  60.515  0.00  0.00     0.021 A 
HETATM   16  N   UNK     0      34.172  10.557  61.283  0.00  0.00    -0.361 N 
HETATM   17  C   UNK     0      34.796   9.609  60.581  0.00  0.00     0.022 A 
HETATM   18  C   UNK     0      34.220   9.549  59.296  0.00  0.00    -0.027 A 
HETATM   19  C   UNK     0      33.235  10.503  59.268  0.00  0.00    -0.031 A 
HETATM   20  C   UNK     0      32.335  10.751  58.072  0.00  0.00     0.051 C 
HETATM   21  C   UNK     0      35.971   8.735  60.957  0.00  0.00     0.115 C 
HETATM   22  C   UNK     0      37.024   9.334  61.860  0.00  0.00     0.022 A 
HETATM   23  N   UNK     0      37.530  10.573  61.837  0.00  0.00    -0.361 N 
HETATM   24  C   UNK     0      38.333  10.723  62.910  0.00  0.00     0.021 A 
HETATM   25  C   UNK     0      38.352   9.547  63.636  0.00  0.00    -0.031 A 
HETATM   26  C   UNK     0      39.133   9.214  64.890  0.00  0.00     0.051 C 
HETATM   27  C   UNK     0      37.522   8.643  62.984  0.00  0.00    -0.027 A 
HETATM   28  C   UNK     0      39.057  11.979  63.361  0.00  0.00     0.115 C 
HETATM   29  H   UNK     0      37.215  13.588  61.718  0.00  0.00     0.165 HD
HETATM   30  H   UNK     0      34.159  12.953  63.048  0.00  0.00     0.165 HD
HETATM   31  H   UNK     0      34.374  10.797  62.360  0.00  0.00     0.165 HD
HETATM   32  H   UNK     0      37.359  11.341  61.039  0.00  0.00     0.165 HD
ENDROOT
BRANCH   6  33
HETATM   33  C   UNK     0      36.609  15.508  66.020  0.00  0.00     0.051 C 
BRANCH  33  34
HETATM   34  C   UNK     0      37.374  16.809  66.071  0.00  0.00     0.114 C 
BRANCH  34  35
HETATM   35  C   UNK     0      36.390  17.913  65.877  0.00  0.00     0.139 C 
HETATM   36  O   UNK     0      35.149  17.687  65.984  0.00  0.00    -0.650 OA
BRANCH  35  37
HETATM   37  O   UNK     0      36.773  19.215  65.580  0.00  0.00    -0.776 OA
HETATM   38  H   UNK     0      36.970  19.513  64.638  0.00  0.00     0.167 HD
ENDBRANCH  35  37
ENDBRANCH  34  35
ENDBRANCH  33  34
ENDBRANCH   6  33
BRANCH  27  39
HETATM   39  C   UNK     0      37.344   7.236  63.434  0.00  0.00     0.051 C 
BRANCH  39  40
HETATM   40  C   UNK     0      36.091   6.871  64.094  0.00  0.00     0.114 C 
BRANCH  40  41
HETATM   41  C   UNK     0      35.968   6.808  65.533  0.00  0.00     0.139 C 
HETATM   42  O   UNK     0      36.922   6.588  66.291  0.00  0.00    -0.650 OA
BRANCH  41  43
HETATM   43  O   UNK     0      34.689   7.006  66.127  0.00  0.00    -0.776 OA
HETATM   44  H   UNK     0      34.029   7.504  65.542  0.00  0.00     0.167 HD
ENDBRANCH  41  43
ENDBRANCH  40  41
ENDBRANCH  39  40
ENDBRANCH  27  39
BRANCH  11  45
HETATM   45  C   UNK     0      32.153  15.069  59.307  0.00  0.00     0.051 C 
BRANCH  45  46
HETATM   46  C   UNK     0      30.996  15.959  59.583  0.00  0.00     0.114 C 
BRANCH  46  47
HETATM   47  C   UNK     0      31.102  17.121  58.655  0.00  0.00     0.139 C 
HETATM   48  O   UNK     0      32.031  17.142  57.835  0.00  0.00    -0.650 OA
BRANCH  47  49
HETATM   49  O   UNK     0      30.192  18.147  58.706  0.00  0.00    -0.776 OA
HETATM   50  H   UNK     0      29.350  18.159  58.119  0.00  0.00     0.167 HD
ENDBRANCH  47  49
ENDBRANCH  46  47
ENDBRANCH  45  46
ENDBRANCH  11  45
BRANCH  18  51
HETATM   51  C   UNK     0      34.574   8.620  58.164  0.00  0.00     0.051 C 
BRANCH  51  52
HETATM   52  C   UNK     0      33.423   7.632  58.048  0.00  0.00     0.114 C 
BRANCH  52  53
HETATM   53  C   UNK     0      33.074   7.357  56.641  0.00  0.00     0.139 C 
HETATM   54  O   UNK     0      33.869   6.744  55.912  0.00  0.00    -0.650 OA
BRANCH  53  55
HETATM   55  O   UNK     0      31.868   7.788  56.144  0.00  0.00    -0.776 OA
HETATM   56  H   UNK     0      31.620   7.850  55.184  0.00  0.00     0.167 HD
ENDBRANCH  53  55
ENDBRANCH  52  53
ENDBRANCH  51  52
ENDBRANCH  18  51
TORSDOF 16
ENDMDL
MODEL 7
REMARK VINA RESULT:      -9.6      3.646      8.071
REMARK  16 active torsions:
REMARK  status: ('A' for Active; 'I' for Inactive)
REMARK    1  A    between atoms: C_6  and  C_7 
REMARK    2  A    between atoms: C_7  and  C_8 
REMARK    3  A    between atoms: C_8  and  C_9 
REMARK    4  A    between atoms: C_9  and  O_11 
REMARK    5  A    between atoms: C_16  and  C_17 
REMARK    6  A    between atoms: C_17  and  C_18 
REMARK    7  A    between atoms: C_18  and  C_19 
REMARK    8  A    between atoms: C_19  and  O_21 
REMARK    9  A    between atoms: C_28  and  C_29 
REMARK   10  A    between atoms: C_29  and  C_30 
REMARK   11  A    between atoms: C_30  and  C_31 
REMARK   12  A    between atoms: C_31  and  O_33 
REMARK   13  A    between atoms: C_42  and  C_43 
REMARK   14  A    between atoms: C_43  and  C_44 
REMARK   15  A    between atoms: C_44  and  C_45 
REMARK   16  A    between atoms: C_45  and  O_47 
ROOT
HETATM    1  C   UNK     0      31.610  14.255  59.344  0.00  0.00     0.051 C 
HETATM    2  C   UNK     0      32.456  14.230  60.601  0.00  0.00    -0.031 A 
HETATM    3  C   UNK     0      32.791  13.159  61.415  0.00  0.00     0.021 A 
HETATM    4  N   UNK     0      33.541  13.609  62.449  0.00  0.00    -0.361 N 
HETATM    5  C   UNK     0      33.699  14.941  62.307  0.00  0.00     0.022 A 
HETATM    6  C   UNK     0      33.030  15.363  61.163  0.00  0.00    -0.027 A 
HETATM    7  C   UNK     0      34.514  15.895  63.123  0.00  0.00     0.115 C 
HETATM    8  C   UNK     0      35.897  15.427  63.539  0.00  0.00     0.021 A 
HETATM    9  N   UNK     0      36.763  14.664  62.853  0.00  0.00    -0.361 N 
HETATM   10  C   UNK     0      37.828  14.423  63.647  0.00  0.00     0.022 A 
HETATM   11  C   UNK     0      37.648  15.055  64.873  0.00  0.00    -0.027 A 
HETATM   12  C   UNK     0      36.433  15.690  64.812  0.00  0.00    -0.031 A 
HETATM   13  C   UNK     0      35.820  16.513  65.922  0.00  0.00     0.051 C 
HETATM   14  C   UNK     0      39.029  13.547  63.301  0.00  0.00     0.115 C 
HETATM   15  C   UNK     0      38.673  12.096  63.022  0.00  0.00     0.021 A 
HETATM   16  N   UNK     0      37.833  11.622  62.082  0.00  0.00    -0.361 N 
HETATM   17  C   UNK     0      37.737  10.297  62.208  0.00  0.00     0.022 A 
HETATM   18  C   UNK     0      38.560   9.886  63.275  0.00  0.00    -0.027 A 
HETATM   19  C   UNK     0      39.142  11.022  63.776  0.00  0.00    -0.031 A 
HETATM   20  C   UNK     0      40.138  11.025  64.921  0.00  0.00     0.051 C 
HETATM   21  C   UNK     0      36.878   9.309  61.452  0.00  0.00     0.115 C 
HETATM   22  C   UNK     0      35.517   9.776  60.993  0.00  0.00     0.022 A 
HETATM   23  N   UNK     0      34.635  10.539  61.653  0.00  0.00    -0.361 N 
HETATM   24  C   UNK     0      33.619  10.831  60.816  0.00  0.00     0.021 A 
HETATM   25  C   UNK     0      33.846  10.233  59.592  0.00  0.00    -0.031 A 
HETATM   26  C   UNK     0      32.975  10.237  58.352  0.00  0.00     0.051 C 
HETATM   27  C   UNK     0      35.055   9.552  59.680  0.00  0.00    -0.027 A 
HETATM   28  C   UNK     0      32.431  11.740  61.079  0.00  0.00     0.115 C 
HETATM   29  H   UNK     0      33.921  12.988  63.293  0.00  0.00     0.165 HD
HETATM   30  H   UNK     0      36.648  14.336  61.791  0.00  0.00     0.165 HD
HETATM   31  H   UNK     0      37.335  12.230  61.283  0.00  0.00     0.165 HD
HETATM   32  H   UNK     0      34.701  10.843  62.730  0.00  0.00     0.165 HD
ENDROOT
BRANCH   6  33
HETATM   33  C   UNK     0      32.895  16.743  60.572  0.00  0.00     0.051 C 
BRANCH  33  34
HETATM   34  C   UNK     0      34.114  17.096  59.752  0.00  0.00     0.114 C 
BRANCH  34  35
HETATM   35  C   UNK     0      33.648  17.403  58.369  0.00  0.00     0.139 C 
HETATM   36  O   UNK     0      32.411  17.428  58.104  0.00  0.00    -0.650 OA
BRANCH  35  37
HETATM   37  O   UNK     0      34.526  17.672  57.326  0.00  0.00    -0.776 OA
HETATM   38  H   UNK     0      34.783  18.613  57.073  0.00  0.00     0.167 HD
ENDBRANCH  35  37
ENDBRANCH  34  35
ENDBRANCH  33  34
ENDBRANCH   6  33
BRANCH  27  39
HETATM   39  C   UNK     0      35.601   8.722  58.572  0.00  0.00     0.051 C 
BRANCH  39  40
HETATM   40  C   UNK     0      35.219   7.311  58.508  0.00  0.00     0.114 C 
BRANCH  40  41
HETATM   41  C   UNK     0      34.695   6.709  57.303  0.00  0.00     0.139 C 
HETATM   42  O   UNK     0      33.596   6.141  57.245  0.00  0.00    -0.650 OA
BRANCH  41  43
HETATM   43  O   UNK     0      35.471   6.762  56.110  0.00  0.00    -0.776 OA
HETATM   44  H   UNK     0      35.388   5.944  55.519  0.00  0.00     0.167 HD
ENDBRANCH  41  43
ENDBRANCH  40  41
ENDBRANCH  39  40
ENDBRANCH  27  39
BRANCH  11  45
HETATM   45  C   UNK     0      38.566  15.077  66.066  0.00  0.00     0.051 C 
BRANCH  45  46
HETATM   46  C   UNK     0      39.754  15.953  65.899  0.00  0.00     0.114 C 
BRANCH  46  47
HETATM   47  C   UNK     0      40.962  15.088  66.025  0.00  0.00     0.139 C 
HETATM   48  O   UNK     0      40.830  13.954  66.507  0.00  0.00    -0.650 OA
BRANCH  47  49
HETATM   49  O   UNK     0      42.193  15.536  65.617  0.00  0.00    -0.776 OA
HETATM   50  H   UNK     0      42.999  15.567  66.252  0.00  0.00     0.167 HD
ENDBRANCH  47  49
ENDBRANCH  46  47
ENDBRANCH  45  46
ENDBRANCH  11  45
BRANCH  18  51
HETATM   51  C   UNK     0      38.797   8.485  63.776  0.00  0.00     0.051 C 
BRANCH  51  52
HETATM   52  C   UNK     0      37.771   8.246  64.874  0.00  0.00     0.114 C 
BRANCH  52  53
HETATM   53  C   UNK     0      36.798   7.201  64.500  0.00  0.00     0.139 C 
HETATM   54  O   UNK     0      35.683   7.167  65.045  0.00  0.00    -0.650 OA
BRANCH  53  55
HETATM   55  O   UNK     0      37.135   6.268  63.551  0.00  0.00    -0.776 OA
HETATM   56  H   UNK     0      38.029   6.157  63.132  0.00  0.00     0.167 HD
ENDBRANCH  53  55
ENDBRANCH  52  53
ENDBRANCH  51  52
ENDBRANCH  18  51
TORSDOF 16
ENDMDL
MODEL 8
REMARK VINA RESULT:      -9.5      1.652      7.176
REMARK  16 active torsions:
REMARK  status: ('A' for Active; 'I' for Inactive)
REMARK    1  A    between atoms: C_6  and  C_7 
REMARK    2  A    between atoms: C_7  and  C_8 
REMARK    3  A    between atoms: C_8  and  C_9 
REMARK    4  A    between atoms: C_9  and  O_11 
REMARK    5  A    between atoms: C_16  and  C_17 
REMARK    6  A    between atoms: C_17  and  C_18 
REMARK    7  A    between atoms: C_18  and  C_19 
REMARK    8  A    between atoms: C_19  and  O_21 
REMARK    9  A    between atoms: C_28  and  C_29 
REMARK   10  A    between atoms: C_29  and  C_30 
REMARK   11  A    between atoms: C_30  and  C_31 
REMARK   12  A    between atoms: C_31  and  O_33 
REMARK   13  A    between atoms: C_42  and  C_43 
REMARK   14  A    between atoms: C_43  and  C_44 
REMARK   15  A    between atoms: C_44  and  C_45 
REMARK   16  A    between atoms: C_45  and  O_47 
ROOT
HETATM    1  C   UNK     0      38.451  19.054  66.077  0.00  0.00     0.051 C 
HETATM    2  C   UNK     0      38.508  17.540  66.118  0.00  0.00    -0.031 A 
HETATM    3  C   UNK     0      37.480  16.626  66.284  0.00  0.00     0.021 A 
HETATM    4  N   UNK     0      37.998  15.375  66.289  0.00  0.00    -0.361 N 
HETATM    5  C   UNK     0      39.333  15.472  66.120  0.00  0.00     0.022 A 
HETATM    6  C   UNK     0      39.686  16.813  66.013  0.00  0.00    -0.027 A 
HETATM    7  C   UNK     0      40.354  14.389  65.961  0.00  0.00     0.115 C 
HETATM    8  C   UNK     0      39.977  13.224  65.063  0.00  0.00     0.021 A 
HETATM    9  N   UNK     0      39.248  13.239  63.936  0.00  0.00    -0.361 N 
HETATM   10  C   UNK     0      39.089  11.964  63.522  0.00  0.00     0.022 A 
HETATM   11  C   UNK     0      39.742  11.105  64.402  0.00  0.00    -0.027 A 
HETATM   12  C   UNK     0      40.303  11.892  65.374  0.00  0.00    -0.031 A 
HETATM   13  C   UNK     0      41.118  11.388  66.544  0.00  0.00     0.051 C 
HETATM   14  C   UNK     0      38.275  11.502  62.317  0.00  0.00     0.115 C 
HETATM   15  C   UNK     0      36.799  11.856  62.399  0.00  0.00     0.021 A 
HETATM   16  N   UNK     0      36.254  13.081  62.521  0.00  0.00    -0.361 N 
HETATM   17  C   UNK     0      34.929  12.962  62.630  0.00  0.00     0.022 A 
HETATM   18  C   UNK     0      34.594  11.595  62.567  0.00  0.00    -0.027 A 
HETATM   19  C   UNK     0      35.774  10.913  62.420  0.00  0.00    -0.031 A 
HETATM   20  C   UNK     0      35.864   9.405  62.275  0.00  0.00     0.051 C 
HETATM   21  C   UNK     0      33.873  14.021  62.858  0.00  0.00     0.115 C 
HETATM   22  C   UNK     0      34.249  15.207  63.714  0.00  0.00     0.022 A 
HETATM   23  N   UNK     0      34.977  15.222  64.838  0.00  0.00    -0.361 N 
HETATM   24  C   UNK     0      35.188  16.507  65.189  0.00  0.00     0.021 A 
HETATM   25  C   UNK     0      34.573  17.339  64.273  0.00  0.00    -0.031 A 
HETATM   26  C   UNK     0      34.495  18.852  64.262  0.00  0.00     0.051 C 
HETATM   27  C   UNK     0      33.965  16.530  63.320  0.00  0.00    -0.027 A 
HETATM   28  C   UNK     0      36.033  17.030  66.337  0.00  0.00     0.115 C 
HETATM   29  H   UNK     0      37.422  14.434  66.450  0.00  0.00     0.165 HD
HETATM   30  H   UNK     0      38.886  14.152  63.402  0.00  0.00     0.165 HD
HETATM   31  H   UNK     0      36.810  14.053  62.481  0.00  0.00     0.165 HD
HETATM   32  H   UNK     0      35.312  14.324  65.419  0.00  0.00     0.165 HD
ENDROOT
BRANCH   6  33
HETATM   33  C   UNK     0      41.041  17.447  65.824  0.00  0.00     0.051 C 
BRANCH  33  34
HETATM   34  C   UNK     0      41.727  17.652  67.154  0.00  0.00     0.114 C 
BRANCH  34  35
HETATM   35  C   UNK     0      42.251  19.048  67.175  0.00  0.00     0.139 C 
HETATM   36  O   UNK     0      41.869  19.886  66.307  0.00  0.00    -0.650 OA
BRANCH  35  37
HETATM   37  O   UNK     0      43.161  19.492  68.127  0.00  0.00    -0.776 OA
HETATM   38  H   UNK     0      43.440  18.920  68.908  0.00  0.00     0.167 HD
ENDBRANCH  35  37
ENDBRANCH  34  35
ENDBRANCH  33  34
ENDBRANCH   6  33
BRANCH  27  39
HETATM   39  C   UNK     0      33.139  17.071  62.206  0.00  0.00     0.051 C 
BRANCH  39  40
HETATM   40  C   UNK     0      31.691  17.157  62.393  0.00  0.00     0.114 C 
BRANCH  40  41
HETATM   41  C   UNK     0      30.757  16.839  61.336  0.00  0.00     0.139 C 
HETATM   42  O   UNK     0      31.100  16.605  60.169  0.00  0.00    -0.650 OA
BRANCH  41  43
HETATM   43  O   UNK     0      29.366  16.789  61.635  0.00  0.00    -0.776 OA
HETATM   44  H   UNK     0      29.146  16.875  62.620  0.00  0.00     0.167 HD
ENDBRANCH  41  43
ENDBRANCH  40  41
ENDBRANCH  39  40
ENDBRANCH  27  39
BRANCH  11  45
HETATM   45  C   UNK     0      39.848   9.604  64.348  0.00  0.00     0.051 C 
BRANCH  45  46
HETATM   46  C   UNK     0      38.554   8.898  64.530  0.00  0.00     0.114 C 
BRANCH  46  47
HETATM   47  C   UNK     0      38.696   8.016  65.723  0.00  0.00     0.139 C 
HETATM   48  O   UNK     0      39.537   8.314  66.583  0.00  0.00    -0.650 OA
BRANCH  47  49
HETATM   49  O   UNK     0      37.915   6.897  65.868  0.00  0.00    -0.776 OA
HETATM   50  H   UNK     0      38.242   6.065  66.373  0.00  0.00     0.167 HD
ENDBRANCH  47  49
ENDBRANCH  46  47
ENDBRANCH  45  46
ENDBRANCH  11  45
BRANCH  18  51
HETATM   51  C   UNK     0      33.222  10.974  62.621  0.00  0.00     0.051 C 
BRANCH  51  52
HETATM   52  C   UNK     0      32.844  10.903  64.093  0.00  0.00     0.114 C 
BRANCH  52  53
HETATM   53  C   UNK     0      32.479   9.533  64.502  0.00  0.00     0.139 C 
HETATM   54  O   UNK     0      33.366   8.700  64.745  0.00  0.00    -0.650 OA
BRANCH  53  55
HETATM   55  O   UNK     0      31.154   9.186  64.607  0.00  0.00    -0.776 OA
HETATM   56  H   UNK     0      30.380   9.804  64.533  0.00  0.00     0.167 HD
ENDBRANCH  53  55
ENDBRANCH  52  53
ENDBRANCH  51  52
ENDBRANCH  18  51
TORSDOF 16
ENDMDL
MODEL 9
REMARK VINA RESULT:      -9.2     30.854     33.423
REMARK  16 active torsions:
REMARK  status: ('A' for Active; 'I' for Inactive)
REMARK    1  A    between atoms: C_6  and  C_7 
REMARK    2  A    between atoms: C_7  and  C_8 
REMARK    3  A    between atoms: C_8  and  C_9 
REMARK    4  A    between atoms: C_9  and  O_11 
REMARK    5  A    between atoms: C_16  and  C_17 
REMARK    6  A    between atoms: C_17  and  C_18 
REMARK    7  A    between atoms: C_18  and  C_19 
REMARK    8  A    between atoms: C_19  and  O_21 
REMARK    9  A    between atoms: C_28  and  C_29 
REMARK   10  A    between atoms: C_29  and  C_30 
REMARK   11  A    between atoms: C_30  and  C_31 
REMARK   12  A    between atoms: C_31  and  O_33 
REMARK   13  A    between atoms: C_42  and  C_43 
REMARK   14  A    between atoms: C_43  and  C_44 
REMARK   15  A    between atoms: C_44  and  C_45 
REMARK   16  A    between atoms: C_45  and  O_47 
ROOT
HETATM    1  C   UNK     0      45.382  19.332  31.547  0.00  0.00     0.051 C 
HETATM    2  C   UNK     0      46.089  18.871  32.805  0.00  0.00    -0.031 A 
HETATM    3  C   UNK     0      45.743  17.861  33.688  0.00  0.00     0.021 A 
HETATM    4  N   UNK     0      46.651  17.823  34.692  0.00  0.00    -0.361 N 
HETATM    5  C   UNK     0      47.572  18.781  34.464  0.00  0.00     0.022 A 
HETATM    6  C   UNK     0      47.249  19.458  33.292  0.00  0.00    -0.027 A 
HETATM    7  C   UNK     0      48.827  19.094  35.217  0.00  0.00     0.115 C 
HETATM    8  C   UNK     0      49.666  17.911  35.666  0.00  0.00     0.021 A 
HETATM    9  N   UNK     0      49.873  16.745  35.035  0.00  0.00    -0.361 N 
HETATM   10  C   UNK     0      50.608  15.954  35.845  0.00  0.00     0.022 A 
HETATM   11  C   UNK     0      50.890  16.633  37.027  0.00  0.00    -0.027 A 
HETATM   12  C   UNK     0      50.299  17.866  36.921  0.00  0.00    -0.031 A 
HETATM   13  C   UNK     0      50.347  18.951  37.973  0.00  0.00     0.051 C 
HETATM   14  C   UNK     0      51.027  14.514  35.562  0.00  0.00     0.115 C 
HETATM   15  C   UNK     0      49.859  13.558  35.378  0.00  0.00     0.021 A 
HETATM   16  N   UNK     0      48.869  13.636  34.469  0.00  0.00    -0.361 N 
HETATM   17  C   UNK     0      48.000  12.645  34.681  0.00  0.00     0.022 A 
HETATM   18  C   UNK     0      48.450  11.879  35.775  0.00  0.00    -0.027 A 
HETATM   19  C   UNK     0      49.616  12.461  36.202  0.00  0.00    -0.031 A 
HETATM   20  C   UNK     0      50.457  11.926  37.347  0.00  0.00     0.051 C 
HETATM   21  C   UNK     0      46.692  12.334  33.989  0.00  0.00     0.115 C 
HETATM   22  C   UNK     0      45.869  13.501  33.497  0.00  0.00     0.022 A 
HETATM   23  N   UNK     0      45.649  14.676  34.103  0.00  0.00    -0.361 N 
HETATM   24  C   UNK     0      44.982  15.475  33.246  0.00  0.00     0.021 A 
HETATM   25  C   UNK     0      44.758  14.796  32.064  0.00  0.00    -0.031 A 
HETATM   26  C   UNK     0      44.019  15.257  30.825  0.00  0.00     0.051 C 
HETATM   27  C   UNK     0      45.316  13.530  32.201  0.00  0.00    -0.027 A 
HETATM   28  C   UNK     0      44.589  16.929  33.446  0.00  0.00     0.115 C 
HETATM   29  H   UNK     0      46.612  17.145  35.577  0.00  0.00     0.165 HD
HETATM   30  H   UNK     0      49.544  16.495  33.997  0.00  0.00     0.165 HD
HETATM   31  H   UNK     0      48.806  14.376  33.630  0.00  0.00     0.165 HD
HETATM   32  H   UNK     0      45.925  14.936  35.158  0.00  0.00     0.165 HD
ENDROOT
BRANCH   6  33
HETATM   33  C   UNK     0      47.950  20.607  32.611  0.00  0.00     0.051 C 
BRANCH  33  34
HETATM   34  C   UNK     0      48.994  20.100  31.645  0.00  0.00     0.114 C 
BRANCH  34  35
HETATM   35  C   UNK     0      50.243  20.877  31.890  0.00  0.00     0.139 C 
HETATM   36  O   UNK     0      50.933  21.296  30.915  0.00  0.00    -0.650 OA
BRANCH  35  37
HETATM   37  O   UNK     0      50.701  21.176  33.167  0.00  0.00    -0.776 OA
HETATM   38  H   UNK     0      50.970  22.109  33.433  0.00  0.00     0.167 HD
ENDBRANCH  35  37
ENDBRANCH  34  35
ENDBRANCH  33  34
ENDBRANCH   6  33
BRANCH  27  39
HETATM   39  C   UNK     0      45.212  12.480  31.151  0.00  0.00     0.051 C 
BRANCH  39  40
HETATM   40  C   UNK     0      46.247  12.426  30.119  0.00  0.00     0.114 C 
BRANCH  40  41
HETATM   41  C   UNK     0      47.640  12.207  30.436  0.00  0.00     0.139 C 
HETATM   42  O   UNK     0      48.543  12.997  30.128  0.00  0.00    -0.650 OA
BRANCH  41  43
HETATM   43  O   UNK     0      48.012  11.026  31.138  0.00  0.00    -0.776 OA
HETATM   44  H   UNK     0      47.739  11.015  32.113  0.00  0.00     0.167 HD
ENDBRANCH  41  43
ENDBRANCH  40  41
ENDBRANCH  39  40
ENDBRANCH  27  39
BRANCH  11  45
HETATM   45  C   UNK     0      51.681  16.162  38.218  0.00  0.00     0.051 C 
BRANCH  45  46
HETATM   46  C   UNK     0      53.151  16.313  38.067  0.00  0.00     0.114 C 
BRANCH  46  47
HETATM   47  C   UNK     0      53.733  14.941  38.017  0.00  0.00     0.139 C 
HETATM   48  O   UNK     0      54.642  14.712  37.207  0.00  0.00    -0.650 OA
BRANCH  47  49
HETATM   49  O   UNK     0      53.272  13.952  38.849  0.00  0.00    -0.776 OA
HETATM   50  H   UNK     0      53.906  13.288  39.310  0.00  0.00     0.167 HD
ENDBRANCH  47  49
ENDBRANCH  46  47
ENDBRANCH  45  46
ENDBRANCH  11  45
BRANCH  18  51
HETATM   51  C   UNK     0      47.815  10.648  36.368  0.00  0.00     0.051 C 
BRANCH  51  52
HETATM   52  C   UNK     0      48.537   9.458  35.753  0.00  0.00     0.114 C 
BRANCH  52  53
HETATM   53  C   UNK     0      47.777   8.875  34.631  0.00  0.00     0.139 C 
HETATM   54  O   UNK     0      48.048   9.197  33.463  0.00  0.00    -0.650 OA
BRANCH  53  55
HETATM   55  O   UNK     0      46.767   7.979  34.887  0.00  0.00    -0.776 OA
HETATM   56  H   UNK     0      46.752   7.311  35.620  0.00  0.00     0.167 HD
ENDBRANCH  53  55
ENDBRANCH  52  53
ENDBRANCH  51  52
ENDBRANCH  18  51
TORSDOF 16
ENDMDL
MODEL 10
REMARK VINA RESULT:      -9.2      3.925      9.046
REMARK  16 active torsions:
REMARK  status: ('A' for Active; 'I' for Inactive)
REMARK    1  A    between atoms: C_6  and  C_7 
REMARK    2  A    between atoms: C_7  and  C_8 
REMARK    3  A    between atoms: C_8  and  C_9 
REMARK    4  A    between atoms: C_9  and  O_11 
REMARK    5  A    between atoms: C_16  and  C_17 
REMARK    6  A    between atoms: C_17  and  C_18 
REMARK    7  A    between atoms: C_18  and  C_19 
REMARK    8  A    between atoms: C_19  and  O_21 
REMARK    9  A    between atoms: C_28  and  C_29 
REMARK   10  A    between atoms: C_29  and  C_30 
REMARK   11  A    between atoms: C_30  and  C_31 
REMARK   12  A    between atoms: C_31  and  O_33 
REMARK   13  A    between atoms: C_42  and  C_43 
REMARK   14  A    between atoms: C_43  and  C_44 
REMARK   15  A    between atoms: C_44  and  C_45 
REMARK   16  A    between atoms: C_45  and  O_47 
ROOT
HETATM    1  C   UNK     0      37.525  15.534  66.019  0.00  0.00     0.051 C 
HETATM    2  C   UNK     0      36.822  15.382  64.685  0.00  0.00    -0.031 A 
HETATM    3  C   UNK     0      37.276  14.799  63.513  0.00  0.00     0.021 A 
HETATM    4  N   UNK     0      36.320  14.919  62.561  0.00  0.00    -0.361 N 
HETATM    5  C   UNK     0      35.263  15.558  63.104  0.00  0.00     0.022 A 
HETATM    6  C   UNK     0      35.545  15.865  64.431  0.00  0.00    -0.027 A 
HETATM    7  C   UNK     0      33.922  15.856  62.510  0.00  0.00     0.115 C 
HETATM    8  C   UNK     0      33.275  14.747  61.699  0.00  0.00     0.021 A 
HETATM    9  N   UNK     0      33.321  13.423  61.908  0.00  0.00    -0.361 N 
HETATM   10  C   UNK     0      32.680  12.815  60.887  0.00  0.00     0.022 A 
HETATM   11  C   UNK     0      32.200  13.775  60.001  0.00  0.00    -0.027 A 
HETATM   12  C   UNK     0      32.571  14.995  60.507  0.00  0.00    -0.031 A 
HETATM   13  C   UNK     0      32.260  16.333  59.876  0.00  0.00     0.051 C 
HETATM   14  C   UNK     0      32.541  11.309  60.679  0.00  0.00     0.115 C 
HETATM   15  C   UNK     0      33.869  10.584  60.524  0.00  0.00     0.021 A 
HETATM   16  N   UNK     0      34.892  10.548  61.398  0.00  0.00    -0.361 N 
HETATM   17  C   UNK     0      35.904   9.863  60.860  0.00  0.00     0.022 A 
HETATM   18  C   UNK     0      35.518   9.424  59.578  0.00  0.00    -0.027 A 
HETATM   19  C   UNK     0      34.241   9.882  59.380  0.00  0.00    -0.031 A 
HETATM   20  C   UNK     0      33.428   9.599  58.129  0.00  0.00     0.051 C 
HETATM   21  C   UNK     0      37.291   9.597  61.398  0.00  0.00     0.115 C 
HETATM   22  C   UNK     0      37.930  10.674  62.243  0.00  0.00     0.022 A 
HETATM   23  N   UNK     0      37.897  12.001  62.061  0.00  0.00    -0.361 N 
HETATM   24  C   UNK     0      38.473  12.589  63.129  0.00  0.00     0.021 A 
HETATM   25  C   UNK     0      38.896  11.617  64.015  0.00  0.00    -0.031 A 
HETATM   26  C   UNK     0      39.629  11.781  65.330  0.00  0.00     0.051 C 
HETATM   27  C   UNK     0      38.560  10.383  63.470  0.00  0.00    -0.027 A 
HETATM   28  C   UNK     0      38.589  14.075  63.421  0.00  0.00     0.115 C 
HETATM   29  H   UNK     0      36.414  14.586  61.502  0.00  0.00     0.165 HD
HETATM   30  H   UNK     0      33.761  12.916  62.801  0.00  0.00     0.165 HD
HETATM   31  H   UNK     0      34.883  10.973  62.435  0.00  0.00     0.165 HD
HETATM   32  H   UNK     0      37.506  12.533  61.155  0.00  0.00     0.165 HD
ENDROOT
BRANCH   6  33
HETATM   33  C   UNK     0      34.705  16.576  65.462  0.00  0.00     0.051 C 
BRANCH  33  34
HETATM   34  C   UNK     0      35.420  17.799  65.986  0.00  0.00     0.114 C 
BRANCH  34  35
HETATM   35  C   UNK     0      35.292  18.867  64.953  0.00  0.00     0.139 C 
HETATM   36  O   UNK     0      34.305  18.872  64.161  0.00  0.00    -0.650 OA
BRANCH  35  37
HETATM   37  O   UNK     0      36.224  19.888  64.812  0.00  0.00    -0.776 OA
HETATM   38  H   UNK     0      37.196  19.760  65.045  0.00  0.00     0.167 HD
ENDBRANCH  35  37
ENDBRANCH  34  35
ENDBRANCH  33  34
ENDBRANCH   6  33
BRANCH  27  39
HETATM   39  C   UNK     0      38.921   9.089  64.109  0.00  0.00     0.051 C 
BRANCH  39  40
HETATM   40  C   UNK     0      37.896   8.385  64.879  0.00  0.00     0.114 C 
BRANCH  40  41
HETATM   41  C   UNK     0      37.206   7.224  64.362  0.00  0.00     0.139 C 
HETATM   42  O   UNK     0      36.164   6.772  64.856  0.00  0.00    -0.650 OA
BRANCH  41  43
HETATM   43  O   UNK     0      37.738   6.553  63.225  0.00  0.00    -0.776 OA
HETATM   44  H   UNK     0      37.827   5.550  63.334  0.00  0.00     0.167 HD
ENDBRANCH  41  43
ENDBRANCH  40  41
ENDBRANCH  39  40
ENDBRANCH  27  39
BRANCH  11  45
HETATM   45  C   UNK     0      31.421  13.576  58.729  0.00  0.00     0.051 C 
BRANCH  45  46
HETATM   46  C   UNK     0      30.798  12.234  58.603  0.00  0.00     0.114 C 
BRANCH  46  47
HETATM   47  C   UNK     0      30.843  11.860  57.160  0.00  0.00     0.139 C 
HETATM   48  O   UNK     0      30.009  11.050  56.732  0.00  0.00    -0.650 OA
BRANCH  47  49
HETATM   49  O   UNK     0      31.787  12.399  56.323  0.00  0.00    -0.776 OA
HETATM   50  H   UNK     0      32.235  13.303  56.517  0.00  0.00     0.167 HD
ENDBRANCH  47  49
ENDBRANCH  46  47
ENDBRANCH  45  46
ENDBRANCH  11  45
BRANCH  18  51
HETATM   51  C   UNK     0      36.315   8.597  58.603  0.00  0.00     0.051 C 
BRANCH  51  52
HETATM   52  C   UNK     0      35.950   7.146  58.878  0.00  0.00     0.114 C 
BRANCH  52  53
HETATM   53  C   UNK     0      35.251   6.529  57.734  0.00  0.00     0.139 C 
HETATM   54  O   UNK     0      34.285   5.775  57.929  0.00  0.00    -0.650 OA
BRANCH  53  55
HETATM   55  O   UNK     0      35.679   6.791  56.455  0.00  0.00    -0.776 OA
HETATM   56  H   UNK     0      36.490   7.305  56.204  0.00  0.00     0.167 HD
ENDBRANCH  53  55
ENDBRANCH  52  53
ENDBRANCH  51  52
ENDBRANCH  18  51
TORSDOF 16
ENDMDL
MODEL 11
REMARK VINA RESULT:      -9.2      2.988      7.899
REMARK  16 active torsions:
REMARK  status: ('A' for Active; 'I' for Inactive)
REMARK    1  A    between atoms: C_6  and  C_7 
REMARK    2  A    between atoms: C_7  and  C_8 
REMARK    3  A    between atoms: C_8  and  C_9 
REMARK    4  A    between atoms: C_9  and  O_11 
REMARK    5  A    between atoms: C_16  and  C_17 
REMARK    6  A    between atoms: C_17  and  C_18 
REMARK    7  A    between atoms: C_18  and  C_19 
REMARK    8  A    between atoms: C_19  and  O_21 
REMARK    9  A    between atoms: C_28  and  C_29 
REMARK   10  A    between atoms: C_29  and  C_30 
REMARK   11  A    between atoms: C_30  and  C_31 
REMARK   12  A    between atoms: C_31  and  O_33 
REMARK   13  A    between atoms: C_42  and  C_43 
REMARK   14  A    between atoms: C_43  and  C_44 
REMARK   15  A    between atoms: C_44  and  C_45 
REMARK   16  A    between atoms: C_45  and  O_47 
ROOT
HETATM    1  C   UNK     0      31.949  12.774  59.640  0.00  0.00     0.051 C 
HETATM    2  C   UNK     0      32.627  13.239  60.913  0.00  0.00    -0.031 A 
HETATM    3  C   UNK     0      33.039  12.500  62.011  0.00  0.00     0.021 A 
HETATM    4  N   UNK     0      33.570  13.338  62.933  0.00  0.00    -0.361 N 
HETATM    5  C   UNK     0      33.513  14.593  62.443  0.00  0.00     0.022 A 
HETATM    6  C   UNK     0      32.926  14.568  61.182  0.00  0.00    -0.027 A 
HETATM    7  C   UNK     0      34.048  15.866  63.022  0.00  0.00     0.115 C 
HETATM    8  C   UNK     0      35.430  15.802  63.648  0.00  0.00     0.021 A 
HETATM    9  N   UNK     0      36.490  15.076  63.261  0.00  0.00    -0.361 N 
HETATM   10  C   UNK     0      37.477  15.261  64.164  0.00  0.00     0.022 A 
HETATM   11  C   UNK     0      37.043  16.138  65.155  0.00  0.00    -0.027 A 
HETATM   12  C   UNK     0      35.754  16.482  64.835  0.00  0.00    -0.031 A 
HETATM   13  C   UNK     0      34.879  17.425  65.631  0.00  0.00     0.051 C 
HETATM   14  C   UNK     0      38.843  14.581  64.159  0.00  0.00     0.115 C 
HETATM   15  C   UNK     0      38.776  13.066  64.263  0.00  0.00     0.021 A 
HETATM   16  N   UNK     0      38.151  12.212  63.432  0.00  0.00    -0.361 N 
HETATM   17  C   UNK     0      38.268  10.970  63.909  0.00  0.00     0.022 A 
HETATM   18  C   UNK     0      39.014  11.017  65.103  0.00  0.00    -0.027 A 
HETATM   19  C   UNK     0      39.327  12.335  65.314  0.00  0.00    -0.031 A 
HETATM   20  C   UNK     0      40.162  12.827  66.482  0.00  0.00     0.051 C 
HETATM   21  C   UNK     0      37.690   9.672  63.393  0.00  0.00     0.115 C 
HETATM   22  C   UNK     0      36.335   9.728  62.728  0.00  0.00     0.022 A 
HETATM   23  N   UNK     0      35.262  10.445  63.088  0.00  0.00    -0.361 N 
HETATM   24  C   UNK     0      34.320  10.307  62.134  0.00  0.00     0.021 A 
HETATM   25  C   UNK     0      34.794   9.473  61.139  0.00  0.00    -0.031 A 
HETATM   26  C   UNK     0      34.092   8.988  59.887  0.00  0.00     0.051 C 
HETATM   27  C   UNK     0      36.081   9.089  61.497  0.00  0.00    -0.027 A 
HETATM   28  C   UNK     0      32.971  10.999  62.052  0.00  0.00     0.115 C 
HETATM   29  H   UNK     0      33.945  13.041  63.940  0.00  0.00     0.165 HD
HETATM   30  H   UNK     0      36.563  14.472  62.324  0.00  0.00     0.165 HD
HETATM   31  H   UNK     0      37.657  12.483  62.463  0.00  0.00     0.165 HD
HETATM   32  H   UNK     0      35.144  11.021  64.043  0.00  0.00     0.165 HD
ENDROOT
BRANCH   6  33
HETATM   33  C   UNK     0      32.630  15.697  60.227  0.00  0.00     0.051 C 
BRANCH  33  34
HETATM   34  C   UNK     0      33.882  16.124  59.499  0.00  0.00     0.114 C 
BRANCH  34  35
HETATM   35  C   UNK     0      33.459  16.918  58.310  0.00  0.00     0.139 C 
HETATM   36  O   UNK     0      32.233  17.007  58.007  0.00  0.00    -0.650 OA
BRANCH  35  37
HETATM   37  O   UNK     0      34.363  17.586  57.493  0.00  0.00    -0.776 OA
HETATM   38  H   UNK     0      35.239  17.939  57.843  0.00  0.00     0.167 HD
ENDBRANCH  35  37
ENDBRANCH  34  35
ENDBRANCH  33  34
ENDBRANCH   6  33
BRANCH  27  39
HETATM   39  C   UNK     0      36.892   8.128  60.700  0.00  0.00     0.051 C 
BRANCH  39  40
HETATM   40  C   UNK     0      36.635   6.698  60.868  0.00  0.00     0.114 C 
BRANCH  40  41
HETATM   41  C   UNK     0      36.401   5.820  59.743  0.00  0.00     0.139 C 
HETATM   42  O   UNK     0      35.507   6.005  58.907  0.00  0.00    -0.650 OA
BRANCH  41  43
HETATM   43  O   UNK     0      37.234   4.679  59.573  0.00  0.00    -0.776 OA
HETATM   44  H   UNK     0      37.548   4.527  58.622  0.00  0.00     0.167 HD
ENDBRANCH  41  43
ENDBRANCH  40  41
ENDBRANCH  39  40
ENDBRANCH  27  39
BRANCH  11  45
HETATM   45  C   UNK     0      37.792  16.645  66.357  0.00  0.00     0.051 C 
BRANCH  45  46
HETATM   46  C   UNK     0      38.588  17.873  66.102  0.00  0.00     0.114 C 
BRANCH  46  47
HETATM   47  C   UNK     0      40.024  17.510  66.268  0.00  0.00     0.139 C 
HETATM   48  O   UNK     0      40.885  18.270  65.802  0.00  0.00    -0.650 OA
BRANCH  47  49
HETATM   49  O   UNK     0      40.388  16.359  66.920  0.00  0.00    -0.776 OA
HETATM   50  H   UNK     0      40.347  16.276  67.942  0.00  0.00     0.167 HD
ENDBRANCH  47  49
ENDBRANCH  46  47
ENDBRANCH  45  46
ENDBRANCH  11  45
BRANCH  18  51
HETATM   51  C   UNK     0      39.424   9.866  65.985  0.00  0.00     0.051 C 
BRANCH  51  52
HETATM   52  C   UNK     0      40.942   9.919  66.077  0.00  0.00     0.114 C 
BRANCH  52  53
HETATM   53  C   UNK     0      41.404  10.042  67.473  0.00  0.00     0.139 C 
HETATM   54  O   UNK     0      42.598  10.280  67.713  0.00  0.00    -0.650 OA
BRANCH  53  55
HETATM   55  O   UNK     0      40.507   9.889  68.501  0.00  0.00    -0.776 OA
HETATM   56  H   UNK     0      40.617   9.295  69.289  0.00  0.00     0.167 HD
ENDBRANCH  53  55
ENDBRANCH  52  53
ENDBRANCH  51  52
ENDBRANCH  18  51
TORSDOF 16
ENDMDL
MODEL 12
REMARK VINA RESULT:      -9.1     31.738     34.841
REMARK  16 active torsions:
REMARK  status: ('A' for Active; 'I' for Inactive)
REMARK    1  A    between atoms: C_6  and  C_7 
REMARK    2  A    between atoms: C_7  and  C_8 
REMARK    3  A    between atoms: C_8  and  C_9 
REMARK    4  A    between atoms: C_9  and  O_11 
REMARK    5  A    between atoms: C_16  and  C_17 
REMARK    6  A    between atoms: C_17  and  C_18 
REMARK    7  A    between atoms: C_18  and  C_19 
REMARK    8  A    between atoms: C_19  and  O_21 
REMARK    9  A    between atoms: C_28  and  C_29 
REMARK   10  A    between atoms: C_29  and  C_30 
REMARK   11  A    between atoms: C_30  and  C_31 
REMARK   12  A    between atoms: C_31  and  O_33 
REMARK   13  A    between atoms: C_42  and  C_43 
REMARK   14  A    between atoms: C_43  and  C_44 
REMARK   15  A    between atoms: C_44  and  C_45 
REMARK   16  A    between atoms: C_45  and  O_47 
ROOT
HETATM    1  C   UNK     0      42.992  18.526  29.304  0.00  0.00     0.051 C 
HETATM    2  C   UNK     0      43.888  17.351  29.641  0.00  0.00    -0.031 A 
HETATM    3  C   UNK     0      45.251  17.329  29.893  0.00  0.00     0.021 A 
HETATM    4  N   UNK     0      45.637  16.050  30.118  0.00  0.00    -0.361 N 
HETATM    5  C   UNK     0      44.548  15.259  30.023  0.00  0.00     0.022 A 
HETATM    6  C   UNK     0      43.437  16.040  29.722  0.00  0.00    -0.027 A 
HETATM    7  C   UNK     0      44.415  13.789  30.274  0.00  0.00     0.115 C 
HETATM    8  C   UNK     0      45.136  13.237  31.491  0.00  0.00     0.021 A 
HETATM    9  N   UNK     0      45.327  13.819  32.685  0.00  0.00    -0.361 N 
HETATM   10  C   UNK     0      46.101  13.002  33.431  0.00  0.00     0.022 A 
HETATM   11  C   UNK     0      46.409  11.858  32.700  0.00  0.00    -0.027 A 
HETATM   12  C   UNK     0      45.804  12.000  31.477  0.00  0.00    -0.031 A 
HETATM   13  C   UNK     0      45.861  10.991  30.352  0.00  0.00     0.051 C 
HETATM   14  C   UNK     0      46.622  13.289  34.836  0.00  0.00     0.115 C 
HETATM   15  C   UNK     0      47.513  14.518  34.923  0.00  0.00     0.021 A 
HETATM   16  N   UNK     0      47.200  15.784  34.589  0.00  0.00    -0.361 N 
HETATM   17  C   UNK     0      48.277  16.557  34.744  0.00  0.00     0.022 A 
HETATM   18  C   UNK     0      49.340  15.758  35.211  0.00  0.00    -0.027 A 
HETATM   19  C   UNK     0      48.848  14.484  35.320  0.00  0.00    -0.031 A 
HETATM   20  C   UNK     0      49.660  13.306  35.827  0.00  0.00     0.051 C 
HETATM   21  C   UNK     0      48.471  18.026  34.440  0.00  0.00     0.115 C 
HETATM   22  C   UNK     0      47.725  18.598  33.259  0.00  0.00     0.022 A 
HETATM   23  N   UNK     0      47.515  18.040  32.059  0.00  0.00    -0.361 N 
HETATM   24  C   UNK     0      46.679  18.835  31.362  0.00  0.00     0.021 A 
HETATM   25  C   UNK     0      46.350  19.937  32.127  0.00  0.00    -0.031 A 
HETATM   26  C   UNK     0      45.479  21.122  31.766  0.00  0.00     0.051 C 
HETATM   27  C   UNK     0      47.007  19.808  33.345  0.00  0.00    -0.027 A 
HETATM   28  C   UNK     0      46.080  18.578  29.990  0.00  0.00     0.115 C 
HETATM   29  H   UNK     0      46.682  15.711  30.304  0.00  0.00     0.165 HD
HETATM   30  H   UNK     0      44.876  14.784  33.023  0.00  0.00     0.165 HD
HETATM   31  H   UNK     0      46.185  16.150  34.283  0.00  0.00     0.165 HD
HETATM   32  H   UNK     0      47.991  17.099  31.677  0.00  0.00     0.165 HD
ENDROOT
BRANCH   6  33
HETATM   33  C   UNK     0      42.000  15.640  29.507  0.00  0.00     0.051 C 
BRANCH  33  34
HETATM   34  C   UNK     0      41.838  14.908  28.196  0.00  0.00     0.114 C 
BRANCH  34  35
HETATM   35  C   UNK     0      40.928  15.721  27.339  0.00  0.00     0.139 C 
HETATM   36  O   UNK     0      40.397  16.775  27.795  0.00  0.00    -0.650 OA
BRANCH  35  37
HETATM   37  O   UNK     0      40.625  15.374  26.028  0.00  0.00    -0.776 OA
HETATM   38  H   UNK     0      41.064  14.594  25.566  0.00  0.00     0.167 HD
ENDBRANCH  35  37
ENDBRANCH  34  35
ENDBRANCH  33  34
ENDBRANCH   6  33
BRANCH  27  39
HETATM   39  C   UNK     0      46.951  20.846  34.410  0.00  0.00     0.051 C 
BRANCH  39  40
HETATM   40  C   UNK     0      48.014  21.850  34.458  0.00  0.00     0.114 C 
BRANCH  40  41
HETATM   41  C   UNK     0      49.133  21.831  33.542  0.00  0.00     0.139 C 
HETATM   42  O   UNK     0      50.184  21.213  33.760  0.00  0.00    -0.650 OA
BRANCH  41  43
HETATM   43  O   UNK     0      49.039  22.556  32.321  0.00  0.00    -0.776 OA
HETATM   44  H   UNK     0      48.276  22.267  31.720  0.00  0.00     0.167 HD
ENDBRANCH  41  43
ENDBRANCH  40  41
ENDBRANCH  39  40
ENDBRANCH  27  39
BRANCH  11  45
HETATM   45  C   UNK     0      47.232  10.669  33.115  0.00  0.00     0.051 C 
BRANCH  45  46
HETATM   46  C   UNK     0      47.205  10.392  34.575  0.00  0.00     0.114 C 
BRANCH  46  47
HETATM   47  C   UNK     0      47.668   8.988  34.767  0.00  0.00     0.139 C 
HETATM   48  O   UNK     0      48.867   8.787  35.004  0.00  0.00    -0.650 OA
BRANCH  47  49
HETATM   49  O   UNK     0      46.787   7.940  34.682  0.00  0.00    -0.776 OA
HETATM   50  H   UNK     0      46.799   7.162  35.352  0.00  0.00     0.167 HD
ENDBRANCH  47  49
ENDBRANCH  46  47
ENDBRANCH  45  46
ENDBRANCH  11  45
BRANCH  18  51
HETATM   51  C   UNK     0      50.742  16.191  35.555  0.00  0.00     0.051 C 
BRANCH  51  52
HETATM   52  C   UNK     0      50.683  16.739  36.973  0.00  0.00     0.114 C 
BRANCH  52  53
HETATM   53  C   UNK     0      51.215  15.776  37.956  0.00  0.00     0.139 C 
HETATM   54  O   UNK     0      52.179  15.053  37.660  0.00  0.00    -0.650 OA
BRANCH  53  55
HETATM   55  O   UNK     0      50.635  15.683  39.198  0.00  0.00    -0.776 OA
HETATM   56  H   UNK     0      50.826  16.267  39.978  0.00  0.00     0.167 HD
ENDBRANCH  53  55
ENDBRANCH  52  53
ENDBRANCH  51  52
ENDBRANCH  18  51
TORSDOF 16
ENDMDL
MODEL 13
REMARK VINA RESULT:      -9.1     33.508     35.951
REMARK  16 active torsions:
REMARK  status: ('A' for Active; 'I' for Inactive)
REMARK    1  A    between atoms: C_6  and  C_7 
REMARK    2  A    between atoms: C_7  and  C_8 
REMARK    3  A    between atoms: C_8  and  C_9 
REMARK    4  A    between atoms: C_9  and  O_11 
REMARK    5  A    between atoms: C_16  and  C_17 
REMARK    6  A    between atoms: C_17  and  C_18 
REMARK    7  A    between atoms: C_18  and  C_19 
REMARK    8  A    between atoms: C_19  and  O_21 
REMARK    9  A    between atoms: C_28  and  C_29 
REMARK   10  A    between atoms: C_29  and  C_30 
REMARK   11  A    between atoms: C_30  and  C_31 
REMARK   12  A    between atoms: C_31  and  O_33 
REMARK   13  A    between atoms: C_42  and  C_43 
REMARK   14  A    between atoms: C_43  and  C_44 
REMARK   15  A    between atoms: C_44  and  C_45 
REMARK   16  A    between atoms: C_45  and  O_47 
ROOT
HETATM    1  C   UNK     0      44.385  13.196  31.198  0.00  0.00     0.051 C 
HETATM    2  C   UNK     0      44.013  14.647  31.427  0.00  0.00    -0.031 A 
HETATM    3  C   UNK     0      44.489  15.538  32.377  0.00  0.00     0.021 A 
HETATM    4  N   UNK     0      43.850  16.723  32.230  0.00  0.00    -0.361 N 
HETATM    5  C   UNK     0      42.984  16.610  31.201  0.00  0.00     0.022 A 
HETATM    6  C   UNK     0      43.059  15.323  30.678  0.00  0.00    -0.027 A 
HETATM    7  C   UNK     0      42.111  17.651  30.574  0.00  0.00     0.115 C 
HETATM    8  C   UNK     0      42.731  19.019  30.353  0.00  0.00     0.021 A 
HETATM    9  N   UNK     0      43.995  19.319  30.017  0.00  0.00    -0.361 N 
HETATM   10  C   UNK     0      44.122  20.663  30.021  0.00  0.00     0.022 A 
HETATM   11  C   UNK     0      42.904  21.244  30.360  0.00  0.00    -0.027 A 
HETATM   12  C   UNK     0      42.023  20.214  30.571  0.00  0.00    -0.031 A 
HETATM   13  C   UNK     0      40.570  20.372  30.957  0.00  0.00     0.051 C 
HETATM   14  C   UNK     0      45.404  21.448  29.759  0.00  0.00     0.115 C 
HETATM   15  C   UNK     0      46.520  21.153  30.748  0.00  0.00     0.021 A 
HETATM   16  N   UNK     0      47.093  19.963  31.009  0.00  0.00    -0.361 N 
HETATM   17  C   UNK     0      47.984  20.111  31.991  0.00  0.00     0.022 A 
HETATM   18  C   UNK     0      48.000  21.465  32.383  0.00  0.00    -0.027 A 
HETATM   19  C   UNK     0      47.080  22.107  31.596  0.00  0.00    -0.031 A 
HETATM   20  C   UNK     0      46.804  23.597  31.665  0.00  0.00     0.051 C 
HETATM   21  C   UNK     0      48.835  19.079  32.696  0.00  0.00     0.115 C 
HETATM   22  C   UNK     0      48.247  17.700  32.883  0.00  0.00     0.022 A 
HETATM   23  N   UNK     0      46.991  17.371  33.214  0.00  0.00    -0.361 N 
HETATM   24  C   UNK     0      46.868  16.031  33.127  0.00  0.00     0.021 A 
HETATM   25  C   UNK     0      48.076  15.483  32.741  0.00  0.00    -0.031 A 
HETATM   26  C   UNK     0      48.443  14.027  32.548  0.00  0.00     0.051 C 
HETATM   27  C   UNK     0      48.974  16.532  32.579  0.00  0.00    -0.027 A 
HETATM   28  C   UNK     0      45.611  15.200  33.317  0.00  0.00     0.115 C 
HETATM   29  H   UNK     0      43.987  17.618  32.879  0.00  0.00     0.165 HD
HETATM   30  H   UNK     0      44.788  18.586  29.727  0.00  0.00     0.165 HD
HETATM   31  H   UNK     0      46.899  19.007  30.457  0.00  0.00     0.165 HD
HETATM   32  H   UNK     0      46.191  18.079  33.554  0.00  0.00     0.165 HD
ENDROOT
BRANCH   6  33
HETATM   33  C   UNK     0      42.300  14.695  29.537  0.00  0.00     0.051 C 
BRANCH  33  34
HETATM   34  C   UNK     0      43.201  14.492  28.342  0.00  0.00     0.114 C 
BRANCH  34  35
HETATM   35  C   UNK     0      42.697  15.370  27.248  0.00  0.00     0.139 C 
HETATM   36  O   UNK     0      41.645  16.054  27.413  0.00  0.00    -0.650 OA
BRANCH  35  37
HETATM   37  O   UNK     0      43.340  15.482  26.021  0.00  0.00    -0.776 OA
HETATM   38  H   UNK     0      43.009  16.102  25.299  0.00  0.00     0.167 HD
ENDBRANCH  35  37
ENDBRANCH  34  35
ENDBRANCH  33  34
ENDBRANCH   6  33
BRANCH  27  39
HETATM   39  C   UNK     0      50.407  16.325  32.234  0.00  0.00     0.051 C 
BRANCH  39  40
HETATM   40  C   UNK     0      50.780  16.269  30.820  0.00  0.00     0.114 C 
BRANCH  40  41
HETATM   41  C   UNK     0      50.336  17.261  29.867  0.00  0.00     0.139 C 
HETATM   42  O   UNK     0      50.635  18.461  29.940  0.00  0.00    -0.650 OA
BRANCH  41  43
HETATM   43  O   UNK     0      49.511  16.855  28.780  0.00  0.00    -0.776 OA
HETATM   44  H   UNK     0      48.926  17.590  28.401  0.00  0.00     0.167 HD
ENDBRANCH  41  43
ENDBRANCH  40  41
ENDBRANCH  39  40
ENDBRANCH  27  39
BRANCH  11  45
HETATM   45  C   UNK     0      42.560  22.704  30.485  0.00  0.00     0.051 C 
BRANCH  45  46
HETATM   46  C   UNK     0      43.082  23.348  31.717  0.00  0.00     0.114 C 
BRANCH  46  47
HETATM   47  C   UNK     0      42.930  24.821  31.545  0.00  0.00     0.139 C 
HETATM   48  O   UNK     0      43.903  25.549  31.785  0.00  0.00    -0.650 OA
BRANCH  47  49
HETATM   49  O   UNK     0      41.738  25.360  31.133  0.00  0.00    -0.776 OA
HETATM   50  H   UNK     0      41.691  26.239  30.605  0.00  0.00     0.167 HD
ENDBRANCH  47  49
ENDBRANCH  46  47
ENDBRANCH  45  46
ENDBRANCH  11  45
BRANCH  18  51
HETATM   51  C   UNK     0      48.861  22.115  33.435  0.00  0.00     0.051 C 
BRANCH  51  52
HETATM   52  C   UNK     0      49.916  22.917  32.686  0.00  0.00     0.114 C 
BRANCH  52  53
HETATM   53  C   UNK     0      51.169  22.156  32.520  0.00  0.00     0.139 C 
HETATM   54  O   UNK     0      51.383  21.533  31.468  0.00  0.00    -0.650 OA
BRANCH  53  55
HETATM   55  O   UNK     0      52.094  22.140  33.536  0.00  0.00    -0.776 OA
HETATM   56  H   UNK     0      53.065  22.327  33.445  0.00  0.00     0.167 HD
ENDBRANCH  53  55
ENDBRANCH  52  53
ENDBRANCH  51  52
ENDBRANCH  18  51
TORSDOF 16
ENDMDL
MODEL 14
REMARK VINA RESULT:      -9.1      2.992      7.541
REMARK  16 active torsions:
REMARK  status: ('A' for Active; 'I' for Inactive)
REMARK    1  A    between atoms: C_6  and  C_7 
REMARK    2  A    between atoms: C_7  and  C_8 
REMARK    3  A    between atoms: C_8  and  C_9 
REMARK    4  A    between atoms: C_9  and  O_11 
REMARK    5  A    between atoms: C_16  and  C_17 
REMARK    6  A    between atoms: C_17  and  C_18 
REMARK    7  A    between atoms: C_18  and  C_19 
REMARK    8  A    between atoms: C_19  and  O_21 
REMARK    9  A    between atoms: C_28  and  C_29 
REMARK   10  A    between atoms: C_29  and  C_30 
REMARK   11  A    between atoms: C_30  and  C_31 
REMARK   12  A    between atoms: C_31  and  O_33 
REMARK   13  A    between atoms: C_42  and  C_43 
REMARK   14  A    between atoms: C_43  and  C_44 
REMARK   15  A    between atoms: C_44  and  C_45 
REMARK   16  A    between atoms: C_45  and  O_47 
ROOT
HETATM    1  C   UNK     0      40.013  14.288  66.474  0.00  0.00     0.051 C 
HETATM    2  C   UNK     0      39.024  14.594  65.368  0.00  0.00    -0.031 A 
HETATM    3  C   UNK     0      38.978  14.107  64.071  0.00  0.00     0.021 A 
HETATM    4  N   UNK     0      37.935  14.679  63.422  0.00  0.00    -0.361 N 
HETATM    5  C   UNK     0      37.312  15.513  64.280  0.00  0.00     0.022 A 
HETATM    6  C   UNK     0      37.969  15.486  65.506  0.00  0.00    -0.027 A 
HETATM    7  C   UNK     0      36.059  16.310  64.092  0.00  0.00     0.115 C 
HETATM    8  C   UNK     0      34.907  15.613  63.390  0.00  0.00     0.021 A 
HETATM    9  N   UNK     0      34.539  14.325  63.463  0.00  0.00    -0.361 N 
HETATM   10  C   UNK     0      33.519  14.130  62.600  0.00  0.00     0.022 A 
HETATM   11  C   UNK     0      33.215  15.328  61.961  0.00  0.00    -0.027 A 
HETATM   12  C   UNK     0      34.086  16.267  62.454  0.00  0.00    -0.031 A 
HETATM   13  C   UNK     0      34.122  17.723  62.048  0.00  0.00     0.051 C 
HETATM   14  C   UNK     0      32.829  12.801  62.306  0.00  0.00     0.115 C 
HETATM   15  C   UNK     0      33.756  11.737  61.741  0.00  0.00     0.021 A 
HETATM   16  N   UNK     0      34.871  11.235  62.305  0.00  0.00    -0.361 N 
HETATM   17  C   UNK     0      35.439  10.373  61.460  0.00  0.00     0.022 A 
HETATM   18  C   UNK     0      34.652  10.302  60.293  0.00  0.00    -0.027 A 
HETATM   19  C   UNK     0      33.600  11.160  60.483  0.00  0.00    -0.031 A 
HETATM   20  C   UNK     0      32.484  11.362  59.474  0.00  0.00     0.051 C 
HETATM   21  C   UNK     0      36.733   9.601  61.584  0.00  0.00     0.115 C 
HETATM   22  C   UNK     0      37.874  10.264  62.319  0.00  0.00     0.022 A 
HETATM   23  N   UNK     0      38.260  11.546  62.268  0.00  0.00    -0.361 N 
HETATM   24  C   UNK     0      39.225  11.734  63.191  0.00  0.00     0.021 A 
HETATM   25  C   UNK     0      39.473  10.543  63.845  0.00  0.00    -0.031 A 
HETATM   26  C   UNK     0      40.489  10.243  64.927  0.00  0.00     0.051 C 
HETATM   27  C   UNK     0      38.621   9.587  63.304  0.00  0.00    -0.027 A 
HETATM   28  C   UNK     0      39.906  13.038  63.570  0.00  0.00     0.115 C 
HETATM   29  H   UNK     0      37.672  14.520  62.351  0.00  0.00     0.165 HD
HETATM   30  H   UNK     0      34.965  13.561  64.159  0.00  0.00     0.165 HD
HETATM   31  H   UNK     0      35.239  11.458  63.340  0.00  0.00     0.165 HD
HETATM   32  H   UNK     0      37.885  12.320  61.549  0.00  0.00     0.165 HD
ENDROOT
BRANCH   6  33
HETATM   33  C   UNK     0      37.675  16.235  66.781  0.00  0.00     0.051 C 
BRANCH  33  34
HETATM   34  C   UNK     0      37.925  17.713  66.603  0.00  0.00     0.114 C 
BRANCH  34  35
HETATM   35  C   UNK     0      39.402  17.912  66.542  0.00  0.00     0.139 C 
HETATM   36  O   UNK     0      40.120  17.665  67.555  0.00  0.00    -0.650 OA
BRANCH  35  37
HETATM   37  O   UNK     0      40.051  18.365  65.400  0.00  0.00    -0.776 OA
HETATM   38  H   UNK     0      39.546  18.716  64.602  0.00  0.00     0.167 HD
ENDBRANCH  35  37
ENDBRANCH  34  35
ENDBRANCH  33  34
ENDBRANCH   6  33
BRANCH  27  39
HETATM   39  C   UNK     0      38.647   8.155  63.709  0.00  0.00     0.051 C 
BRANCH  39  40
HETATM   40  C   UNK     0      37.654   7.690  64.677  0.00  0.00     0.114 C 
BRANCH  40  41
HETATM   41  C   UNK     0      36.492   6.926  64.282  0.00  0.00     0.139 C 
HETATM   42  O   UNK     0      36.418   6.294  63.220  0.00  0.00    -0.650 OA
BRANCH  41  43
HETATM   43  O   UNK     0      35.363   6.889  65.149  0.00  0.00    -0.776 OA
HETATM   44  H   UNK     0      35.454   7.459  65.980  0.00  0.00     0.167 HD
ENDBRANCH  41  43
ENDBRANCH  40  41
ENDBRANCH  39  40
ENDBRANCH  27  39
BRANCH  11  45
HETATM   45  C   UNK     0      32.154  15.602  60.929  0.00  0.00     0.051 C 
BRANCH  45  46
HETATM   46  C   UNK     0      32.577  15.318  59.534  0.00  0.00     0.114 C 
BRANCH  46  47
HETATM   47  C   UNK     0      31.341  15.244  58.704  0.00  0.00     0.139 C 
HETATM   48  O   UNK     0      31.212  14.297  57.916  0.00  0.00    -0.650 OA
BRANCH  47  49
HETATM   49  O   UNK     0      30.366  16.204  58.809  0.00  0.00    -0.776 OA
HETATM   50  H   UNK     0      29.552  16.225  58.184  0.00  0.00     0.167 HD
ENDBRANCH  47  49
ENDBRANCH  46  47
ENDBRANCH  45  46
ENDBRANCH  11  45
BRANCH  18  51
HETATM   51  C   UNK     0      34.879   9.447  59.073  0.00  0.00     0.051 C 
BRANCH  51  52
HETATM   52  C   UNK     0      34.332   8.068  59.412  0.00  0.00     0.114 C 
BRANCH  52  53
HETATM   53  C   UNK     0      35.348   7.013  59.228  0.00  0.00     0.139 C 
HETATM   54  O   UNK     0      35.712   6.694  58.085  0.00  0.00    -0.650 OA
BRANCH  53  55
HETATM   55  O   UNK     0      35.884   6.387  60.327  0.00  0.00    -0.776 OA
HETATM   56  H   UNK     0      36.839   6.399  60.598  0.00  0.00     0.167 HD
ENDBRANCH  53  55
ENDBRANCH  52  53
ENDBRANCH  51  52
ENDBRANCH  18  51
TORSDOF 16
ENDMDL
MODEL 15
REMARK VINA RESULT:      -9.1     33.285     35.831
REMARK  16 active torsions:
REMARK  status: ('A' for Active; 'I' for Inactive)
REMARK    1  A    between atoms: C_6  and  C_7 
REMARK    2  A    between atoms: C_7  and  C_8 
REMARK    3  A    between atoms: C_8  and  C_9 
REMARK    4  A    between atoms: C_9  and  O_11 
REMARK    5  A    between atoms: C_16  and  C_17 
REMARK    6  A    between atoms: C_17  and  C_18 
REMARK    7  A    between atoms: C_18  and  C_19 
REMARK    8  A    between atoms: C_19  and  O_21 
REMARK    9  A    between atoms: C_28  and  C_29 
REMARK   10  A    between atoms: C_29  and  C_30 
REMARK   11  A    between atoms: C_30  and  C_31 
REMARK   12  A    between atoms: C_31  and  O_33 
REMARK   13  A    between atoms: C_42  and  C_43 
REMARK   14  A    between atoms: C_43  and  C_44 
REMARK   15  A    between atoms: C_44  and  C_45 
REMARK   16  A    between atoms: C_45  and  O_47 
ROOT
HETATM    1  C   UNK     0      42.233  13.806  30.767  0.00  0.00     0.051 C 
HETATM    2  C   UNK     0      42.256  15.273  31.146  0.00  0.00    -0.031 A 
HETATM    3  C   UNK     0      43.012  15.921  32.110  0.00  0.00     0.021 A 
HETATM    4  N   UNK     0      42.682  17.234  32.122  0.00  0.00    -0.361 N 
HETATM    5  C   UNK     0      41.738  17.439  31.180  0.00  0.00     0.022 A 
HETATM    6  C   UNK     0      41.446  16.232  30.552  0.00  0.00    -0.027 A 
HETATM    7  C   UNK     0      41.107  18.718  30.726  0.00  0.00     0.115 C 
HETATM    8  C   UNK     0      42.032  19.910  30.553  0.00  0.00     0.021 A 
HETATM    9  N   UNK     0      43.300  19.927  30.116  0.00  0.00    -0.361 N 
HETATM   10  C   UNK     0      43.760  21.193  30.213  0.00  0.00     0.022 A 
HETATM   11  C   UNK     0      42.757  22.015  30.718  0.00  0.00    -0.027 A 
HETATM   12  C   UNK     0      41.665  21.213  30.934  0.00  0.00    -0.031 A 
HETATM   13  C   UNK     0      40.332  21.679  31.475  0.00  0.00     0.051 C 
HETATM   14  C   UNK     0      45.174  21.666  29.886  0.00  0.00     0.115 C 
HETATM   15  C   UNK     0      46.253  21.011  30.732  0.00  0.00     0.021 A 
HETATM   16  N   UNK     0      46.528  19.697  30.840  0.00  0.00    -0.361 N 
HETATM   17  C   UNK     0      47.502  19.525  31.736  0.00  0.00     0.022 A 
HETATM   18  C   UNK     0      47.887  20.788  32.229  0.00  0.00    -0.027 A 
HETATM   19  C   UNK     0      47.099  21.710  31.591  0.00  0.00    -0.031 A 
HETATM   20  C   UNK     0      47.211  23.208  31.805  0.00  0.00     0.051 C 
HETATM   21  C   UNK     0      48.119  18.251  32.268  0.00  0.00     0.115 C 
HETATM   22  C   UNK     0      47.220  17.045  32.405  0.00  0.00     0.022 A 
HETATM   23  N   UNK     0      45.952  16.999  32.833  0.00  0.00    -0.361 N 
HETATM   24  C   UNK     0      45.490  15.745  32.654  0.00  0.00     0.021 A 
HETATM   25  C   UNK     0      46.488  14.962  32.107  0.00  0.00    -0.031 A 
HETATM   26  C   UNK     0      46.463  13.487  31.765  0.00  0.00     0.051 C 
HETATM   27  C   UNK     0      47.606  15.772  31.939  0.00  0.00    -0.027 A 
HETATM   28  C   UNK     0      44.084  15.228  32.904  0.00  0.00     0.115 C 
HETATM   29  H   UNK     0      43.089  18.000  32.822  0.00  0.00     0.165 HD
HETATM   30  H   UNK     0      43.859  19.057  29.691  0.00  0.00     0.165 HD
HETATM   31  H   UNK     0      46.058  18.877  30.236  0.00  0.00     0.165 HD
HETATM   32  H   UNK     0      45.384  17.841  33.306  0.00  0.00     0.165 HD
ENDROOT
BRANCH   6  33
HETATM   33  C   UNK     0      40.468  15.925  29.447  0.00  0.00     0.051 C 
BRANCH  33  34
HETATM   34  C   UNK     0      40.912  16.555  28.148  0.00  0.00     0.114 C 
BRANCH  34  35
HETATM   35  C   UNK     0      41.222  15.449  27.198  0.00  0.00     0.139 C 
HETATM   36  O   UNK     0      42.214  14.691  27.405  0.00  0.00    -0.650 OA
BRANCH  35  37
HETATM   37  O   UNK     0      40.457  15.196  26.066  0.00  0.00    -0.776 OA
HETATM   38  H   UNK     0      40.027  15.936  25.536  0.00  0.00     0.167 HD
ENDBRANCH  35  37
ENDBRANCH  34  35
ENDBRANCH  33  34
ENDBRANCH   6  33
BRANCH  27  39
HETATM   39  C   UNK     0      48.909  15.260  31.436  0.00  0.00     0.051 C 
BRANCH  39  40
HETATM   40  C   UNK     0      49.216  15.419  30.015  0.00  0.00     0.114 C 
BRANCH  40  41
HETATM   41  C   UNK     0      49.700  16.665  29.466  0.00  0.00     0.139 C 
HETATM   42  O   UNK     0      50.571  17.359  30.009  0.00  0.00    -0.650 OA
BRANCH  41  43
HETATM   43  O   UNK     0      49.158  17.136  28.237  0.00  0.00    -0.776 OA
HETATM   44  H   UNK     0      49.824  17.609  27.638  0.00  0.00     0.167 HD
ENDBRANCH  41  43
ENDBRANCH  40  41
ENDBRANCH  39  40
ENDBRANCH  27  39
BRANCH  11  45
HETATM   45  C   UNK     0      42.800  23.495  30.990  0.00  0.00     0.051 C 
BRANCH  45  46
HETATM   46  C   UNK     0      43.610  23.869  32.178  0.00  0.00     0.114 C 
BRANCH  46  47
HETATM   47  C   UNK     0      43.161  25.223  32.610  0.00  0.00     0.139 C 
HETATM   48  O   UNK     0      42.429  25.875  31.851  0.00  0.00    -0.650 OA
BRANCH  47  49
HETATM   49  O   UNK     0      43.550  25.740  33.820  0.00  0.00    -0.776 OA
HETATM   50  H   UNK     0      44.133  25.209  34.477  0.00  0.00     0.167 HD
ENDBRANCH  47  49
ENDBRANCH  46  47
ENDBRANCH  45  46
ENDBRANCH  11  45
BRANCH  18  51
HETATM   51  C   UNK     0      48.963  21.100  33.237  0.00  0.00     0.051 C 
BRANCH  51  52
HETATM   52  C   UNK     0      50.271  21.147  32.463  0.00  0.00     0.114 C 
BRANCH  52  53
HETATM   53  C   UNK     0      51.092  22.313  32.842  0.00  0.00     0.139 C 
HETATM   54  O   UNK     0      50.561  23.426  32.987  0.00  0.00    -0.650 OA
BRANCH  53  55
HETATM   55  O   UNK     0      52.445  22.161  33.028  0.00  0.00    -0.776 OA
HETATM   56  H   UNK     0      53.127  22.078  32.312  0.00  0.00     0.167 HD
ENDBRANCH  53  55
ENDBRANCH  52  53
ENDBRANCH  51  52
ENDBRANCH  18  51
TORSDOF 16
ENDMDL
MODEL 16
REMARK VINA RESULT:      -9.0     30.945     33.488
REMARK  16 active torsions:
REMARK  status: ('A' for Active; 'I' for Inactive)
REMARK    1  A    between atoms: C_6  and  C_7 
REMARK    2  A    between atoms: C_7  and  C_8 
REMARK    3  A    between atoms: C_8  and  C_9 
REMARK    4  A    between atoms: C_9  and  O_11 
REMARK    5  A    between atoms: C_16  and  C_17 
REMARK    6  A    between atoms: C_17  and  C_18 
REMARK    7  A    between atoms: C_18  and  C_19 
REMARK    8  A    between atoms: C_19  and  O_21 
REMARK    9  A    between atoms: C_28  and  C_29 
REMARK   10  A    between atoms: C_29  and  C_30 
REMARK   11  A    between atoms: C_30  and  C_31 
REMARK   12  A    between atoms: C_31  and  O_33 
REMARK   13  A    between atoms: C_42  and  C_43 
REMARK   14  A    between atoms: C_43  and  C_44 
REMARK   15  A    between atoms: C_44  and  C_45 
REMARK   16  A    between atoms: C_45  and  O_47 
ROOT
HETATM    1  C   UNK     0      47.423  20.698  31.183  0.00  0.00     0.051 C 
HETATM    2  C   UNK     0      47.735  20.038  32.511  0.00  0.00    -0.031 A 
HETATM    3  C   UNK     0      47.014  19.081  33.208  0.00  0.00     0.021 A 
HETATM    4  N   UNK     0      47.656  18.804  34.368  0.00  0.00    -0.361 N 
HETATM    5  C   UNK     0      48.775  19.557  34.421  0.00  0.00     0.022 A 
HETATM    6  C   UNK     0      48.853  20.343  33.276  0.00  0.00    -0.027 A 
HETATM    7  C   UNK     0      49.872  19.561  35.439  0.00  0.00     0.115 C 
HETATM    8  C   UNK     0      50.344  18.207  35.938  0.00  0.00     0.021 A 
HETATM    9  N   UNK     0      50.452  17.056  35.257  0.00  0.00    -0.361 N 
HETATM   10  C   UNK     0      50.824  16.090  36.123  0.00  0.00     0.022 A 
HETATM   11  C   UNK     0      50.968  16.635  37.395  0.00  0.00    -0.027 A 
HETATM   12  C   UNK     0      50.668  17.969  37.286  0.00  0.00    -0.031 A 
HETATM   13  C   UNK     0      50.696  18.968  38.421  0.00  0.00     0.051 C 
HETATM   14  C   UNK     0      51.005  14.610  35.799  0.00  0.00     0.115 C 
HETATM   15  C   UNK     0      49.741  13.931  35.294  0.00  0.00     0.021 A 
HETATM   16  N   UNK     0      49.008  14.259  34.214  0.00  0.00    -0.361 N 
HETATM   17  C   UNK     0      47.937  13.465  34.153  0.00  0.00     0.022 A 
HETATM   18  C   UNK     0      47.980  12.569  35.240  0.00  0.00    -0.027 A 
HETATM   19  C   UNK     0      49.115  12.871  35.946  0.00  0.00    -0.031 A 
HETATM   20  C   UNK     0      49.565  12.115  37.184  0.00  0.00     0.051 C 
HETATM   21  C   UNK     0      46.777  13.471  33.184  0.00  0.00     0.115 C 
HETATM   22  C   UNK     0      46.325  14.808  32.645  0.00  0.00     0.022 A 
HETATM   23  N   UNK     0      46.212  15.971  33.299  0.00  0.00    -0.361 N 
HETATM   24  C   UNK     0      45.917  16.934  32.403  0.00  0.00     0.021 A 
HETATM   25  C   UNK     0      45.827  16.375  31.142  0.00  0.00    -0.031 A 
HETATM   26  C   UNK     0      45.481  17.041  29.827  0.00  0.00     0.051 C 
HETATM   27  C   UNK     0      46.084  15.015  31.272  0.00  0.00    -0.027 A 
HETATM   28  C   UNK     0      45.782  18.426  32.652  0.00  0.00     0.115 C 
HETATM   29  H   UNK     0      47.294  18.108  35.160  0.00  0.00     0.165 HD
HETATM   30  H   UNK     0      50.315  16.932  34.155  0.00  0.00     0.165 HD
HETATM   31  H   UNK     0      49.276  15.037  33.452  0.00  0.00     0.165 HD
HETATM   32  H   UNK     0      46.297  16.116  34.407  0.00  0.00     0.165 HD
ENDROOT
BRANCH   6  33
HETATM   33  C   UNK     0      49.896  21.350  32.860  0.00  0.00     0.051 C 
BRANCH  33  34
HETATM   34  C   UNK     0      49.499  22.741  33.295  0.00  0.00     0.114 C 
BRANCH  34  35
HETATM   35  C   UNK     0      50.274  23.062  34.528  0.00  0.00     0.139 C 
HETATM   36  O   UNK     0      49.676  23.234  35.630  0.00  0.00    -0.650 OA
BRANCH  35  37
HETATM   37  O   UNK     0      51.658  23.183  34.532  0.00  0.00    -0.776 OA
HETATM   38  H   UNK     0      52.153  23.683  33.812  0.00  0.00     0.167 HD
ENDBRANCH  35  37
ENDBRANCH  34  35
ENDBRANCH  33  34
ENDBRANCH   6  33
BRANCH  27  39
HETATM   39  C   UNK     0      46.008  14.063  30.130  0.00  0.00     0.051 C 
BRANCH  39  40
HETATM   40  C   UNK     0      44.783  13.283  29.958  0.00  0.00     0.114 C 
BRANCH  40  41
HETATM   41  C   UNK     0      43.577  13.855  29.402  0.00  0.00     0.139 C 
HETATM   42  O   UNK     0      42.486  13.852  29.988  0.00  0.00    -0.650 OA
BRANCH  41  43
HETATM   43  O   UNK     0      43.628  14.457  28.113  0.00  0.00    -0.776 OA
HETATM   44  H   UNK     0      43.415  15.447  28.104  0.00  0.00     0.167 HD
ENDBRANCH  41  43
ENDBRANCH  40  41
ENDBRANCH  39  40
ENDBRANCH  27  39
BRANCH  11  45
HETATM   45  C   UNK     0      51.374  15.951  38.673  0.00  0.00     0.051 C 
BRANCH  45  46
HETATM   46  C   UNK     0      52.834  15.986  38.943  0.00  0.00     0.114 C 
BRANCH  46  47
HETATM   47  C   UNK     0      53.364  14.618  38.682  0.00  0.00     0.139 C 
HETATM   48  O   UNK     0      54.186  14.466  37.767  0.00  0.00    -0.650 OA
BRANCH  47  49
HETATM   49  O   UNK     0      52.951  13.548  39.435  0.00  0.00    -0.776 OA
HETATM   50  H   UNK     0      52.896  13.592  40.460  0.00  0.00     0.167 HD
ENDBRANCH  47  49
ENDBRANCH  46  47
ENDBRANCH  45  46
ENDBRANCH  11  45
BRANCH  18  51
HETATM   51  C   UNK     0      47.003  11.472  35.575  0.00  0.00     0.051 C 
BRANCH  51  52
HETATM   52  C   UNK     0      47.103  10.454  34.450  0.00  0.00     0.114 C 
BRANCH  52  53
HETATM   53  C   UNK     0      47.685   9.179  34.912  0.00  0.00     0.139 C 
HETATM   54  O   UNK     0      48.816   9.161  35.424  0.00  0.00    -0.650 OA
BRANCH  53  55
HETATM   55  O   UNK     0      46.969   8.015  34.770  0.00  0.00    -0.776 OA
HETATM   56  H   UNK     0      46.562   7.486  35.506  0.00  0.00     0.167 HD
ENDBRANCH  53  55
ENDBRANCH  52  53
ENDBRANCH  51  52
ENDBRANCH  18  51
TORSDOF 16
ENDMDL
MODEL 17
REMARK VINA RESULT:      -8.9      3.537      8.274
REMARK  16 active torsions:
REMARK  status: ('A' for Active; 'I' for Inactive)
REMARK    1  A    between atoms: C_6  and  C_7 
REMARK    2  A    between atoms: C_7  and  C_8 
REMARK    3  A    between atoms: C_8  and  C_9 
REMARK    4  A    between atoms: C_9  and  O_11 
REMARK    5  A    between atoms: C_16  and  C_17 
REMARK    6  A    between atoms: C_17  and  C_18 
REMARK    7  A    between atoms: C_18  and  C_19 
REMARK    8  A    between atoms: C_19  and  O_21 
REMARK    9  A    between atoms: C_28  and  C_29 
REMARK   10  A    between atoms: C_29  and  C_30 
REMARK   11  A    between atoms: C_30  and  C_31 
REMARK   12  A    between atoms: C_31  and  O_33 
REMARK   13  A    between atoms: C_42  and  C_43 
REMARK   14  A    between atoms: C_43  and  C_44 
REMARK   15  A    between atoms: C_44  and  C_45 
REMARK   16  A    between atoms: C_45  and  O_47 
ROOT
HETATM    1  C   UNK     0      31.155  13.535  57.778  0.00  0.00     0.051 C 
HETATM    2  C   UNK     0      31.709  13.829  59.157  0.00  0.00    -0.031 A 
HETATM    3  C   UNK     0      31.948  12.963  60.212  0.00  0.00     0.021 A 
HETATM    4  N   UNK     0      32.418  13.672  61.266  0.00  0.00    -0.361 N 
HETATM    5  C   UNK     0      32.493  14.969  60.902  0.00  0.00     0.022 A 
HETATM    6  C   UNK     0      32.054  15.103  59.590  0.00  0.00    -0.027 A 
HETATM    7  C   UNK     0      33.032  16.141  61.661  0.00  0.00     0.115 C 
HETATM    8  C   UNK     0      34.327  15.922  62.423  0.00  0.00     0.021 A 
HETATM    9  N   UNK     0      35.380  15.163  62.082  0.00  0.00    -0.361 N 
HETATM   10  C   UNK     0      36.266  15.192  63.100  0.00  0.00     0.022 A 
HETATM   11  C   UNK     0      35.774  16.000  64.122  0.00  0.00    -0.027 A 
HETATM   12  C   UNK     0      34.554  16.463  63.701  0.00  0.00    -0.031 A 
HETATM   13  C   UNK     0      33.650  17.386  64.489  0.00  0.00     0.051 C 
HETATM   14  C   UNK     0      37.581  14.421  63.174  0.00  0.00     0.115 C 
HETATM   15  C   UNK     0      37.413  12.911  63.117  0.00  0.00     0.021 A 
HETATM   16  N   UNK     0      36.837  12.185  62.141  0.00  0.00    -0.361 N 
HETATM   17  C   UNK     0      36.825  10.899  62.500  0.00  0.00     0.022 A 
HETATM   18  C   UNK     0      37.431  10.781  63.767  0.00  0.00    -0.027 A 
HETATM   19  C   UNK     0      37.796  12.048  64.142  0.00  0.00    -0.031 A 
HETATM   20  C   UNK     0      38.519  12.369  65.437  0.00  0.00     0.051 C 
HETATM   21  C   UNK     0      36.234   9.699  61.796  0.00  0.00     0.115 C 
HETATM   22  C   UNK     0      34.969   9.912  60.998  0.00  0.00     0.022 A 
HETATM   23  N   UNK     0      33.907  10.665  61.311  0.00  0.00    -0.361 N 
HETATM   24  C   UNK     0      33.074  10.684  60.251  0.00  0.00     0.021 A 
HETATM   25  C   UNK     0      33.607   9.916  59.234  0.00  0.00    -0.031 A 
HETATM   26  C   UNK     0      33.026   9.601  57.871  0.00  0.00     0.051 C 
HETATM   27  C   UNK     0      34.820   9.411  59.689  0.00  0.00    -0.027 A 
HETATM   28  C   UNK     0      31.786  11.474  60.094  0.00  0.00     0.115 C 
HETATM   29  H   UNK     0      32.657  13.256  62.273  0.00  0.00     0.165 HD
HETATM   30  H   UNK     0      35.524  14.645  61.102  0.00  0.00     0.165 HD
HETATM   31  H   UNK     0      36.474  12.580  61.157  0.00  0.00     0.165 HD
HETATM   32  H   UNK     0      33.714  11.156  62.300  0.00  0.00     0.165 HD
ENDROOT
BRANCH   6  33
HETATM   33  C   UNK     0      31.936  16.334  58.727  0.00  0.00     0.051 C 
BRANCH  33  34
HETATM   34  C   UNK     0      33.300  16.808  58.281  0.00  0.00     0.114 C 
BRANCH  34  35
HETATM   35  C   UNK     0      33.369  18.275  58.538  0.00  0.00     0.139 C 
HETATM   36  O   UNK     0      32.739  19.082  57.794  0.00  0.00    -0.650 OA
BRANCH  35  37
HETATM   37  O   UNK     0      34.107  18.819  59.582  0.00  0.00    -0.776 OA
HETATM   38  H   UNK     0      34.970  18.407  59.898  0.00  0.00     0.167 HD
ENDBRANCH  35  37
ENDBRANCH  34  35
ENDBRANCH  33  34
ENDBRANCH   6  33
BRANCH  27  39
HETATM   39  C   UNK     0      35.658   8.474  58.891  0.00  0.00     0.051 C 
BRANCH  39  40
HETATM   40  C   UNK     0      35.345   7.047  58.943  0.00  0.00     0.114 C 
BRANCH  40  41
HETATM   41  C   UNK     0      36.202   6.093  59.611  0.00  0.00     0.139 C 
HETATM   42  O   UNK     0      36.143   4.871  59.421  0.00  0.00    -0.650 OA
BRANCH  41  43
HETATM   43  O   UNK     0      37.170   6.567  60.541  0.00  0.00    -0.776 OA
HETATM   44  H   UNK     0      36.853   6.585  61.503  0.00  0.00     0.167 HD
ENDBRANCH  41  43
ENDBRANCH  40  41
ENDBRANCH  39  40
ENDBRANCH  27  39
BRANCH  11  45
HETATM   45  C   UNK     0      36.410  16.338  65.443  0.00  0.00     0.051 C 
BRANCH  45  46
HETATM   46  C   UNK     0      37.737  16.994  65.327  0.00  0.00     0.114 C 
BRANCH  46  47
HETATM   47  C   UNK     0      37.550  18.434  65.668  0.00  0.00     0.139 C 
HETATM   48  O   UNK     0      36.398  18.858  65.834  0.00  0.00    -0.650 OA
BRANCH  47  49
HETATM   49  O   UNK     0      38.629  19.272  65.795  0.00  0.00    -0.776 OA
HETATM   50  H   UNK     0      39.234  19.260  66.624  0.00  0.00     0.167 HD
ENDBRANCH  47  49
ENDBRANCH  46  47
ENDBRANCH  45  46
ENDBRANCH  11  45
BRANCH  18  51
HETATM   51  C   UNK     0      37.668   9.526  64.566  0.00  0.00     0.051 C 
BRANCH  51  52
HETATM   52  C   UNK     0      38.980   8.942  64.064  0.00  0.00     0.114 C 
BRANCH  52  53
HETATM   53  C   UNK     0      40.083   9.168  65.017  0.00  0.00     0.139 C 
HETATM   54  O   UNK     0      39.982   8.776  66.190  0.00  0.00    -0.650 OA
BRANCH  53  55
HETATM   55  O   UNK     0      41.220   9.818  64.599  0.00  0.00    -0.776 OA
HETATM   56  H   UNK     0      42.081   9.861  65.090  0.00  0.00     0.167 HD
ENDBRANCH  53  55
ENDBRANCH  52  53
ENDBRANCH  51  52
ENDBRANCH  18  51
TORSDOF 16
ENDMDL
MODEL 18
REMARK VINA RESULT:      -8.9     31.953     34.491
REMARK  16 active torsions:
REMARK  status: ('A' for Active; 'I' for Inactive)
REMARK    1  A    between atoms: C_6  and  C_7 
REMARK    2  A    between atoms: C_7  and  C_8 
REMARK    3  A    between atoms: C_8  and  C_9 
REMARK    4  A    between atoms: C_9  and  O_11 
REMARK    5  A    between atoms: C_16  and  C_17 
REMARK    6  A    between atoms: C_17  and  C_18 
REMARK    7  A    between atoms: C_18  and  C_19 
REMARK    8  A    between atoms: C_19  and  O_21 
REMARK    9  A    between atoms: C_28  and  C_29 
REMARK   10  A    between atoms: C_29  and  C_30 
REMARK   11  A    between atoms: C_30  and  C_31 
REMARK   12  A    between atoms: C_31  and  O_33 
REMARK   13  A    between atoms: C_42  and  C_43 
REMARK   14  A    between atoms: C_43  and  C_44 
REMARK   15  A    between atoms: C_44  and  C_45 
REMARK   16  A    between atoms: C_45  and  O_47 
ROOT
HETATM    1  C   UNK     0      49.943  19.299  35.362  0.00  0.00     0.051 C 
HETATM    2  C   UNK     0      49.239  17.962  35.244  0.00  0.00    -0.031 A 
HETATM    3  C   UNK     0      47.903  17.690  34.995  0.00  0.00     0.021 A 
HETATM    4  N   UNK     0      47.716  16.349  35.009  0.00  0.00    -0.361 N 
HETATM    5  C   UNK     0      48.905  15.760  35.252  0.00  0.00     0.022 A 
HETATM    6  C   UNK     0      49.879  16.741  35.407  0.00  0.00    -0.027 A 
HETATM    7  C   UNK     0      49.260  14.306  35.276  0.00  0.00     0.115 C 
HETATM    8  C   UNK     0      48.665  13.441  34.179  0.00  0.00     0.021 A 
HETATM    9  N   UNK     0      48.428  13.761  32.898  0.00  0.00    -0.361 N 
HETATM   10  C   UNK     0      47.806  12.716  32.313  0.00  0.00     0.022 A 
HETATM   11  C   UNK     0      47.646  11.691  33.240  0.00  0.00    -0.027 A 
HETATM   12  C   UNK     0      48.185  12.141  34.418  0.00  0.00    -0.031 A 
HETATM   13  C   UNK     0      48.241  11.357  35.710  0.00  0.00     0.051 C 
HETATM   14  C   UNK     0      47.291  12.661  30.877  0.00  0.00     0.115 C 
HETATM   15  C   UNK     0      46.233  13.707  30.562  0.00  0.00     0.021 A 
HETATM   16  N   UNK     0      46.347  15.045  30.658  0.00  0.00    -0.361 N 
HETATM   17  C   UNK     0      45.174  15.607  30.359  0.00  0.00     0.022 A 
HETATM   18  C   UNK     0      44.254  14.587  30.044  0.00  0.00    -0.027 A 
HETATM   19  C   UNK     0      44.931  13.402  30.174  0.00  0.00    -0.031 A 
HETATM   20  C   UNK     0      44.316  12.044  29.889  0.00  0.00     0.051 C 
HETATM   21  C   UNK     0      44.757  17.060  30.387  0.00  0.00     0.115 C 
HETATM   22  C   UNK     0      45.375  17.943  31.445  0.00  0.00     0.022 A 
HETATM   23  N   UNK     0      45.627  17.649  32.728  0.00  0.00    -0.361 N 
HETATM   24  C   UNK     0      46.316  18.674  33.270  0.00  0.00     0.021 A 
HETATM   25  C   UNK     0      46.503  19.656  32.316  0.00  0.00    -0.031 A 
HETATM   26  C   UNK     0      47.180  21.004  32.455  0.00  0.00     0.051 C 
HETATM   27  C   UNK     0      45.910  19.211  31.140  0.00  0.00    -0.027 A 
HETATM   28  C   UNK     0      46.903  18.763  34.668  0.00  0.00     0.115 C 
HETATM   29  H   UNK     0      46.737  15.830  34.885  0.00  0.00     0.165 HD
HETATM   30  H   UNK     0      48.743  14.705  32.390  0.00  0.00     0.165 HD
HETATM   31  H   UNK     0      47.287  15.608  30.895  0.00  0.00     0.165 HD
HETATM   32  H   UNK     0      45.282  16.734  33.275  0.00  0.00     0.165 HD
ENDROOT
BRANCH   6  33
HETATM   33  C   UNK     0      51.353  16.606  35.698  0.00  0.00     0.051 C 
BRANCH  33  34
HETATM   34  C   UNK     0      51.591  16.408  37.176  0.00  0.00     0.114 C 
BRANCH  34  35
HETATM   35  C   UNK     0      52.315  15.115  37.342  0.00  0.00     0.139 C 
HETATM   36  O   UNK     0      51.733  14.122  37.868  0.00  0.00    -0.650 OA
BRANCH  35  37
HETATM   37  O   UNK     0      53.632  14.936  36.936  0.00  0.00    -0.776 OA
HETATM   38  H   UNK     0      54.197  14.176  37.277  0.00  0.00     0.167 HD
ENDBRANCH  35  37
ENDBRANCH  34  35
ENDBRANCH  33  34
ENDBRANCH   6  33
BRANCH  27  39
HETATM   39  C   UNK     0      45.846  20.035  29.902  0.00  0.00     0.051 C 
BRANCH  39  40
HETATM   40  C   UNK     0      44.776  21.025  29.782  0.00  0.00     0.114 C 
BRANCH  40  41
HETATM   41  C   UNK     0      43.386  20.686  29.988  0.00  0.00     0.139 C 
HETATM   42  O   UNK     0      42.683  21.192  30.873  0.00  0.00    -0.650 OA
BRANCH  41  43
HETATM   43  O   UNK     0      42.776  19.721  29.137  0.00  0.00    -0.776 OA
HETATM   44  H   UNK     0      42.829  18.769  29.479  0.00  0.00     0.167 HD
ENDBRANCH  41  43
ENDBRANCH  40  41
ENDBRANCH  39  40
ENDBRANCH  27  39
BRANCH  11  45
HETATM   45  C   UNK     0      47.019  10.336  33.048  0.00  0.00     0.051 C 
BRANCH  45  46
HETATM   46  C   UNK     0      47.997   9.244  32.809  0.00  0.00     0.114 C 
BRANCH  46  47
HETATM   47  C   UNK     0      47.956   8.346  33.999  0.00  0.00     0.139 C 
HETATM   48  O   UNK     0      49.022   7.883  34.428  0.00  0.00    -0.650 OA
BRANCH  47  49
HETATM   49  O   UNK     0      46.765   8.038  34.606  0.00  0.00    -0.776 OA
HETATM   50  H   UNK     0      45.876   8.033  34.092  0.00  0.00     0.167 HD
ENDBRANCH  47  49
ENDBRANCH  46  47
ENDBRANCH  45  46
ENDBRANCH  11  45
BRANCH  18  51
HETATM   51  C   UNK     0      42.815  14.735  29.622  0.00  0.00     0.051 C 
BRANCH  51  52
HETATM   52  C   UNK     0      42.801  14.608  28.106  0.00  0.00     0.114 C 
BRANCH  52  53
HETATM   53  C   UNK     0      42.101  15.738  27.466  0.00  0.00     0.139 C 
HETATM   54  O   UNK     0      42.237  16.888  27.915  0.00  0.00    -0.650 OA
BRANCH  53  55
HETATM   55  O   UNK     0      41.297  15.510  26.376  0.00  0.00    -0.776 OA
HETATM   56  H   UNK     0      40.414  15.930  26.204  0.00  0.00     0.167 HD
ENDBRANCH  53  55
ENDBRANCH  52  53
ENDBRANCH  51  52
ENDBRANCH  18  51
TORSDOF 16
ENDMDL
MODEL 19
REMARK VINA RESULT:      -8.9     31.598     34.702
REMARK  16 active torsions:
REMARK  status: ('A' for Active; 'I' for Inactive)
REMARK    1  A    between atoms: C_6  and  C_7 
REMARK    2  A    between atoms: C_7  and  C_8 
REMARK    3  A    between atoms: C_8  and  C_9 
REMARK    4  A    between atoms: C_9  and  O_11 
REMARK    5  A    between atoms: C_16  and  C_17 
REMARK    6  A    between atoms: C_17  and  C_18 
REMARK    7  A    between atoms: C_18  and  C_19 
REMARK    8  A    between atoms: C_19  and  O_21 
REMARK    9  A    between atoms: C_28  and  C_29 
REMARK   10  A    between atoms: C_29  and  C_30 
REMARK   11  A    between atoms: C_30  and  C_31 
REMARK   12  A    between atoms: C_31  and  O_33 
REMARK   13  A    between atoms: C_42  and  C_43 
REMARK   14  A    between atoms: C_43  and  C_44 
REMARK   15  A    between atoms: C_44  and  C_45 
REMARK   16  A    between atoms: C_45  and  O_47 
ROOT
HETATM    1  C   UNK     0      44.849  21.052  29.936  0.00  0.00     0.051 C 
HETATM    2  C   UNK     0      45.248  19.598  30.085  0.00  0.00    -0.031 A 
HETATM    3  C   UNK     0      46.499  19.048  30.316  0.00  0.00     0.021 A 
HETATM    4  N   UNK     0      46.389  17.698  30.346  0.00  0.00    -0.361 N 
HETATM    5  C   UNK     0      45.093  17.377  30.149  0.00  0.00     0.022 A 
HETATM    6  C   UNK     0      44.352  18.541  29.980  0.00  0.00    -0.027 A 
HETATM    7  C   UNK     0      44.429  16.036  30.184  0.00  0.00     0.115 C 
HETATM    8  C   UNK     0      44.852  15.095  31.298  0.00  0.00     0.021 A 
HETATM    9  N   UNK     0      45.190  15.393  32.562  0.00  0.00    -0.361 N 
HETATM   10  C   UNK     0      45.585  14.255  33.171  0.00  0.00     0.022 A 
HETATM   11  C   UNK     0      45.491  13.193  32.277  0.00  0.00    -0.027 A 
HETATM   12  C   UNK     0      45.030  13.714  31.096  0.00  0.00    -0.031 A 
HETATM   13  C   UNK     0      44.767  12.923  29.834  0.00  0.00     0.051 C 
HETATM   14  C   UNK     0      46.116  14.133  34.596  0.00  0.00     0.115 C 
HETATM   15  C   UNK     0      47.385  14.931  34.852  0.00  0.00     0.021 A 
HETATM   16  N   UNK     0      47.563  16.257  34.711  0.00  0.00    -0.361 N 
HETATM   17  C   UNK     0      48.839  16.558  34.964  0.00  0.00     0.022 A 
HETATM   18  C   UNK     0      49.522  15.371  35.296  0.00  0.00    -0.027 A 
HETATM   19  C   UNK     0      48.600  14.359  35.223  0.00  0.00    -0.031 A 
HETATM   20  C   UNK     0      48.912  12.909  35.542  0.00  0.00     0.051 C 
HETATM   21  C   UNK     0      49.561  17.883  34.876  0.00  0.00     0.115 C 
HETATM   22  C   UNK     0      49.121  18.847  33.800  0.00  0.00     0.022 A 
HETATM   23  N   UNK     0      48.775  18.577  32.534  0.00  0.00    -0.361 N 
HETATM   24  C   UNK     0      48.311  19.711  31.971  0.00  0.00     0.021 A 
HETATM   25  C   UNK     0      48.369  20.738  32.893  0.00  0.00    -0.031 A 
HETATM   26  C   UNK     0      47.999  22.197  32.720  0.00  0.00     0.051 C 
HETATM   27  C   UNK     0      48.884  20.210  34.071  0.00  0.00    -0.027 A 
HETATM   28  C   UNK     0      47.718  19.884  30.584  0.00  0.00     0.115 C 
HETATM   29  H   UNK     0      47.233  16.981  30.467  0.00  0.00     0.165 HD
HETATM   30  H   UNK     0      45.103  16.399  33.043  0.00  0.00     0.165 HD
HETATM   31  H   UNK     0      46.762  17.005  34.473  0.00  0.00     0.165 HD
HETATM   32  H   UNK     0      48.896  17.592  32.013  0.00  0.00     0.165 HD
ENDROOT
BRANCH   6  33
HETATM   33  C   UNK     0      42.877  18.724  29.726  0.00  0.00     0.051 C 
BRANCH  33  34
HETATM   34  C   UNK     0      42.125  18.875  31.027  0.00  0.00     0.114 C 
BRANCH  34  35
HETATM   35  C   UNK     0      41.329  17.629  31.229  0.00  0.00     0.139 C 
HETATM   36  O   UNK     0      41.576  16.868  32.209  0.00  0.00    -0.650 OA
BRANCH  35  37
HETATM   37  O   UNK     0      40.301  17.251  30.375  0.00  0.00    -0.776 OA
HETATM   38  H   UNK     0      39.542  17.871  30.143  0.00  0.00     0.167 HD
ENDBRANCH  35  37
ENDBRANCH  34  35
ENDBRANCH  33  34
ENDBRANCH   6  33
BRANCH  27  39
HETATM   39  C   UNK     0      49.161  21.037  35.277  0.00  0.00     0.051 C 
BRANCH  39  40
HETATM   40  C   UNK     0      50.552  21.368  35.587  0.00  0.00     0.114 C 
BRANCH  40  41
HETATM   41  C   UNK     0      51.271  22.409  34.887  0.00  0.00     0.139 C 
HETATM   42  O   UNK     0      50.726  23.412  34.407  0.00  0.00    -0.650 OA
BRANCH  41  43
HETATM   43  O   UNK     0      52.681  22.290  34.732  0.00  0.00    -0.776 OA
HETATM   44  H   UNK     0      53.222  22.848  35.382  0.00  0.00     0.167 HD
ENDBRANCH  41  43
ENDBRANCH  40  41
ENDBRANCH  39  40
ENDBRANCH  27  39
BRANCH  11  45
HETATM   45  C   UNK     0      45.813  11.740  32.504  0.00  0.00     0.051 C 
BRANCH  45  46
HETATM   46  C   UNK     0      47.245  11.399  32.309  0.00  0.00     0.114 C 
BRANCH  46  47
HETATM   47  C   UNK     0      47.553  10.252  33.211  0.00  0.00     0.139 C 
HETATM   48  O   UNK     0      46.989  10.198  34.313  0.00  0.00    -0.650 OA
BRANCH  47  49
HETATM   49  O   UNK     0      48.443   9.279  32.832  0.00  0.00    -0.776 OA
HETATM   50  H   UNK     0      48.136   8.396  32.408  0.00  0.00     0.167 HD
ENDBRANCH  47  49
ENDBRANCH  46  47
ENDBRANCH  45  46
ENDBRANCH  11  45
BRANCH  18  51
HETATM   51  C   UNK     0      50.970  15.213  35.682  0.00  0.00     0.051 C 
BRANCH  51  52
HETATM   52  C   UNK     0      50.982  14.891  37.169  0.00  0.00     0.114 C 
BRANCH  52  53
HETATM   53  C   UNK     0      51.210  16.096  37.990  0.00  0.00     0.139 C 
HETATM   54  O   UNK     0      51.774  17.086  37.497  0.00  0.00    -0.650 OA
BRANCH  53  55
HETATM   55  O   UNK     0      50.799  16.113  39.301  0.00  0.00    -0.776 OA
HETATM   56  H   UNK     0      49.922  16.438  39.633  0.00  0.00     0.167 HD
ENDBRANCH  53  55
ENDBRANCH  52  53
ENDBRANCH  51  52
ENDBRANCH  18  51
TORSDOF 16
ENDMDL
MODEL 20
REMARK VINA RESULT:      -8.8     32.021     34.574
REMARK  16 active torsions:
REMARK  status: ('A' for Active; 'I' for Inactive)
REMARK    1  A    between atoms: C_6  and  C_7 
REMARK    2  A    between atoms: C_7  and  C_8 
REMARK    3  A    between atoms: C_8  and  C_9 
REMARK    4  A    between atoms: C_9  and  O_11 
REMARK    5  A    between atoms: C_16  and  C_17 
REMARK    6  A    between atoms: C_17  and  C_18 
REMARK    7  A    between atoms: C_18  and  C_19 
REMARK    8  A    between atoms: C_19  and  O_21 
REMARK    9  A    between atoms: C_28  and  C_29 
REMARK   10  A    between atoms: C_29  and  C_30 
REMARK   11  A    between atoms: C_30  and  C_31 
REMARK   12  A    between atoms: C_31  and  O_33 
REMARK   13  A    between atoms: C_42  and  C_43 
REMARK   14  A    between atoms: C_43  and  C_44 
REMARK   15  A    between atoms: C_44  and  C_45 
REMARK   16  A    between atoms: C_45  and  O_47 
ROOT
HETATM    1  C   UNK     0      43.129  13.781  30.631  0.00  0.00     0.051 C 
HETATM    2  C   UNK     0      43.466  15.228  30.928  0.00  0.00    -0.031 A 
HETATM    3  C   UNK     0      43.904  15.805  32.109  0.00  0.00     0.021 A 
HETATM    4  N   UNK     0      44.050  17.138  31.922  0.00  0.00    -0.361 N 
HETATM    5  C   UNK     0      43.724  17.422  30.644  0.00  0.00     0.022 A 
HETATM    6  C   UNK     0      43.351  16.250  29.994  0.00  0.00    -0.027 A 
HETATM    7  C   UNK     0      43.804  18.723  29.907  0.00  0.00     0.115 C 
HETATM    8  C   UNK     0      45.048  19.562  30.140  0.00  0.00     0.021 A 
HETATM    9  N   UNK     0      46.309  19.150  30.338  0.00  0.00    -0.361 N 
HETATM   10  C   UNK     0      47.070  20.236  30.593  0.00  0.00     0.022 A 
HETATM   11  C   UNK     0      46.277  21.380  30.549  0.00  0.00    -0.027 A 
HETATM   12  C   UNK     0      45.002  20.962  30.263  0.00  0.00    -0.031 A 
HETATM   13  C   UNK     0      43.800  21.867  30.112  0.00  0.00     0.051 C 
HETATM   14  C   UNK     0      48.556  20.235  30.940  0.00  0.00     0.115 C 
HETATM   15  C   UNK     0      48.891  19.471  32.211  0.00  0.00     0.021 A 
HETATM   16  N   UNK     0      48.646  18.174  32.478  0.00  0.00    -0.361 N 
HETATM   17  C   UNK     0      49.028  17.905  33.728  0.00  0.00     0.022 A 
HETATM   18  C   UNK     0      49.556  19.079  34.300  0.00  0.00    -0.027 A 
HETATM   19  C   UNK     0      49.465  20.053  33.339  0.00  0.00    -0.031 A 
HETATM   20  C   UNK     0      49.959  21.475  33.529  0.00  0.00     0.051 C 
HETATM   21  C   UNK     0      48.905  16.628  34.528  0.00  0.00     0.115 C 
HETATM   22  C   UNK     0      47.694  15.760  34.275  0.00  0.00     0.022 A 
HETATM   23  N   UNK     0      46.427  16.143  34.071  0.00  0.00    -0.361 N 
HETATM   24  C   UNK     0      45.703  15.054  33.742  0.00  0.00     0.021 A 
HETATM   25  C   UNK     0      46.522  13.941  33.745  0.00  0.00    -0.031 A 
HETATM   26  C   UNK     0      46.164  12.494  33.480  0.00  0.00     0.051 C 
HETATM   27  C   UNK     0      47.801  14.368  34.084  0.00  0.00    -0.027 A 
HETATM   28  C   UNK     0      44.242  14.998  33.331  0.00  0.00     0.115 C 
HETATM   29  H   UNK     0      44.345  17.875  32.704  0.00  0.00     0.165 HD
HETATM   30  H   UNK     0      46.676  18.099  30.249  0.00  0.00     0.165 HD
HETATM   31  H   UNK     0      48.239  17.421  31.754  0.00  0.00     0.165 HD
HETATM   32  H   UNK     0      46.022  17.181  34.199  0.00  0.00     0.165 HD
ENDROOT
BRANCH   6  33
HETATM   33  C   UNK     0      42.897  16.031  28.573  0.00  0.00     0.051 C 
BRANCH  33  34
HETATM   34  C   UNK     0      41.400  16.196  28.458  0.00  0.00     0.114 C 
BRANCH  34  35
HETATM   35  C   UNK     0      40.994  15.671  27.123  0.00  0.00     0.139 C 
HETATM   36  O   UNK     0      39.795  15.324  26.913  0.00  0.00    -0.650 OA
BRANCH  35  37
HETATM   37  O   UNK     0      41.887  15.539  26.067  0.00  0.00    -0.776 OA
HETATM   38  H   UNK     0      42.724  14.985  26.140  0.00  0.00     0.167 HD
ENDBRANCH  35  37
ENDBRANCH  34  35
ENDBRANCH  33  34
ENDBRANCH   6  33
BRANCH  27  39
HETATM   39  C   UNK     0      48.947  13.435  34.258  0.00  0.00     0.051 C 
BRANCH  39  40
HETATM   40  C   UNK     0      49.312  13.030  35.615  0.00  0.00     0.114 C 
BRANCH  40  41
HETATM   41  C   UNK     0      48.466  12.175  36.418  0.00  0.00     0.139 C 
HETATM   42  O   UNK     0      48.500  10.938  36.367  0.00  0.00    -0.650 OA
BRANCH  41  43
HETATM   43  O   UNK     0      47.539  12.770  37.319  0.00  0.00    -0.776 OA
HETATM   44  H   UNK     0      46.916  13.447  36.894  0.00  0.00     0.167 HD
ENDBRANCH  41  43
ENDBRANCH  40  41
ENDBRANCH  39  40
ENDBRANCH  27  39
BRANCH  11  45
HETATM   45  C   UNK     0      46.682  22.814  30.760  0.00  0.00     0.051 C 
BRANCH  45  46
HETATM   46  C   UNK     0      46.667  23.245  32.181  0.00  0.00     0.114 C 
BRANCH  46  47
HETATM   47  C   UNK     0      45.675  24.352  32.298  0.00  0.00     0.139 C 
HETATM   48  O   UNK     0      45.072  24.496  33.370  0.00  0.00    -0.650 OA
BRANCH  47  49
HETATM   49  O   UNK     0      45.432  25.191  31.240  0.00  0.00    -0.776 OA
HETATM   50  H   UNK     0      45.928  26.083  31.127  0.00  0.00     0.167 HD
ENDBRANCH  47  49
ENDBRANCH  46  47
ENDBRANCH  45  46
ENDBRANCH  11  45
BRANCH  18  51
HETATM   51  C   UNK     0      50.135  19.259  35.679  0.00  0.00     0.051 C 
BRANCH  51  52
HETATM   52  C   UNK     0      48.985  19.710  36.568  0.00  0.00     0.114 C 
BRANCH  52  53
HETATM   53  C   UNK     0      49.409  19.880  37.971  0.00  0.00     0.139 C 
HETATM   54  O   UNK     0      50.372  19.232  38.413  0.00  0.00    -0.650 OA
BRANCH  53  55
HETATM   55  O   UNK     0      48.732  20.756  38.784  0.00  0.00    -0.776 OA
HETATM   56  H   UNK     0      48.621  20.674  39.768  0.00  0.00     0.167 HD
ENDBRANCH  53  55
ENDBRANCH  52  53
ENDBRANCH  51  52
ENDBRANCH  18  51
TORSDOF 16
ENDMDL
