MODEL 1
REMARK VINA RESULT:      -8.4      0.000      0.000
REMARK  16 active torsions:
REMARK  status: ('A' for Active; 'I' for Inactive)
REMARK    1  A    between atoms: C_6  and  C_7 
REMARK    2  A    between atoms: C_7  and  C_8 
REMARK    3  A    between atoms: C_8  and  C_9 
REMARK    4  A    between atoms: C_9  and  O_11 
REMARK    5  A    between atoms: C_16  and  C_17 
REMARK    6  A    between atoms: C_17  and  C_18 
REMARK    7  A    between atoms: C_18  and  C_19 
REMARK    8  A    between atoms: C_19  and  O_21 
REMARK    9  A    between atoms: C_28  and  C_29 
REMARK   10  A    between atoms: C_29  and  C_30 
REMARK   11  A    between atoms: C_30  and  C_31 
REMARK   12  A    between atoms: C_31  and  O_33 
REMARK   13  A    between atoms: C_42  and  C_43 
REMARK   14  A    between atoms: C_43  and  C_44 
REMARK   15  A    between atoms: C_44  and  C_45 
REMARK   16  A    between atoms: C_45  and  O_47 
ROOT
HETATM    1  C   UNK     0      21.940   4.328 -13.014  0.00  0.00     0.051 C 
HETATM    2  C   UNK     0      20.613   4.965 -12.655  0.00  0.00    -0.031 A 
HETATM    3  C   UNK     0      19.424   4.365 -12.273  0.00  0.00     0.021 A 
HETATM    4  N   UNK     0      18.488   5.324 -12.079  0.00  0.00    -0.361 N 
HETATM    5  C   UNK     0      19.057   6.523 -12.321  0.00  0.00     0.022 A 
HETATM    6  C   UNK     0      20.386   6.335 -12.686  0.00  0.00    -0.027 A 
HETATM    7  C   UNK     0      18.486   7.897 -12.162  0.00  0.00     0.115 C 
HETATM    8  C   UNK     0      17.663   8.152 -10.911  0.00  0.00     0.021 A 
HETATM    9  N   UNK     0      17.846   7.663  -9.675  0.00  0.00    -0.361 N 
HETATM   10  C   UNK     0      16.822   8.082  -8.902  0.00  0.00     0.022 A 
HETATM   11  C   UNK     0      15.961   8.872  -9.658  0.00  0.00    -0.027 A 
HETATM   12  C   UNK     0      16.485   8.920 -10.925  0.00  0.00    -0.031 A 
HETATM   13  C   UNK     0      15.884   9.673 -12.091  0.00  0.00     0.051 C 
HETATM   14  C   UNK     0      16.587   7.714  -7.440  0.00  0.00     0.115 C 
HETATM   15  C   UNK     0      16.400   6.224  -7.202  0.00  0.00     0.021 A 
HETATM   16  N   UNK     0      17.260   5.232  -7.498  0.00  0.00    -0.361 N 
HETATM   17  C   UNK     0      16.696   4.059  -7.198  0.00  0.00     0.022 A 
HETATM   18  C   UNK     0      15.411   4.301  -6.673  0.00  0.00    -0.027 A 
HETATM   19  C   UNK     0      15.238   5.660  -6.680  0.00  0.00    -0.031 A 
HETATM   20  C   UNK     0      13.994   6.356  -6.159  0.00  0.00     0.051 C 
HETATM   21  C   UNK     0      17.210   2.653  -7.404  0.00  0.00     0.115 C 
HETATM   22  C   UNK     0      18.067   2.394  -8.621  0.00  0.00     0.022 A 
HETATM   23  N   UNK     0      17.911   2.872  -9.863  0.00  0.00    -0.361 N 
HETATM   24  C   UNK     0      18.982   2.505 -10.595  0.00  0.00     0.021 A 
HETATM   25  C   UNK     0      19.844   1.766  -9.809  0.00  0.00    -0.031 A 
HETATM   26  C   UNK     0      21.152   1.105 -10.190  0.00  0.00     0.051 C 
HETATM   27  C   UNK     0      19.280   1.681  -8.541  0.00  0.00    -0.027 A 
HETATM   28  C   UNK     0      19.301   2.887 -12.030  0.00  0.00     0.115 C 
HETATM   29  H   UNK     0      17.421   5.144 -11.811  0.00  0.00     0.165 HD
HETATM   30  H   UNK     0      18.723   7.061  -9.332  0.00  0.00     0.165 HD
HETATM   31  H   UNK     0      18.305   5.362  -7.881  0.00  0.00     0.165 HD
HETATM   32  H   UNK     0      17.021   3.436 -10.246  0.00  0.00     0.165 HD
ENDROOT
BRANCH   6  33
HETATM   33  C   UNK     0      21.441   7.345 -13.061  0.00  0.00     0.051 C 
BRANCH  33  34
HETATM   34  C   UNK     0      21.273   7.787 -14.495  0.00  0.00     0.114 C 
BRANCH  34  35
HETATM   35  C   UNK     0      20.931   9.239 -14.477  0.00  0.00     0.139 C 
HETATM   36  O   UNK     0      20.409   9.783 -15.493  0.00  0.00    -0.650 OA
BRANCH  35  37
HETATM   37  O   UNK     0      21.158  10.048 -13.371  0.00  0.00    -0.776 OA
HETATM   38  H   UNK     0      21.200  11.052 -13.443  0.00  0.00     0.167 HD
ENDBRANCH  35  37
ENDBRANCH  34  35
ENDBRANCH  33  34
ENDBRANCH   6  33
BRANCH  27  39
HETATM   39  C   UNK     0      19.890   0.896  -7.433  0.00  0.00     0.051 C 
BRANCH  39  40
HETATM   40  C   UNK     0      19.755  -0.561  -7.459  0.00  0.00     0.114 C 
BRANCH  40  41
HETATM   41  C   UNK     0      18.534  -1.229  -7.070  0.00  0.00     0.139 C 
HETATM   42  O   UNK     0      17.406  -0.835  -7.396  0.00  0.00    -0.650 OA
BRANCH  41  43
HETATM   43  O   UNK     0      18.614  -2.404  -6.269  0.00  0.00    -0.776 OA
HETATM   44  H   UNK     0      19.509  -2.876  -6.306  0.00  0.00     0.167 HD
ENDBRANCH  41  43
ENDBRANCH  40  41
ENDBRANCH  39  40
ENDBRANCH  27  39
BRANCH  11  45
HETATM   45  C   UNK     0      14.695   9.564  -9.228  0.00  0.00     0.051 C 
BRANCH  45  46
HETATM   46  C   UNK     0      13.538   8.651  -9.043  0.00  0.00     0.114 C 
BRANCH  46  47
HETATM   47  C   UNK     0      12.909   8.459 -10.381  0.00  0.00     0.139 C 
HETATM   48  O   UNK     0      12.955   7.336 -10.902  0.00  0.00    -0.650 OA
BRANCH  47  49
HETATM   49  O   UNK     0      12.293   9.503 -11.024  0.00  0.00    -0.776 OA
HETATM   50  H   UNK     0      12.783  10.082 -11.718  0.00  0.00     0.167 HD
ENDBRANCH  47  49
ENDBRANCH  46  47
ENDBRANCH  45  46
ENDBRANCH  11  45
BRANCH  18  51
HETATM   51  C   UNK     0      14.410   3.291  -6.173  0.00  0.00     0.051 C 
BRANCH  51  52
HETATM   52  C   UNK     0      14.542   3.276  -4.658  0.00  0.00     0.114 C 
BRANCH  52  53
HETATM   53  C   UNK     0      13.252   2.997  -3.997  0.00  0.00     0.139 C 
HETATM   54  O   UNK     0      12.647   3.906  -3.406  0.00  0.00    -0.650 OA
BRANCH  53  55
HETATM   55  O   UNK     0      12.729   1.728  -4.036  0.00  0.00    -0.776 OA
HETATM   56  H   UNK     0      13.228   0.885  -3.877  0.00  0.00     0.167 HD
ENDBRANCH  53  55
ENDBRANCH  52  53
ENDBRANCH  51  52
ENDBRANCH  18  51
TORSDOF 16
ENDMDL
MODEL 2
REMARK VINA RESULT:      -8.4     15.847     21.187
REMARK  16 active torsions:
REMARK  status: ('A' for Active; 'I' for Inactive)
REMARK    1  A    between atoms: C_6  and  C_7 
REMARK    2  A    between atoms: C_7  and  C_8 
REMARK    3  A    between atoms: C_8  and  C_9 
REMARK    4  A    between atoms: C_9  and  O_11 
REMARK    5  A    between atoms: C_16  and  C_17 
REMARK    6  A    between atoms: C_17  and  C_18 
REMARK    7  A    between atoms: C_18  and  C_19 
REMARK    8  A    between atoms: C_19  and  O_21 
REMARK    9  A    between atoms: C_28  and  C_29 
REMARK   10  A    between atoms: C_29  and  C_30 
REMARK   11  A    between atoms: C_30  and  C_31 
REMARK   12  A    between atoms: C_31  and  O_33 
REMARK   13  A    between atoms: C_42  and  C_43 
REMARK   14  A    between atoms: C_43  and  C_44 
REMARK   15  A    between atoms: C_44  and  C_45 
REMARK   16  A    between atoms: C_45  and  O_47 
ROOT
HETATM    1  C   UNK     0       1.553 -11.028  -4.738  0.00  0.00     0.051 C 
HETATM    2  C   UNK     0       3.063 -11.060  -4.868  0.00  0.00    -0.031 A 
HETATM    3  C   UNK     0       3.876 -12.028  -5.435  0.00  0.00     0.021 A 
HETATM    4  N   UNK     0       5.170 -11.652  -5.298  0.00  0.00    -0.361 N 
HETATM    5  C   UNK     0       5.198 -10.462  -4.664  0.00  0.00     0.022 A 
HETATM    6  C   UNK     0       3.896 -10.064  -4.378  0.00  0.00    -0.027 A 
HETATM    7  C   UNK     0       6.364  -9.576  -4.354  0.00  0.00     0.115 C 
HETATM    8  C   UNK     0       7.402  -9.407  -5.448  0.00  0.00     0.021 A 
HETATM    9  N   UNK     0       7.216  -9.353  -6.776  0.00  0.00    -0.361 N 
HETATM   10  C   UNK     0       8.429  -9.290  -7.367  0.00  0.00     0.022 A 
HETATM   11  C   UNK     0       9.422  -9.295  -6.393  0.00  0.00    -0.027 A 
HETATM   12  C   UNK     0       8.783  -9.369  -5.182  0.00  0.00    -0.031 A 
HETATM   13  C   UNK     0       9.466  -9.395  -3.833  0.00  0.00     0.051 C 
HETATM   14  C   UNK     0       8.700  -9.277  -8.869  0.00  0.00     0.115 C 
HETATM   15  C   UNK     0       8.203 -10.516  -9.595  0.00  0.00     0.021 A 
HETATM   16  N   UNK     0       6.943 -10.988  -9.648  0.00  0.00    -0.361 N 
HETATM   17  C   UNK     0       6.933 -12.137 -10.327  0.00  0.00     0.022 A 
HETATM   18  C   UNK     0       8.247 -12.423 -10.745  0.00  0.00    -0.027 A 
HETATM   19  C   UNK     0       9.033 -11.400 -10.282  0.00  0.00    -0.031 A 
HETATM   20  C   UNK     0      10.524 -11.296 -10.543  0.00  0.00     0.051 C 
HETATM   21  C   UNK     0       5.794 -13.092 -10.605  0.00  0.00     0.115 C 
HETATM   22  C   UNK     0       4.729 -13.236  -9.542  0.00  0.00     0.022 A 
HETATM   23  N   UNK     0       4.885 -13.289  -8.213  0.00  0.00    -0.361 N 
HETATM   24  C   UNK     0       3.664 -13.272  -7.642  0.00  0.00     0.021 A 
HETATM   25  C   UNK     0       2.698 -13.218  -8.628  0.00  0.00    -0.031 A 
HETATM   26  C   UNK     0       1.190 -13.221  -8.487  0.00  0.00     0.051 C 
HETATM   27  C   UNK     0       3.355 -13.194  -9.853  0.00  0.00    -0.027 A 
HETATM   28  C   UNK     0       3.331 -13.225  -6.161  0.00  0.00     0.115 C 
HETATM   29  H   UNK     0       6.056 -12.249  -5.615  0.00  0.00     0.165 HD
HETATM   30  H   UNK     0       6.229  -9.308  -7.298  0.00  0.00     0.165 HD
HETATM   31  H   UNK     0       6.034 -10.476  -9.238  0.00  0.00     0.165 HD
HETATM   32  H   UNK     0       5.860 -13.383  -7.666  0.00  0.00     0.165 HD
ENDROOT
BRANCH   6  33
HETATM   33  C   UNK     0       3.392  -8.826  -3.680  0.00  0.00     0.051 C 
BRANCH  33  34
HETATM   34  C   UNK     0       3.646  -7.597  -4.521  0.00  0.00     0.114 C 
BRANCH  34  35
HETATM   35  C   UNK     0       4.280  -6.576  -3.638  0.00  0.00     0.139 C 
HETATM   36  O   UNK     0       4.644  -6.884  -2.466  0.00  0.00    -0.650 OA
BRANCH  35  37
HETATM   37  O   UNK     0       4.502  -5.266  -4.047  0.00  0.00    -0.776 OA
HETATM   38  H   UNK     0       4.701  -5.032  -5.006  0.00  0.00     0.167 HD
ENDBRANCH  35  37
ENDBRANCH  34  35
ENDBRANCH  33  34
ENDBRANCH   6  33
BRANCH  27  39
HETATM   39  C   UNK     0       2.639 -13.206 -11.158  0.00  0.00     0.051 C 
BRANCH  39  40
HETATM   40  C   UNK     0       2.307 -11.924 -11.779  0.00  0.00     0.114 C 
BRANCH  40  41
HETATM   41  C   UNK     0       2.778 -10.665 -11.248  0.00  0.00     0.139 C 
HETATM   42  O   UNK     0       3.869 -10.161 -11.549  0.00  0.00    -0.650 OA
BRANCH  41  43
HETATM   43  O   UNK     0       1.957  -9.953 -10.328  0.00  0.00    -0.776 OA
HETATM   44  H   UNK     0       1.944 -10.340  -9.392  0.00  0.00     0.167 HD
ENDBRANCH  41  43
ENDBRANCH  40  41
ENDBRANCH  39  40
ENDBRANCH  27  39
BRANCH  11  45
HETATM   45  C   UNK     0      10.916  -9.231  -6.570  0.00  0.00     0.051 C 
BRANCH  45  46
HETATM   46  C   UNK     0      11.499  -7.889  -6.315  0.00  0.00     0.114 C 
BRANCH  46  47
HETATM   47  C   UNK     0      12.824  -8.100  -5.664  0.00  0.00     0.139 C 
HETATM   48  O   UNK     0      13.677  -7.207  -5.754  0.00  0.00    -0.650 OA
BRANCH  47  49
HETATM   49  O   UNK     0      13.094  -9.259  -4.981  0.00  0.00    -0.776 OA
HETATM   50  H   UNK     0      12.511  -9.579  -4.199  0.00  0.00     0.167 HD
ENDBRANCH  47  49
ENDBRANCH  46  47
ENDBRANCH  45  46
ENDBRANCH  11  45
BRANCH  18  51
HETATM   51  C   UNK     0       8.725 -13.597 -11.561  0.00  0.00     0.051 C 
BRANCH  51  52
HETATM   52  C   UNK     0       8.830 -14.770 -10.598  0.00  0.00     0.114 C 
BRANCH  52  53
HETATM   53  C   UNK     0      10.044 -14.688  -9.762  0.00  0.00     0.139 C 
HETATM   54  O   UNK     0      11.166 -14.769 -10.287  0.00  0.00    -0.650 OA
BRANCH  53  55
HETATM   55  O   UNK     0       9.924 -14.526  -8.403  0.00  0.00    -0.776 OA
HETATM   56  H   UNK     0      10.665 -14.339  -7.770  0.00  0.00     0.167 HD
ENDBRANCH  53  55
ENDBRANCH  52  53
ENDBRANCH  51  52
ENDBRANCH  18  51
TORSDOF 16
ENDMDL
MODEL 3
REMARK VINA RESULT:      -8.0     21.454     26.181
REMARK  16 active torsions:
REMARK  status: ('A' for Active; 'I' for Inactive)
REMARK    1  A    between atoms: C_6  and  C_7 
REMARK    2  A    between atoms: C_7  and  C_8 
REMARK    3  A    between atoms: C_8  and  C_9 
REMARK    4  A    between atoms: C_9  and  O_11 
REMARK    5  A    between atoms: C_16  and  C_17 
REMARK    6  A    between atoms: C_17  and  C_18 
REMARK    7  A    between atoms: C_18  and  C_19 
REMARK    8  A    between atoms: C_19  and  O_21 
REMARK    9  A    between atoms: C_28  and  C_29 
REMARK   10  A    between atoms: C_29  and  C_30 
REMARK   11  A    between atoms: C_30  and  C_31 
REMARK   12  A    between atoms: C_31  and  O_33 
REMARK   13  A    between atoms: C_42  and  C_43 
REMARK   14  A    between atoms: C_43  and  C_44 
REMARK   15  A    between atoms: C_44  and  C_45 
REMARK   16  A    between atoms: C_45  and  O_47 
ROOT
HETATM    1  C   UNK     0      -3.513  13.694 -16.431  0.00  0.00     0.051 C 
HETATM    2  C   UNK     0      -4.073  12.293 -16.570  0.00  0.00    -0.031 A 
HETATM    3  C   UNK     0      -5.179  11.855 -17.282  0.00  0.00     0.021 A 
HETATM    4  N   UNK     0      -5.323  10.521 -17.096  0.00  0.00    -0.361 N 
HETATM    5  C   UNK     0      -4.328  10.099 -16.288  0.00  0.00     0.022 A 
HETATM    6  C   UNK     0      -3.529  11.183 -15.938  0.00  0.00    -0.027 A 
HETATM    7  C   UNK     0      -3.981   8.710 -15.852  0.00  0.00     0.115 C 
HETATM    8  C   UNK     0      -4.046   7.626 -16.913  0.00  0.00     0.021 A 
HETATM    9  N   UNK     0      -3.738   7.712 -18.216  0.00  0.00    -0.361 N 
HETATM   10  C   UNK     0      -4.036   6.530 -18.796  0.00  0.00     0.022 A 
HETATM   11  C   UNK     0      -4.542   5.656 -17.839  0.00  0.00    -0.027 A 
HETATM   12  C   UNK     0      -4.551   6.340 -16.650  0.00  0.00    -0.031 A 
HETATM   13  C   UNK     0      -5.017   5.782 -15.324  0.00  0.00     0.051 C 
HETATM   14  C   UNK     0      -3.907   6.196 -20.280  0.00  0.00     0.115 C 
HETATM   15  C   UNK     0      -4.763   7.068 -21.184  0.00  0.00     0.021 A 
HETATM   16  N   UNK     0      -4.732   8.409 -21.302  0.00  0.00    -0.361 N 
HETATM   17  C   UNK     0      -5.688   8.797 -22.148  0.00  0.00     0.022 A 
HETATM   18  C   UNK     0      -6.370   7.654 -22.611  0.00  0.00    -0.027 A 
HETATM   19  C   UNK     0      -5.780   6.578 -22.001  0.00  0.00    -0.031 A 
HETATM   20  C   UNK     0      -6.189   5.138 -22.250  0.00  0.00     0.051 C 
HETATM   21  C   UNK     0      -6.113  10.188 -22.562  0.00  0.00     0.115 C 
HETATM   22  C   UNK     0      -6.011  11.285 -21.529  0.00  0.00     0.022 A 
HETATM   23  N   UNK     0      -6.307  11.227 -20.224  0.00  0.00    -0.361 N 
HETATM   24  C   UNK     0      -5.930  12.388 -19.652  0.00  0.00     0.021 A 
HETATM   25  C   UNK     0      -5.387  13.218 -20.614  0.00  0.00    -0.031 A 
HETATM   26  C   UNK     0      -4.861  14.631 -20.467  0.00  0.00     0.051 C 
HETATM   27  C   UNK     0      -5.428  12.534 -21.823  0.00  0.00    -0.027 A 
HETATM   28  C   UNK     0      -5.978  12.757 -18.179  0.00  0.00     0.115 C 
HETATM   29  H   UNK     0      -6.149   9.895 -17.504  0.00  0.00     0.165 HD
HETATM   30  H   UNK     0      -3.263   8.589 -18.720  0.00  0.00     0.165 HD
HETATM   31  H   UNK     0      -3.988   9.092 -20.815  0.00  0.00     0.165 HD
HETATM   32  H   UNK     0      -6.826  10.381 -19.702  0.00  0.00     0.165 HD
ENDROOT
BRANCH   6  33
HETATM   33  C   UNK     0      -2.306  11.243 -15.058  0.00  0.00     0.051 C 
BRANCH  33  34
HETATM   34  C   UNK     0      -2.691  11.533 -13.627  0.00  0.00     0.114 C 
BRANCH  34  35
HETATM   35  C   UNK     0      -2.511  10.271 -12.852  0.00  0.00     0.139 C 
HETATM   36  O   UNK     0      -3.503   9.721 -12.292  0.00  0.00    -0.650 OA
BRANCH  35  37
HETATM   37  O   UNK     0      -1.277   9.649 -12.710  0.00  0.00    -0.776 OA
HETATM   38  H   UNK     0      -0.856   9.119 -13.456  0.00  0.00     0.167 HD
ENDBRANCH  35  37
ENDBRANCH  34  35
ENDBRANCH  33  34
ENDBRANCH   6  33
BRANCH  27  39
HETATM   39  C   UNK     0      -4.992  13.139 -23.111  0.00  0.00     0.051 C 
BRANCH  39  40
HETATM   40  C   UNK     0      -3.709  12.721 -23.676  0.00  0.00     0.114 C 
BRANCH  40  41
HETATM   41  C   UNK     0      -2.535  12.523 -22.856  0.00  0.00     0.139 C 
HETATM   42  O   UNK     0      -1.926  13.446 -22.299  0.00  0.00    -0.650 OA
BRANCH  41  43
HETATM   43  O   UNK     0      -2.038  11.201 -22.668  0.00  0.00    -0.776 OA
HETATM   44  H   UNK     0      -1.852  10.697 -23.527  0.00  0.00     0.167 HD
ENDBRANCH  41  43
ENDBRANCH  40  41
ENDBRANCH  39  40
ENDBRANCH  27  39
BRANCH  11  45
HETATM   45  C   UNK     0      -5.000   4.233 -18.011  0.00  0.00     0.051 C 
BRANCH  45  46
HETATM   46  C   UNK     0      -3.930   3.222 -17.811  0.00  0.00     0.114 C 
BRANCH  46  47
HETATM   47  C   UNK     0      -3.993   2.278 -18.963  0.00  0.00     0.139 C 
HETATM   48  O   UNK     0      -4.183   2.739 -20.097  0.00  0.00    -0.650 OA
BRANCH  47  49
HETATM   49  O   UNK     0      -3.845   0.927 -18.774  0.00  0.00    -0.776 OA
HETATM   50  H   UNK     0      -4.651   0.300 -18.668  0.00  0.00     0.167 HD
ENDBRANCH  47  49
ENDBRANCH  46  47
ENDBRANCH  45  46
ENDBRANCH  11  45
BRANCH  18  51
HETATM   51  C   UNK     0      -7.507   7.590 -23.598  0.00  0.00     0.051 C 
BRANCH  51  52
HETATM   52  C   UNK     0      -8.786   7.676 -22.779  0.00  0.00     0.114 C 
BRANCH  52  53
HETATM   53  C   UNK     0      -9.805   6.717 -23.249  0.00  0.00     0.139 C 
HETATM   54  O   UNK     0     -10.413   6.006 -22.433  0.00  0.00    -0.650 OA
BRANCH  53  55
HETATM   55  O   UNK     0     -10.072   6.613 -24.593  0.00  0.00    -0.776 OA
HETATM   56  H   UNK     0     -10.286   7.365 -25.205  0.00  0.00     0.167 HD
ENDBRANCH  53  55
ENDBRANCH  52  53
ENDBRANCH  51  52
ENDBRANCH  18  51
TORSDOF 16
ENDMDL
MODEL 4
REMARK VINA RESULT:      -7.9     21.003     26.360
REMARK  16 active torsions:
REMARK  status: ('A' for Active; 'I' for Inactive)
REMARK    1  A    between atoms: C_6  and  C_7 
REMARK    2  A    between atoms: C_7  and  C_8 
REMARK    3  A    between atoms: C_8  and  C_9 
REMARK    4  A    between atoms: C_9  and  O_11 
REMARK    5  A    between atoms: C_16  and  C_17 
REMARK    6  A    between atoms: C_17  and  C_18 
REMARK    7  A    between atoms: C_18  and  C_19 
REMARK    8  A    between atoms: C_19  and  O_21 
REMARK    9  A    between atoms: C_28  and  C_29 
REMARK   10  A    between atoms: C_29  and  C_30 
REMARK   11  A    between atoms: C_30  and  C_31 
REMARK   12  A    between atoms: C_31  and  O_33 
REMARK   13  A    between atoms: C_42  and  C_43 
REMARK   14  A    between atoms: C_43  and  C_44 
REMARK   15  A    between atoms: C_44  and  C_45 
REMARK   16  A    between atoms: C_45  and  O_47 
ROOT
HETATM    1  C   UNK     0      -3.351  11.865 -14.931  0.00  0.00     0.051 C 
HETATM    2  C   UNK     0      -3.925  10.579 -15.491  0.00  0.00    -0.031 A 
HETATM    3  C   UNK     0      -5.074  10.382 -16.240  0.00  0.00     0.021 A 
HETATM    4  N   UNK     0      -5.212   9.059 -16.495  0.00  0.00    -0.361 N 
HETATM    5  C   UNK     0      -4.172   8.411 -15.932  0.00  0.00     0.022 A 
HETATM    6  C   UNK     0      -3.349   9.331 -15.293  0.00  0.00    -0.027 A 
HETATM    7  C   UNK     0      -3.806   6.961 -15.999  0.00  0.00     0.115 C 
HETATM    8  C   UNK     0      -3.941   6.285 -17.353  0.00  0.00     0.021 A 
HETATM    9  N   UNK     0      -3.713   6.800 -18.571  0.00  0.00    -0.361 N 
HETATM   10  C   UNK     0      -4.051   5.871 -19.489  0.00  0.00     0.022 A 
HETATM   11  C   UNK     0      -4.502   4.722 -18.845  0.00  0.00    -0.027 A 
HETATM   12  C   UNK     0      -4.435   4.977 -17.499  0.00  0.00    -0.031 A 
HETATM   13  C   UNK     0      -4.822   4.006 -16.405  0.00  0.00     0.051 C 
HETATM   14  C   UNK     0      -4.015   6.046 -21.005  0.00  0.00     0.115 C 
HETATM   15  C   UNK     0      -4.920   7.153 -21.519  0.00  0.00     0.021 A 
HETATM   16  N   UNK     0      -4.890   8.458 -21.190  0.00  0.00    -0.361 N 
HETATM   17  C   UNK     0      -5.894   9.089 -21.803  0.00  0.00     0.022 A 
HETATM   18  C   UNK     0      -6.608   8.151 -22.575  0.00  0.00    -0.027 A 
HETATM   19  C   UNK     0      -5.987   6.943 -22.390  0.00  0.00    -0.031 A 
HETATM   20  C   UNK     0      -6.418   5.659 -23.075  0.00  0.00     0.051 C 
HETATM   21  C   UNK     0      -6.337  10.531 -21.710  0.00  0.00     0.115 C 
HETATM   22  C   UNK     0      -6.167  11.229 -20.381  0.00  0.00     0.022 A 
HETATM   23  N   UNK     0      -6.383  10.740 -19.153  0.00  0.00    -0.361 N 
HETATM   24  C   UNK     0      -5.966  11.654 -18.253  0.00  0.00     0.021 A 
HETATM   25  C   UNK     0      -5.478  12.762 -18.918  0.00  0.00    -0.031 A 
HETATM   26  C   UNK     0      -4.938  14.056 -18.346  0.00  0.00     0.051 C 
HETATM   27  C   UNK     0      -5.597  12.514 -20.281  0.00  0.00    -0.027 A 
HETATM   28  C   UNK     0      -5.922  11.517 -16.741  0.00  0.00     0.115 C 
HETATM   29  H   UNK     0      -6.065   8.589 -17.038  0.00  0.00     0.165 HD
HETATM   30  H   UNK     0      -3.265   7.801 -18.785  0.00  0.00     0.165 HD
HETATM   31  H   UNK     0      -4.115   8.955 -20.550  0.00  0.00     0.165 HD
HETATM   32  H   UNK     0      -6.873   9.762 -18.909  0.00  0.00     0.165 HD
ENDROOT
BRANCH   6  33
HETATM   33  C   UNK     0      -2.074   9.117 -14.517  0.00  0.00     0.051 C 
BRANCH  33  34
HETATM   34  C   UNK     0      -0.868   9.383 -15.385  0.00  0.00     0.114 C 
BRANCH  34  35
HETATM   35  C   UNK     0      -0.487   8.093 -16.028  0.00  0.00     0.139 C 
HETATM   36  O   UNK     0       0.107   7.198 -15.359  0.00  0.00    -0.650 OA
BRANCH  35  37
HETATM   37  O   UNK     0      -0.759   7.811 -17.361  0.00  0.00    -0.776 OA
HETATM   38  H   UNK     0      -1.238   6.971 -17.643  0.00  0.00     0.167 HD
ENDBRANCH  35  37
ENDBRANCH  34  35
ENDBRANCH  33  34
ENDBRANCH   6  33
BRANCH  27  39
HETATM   39  C   UNK     0      -5.237  13.516 -21.322  0.00  0.00     0.051 C 
BRANCH  39  40
HETATM   40  C   UNK     0      -6.309  14.078 -22.143  0.00  0.00     0.114 C 
BRANCH  40  41
HETATM   41  C   UNK     0      -7.342  14.924 -21.589  0.00  0.00     0.139 C 
HETATM   42  O   UNK     0      -8.450  15.085 -22.117  0.00  0.00    -0.650 OA
BRANCH  41  43
HETATM   43  O   UNK     0      -7.088  15.617 -20.371  0.00  0.00    -0.776 OA
HETATM   44  H   UNK     0      -7.916  15.822 -19.825  0.00  0.00     0.167 HD
ENDBRANCH  41  43
ENDBRANCH  40  41
ENDBRANCH  39  40
ENDBRANCH  27  39
BRANCH  11  45
HETATM   45  C   UNK     0      -4.977   3.428 -19.449  0.00  0.00     0.051 C 
BRANCH  45  46
HETATM   46  C   UNK     0      -3.893   2.598 -20.033  0.00  0.00     0.114 C 
BRANCH  46  47
HETATM   47  C   UNK     0      -3.611   1.496 -19.069  0.00  0.00     0.139 C 
HETATM   48  O   UNK     0      -2.823   1.712 -18.138  0.00  0.00    -0.650 OA
BRANCH  47  49
HETATM   49  O   UNK     0      -4.210   0.270 -19.209  0.00  0.00    -0.776 OA
HETATM   50  H   UNK     0      -4.428  -0.129 -20.130  0.00  0.00     0.167 HD
ENDBRANCH  47  49
ENDBRANCH  46  47
ENDBRANCH  45  46
ENDBRANCH  11  45
BRANCH  18  51
HETATM   51  C   UNK     0      -7.804   8.397 -23.459  0.00  0.00     0.051 C 
BRANCH  51  52
HETATM   52  C   UNK     0      -9.027   8.027 -22.633  0.00  0.00     0.114 C 
BRANCH  52  53
HETATM   53  C   UNK     0      -9.859   7.013 -23.308  0.00  0.00     0.139 C 
HETATM   54  O   UNK     0      -9.780   6.862 -24.538  0.00  0.00    -0.650 OA
BRANCH  53  55
HETATM   55  O   UNK     0     -10.722   6.240 -22.569  0.00  0.00    -0.776 OA
HETATM   56  H   UNK     0     -10.589   5.288 -22.324  0.00  0.00     0.167 HD
ENDBRANCH  53  55
ENDBRANCH  52  53
ENDBRANCH  51  52
ENDBRANCH  18  51
TORSDOF 16
ENDMDL
MODEL 5
REMARK VINA RESULT:      -7.9     21.271     25.912
REMARK  16 active torsions:
REMARK  status: ('A' for Active; 'I' for Inactive)
REMARK    1  A    between atoms: C_6  and  C_7 
REMARK    2  A    between atoms: C_7  and  C_8 
REMARK    3  A    between atoms: C_8  and  C_9 
REMARK    4  A    between atoms: C_9  and  O_11 
REMARK    5  A    between atoms: C_16  and  C_17 
REMARK    6  A    between atoms: C_17  and  C_18 
REMARK    7  A    between atoms: C_18  and  C_19 
REMARK    8  A    between atoms: C_19  and  O_21 
REMARK    9  A    between atoms: C_28  and  C_29 
REMARK   10  A    between atoms: C_29  and  C_30 
REMARK   11  A    between atoms: C_30  and  C_31 
REMARK   12  A    between atoms: C_31  and  O_33 
REMARK   13  A    between atoms: C_42  and  C_43 
REMARK   14  A    between atoms: C_43  and  C_44 
REMARK   15  A    between atoms: C_44  and  C_45 
REMARK   16  A    between atoms: C_45  and  O_47 
ROOT
HETATM    1  C   UNK     0      -4.270   1.219 -23.061  0.00  0.00     0.051 C 
HETATM    2  C   UNK     0      -3.677   2.475 -22.455  0.00  0.00    -0.031 A 
HETATM    3  C   UNK     0      -3.979   3.803 -22.711  0.00  0.00     0.021 A 
HETATM    4  N   UNK     0      -3.175   4.592 -21.959  0.00  0.00    -0.361 N 
HETATM    5  C   UNK     0      -2.373   3.795 -21.222  0.00  0.00     0.022 A 
HETATM    6  C   UNK     0      -2.658   2.465 -21.510  0.00  0.00    -0.027 A 
HETATM    7  C   UNK     0      -1.376   4.162 -20.168  0.00  0.00     0.115 C 
HETATM    8  C   UNK     0      -1.791   5.239 -19.182  0.00  0.00     0.021 A 
HETATM    9  N   UNK     0      -3.007   5.475 -18.665  0.00  0.00    -0.361 N 
HETATM   10  C   UNK     0      -2.930   6.589 -17.905  0.00  0.00     0.022 A 
HETATM   11  C   UNK     0      -1.628   7.078 -17.927  0.00  0.00    -0.027 A 
HETATM   12  C   UNK     0      -0.905   6.232 -18.729  0.00  0.00    -0.031 A 
HETATM   13  C   UNK     0       0.569   6.370 -19.041  0.00  0.00     0.051 C 
HETATM   14  C   UNK     0      -4.088   7.264 -17.176  0.00  0.00     0.115 C 
HETATM   15  C   UNK     0      -5.201   7.742 -18.095  0.00  0.00     0.021 A 
HETATM   16  N   UNK     0      -5.936   7.004 -18.948  0.00  0.00    -0.361 N 
HETATM   17  C   UNK     0      -6.760   7.807 -19.625  0.00  0.00     0.022 A 
HETATM   18  C   UNK     0      -6.559   9.130 -19.185  0.00  0.00    -0.027 A 
HETATM   19  C   UNK     0      -5.581   9.076 -18.226  0.00  0.00    -0.031 A 
HETATM   20  C   UNK     0      -5.081  10.287 -17.461  0.00  0.00     0.051 C 
HETATM   21  C   UNK     0      -7.731   7.487 -20.739  0.00  0.00     0.115 C 
HETATM   22  C   UNK     0      -7.350   6.387 -21.701  0.00  0.00     0.022 A 
HETATM   23  N   UNK     0      -6.147   6.126 -22.230  0.00  0.00    -0.361 N 
HETATM   24  C   UNK     0      -6.229   4.969 -22.918  0.00  0.00     0.021 A 
HETATM   25  C   UNK     0      -7.519   4.480 -22.841  0.00  0.00    -0.031 A 
HETATM   26  C   UNK     0      -8.107   3.239 -23.480  0.00  0.00     0.051 C 
HETATM   27  C   UNK     0      -8.255   5.370 -22.067  0.00  0.00    -0.027 A 
HETATM   28  C   UNK     0      -5.105   4.220 -23.614  0.00  0.00     0.115 C 
HETATM   29  H   UNK     0      -3.153   5.706 -21.983  0.00  0.00     0.165 HD
HETATM   30  H   UNK     0      -3.910   4.830 -18.793  0.00  0.00     0.165 HD
HETATM   31  H   UNK     0      -5.907   5.887 -19.041  0.00  0.00     0.165 HD
HETATM   32  H   UNK     0      -5.238   6.778 -22.157  0.00  0.00     0.165 HD
ENDROOT
BRANCH   6  33
HETATM   33  C   UNK     0      -2.043   1.201 -20.965  0.00  0.00     0.051 C 
BRANCH  33  34
HETATM   34  C   UNK     0      -1.916   1.273 -19.461  0.00  0.00     0.114 C 
BRANCH  34  35
HETATM   35  C   UNK     0      -3.296   1.331 -18.899  0.00  0.00     0.139 C 
HETATM   36  O   UNK     0      -3.650   2.311 -18.180  0.00  0.00    -0.650 OA
BRANCH  35  37
HETATM   37  O   UNK     0      -4.242   0.341 -19.132  0.00  0.00    -0.776 OA
HETATM   38  H   UNK     0      -5.114   0.533 -19.599  0.00  0.00     0.167 HD
ENDBRANCH  35  37
ENDBRANCH  34  35
ENDBRANCH  33  34
ENDBRANCH   6  33
BRANCH  27  39
HETATM   39  C   UNK     0      -9.714   5.213 -21.818  0.00  0.00     0.051 C 
BRANCH  39  40
HETATM   40  C   UNK     0     -10.623   6.221 -22.362  0.00  0.00     0.114 C 
BRANCH  40  41
HETATM   41  C   UNK     0     -10.277   7.033 -23.507  0.00  0.00     0.139 C 
HETATM   42  O   UNK     0     -10.209   6.591 -24.662  0.00  0.00    -0.650 OA
BRANCH  41  43
HETATM   43  O   UNK     0      -9.998   8.416 -23.316  0.00  0.00    -0.776 OA
HETATM   44  H   UNK     0      -9.826   8.931 -24.171  0.00  0.00     0.167 HD
ENDBRANCH  41  43
ENDBRANCH  40  41
ENDBRANCH  39  40
ENDBRANCH  27  39
BRANCH  11  45
HETATM   45  C   UNK     0      -1.064   8.286 -17.228  0.00  0.00     0.051 C 
BRANCH  45  46
HETATM   46  C   UNK     0      -0.594   8.021 -15.844  0.00  0.00     0.114 C 
BRANCH  46  47
HETATM   47  C   UNK     0      -1.245   9.026 -14.956  0.00  0.00     0.139 C 
HETATM   48  O   UNK     0      -0.603  10.035 -14.633  0.00  0.00    -0.650 OA
BRANCH  47  49
HETATM   49  O   UNK     0      -2.527   8.840 -14.505  0.00  0.00    -0.776 OA
HETATM   50  H   UNK     0      -3.332   8.817 -15.143  0.00  0.00     0.167 HD
ENDBRANCH  47  49
ENDBRANCH  46  47
ENDBRANCH  45  46
ENDBRANCH  11  45
BRANCH  18  51
HETATM   51  C   UNK     0      -7.275  10.376 -19.639  0.00  0.00     0.051 C 
BRANCH  51  52
HETATM   52  C   UNK     0      -6.526  10.874 -20.867  0.00  0.00     0.114 C 
BRANCH  52  53
HETATM   53  C   UNK     0      -7.251  10.566 -22.115  0.00  0.00     0.139 C 
HETATM   54  O   UNK     0      -8.426  10.940 -22.260  0.00  0.00    -0.650 OA
BRANCH  53  55
HETATM   55  O   UNK     0      -6.620   9.861 -23.111  0.00  0.00    -0.776 OA
HETATM   56  H   UNK     0      -6.698  10.032 -24.086  0.00  0.00     0.167 HD
ENDBRANCH  53  55
ENDBRANCH  52  53
ENDBRANCH  51  52
ENDBRANCH  18  51
TORSDOF 16
ENDMDL
MODEL 6
REMARK VINA RESULT:      -7.7     20.603     26.044
REMARK  16 active torsions:
REMARK  status: ('A' for Active; 'I' for Inactive)
REMARK    1  A    between atoms: C_6  and  C_7 
REMARK    2  A    between atoms: C_7  and  C_8 
REMARK    3  A    between atoms: C_8  and  C_9 
REMARK    4  A    between atoms: C_9  and  O_11 
REMARK    5  A    between atoms: C_16  and  C_17 
REMARK    6  A    between atoms: C_17  and  C_18 
REMARK    7  A    between atoms: C_18  and  C_19 
REMARK    8  A    between atoms: C_19  and  O_21 
REMARK    9  A    between atoms: C_28  and  C_29 
REMARK   10  A    between atoms: C_29  and  C_30 
REMARK   11  A    between atoms: C_30  and  C_31 
REMARK   12  A    between atoms: C_31  and  O_33 
REMARK   13  A    between atoms: C_42  and  C_43 
REMARK   14  A    between atoms: C_43  and  C_44 
REMARK   15  A    between atoms: C_44  and  C_45 
REMARK   16  A    between atoms: C_45  and  O_47 
ROOT
HETATM    1  C   UNK     0      -3.244  12.739 -14.814  0.00  0.00     0.051 C 
HETATM    2  C   UNK     0      -3.832  11.406 -15.230  0.00  0.00    -0.031 A 
HETATM    3  C   UNK     0      -4.928  11.141 -16.037  0.00  0.00     0.021 A 
HETATM    4  N   UNK     0      -5.108   9.801 -16.111  0.00  0.00    -0.361 N 
HETATM    5  C   UNK     0      -4.147   9.206 -15.375  0.00  0.00     0.022 A 
HETATM    6  C   UNK     0      -3.333  10.181 -14.808  0.00  0.00    -0.027 A 
HETATM    7  C   UNK     0      -3.844   7.750 -15.203  0.00  0.00     0.115 C 
HETATM    8  C   UNK     0      -3.906   6.888 -16.452  0.00  0.00     0.021 A 
HETATM    9  N   UNK     0      -3.559   7.210 -17.707  0.00  0.00    -0.361 N 
HETATM   10  C   UNK     0      -3.869   6.168 -18.508  0.00  0.00     0.022 A 
HETATM   11  C   UNK     0      -4.422   5.144 -17.746  0.00  0.00    -0.027 A 
HETATM   12  C   UNK     0      -4.448   5.590 -16.449  0.00  0.00    -0.031 A 
HETATM   13  C   UNK     0      -4.964   4.805 -15.264  0.00  0.00     0.051 C 
HETATM   14  C   UNK     0      -3.706   6.118 -20.025  0.00  0.00     0.115 C 
HETATM   15  C   UNK     0      -4.516   7.169 -20.766  0.00  0.00     0.021 A 
HETATM   16  N   UNK     0      -4.449   8.506 -20.627  0.00  0.00    -0.361 N 
HETATM   17  C   UNK     0      -5.372   9.075 -21.405  0.00  0.00     0.022 A 
HETATM   18  C   UNK     0      -6.067   8.060 -22.093  0.00  0.00    -0.027 A 
HETATM   19  C   UNK     0      -5.520   6.871 -21.685  0.00  0.00    -0.031 A 
HETATM   20  C   UNK     0      -5.956   5.516 -22.212  0.00  0.00     0.051 C 
HETATM   21  C   UNK     0      -5.753  10.530 -21.558  0.00  0.00     0.115 C 
HETATM   22  C   UNK     0      -5.654  11.409 -20.333  0.00  0.00     0.022 A 
HETATM   23  N   UNK     0      -5.988  11.114 -19.070  0.00  0.00    -0.361 N 
HETATM   24  C   UNK     0      -5.599  12.134 -18.280  0.00  0.00     0.021 A 
HETATM   25  C   UNK     0      -5.010  13.115 -19.054  0.00  0.00    -0.031 A 
HETATM   26  C   UNK     0      -4.456  14.460 -18.629  0.00  0.00     0.051 C 
HETATM   27  C   UNK     0      -5.033  12.674 -20.372  0.00  0.00    -0.027 A 
HETATM   28  C   UNK     0      -5.680  12.219 -16.765  0.00  0.00     0.115 C 
HETATM   29  H   UNK     0      -5.937   9.287 -16.650  0.00  0.00     0.165 HD
HETATM   30  H   UNK     0      -3.050   8.153 -18.025  0.00  0.00     0.165 HD
HETATM   31  H   UNK     0      -3.704   9.064 -20.002  0.00  0.00     0.165 HD
HETATM   32  H   UNK     0      -6.541  10.199 -18.731  0.00  0.00     0.165 HD
ENDROOT
BRANCH   6  33
HETATM   33  C   UNK     0      -2.134  10.038 -13.905  0.00  0.00     0.051 C 
BRANCH  33  34
HETATM   34  C   UNK     0      -0.859  10.341 -14.656  0.00  0.00     0.114 C 
BRANCH  34  35
HETATM   35  C   UNK     0      -0.648   9.240 -15.639  0.00  0.00     0.139 C 
HETATM   36  O   UNK     0      -0.351   8.077 -15.240  0.00  0.00    -0.650 OA
BRANCH  35  37
HETATM   37  O   UNK     0      -0.767   9.428 -17.011  0.00  0.00    -0.776 OA
HETATM   38  H   UNK     0      -0.777  10.346 -17.426  0.00  0.00     0.167 HD
ENDBRANCH  35  37
ENDBRANCH  34  35
ENDBRANCH  33  34
ENDBRANCH   6  33
BRANCH  27  39
HETATM   39  C   UNK     0      -4.547  13.499 -21.511  0.00  0.00     0.051 C 
BRANCH  39  40
HETATM   40  C   UNK     0      -5.534  14.213 -22.322  0.00  0.00     0.114 C 
BRANCH  40  41
HETATM   41  C   UNK     0      -6.924  14.306 -21.938  0.00  0.00     0.139 C 
HETATM   42  O   UNK     0      -7.815  13.592 -22.417  0.00  0.00    -0.650 OA
BRANCH  41  43
HETATM   43  O   UNK     0      -7.308  15.265 -20.958  0.00  0.00    -0.776 OA
HETATM   44  H   UNK     0      -8.205  15.703 -21.128  0.00  0.00     0.167 HD
ENDBRANCH  41  43
ENDBRANCH  40  41
ENDBRANCH  39  40
ENDBRANCH  27  39
BRANCH  11  45
HETATM   45  C   UNK     0      -4.909   3.792 -18.196  0.00  0.00     0.051 C 
BRANCH  45  46
HETATM   46  C   UNK     0      -3.911   2.704 -18.035  0.00  0.00     0.114 C 
BRANCH  46  47
HETATM   47  C   UNK     0      -3.748   2.054 -19.367  0.00  0.00     0.139 C 
HETATM   48  O   UNK     0      -2.663   2.172 -19.954  0.00  0.00    -0.650 OA
BRANCH  47  49
HETATM   49  O   UNK     0      -4.775   1.343 -19.932  0.00  0.00    -0.776 OA
HETATM   50  H   UNK     0      -4.715   0.960 -20.883  0.00  0.00     0.167 HD
ENDBRANCH  47  49
ENDBRANCH  46  47
ENDBRANCH  45  46
ENDBRANCH  11  45
BRANCH  18  51
HETATM   51  C   UNK     0      -7.177   8.216 -23.099  0.00  0.00     0.051 C 
BRANCH  51  52
HETATM   52  C   UNK     0      -8.461   8.372 -22.298  0.00  0.00     0.114 C 
BRANCH  52  53
HETATM   53  C   UNK     0      -9.252   9.534 -22.746  0.00  0.00     0.139 C 
HETATM   54  O   UNK     0     -10.271   9.364 -23.434  0.00  0.00    -0.650 OA
BRANCH  53  55
HETATM   55  O   UNK     0      -8.851  10.802 -22.402  0.00  0.00    -0.776 OA
HETATM   56  H   UNK     0      -8.437  11.070 -21.540  0.00  0.00     0.167 HD
ENDBRANCH  53  55
ENDBRANCH  52  53
ENDBRANCH  51  52
ENDBRANCH  18  51
TORSDOF 16
ENDMDL
MODEL 7
REMARK VINA RESULT:      -7.6     27.942     30.625
REMARK  16 active torsions:
REMARK  status: ('A' for Active; 'I' for Inactive)
REMARK    1  A    between atoms: C_6  and  C_7 
REMARK    2  A    between atoms: C_7  and  C_8 
REMARK    3  A    between atoms: C_8  and  C_9 
REMARK    4  A    between atoms: C_9  and  O_11 
REMARK    5  A    between atoms: C_16  and  C_17 
REMARK    6  A    between atoms: C_17  and  C_18 
REMARK    7  A    between atoms: C_18  and  C_19 
REMARK    8  A    between atoms: C_19  and  O_21 
REMARK    9  A    between atoms: C_28  and  C_29 
REMARK   10  A    between atoms: C_29  and  C_30 
REMARK   11  A    between atoms: C_30  and  C_31 
REMARK   12  A    between atoms: C_31  and  O_33 
REMARK   13  A    between atoms: C_42  and  C_43 
REMARK   14  A    between atoms: C_43  and  C_44 
REMARK   15  A    between atoms: C_44  and  C_45 
REMARK   16  A    between atoms: C_45  and  O_47 
ROOT
HETATM    1  C   UNK     0      -4.534  -9.912   7.820  0.00  0.00     0.051 C 
HETATM    2  C   UNK     0      -3.732  -9.123   8.836  0.00  0.00    -0.031 A 
HETATM    3  C   UNK     0      -3.281  -9.506  10.089  0.00  0.00     0.021 A 
HETATM    4  N   UNK     0      -2.631  -8.465  10.661  0.00  0.00    -0.361 N 
HETATM    5  C   UNK     0      -2.650  -7.430   9.796  0.00  0.00     0.022 A 
HETATM    6  C   UNK     0      -3.334  -7.807   8.644  0.00  0.00    -0.027 A 
HETATM    7  C   UNK     0      -1.997  -6.087   9.902  0.00  0.00     0.115 C 
HETATM    8  C   UNK     0      -0.577  -6.061  10.439  0.00  0.00     0.021 A 
HETATM    9  N   UNK     0       0.405  -6.956  10.250  0.00  0.00    -0.361 N 
HETATM   10  C   UNK     0       1.468  -6.575  10.989  0.00  0.00     0.022 A 
HETATM   11  C   UNK     0       1.166  -5.397  11.666  0.00  0.00    -0.027 A 
HETATM   12  C   UNK     0      -0.121  -5.067  11.323  0.00  0.00    -0.031 A 
HETATM   13  C   UNK     0      -0.873  -3.853  11.819  0.00  0.00     0.051 C 
HETATM   14  C   UNK     0       2.787  -7.331  11.129  0.00  0.00     0.115 C 
HETATM   15  C   UNK     0       2.638  -8.723  11.721  0.00  0.00     0.021 A 
HETATM   16  N   UNK     0       1.900  -9.743  11.245  0.00  0.00    -0.361 N 
HETATM   17  C   UNK     0       1.980 -10.774  12.090  0.00  0.00     0.022 A 
HETATM   18  C   UNK     0       2.818 -10.411  13.163  0.00  0.00    -0.027 A 
HETATM   19  C   UNK     0       3.225  -9.125  12.919  0.00  0.00    -0.031 A 
HETATM   20  C   UNK     0       4.176  -8.356  13.818  0.00  0.00     0.051 C 
HETATM   21  C   UNK     0       1.287 -12.117  12.053  0.00  0.00     0.115 C 
HETATM   22  C   UNK     0      -0.111 -12.165  11.481  0.00  0.00     0.022 A 
HETATM   23  N   UNK     0      -1.107 -11.286  11.649  0.00  0.00    -0.361 N 
HETATM   24  C   UNK     0      -2.127 -11.643  10.843  0.00  0.00     0.021 A 
HETATM   25  C   UNK     0      -1.784 -12.786  10.147  0.00  0.00    -0.031 A 
HETATM   26  C   UNK     0      -2.608 -13.585   9.159  0.00  0.00     0.051 C 
HETATM   27  C   UNK     0      -0.497 -13.139  10.539  0.00  0.00    -0.027 A 
HETATM   28  C   UNK     0      -3.435 -10.904  10.617  0.00  0.00     0.115 C 
HETATM   29  H   UNK     0      -2.197  -8.455  11.687  0.00  0.00     0.165 HD
HETATM   30  H   UNK     0       0.369  -7.831   9.556  0.00  0.00     0.165 HD
HETATM   31  H   UNK     0       1.349  -9.754  10.269  0.00  0.00     0.165 HD
HETATM   32  H   UNK     0      -1.116 -10.428  12.371  0.00  0.00     0.165 HD
ENDROOT
BRANCH   6  33
HETATM   33  C   UNK     0      -3.636  -7.020   7.394  0.00  0.00     0.051 C 
BRANCH  33  34
HETATM   34  C   UNK     0      -4.834  -6.125   7.602  0.00  0.00     0.114 C 
BRANCH  34  35
HETATM   35  C   UNK     0      -4.499  -4.790   7.028  0.00  0.00     0.139 C 
HETATM   36  O   UNK     0      -3.904  -3.924   7.734  0.00  0.00    -0.650 OA
BRANCH  35  37
HETATM   37  O   UNK     0      -4.811  -4.436   5.721  0.00  0.00    -0.776 OA
HETATM   38  H   UNK     0      -4.286  -4.782   4.934  0.00  0.00     0.167 HD
ENDBRANCH  35  37
ENDBRANCH  34  35
ENDBRANCH  33  34
ENDBRANCH   6  33
BRANCH  27  39
HETATM   39  C   UNK     0       0.190 -14.366  10.052  0.00  0.00     0.051 C 
BRANCH  39  40
HETATM   40  C   UNK     0       1.309 -14.212   9.123  0.00  0.00     0.114 C 
BRANCH  40  41
HETATM   41  C   UNK     0       1.571 -12.971   8.431  0.00  0.00     0.139 C 
HETATM   42  O   UNK     0       0.763 -12.433   7.662  0.00  0.00    -0.650 OA
BRANCH  41  43
HETATM   43  O   UNK     0       2.820 -12.317   8.633  0.00  0.00    -0.776 OA
HETATM   44  H   UNK     0       2.856 -11.726   9.454  0.00  0.00     0.167 HD
ENDBRANCH  41  43
ENDBRANCH  40  41
ENDBRANCH  39  40
ENDBRANCH  27  39
BRANCH  11  45
HETATM   45  C   UNK     0       2.036  -4.596  12.597  0.00  0.00     0.051 C 
BRANCH  45  46
HETATM   46  C   UNK     0       2.652  -3.398  11.972  0.00  0.00     0.114 C 
BRANCH  46  47
HETATM   47  C   UNK     0       3.228  -2.573  13.072  0.00  0.00     0.139 C 
HETATM   48  O   UNK     0       2.464  -2.120  13.936  0.00  0.00    -0.650 OA
BRANCH  47  49
HETATM   49  O   UNK     0       4.575  -2.318  13.127  0.00  0.00    -0.776 OA
HETATM   50  H   UNK     0       5.275  -3.066  13.059  0.00  0.00     0.167 HD
ENDBRANCH  47  49
ENDBRANCH  46  47
ENDBRANCH  45  46
ENDBRANCH  11  45
BRANCH  18  51
HETATM   51  C   UNK     0       3.226 -11.251  14.345  0.00  0.00     0.051 C 
BRANCH  51  52
HETATM   52  C   UNK     0       4.378 -12.124  13.870  0.00  0.00     0.114 C 
BRANCH  52  53
HETATM   53  C   UNK     0       5.664 -11.705  14.458  0.00  0.00     0.139 C 
HETATM   54  O   UNK     0       5.716 -11.338  15.643  0.00  0.00    -0.650 OA
BRANCH  53  55
HETATM   55  O   UNK     0       6.801 -11.720  13.687  0.00  0.00    -0.776 OA
HETATM   56  H   UNK     0       6.957 -11.184  12.866  0.00  0.00     0.167 HD
ENDBRANCH  53  55
ENDBRANCH  52  53
ENDBRANCH  51  52
ENDBRANCH  18  51
TORSDOF 16
ENDMDL
MODEL 8
REMARK VINA RESULT:      -7.5     16.949     21.096
REMARK  16 active torsions:
REMARK  status: ('A' for Active; 'I' for Inactive)
REMARK    1  A    between atoms: C_6  and  C_7 
REMARK    2  A    between atoms: C_7  and  C_8 
REMARK    3  A    between atoms: C_8  and  C_9 
REMARK    4  A    between atoms: C_9  and  O_11 
REMARK    5  A    between atoms: C_16  and  C_17 
REMARK    6  A    between atoms: C_17  and  C_18 
REMARK    7  A    between atoms: C_18  and  C_19 
REMARK    8  A    between atoms: C_19  and  O_21 
REMARK    9  A    between atoms: C_28  and  C_29 
REMARK   10  A    between atoms: C_29  and  C_30 
REMARK   11  A    between atoms: C_30  and  C_31 
REMARK   12  A    between atoms: C_31  and  O_33 
REMARK   13  A    between atoms: C_42  and  C_43 
REMARK   14  A    between atoms: C_43  and  C_44 
REMARK   15  A    between atoms: C_44  and  C_45 
REMARK   16  A    between atoms: C_45  and  O_47 
ROOT
HETATM    1  C   UNK     0      11.130 -10.091  -7.773  0.00  0.00     0.051 C 
HETATM    2  C   UNK     0      10.117 -10.983  -8.461  0.00  0.00    -0.031 A 
HETATM    3  C   UNK     0       9.211 -11.875  -7.909  0.00  0.00     0.021 A 
HETATM    4  N   UNK     0       8.524 -12.480  -8.907  0.00  0.00    -0.361 N 
HETATM    5  C   UNK     0       8.966 -11.987 -10.082  0.00  0.00     0.022 A 
HETATM    6  C   UNK     0       9.965 -11.049  -9.840  0.00  0.00    -0.027 A 
HETATM    7  C   UNK     0       8.475 -12.252 -11.471  0.00  0.00     0.115 C 
HETATM    8  C   UNK     0       6.970 -12.304 -11.663  0.00  0.00     0.021 A 
HETATM    9  N   UNK     0       6.023 -11.579 -11.049  0.00  0.00    -0.361 N 
HETATM   10  C   UNK     0       4.818 -12.025 -11.463  0.00  0.00     0.022 A 
HETATM   11  C   UNK     0       4.994 -13.061 -12.376  0.00  0.00    -0.027 A 
HETATM   12  C   UNK     0       6.347 -13.242 -12.507  0.00  0.00    -0.031 A 
HETATM   13  C   UNK     0       7.010 -14.263 -13.404  0.00  0.00     0.051 C 
HETATM   14  C   UNK     0       3.458 -11.532 -10.977  0.00  0.00     0.115 C 
HETATM   15  C   UNK     0       3.228 -11.730  -9.487  0.00  0.00     0.021 A 
HETATM   16  N   UNK     0       3.965 -11.245  -8.471  0.00  0.00    -0.361 N 
HETATM   17  C   UNK     0       3.475 -11.702  -7.316  0.00  0.00     0.022 A 
HETATM   18  C   UNK     0       2.359 -12.516  -7.593  0.00  0.00    -0.027 A 
HETATM   19  C   UNK     0       2.214 -12.525  -8.956  0.00  0.00    -0.031 A 
HETATM   20  C   UNK     0       1.102 -13.258  -9.682  0.00  0.00     0.051 C 
HETATM   21  C   UNK     0       3.979 -11.512  -5.903  0.00  0.00     0.115 C 
HETATM   22  C   UNK     0       5.473 -11.415  -5.703  0.00  0.00     0.022 A 
HETATM   23  N   UNK     0       6.439 -12.122  -6.303  0.00  0.00    -0.361 N 
HETATM   24  C   UNK     0       7.630 -11.608  -5.936  0.00  0.00     0.021 A 
HETATM   25  C   UNK     0       7.427 -10.552  -5.069  0.00  0.00    -0.031 A 
HETATM   26  C   UNK     0       8.450  -9.689  -4.360  0.00  0.00     0.051 C 
HETATM   27  C   UNK     0       6.054 -10.408  -4.905  0.00  0.00    -0.027 A 
HETATM   28  C   UNK     0       9.009 -12.015  -6.427  0.00  0.00     0.115 C 
HETATM   29  H   UNK     0       7.760 -13.281  -8.776  0.00  0.00     0.165 HD
HETATM   30  H   UNK     0       6.202 -10.717 -10.361  0.00  0.00     0.165 HD
HETATM   31  H   UNK     0       4.821 -10.526  -8.566  0.00  0.00     0.165 HD
HETATM   32  H   UNK     0       6.290 -13.018  -6.959  0.00  0.00     0.165 HD
ENDROOT
BRANCH   6  33
HETATM   33  C   UNK     0      10.777 -10.225 -10.807  0.00  0.00     0.051 C 
BRANCH  33  34
HETATM   34  C   UNK     0      11.944 -11.021 -11.340  0.00  0.00     0.114 C 
BRANCH  34  35
HETATM   35  C   UNK     0      13.108 -10.094 -11.442  0.00  0.00     0.139 C 
HETATM   36  O   UNK     0      13.601  -9.813 -12.573  0.00  0.00    -0.650 OA
BRANCH  35  37
HETATM   37  O   UNK     0      13.694  -9.503 -10.330  0.00  0.00    -0.776 OA
HETATM   38  H   UNK     0      14.083 -10.048  -9.577  0.00  0.00     0.167 HD
ENDBRANCH  35  37
ENDBRANCH  34  35
ENDBRANCH  33  34
ENDBRANCH   6  33
BRANCH  27  39
HETATM   39  C   UNK     0       5.448  -9.412  -3.980  0.00  0.00     0.051 C 
BRANCH  39  40
HETATM   40  C   UNK     0       5.004  -8.132  -4.534  0.00  0.00     0.114 C 
BRANCH  40  41
HETATM   41  C   UNK     0       4.817  -6.960  -3.709  0.00  0.00     0.139 C 
HETATM   42  O   UNK     0       4.697  -7.002  -2.477  0.00  0.00    -0.650 OA
BRANCH  41  43
HETATM   43  O   UNK     0       4.766  -5.679  -4.330  0.00  0.00    -0.776 OA
HETATM   44  H   UNK     0       3.837  -5.281  -4.391  0.00  0.00     0.167 HD
ENDBRANCH  41  43
ENDBRANCH  40  41
ENDBRANCH  39  40
ENDBRANCH  27  39
BRANCH  11  45
HETATM   45  C   UNK     0       3.949 -13.858 -13.108  0.00  0.00     0.051 C 
BRANCH  45  46
HETATM   46  C   UNK     0       3.570 -13.293 -14.429  0.00  0.00     0.114 C 
BRANCH  46  47
HETATM   47  C   UNK     0       2.140 -12.881 -14.339  0.00  0.00     0.139 C 
HETATM   48  O   UNK     0       1.630 -12.297 -15.306  0.00  0.00    -0.650 OA
BRANCH  47  49
HETATM   49  O   UNK     0       1.403 -13.141 -13.212  0.00  0.00    -0.776 OA
HETATM   50  H   UNK     0       1.704 -12.831 -12.280  0.00  0.00     0.167 HD
ENDBRANCH  47  49
ENDBRANCH  46  47
ENDBRANCH  45  46
ENDBRANCH  11  45
BRANCH  18  51
HETATM   51  C   UNK     0       1.467 -13.231  -6.612  0.00  0.00     0.051 C 
BRANCH  51  52
HETATM   52  C   UNK     0       0.495 -12.187  -6.082  0.00  0.00     0.114 C 
BRANCH  52  53
HETATM   53  C   UNK     0      -0.872 -12.399  -6.596  0.00  0.00     0.139 C 
HETATM   54  O   UNK     0      -1.677 -11.454  -6.629  0.00  0.00    -0.650 OA
BRANCH  53  55
HETATM   55  O   UNK     0      -1.248 -13.646  -7.033  0.00  0.00    -0.776 OA
HETATM   56  H   UNK     0      -0.642 -14.415  -7.195  0.00  0.00     0.167 HD
ENDBRANCH  53  55
ENDBRANCH  52  53
ENDBRANCH  51  52
ENDBRANCH  18  51
TORSDOF 16
ENDMDL
MODEL 9
REMARK VINA RESULT:      -7.5      8.181     12.979
REMARK  16 active torsions:
REMARK  status: ('A' for Active; 'I' for Inactive)
REMARK    1  A    between atoms: C_6  and  C_7 
REMARK    2  A    between atoms: C_7  and  C_8 
REMARK    3  A    between atoms: C_8  and  C_9 
REMARK    4  A    between atoms: C_9  and  O_11 
REMARK    5  A    between atoms: C_16  and  C_17 
REMARK    6  A    between atoms: C_17  and  C_18 
REMARK    7  A    between atoms: C_18  and  C_19 
REMARK    8  A    between atoms: C_19  and  O_21 
REMARK    9  A    between atoms: C_28  and  C_29 
REMARK   10  A    between atoms: C_29  and  C_30 
REMARK   11  A    between atoms: C_30  and  C_31 
REMARK   12  A    between atoms: C_31  and  O_33 
REMARK   13  A    between atoms: C_42  and  C_43 
REMARK   14  A    between atoms: C_43  and  C_44 
REMARK   15  A    between atoms: C_44  and  C_45 
REMARK   16  A    between atoms: C_45  and  O_47 
ROOT
HETATM    1  C   UNK     0      11.360  17.281  -6.995  0.00  0.00     0.051 C 
HETATM    2  C   UNK     0      10.570  16.443  -7.980  0.00  0.00    -0.031 A 
HETATM    3  C   UNK     0      10.844  16.154  -9.307  0.00  0.00     0.021 A 
HETATM    4  N   UNK     0       9.844  15.390  -9.808  0.00  0.00    -0.361 N 
HETATM    5  C   UNK     0       8.944  15.178  -8.826  0.00  0.00     0.022 A 
HETATM    6  C   UNK     0       9.366  15.825  -7.669  0.00  0.00    -0.027 A 
HETATM    7  C   UNK     0       7.712  14.328  -8.831  0.00  0.00     0.115 C 
HETATM    8  C   UNK     0       7.826  12.967  -9.493  0.00  0.00     0.021 A 
HETATM    9  N   UNK     0       8.875  12.130  -9.508  0.00  0.00    -0.361 N 
HETATM   10  C   UNK     0       8.561  11.078 -10.294  0.00  0.00     0.022 A 
HETATM   11  C   UNK     0       7.270  11.238 -10.791  0.00  0.00    -0.027 A 
HETATM   12  C   UNK     0       6.802  12.425 -10.291  0.00  0.00    -0.031 A 
HETATM   13  C   UNK     0       5.433  13.009 -10.561  0.00  0.00     0.051 C 
HETATM   14  C   UNK     0       9.479   9.912 -10.650  0.00  0.00     0.115 C 
HETATM   15  C   UNK     0      10.741  10.326 -11.389  0.00  0.00     0.021 A 
HETATM   16  N   UNK     0      11.695  11.180 -10.972  0.00  0.00    -0.361 N 
HETATM   17  C   UNK     0      12.602  11.330 -11.939  0.00  0.00     0.022 A 
HETATM   18  C   UNK     0      12.228  10.528 -13.035  0.00  0.00    -0.027 A 
HETATM   19  C   UNK     0      11.061   9.903 -12.677  0.00  0.00    -0.031 A 
HETATM   20  C   UNK     0      10.329   8.911 -13.563  0.00  0.00     0.051 C 
HETATM   21  C   UNK     0      13.819  12.225 -11.999  0.00  0.00     0.115 C 
HETATM   22  C   UNK     0      13.735  13.565 -11.306  0.00  0.00     0.022 A 
HETATM   23  N   UNK     0      12.702  14.417 -11.271  0.00  0.00    -0.361 N 
HETATM   24  C   UNK     0      13.008  15.418 -10.421  0.00  0.00     0.021 A 
HETATM   25  C   UNK     0      14.273  15.210  -9.904  0.00  0.00    -0.031 A 
HETATM   26  C   UNK     0      15.065  16.076  -8.946  0.00  0.00     0.051 C 
HETATM   27  C   UNK     0      14.758  14.030 -10.456  0.00  0.00    -0.027 A 
HETATM   28  C   UNK     0      12.120  16.570  -9.983  0.00  0.00     0.115 C 
HETATM   29  H   UNK     0       9.762  15.039 -10.863  0.00  0.00     0.165 HD
HETATM   30  H   UNK     0       9.820  12.254  -8.925  0.00  0.00     0.165 HD
HETATM   31  H   UNK     0      11.754  11.651  -9.956  0.00  0.00     0.165 HD
HETATM   32  H   UNK     0      11.764  14.343 -11.880  0.00  0.00     0.165 HD
ENDROOT
BRANCH   6  33
HETATM   33  C   UNK     0       8.718  15.902  -6.310  0.00  0.00     0.051 C 
BRANCH  33  34
HETATM   34  C   UNK     0       7.860  17.140  -6.195  0.00  0.00     0.114 C 
BRANCH  34  35
HETATM   35  C   UNK     0       7.925  17.598  -4.777  0.00  0.00     0.139 C 
HETATM   36  O   UNK     0       6.873  17.967  -4.178  0.00  0.00    -0.650 OA
BRANCH  35  37
HETATM   37  O   UNK     0       9.112  17.640  -4.057  0.00  0.00    -0.776 OA
HETATM   38  H   UNK     0       9.997  17.840  -4.495  0.00  0.00     0.167 HD
ENDBRANCH  35  37
ENDBRANCH  34  35
ENDBRANCH  33  34
ENDBRANCH   6  33
BRANCH  27  39
HETATM   39  C   UNK     0      16.128  13.514 -10.189  0.00  0.00     0.051 C 
BRANCH  39  40
HETATM   40  C   UNK     0      16.339  12.687  -9.001  0.00  0.00     0.114 C 
BRANCH  40  41
HETATM   41  C   UNK     0      15.977  11.288  -8.962  0.00  0.00     0.139 C 
HETATM   42  O   UNK     0      14.810  10.882  -9.043  0.00  0.00    -0.650 OA
BRANCH  41  43
HETATM   43  O   UNK     0      17.004  10.312  -8.822  0.00  0.00    -0.776 OA
HETATM   44  H   UNK     0      16.770   9.543  -8.206  0.00  0.00     0.167 HD
ENDBRANCH  41  43
ENDBRANCH  40  41
ENDBRANCH  39  40
ENDBRANCH  27  39
BRANCH  11  45
HETATM   45  C   UNK     0       6.491  10.323 -11.698  0.00  0.00     0.051 C 
BRANCH  45  46
HETATM   46  C   UNK     0       6.832  10.461 -13.137  0.00  0.00     0.114 C 
BRANCH  46  47
HETATM   47  C   UNK     0       5.583  10.851 -13.852  0.00  0.00     0.139 C 
HETATM   48  O   UNK     0       5.673  11.279 -15.011  0.00  0.00    -0.650 OA
BRANCH  47  49
HETATM   49  O   UNK     0       4.360  10.740 -13.240  0.00  0.00    -0.776 OA
HETATM   50  H   UNK     0       4.228  10.947 -12.243  0.00  0.00     0.167 HD
ENDBRANCH  47  49
ENDBRANCH  46  47
ENDBRANCH  45  46
ENDBRANCH  11  45
BRANCH  18  51
HETATM   51  C   UNK     0      12.953  10.350 -14.343  0.00  0.00     0.051 C 
BRANCH  51  52
HETATM   52  C   UNK     0      12.281  11.289 -15.334  0.00  0.00     0.114 C 
BRANCH  52  53
HETATM   53  C   UNK     0      11.965  10.612 -16.606  0.00  0.00     0.139 C 
HETATM   54  O   UNK     0      11.516  11.264 -17.563  0.00  0.00    -0.650 OA
BRANCH  53  55
HETATM   55  O   UNK     0      12.165   9.258 -16.723  0.00  0.00    -0.776 OA
HETATM   56  H   UNK     0      13.022   8.812 -16.955  0.00  0.00     0.167 HD
ENDBRANCH  53  55
ENDBRANCH  52  53
ENDBRANCH  51  52
ENDBRANCH  18  51
TORSDOF 16
ENDMDL
MODEL 10
REMARK VINA RESULT:      -7.4      7.161     11.937
REMARK  16 active torsions:
REMARK  status: ('A' for Active; 'I' for Inactive)
REMARK    1  A    between atoms: C_6  and  C_7 
REMARK    2  A    between atoms: C_7  and  C_8 
REMARK    3  A    between atoms: C_8  and  C_9 
REMARK    4  A    between atoms: C_9  and  O_11 
REMARK    5  A    between atoms: C_16  and  C_17 
REMARK    6  A    between atoms: C_17  and  C_18 
REMARK    7  A    between atoms: C_18  and  C_19 
REMARK    8  A    between atoms: C_19  and  O_21 
REMARK    9  A    between atoms: C_28  and  C_29 
REMARK   10  A    between atoms: C_29  and  C_30 
REMARK   11  A    between atoms: C_30  and  C_31 
REMARK   12  A    between atoms: C_31  and  O_33 
REMARK   13  A    between atoms: C_42  and  C_43 
REMARK   14  A    between atoms: C_43  and  C_44 
REMARK   15  A    between atoms: C_44  and  C_45 
REMARK   16  A    between atoms: C_45  and  O_47 
ROOT
HETATM    1  C   UNK     0      14.556  17.541  -8.009  0.00  0.00     0.051 C 
HETATM    2  C   UNK     0      13.309  17.099  -8.746  0.00  0.00    -0.031 A 
HETATM    3  C   UNK     0      13.190  16.325  -9.889  0.00  0.00     0.021 A 
HETATM    4  N   UNK     0      11.879  16.209 -10.210  0.00  0.00    -0.361 N 
HETATM    5  C   UNK     0      11.160  16.886  -9.291  0.00  0.00     0.022 A 
HETATM    6  C   UNK     0      12.023  17.457  -8.362  0.00  0.00    -0.027 A 
HETATM    7  C   UNK     0       9.675  16.993  -9.135  0.00  0.00     0.115 C 
HETATM    8  C   UNK     0       8.875  15.717  -9.328  0.00  0.00     0.021 A 
HETATM    9  N   UNK     0       9.210  14.461  -8.992  0.00  0.00    -0.361 N 
HETATM   10  C   UNK     0       8.238  13.636  -9.434  0.00  0.00     0.022 A 
HETATM   11  C   UNK     0       7.246  14.380 -10.064  0.00  0.00    -0.027 A 
HETATM   12  C   UNK     0       7.640  15.692 -10.000  0.00  0.00    -0.031 A 
HETATM   13  C   UNK     0       6.865  16.866 -10.555  0.00  0.00     0.051 C 
HETATM   14  C   UNK     0       8.232  12.113  -9.329  0.00  0.00     0.115 C 
HETATM   15  C   UNK     0       9.390  11.441 -10.050  0.00  0.00     0.021 A 
HETATM   16  N   UNK     0      10.707  11.627  -9.841  0.00  0.00    -0.361 N 
HETATM   17  C   UNK     0      11.397  10.905 -10.726  0.00  0.00     0.022 A 
HETATM   18  C   UNK     0      10.487  10.208 -11.545  0.00  0.00    -0.027 A 
HETATM   19  C   UNK     0       9.233  10.551 -11.111  0.00  0.00    -0.031 A 
HETATM   20  C   UNK     0       7.953   9.991 -11.702  0.00  0.00     0.051 C 
HETATM   21  C   UNK     0      12.889  10.820 -10.959  0.00  0.00     0.115 C 
HETATM   22  C   UNK     0      13.703  12.072 -10.728  0.00  0.00     0.022 A 
HETATM   23  N   UNK     0      13.393  13.334 -11.048  0.00  0.00    -0.361 N 
HETATM   24  C   UNK     0      14.335  14.147 -10.530  0.00  0.00     0.021 A 
HETATM   25  C   UNK     0      15.282  13.388  -9.869  0.00  0.00    -0.031 A 
HETATM   26  C   UNK     0      16.544  13.840  -9.165  0.00  0.00     0.051 C 
HETATM   27  C   UNK     0      14.899  12.056  -9.982  0.00  0.00    -0.027 A 
HETATM   28  C   UNK     0      14.367  15.665 -10.550  0.00  0.00     0.115 C 
HETATM   29  H   UNK     0      11.474  15.683 -11.105  0.00  0.00     0.165 HD
HETATM   30  H   UNK     0      10.108  14.160  -8.398  0.00  0.00     0.165 HD
HETATM   31  H   UNK     0      11.160  12.244  -9.021  0.00  0.00     0.165 HD
HETATM   32  H   UNK     0      12.527  13.661 -11.681  0.00  0.00     0.165 HD
ENDROOT
BRANCH   6  33
HETATM   33  C   UNK     0      11.722  18.309  -7.154  0.00  0.00     0.051 C 
BRANCH  33  34
HETATM   34  C   UNK     0      11.213  17.460  -6.014  0.00  0.00     0.114 C 
BRANCH  34  35
HETATM   35  C   UNK     0       9.979  18.111  -5.488  0.00  0.00     0.139 C 
HETATM   36  O   UNK     0       9.488  19.117  -6.080  0.00  0.00    -0.650 OA
BRANCH  35  37
HETATM   37  O   UNK     0       9.319  17.659  -4.352  0.00  0.00    -0.776 OA
HETATM   38  H   UNK     0       9.194  16.678  -4.162  0.00  0.00     0.167 HD
ENDBRANCH  35  37
ENDBRANCH  34  35
ENDBRANCH  33  34
ENDBRANCH   6  33
BRANCH  27  39
HETATM   39  C   UNK     0      15.715  10.930  -9.452  0.00  0.00     0.051 C 
BRANCH  39  40
HETATM   40  C   UNK     0      15.118  10.056  -8.443  0.00  0.00     0.114 C 
BRANCH  40  41
HETATM   41  C   UNK     0      14.433   8.832  -8.792  0.00  0.00     0.139 C 
HETATM   42  O   UNK     0      13.362   8.478  -8.280  0.00  0.00    -0.650 OA
BRANCH  41  43
HETATM   43  O   UNK     0      15.005   7.975  -9.775  0.00  0.00    -0.776 OA
HETATM   44  H   UNK     0      15.392   8.458 -10.577  0.00  0.00     0.167 HD
ENDBRANCH  41  43
ENDBRANCH  40  41
ENDBRANCH  39  40
ENDBRANCH  27  39
BRANCH  11  45
HETATM   45  C   UNK     0       5.970  13.900 -10.703  0.00  0.00     0.051 C 
BRANCH  45  46
HETATM   46  C   UNK     0       4.876  13.622  -9.738  0.00  0.00     0.114 C 
BRANCH  46  47
HETATM   47  C   UNK     0       3.664  14.340 -10.227  0.00  0.00     0.139 C 
HETATM   48  O   UNK     0       3.792  15.162 -11.145  0.00  0.00    -0.650 OA
BRANCH  47  49
HETATM   49  O   UNK     0       2.432  14.096  -9.674  0.00  0.00    -0.776 OA
HETATM   50  H   UNK     0       1.829  14.854  -9.332  0.00  0.00     0.167 HD
ENDBRANCH  47  49
ENDBRANCH  46  47
ENDBRANCH  45  46
ENDBRANCH  11  45
BRANCH  18  51
HETATM   51  C   UNK     0      10.796   9.250 -12.666  0.00  0.00     0.051 C 
BRANCH  51  52
HETATM   52  C   UNK     0      10.468   7.860 -12.142  0.00  0.00     0.114 C 
BRANCH  52  53
HETATM   53  C   UNK     0      11.369   7.460 -11.044  0.00  0.00     0.139 C 
HETATM   54  O   UNK     0      12.559   7.197 -11.281  0.00  0.00    -0.650 OA
BRANCH  53  55
HETATM   55  O   UNK     0      10.883   7.377  -9.762  0.00  0.00    -0.776 OA
HETATM   56  H   UNK     0      10.909   6.574  -9.178  0.00  0.00     0.167 HD
ENDBRANCH  53  55
ENDBRANCH  52  53
ENDBRANCH  51  52
ENDBRANCH  18  51
TORSDOF 16
ENDMDL
MODEL 11
REMARK VINA RESULT:      -7.4     17.878     21.077
REMARK  16 active torsions:
REMARK  status: ('A' for Active; 'I' for Inactive)
REMARK    1  A    between atoms: C_6  and  C_7 
REMARK    2  A    between atoms: C_7  and  C_8 
REMARK    3  A    between atoms: C_8  and  C_9 
REMARK    4  A    between atoms: C_9  and  O_11 
REMARK    5  A    between atoms: C_16  and  C_17 
REMARK    6  A    between atoms: C_17  and  C_18 
REMARK    7  A    between atoms: C_18  and  C_19 
REMARK    8  A    between atoms: C_19  and  O_21 
REMARK    9  A    between atoms: C_28  and  C_29 
REMARK   10  A    between atoms: C_29  and  C_30 
REMARK   11  A    between atoms: C_30  and  C_31 
REMARK   12  A    between atoms: C_31  and  O_33 
REMARK   13  A    between atoms: C_42  and  C_43 
REMARK   14  A    between atoms: C_43  and  C_44 
REMARK   15  A    between atoms: C_44  and  C_45 
REMARK   16  A    between atoms: C_45  and  O_47 
ROOT
HETATM    1  C   UNK     0       7.052  -8.530  -3.267  0.00  0.00     0.051 C 
HETATM    2  C   UNK     0       6.709  -9.034  -4.654  0.00  0.00    -0.031 A 
HETATM    3  C   UNK     0       7.545  -9.281  -5.732  0.00  0.00     0.021 A 
HETATM    4  N   UNK     0       6.798  -9.692  -6.784  0.00  0.00    -0.361 N 
HETATM    5  C   UNK     0       5.506  -9.720  -6.398  0.00  0.00     0.022 A 
HETATM    6  C   UNK     0       5.414  -9.311  -5.072  0.00  0.00    -0.027 A 
HETATM    7  C   UNK     0       4.298 -10.188  -7.148  0.00  0.00     0.115 C 
HETATM    8  C   UNK     0       4.447 -11.471  -7.948  0.00  0.00     0.021 A 
HETATM    9  N   UNK     0       5.165 -12.564  -7.649  0.00  0.00    -0.361 N 
HETATM   10  C   UNK     0       5.079 -13.420  -8.689  0.00  0.00     0.022 A 
HETATM   11  C   UNK     0       4.276 -12.866  -9.682  0.00  0.00    -0.027 A 
HETATM   12  C   UNK     0       3.874 -11.638  -9.221  0.00  0.00    -0.031 A 
HETATM   13  C   UNK     0       2.978 -10.675  -9.968  0.00  0.00     0.051 C 
HETATM   14  C   UNK     0       5.791 -14.764  -8.812  0.00  0.00     0.115 C 
HETATM   15  C   UNK     0       7.308 -14.663  -8.779  0.00  0.00     0.021 A 
HETATM   16  N   UNK     0       8.075 -14.146  -7.802  0.00  0.00    -0.361 N 
HETATM   17  C   UNK     0       9.354 -14.180  -8.184  0.00  0.00     0.022 A 
HETATM   18  C   UNK     0       9.423 -14.756  -9.468  0.00  0.00    -0.027 A 
HETATM   19  C   UNK     0       8.135 -15.055  -9.829  0.00  0.00    -0.031 A 
HETATM   20  C   UNK     0       7.760 -15.728 -11.137  0.00  0.00     0.051 C 
HETATM   21  C   UNK     0      10.591 -13.660  -7.488  0.00  0.00     0.115 C 
HETATM   22  C   UNK     0      10.447 -12.409  -6.652  0.00  0.00     0.022 A 
HETATM   23  N   UNK     0       9.736 -11.307  -6.924  0.00  0.00    -0.361 N 
HETATM   24  C   UNK     0       9.772 -10.503  -5.842  0.00  0.00     0.021 A 
HETATM   25  C   UNK     0      10.534 -11.097  -4.854  0.00  0.00    -0.031 A 
HETATM   26  C   UNK     0      10.898 -10.567  -3.483  0.00  0.00     0.051 C 
HETATM   27  C   UNK     0      10.977 -12.318  -5.350  0.00  0.00    -0.027 A 
HETATM   28  C   UNK     0       9.041  -9.187  -5.637  0.00  0.00     0.115 C 
HETATM   29  H   UNK     0       7.185  -9.922  -7.804  0.00  0.00     0.165 HD
HETATM   30  H   UNK     0       5.694 -12.756  -6.683  0.00  0.00     0.165 HD
HETATM   31  H   UNK     0       7.713 -13.793  -6.801  0.00  0.00     0.165 HD
HETATM   32  H   UNK     0       9.236 -11.067  -7.898  0.00  0.00     0.165 HD
ENDROOT
BRANCH   6  33
HETATM   33  C   UNK     0       4.204  -9.164  -4.184  0.00  0.00     0.051 C 
BRANCH  33  34
HETATM   34  C   UNK     0       3.454  -7.894  -4.507  0.00  0.00     0.114 C 
BRANCH  34  35
HETATM   35  C   UNK     0       4.110  -6.785  -3.756  0.00  0.00     0.139 C 
HETATM   36  O   UNK     0       4.186  -6.829  -2.493  0.00  0.00    -0.650 OA
BRANCH  35  37
HETATM   37  O   UNK     0       4.661  -5.676  -4.386  0.00  0.00    -0.776 OA
HETATM   38  H   UNK     0       4.356  -4.738  -4.181  0.00  0.00     0.167 HD
ENDBRANCH  35  37
ENDBRANCH  34  35
ENDBRANCH  33  34
ENDBRANCH   6  33
BRANCH  27  39
HETATM   39  C   UNK     0      11.890 -13.216  -4.592  0.00  0.00     0.051 C 
BRANCH  39  40
HETATM   40  C   UNK     0      11.309 -14.349  -3.872  0.00  0.00     0.114 C 
BRANCH  40  41
HETATM   41  C   UNK     0       9.899 -14.423  -3.561  0.00  0.00     0.139 C 
HETATM   42  O   UNK     0       9.387 -13.872  -2.577  0.00  0.00    -0.650 OA
BRANCH  41  43
HETATM   43  O   UNK     0       9.039 -15.164  -4.420  0.00  0.00    -0.776 OA
HETATM   44  H   UNK     0       8.513 -15.895  -3.957  0.00  0.00     0.167 HD
ENDBRANCH  41  43
ENDBRANCH  40  41
ENDBRANCH  39  40
ENDBRANCH  27  39
BRANCH  11  45
HETATM   45  C   UNK     0       3.887 -13.451 -11.013  0.00  0.00     0.051 C 
BRANCH  45  46
HETATM   46  C   UNK     0       5.001 -13.522 -11.993  0.00  0.00     0.114 C 
BRANCH  46  47
HETATM   47  C   UNK     0       5.284 -12.128 -12.441  0.00  0.00     0.139 C 
HETATM   48  O   UNK     0       4.436 -11.543 -13.129  0.00  0.00    -0.650 OA
BRANCH  47  49
HETATM   49  O   UNK     0       6.459 -11.506 -12.101  0.00  0.00    -0.776 OA
HETATM   50  H   UNK     0       7.141 -11.938 -11.466  0.00  0.00     0.167 HD
ENDBRANCH  47  49
ENDBRANCH  46  47
ENDBRANCH  45  46
ENDBRANCH  11  45
BRANCH  18  51
HETATM   51  C   UNK     0      10.652 -15.025 -10.297  0.00  0.00     0.051 C 
BRANCH  51  52
HETATM   52  C   UNK     0      10.515 -14.175 -11.552  0.00  0.00     0.114 C 
BRANCH  52  53
HETATM   53  C   UNK     0      10.444 -12.736 -11.236  0.00  0.00     0.139 C 
HETATM   54  O   UNK     0      11.414 -12.167 -10.708  0.00  0.00    -0.650 OA
BRANCH  53  55
HETATM   55  O   UNK     0       9.301 -12.031 -11.526  0.00  0.00    -0.776 OA
HETATM   56  H   UNK     0       9.255 -11.170 -12.018  0.00  0.00     0.167 HD
ENDBRANCH  53  55
ENDBRANCH  52  53
ENDBRANCH  51  52
ENDBRANCH  18  51
TORSDOF 16
ENDMDL
MODEL 12
REMARK VINA RESULT:      -7.3      9.475     13.321
REMARK  16 active torsions:
REMARK  status: ('A' for Active; 'I' for Inactive)
REMARK    1  A    between atoms: C_6  and  C_7 
REMARK    2  A    between atoms: C_7  and  C_8 
REMARK    3  A    between atoms: C_8  and  C_9 
REMARK    4  A    between atoms: C_9  and  O_11 
REMARK    5  A    between atoms: C_16  and  C_17 
REMARK    6  A    between atoms: C_17  and  C_18 
REMARK    7  A    between atoms: C_18  and  C_19 
REMARK    8  A    between atoms: C_19  and  O_21 
REMARK    9  A    between atoms: C_28  and  C_29 
REMARK   10  A    between atoms: C_29  and  C_30 
REMARK   11  A    between atoms: C_30  and  C_31 
REMARK   12  A    between atoms: C_31  and  O_33 
REMARK   13  A    between atoms: C_42  and  C_43 
REMARK   14  A    between atoms: C_43  and  C_44 
REMARK   15  A    between atoms: C_44  and  C_45 
REMARK   16  A    between atoms: C_45  and  O_47 
ROOT
HETATM    1  C   UNK     0      11.416  17.491  -6.869  0.00  0.00     0.051 C 
HETATM    2  C   UNK     0      10.672  16.606  -7.848  0.00  0.00    -0.031 A 
HETATM    3  C   UNK     0      10.950  16.338  -9.179  0.00  0.00     0.021 A 
HETATM    4  N   UNK     0       9.996  15.513  -9.672  0.00  0.00    -0.361 N 
HETATM    5  C   UNK     0       9.121  15.242  -8.682  0.00  0.00     0.022 A 
HETATM    6  C   UNK     0       9.512  15.912  -7.528  0.00  0.00    -0.027 A 
HETATM    7  C   UNK     0       7.946  14.315  -8.678  0.00  0.00     0.115 C 
HETATM    8  C   UNK     0       8.140  12.965  -9.346  0.00  0.00     0.021 A 
HETATM    9  N   UNK     0       9.240  12.197  -9.374  0.00  0.00    -0.361 N 
HETATM   10  C   UNK     0       8.986  11.129 -10.160  0.00  0.00     0.022 A 
HETATM   11  C   UNK     0       7.683  11.208 -10.644  0.00  0.00    -0.027 A 
HETATM   12  C   UNK     0       7.145  12.362 -10.135  0.00  0.00    -0.031 A 
HETATM   13  C   UNK     0       5.739  12.857 -10.390  0.00  0.00     0.051 C 
HETATM   14  C   UNK     0       9.973  10.025 -10.528  0.00  0.00     0.115 C 
HETATM   15  C   UNK     0      11.199  10.521 -11.278  0.00  0.00     0.021 A 
HETATM   16  N   UNK     0      12.100  11.433 -10.867  0.00  0.00    -0.361 N 
HETATM   17  C   UNK     0      12.987  11.644 -11.843  0.00  0.00     0.022 A 
HETATM   18  C   UNK     0      12.653  10.822 -12.938  0.00  0.00    -0.027 A 
HETATM   19  C   UNK     0      11.533  10.123 -12.571  0.00  0.00    -0.031 A 
HETATM   20  C   UNK     0      10.857   9.089 -13.452  0.00  0.00     0.051 C 
HETATM   21  C   UNK     0      14.144  12.614 -11.912  0.00  0.00     0.115 C 
HETATM   22  C   UNK     0      13.981  13.944 -11.214  0.00  0.00     0.022 A 
HETATM   23  N   UNK     0      12.896  14.729 -11.166  0.00  0.00    -0.361 N 
HETATM   24  C   UNK     0      13.146  15.745 -10.316  0.00  0.00     0.021 A 
HETATM   25  C   UNK     0      14.426  15.617  -9.812  0.00  0.00    -0.031 A 
HETATM   26  C   UNK     0      15.171  16.529  -8.859  0.00  0.00     0.051 C 
HETATM   27  C   UNK     0      14.980  14.472 -10.373  0.00  0.00    -0.027 A 
HETATM   28  C   UNK     0      12.190  16.837  -9.866  0.00  0.00     0.115 C 
HETATM   29  H   UNK     0       9.926  15.160 -10.727  0.00  0.00     0.165 HD
HETATM   30  H   UNK     0      10.181  12.380  -8.799  0.00  0.00     0.165 HD
HETATM   31  H   UNK     0      12.140  11.904  -9.851  0.00  0.00     0.165 HD
HETATM   32  H   UNK     0      11.958  14.597 -11.766  0.00  0.00     0.165 HD
ENDROOT
BRANCH   6  33
HETATM   33  C   UNK     0       8.874  15.944  -6.162  0.00  0.00     0.051 C 
BRANCH  33  34
HETATM   34  C   UNK     0       7.895  17.089  -6.055  0.00  0.00     0.114 C 
BRANCH  34  35
HETATM   35  C   UNK     0       7.612  17.300  -4.606  0.00  0.00     0.139 C 
HETATM   36  O   UNK     0       6.670  18.065  -4.246  0.00  0.00    -0.650 OA
BRANCH  35  37
HETATM   37  O   UNK     0       8.346  16.683  -3.601  0.00  0.00    -0.776 OA
HETATM   38  H   UNK     0       7.905  16.246  -2.808  0.00  0.00     0.167 HD
ENDBRANCH  35  37
ENDBRANCH  34  35
ENDBRANCH  33  34
ENDBRANCH   6  33
BRANCH  27  39
HETATM   39  C   UNK     0      16.383  14.044 -10.121  0.00  0.00     0.051 C 
BRANCH  39  40
HETATM   40  C   UNK     0      17.442  14.611 -10.955  0.00  0.00     0.114 C 
BRANCH  40  41
HETATM   41  C   UNK     0      17.541  14.331 -12.370  0.00  0.00     0.139 C 
HETATM   42  O   UNK     0      16.890  14.936 -13.233  0.00  0.00    -0.650 OA
BRANCH  41  43
HETATM   43  O   UNK     0      18.429  13.310 -12.813  0.00  0.00    -0.776 OA
HETATM   44  H   UNK     0      18.006  12.394 -12.896  0.00  0.00     0.167 HD
ENDBRANCH  41  43
ENDBRANCH  40  41
ENDBRANCH  39  40
ENDBRANCH  27  39
BRANCH  11  45
HETATM   45  C   UNK     0       6.955  10.248 -11.546  0.00  0.00     0.051 C 
BRANCH  45  46
HETATM   46  C   UNK     0       7.110  10.540 -12.994  0.00  0.00     0.114 C 
BRANCH  46  47
HETATM   47  C   UNK     0       5.776  10.341 -13.630  0.00  0.00     0.139 C 
HETATM   48  O   UNK     0       5.724   9.776 -14.731  0.00  0.00    -0.650 OA
BRANCH  47  49
HETATM   49  O   UNK     0       4.631  10.776 -13.012  0.00  0.00    -0.776 OA
HETATM   50  H   UNK     0       4.602  11.646 -12.467  0.00  0.00     0.167 HD
ENDBRANCH  47  49
ENDBRANCH  46  47
ENDBRANCH  45  46
ENDBRANCH  11  45
BRANCH  18  51
HETATM   51  C   UNK     0      13.376  10.694 -14.254  0.00  0.00     0.051 C 
BRANCH  51  52
HETATM   52  C   UNK     0      12.714  11.685 -15.201  0.00  0.00     0.114 C 
BRANCH  52  53
HETATM   53  C   UNK     0      12.132  11.014 -16.379  0.00  0.00     0.139 C 
HETATM   54  O   UNK     0      10.950  11.226 -16.694  0.00  0.00    -0.650 OA
BRANCH  53  55
HETATM   55  O   UNK     0      12.903  10.153 -17.121  0.00  0.00    -0.776 OA
HETATM   56  H   UNK     0      12.575   9.365 -17.628  0.00  0.00     0.167 HD
ENDBRANCH  53  55
ENDBRANCH  52  53
ENDBRANCH  51  52
ENDBRANCH  18  51
TORSDOF 16
ENDMDL
MODEL 13
REMARK VINA RESULT:      -7.3     16.240     20.499
REMARK  16 active torsions:
REMARK  status: ('A' for Active; 'I' for Inactive)
REMARK    1  A    between atoms: C_6  and  C_7 
REMARK    2  A    between atoms: C_7  and  C_8 
REMARK    3  A    between atoms: C_8  and  C_9 
REMARK    4  A    between atoms: C_9  and  O_11 
REMARK    5  A    between atoms: C_16  and  C_17 
REMARK    6  A    between atoms: C_17  and  C_18 
REMARK    7  A    between atoms: C_18  and  C_19 
REMARK    8  A    between atoms: C_19  and  O_21 
REMARK    9  A    between atoms: C_28  and  C_29 
REMARK   10  A    between atoms: C_29  and  C_30 
REMARK   11  A    between atoms: C_30  and  C_31 
REMARK   12  A    between atoms: C_31  and  O_33 
REMARK   13  A    between atoms: C_42  and  C_43 
REMARK   14  A    between atoms: C_43  and  C_44 
REMARK   15  A    between atoms: C_44  and  C_45 
REMARK   16  A    between atoms: C_45  and  O_47 
ROOT
HETATM    1  C   UNK     0       5.425   7.858 -18.138  0.00  0.00     0.051 C 
HETATM    2  C   UNK     0       4.451   6.703 -18.249  0.00  0.00    -0.031 A 
HETATM    3  C   UNK     0       3.450   6.310 -17.375  0.00  0.00     0.021 A 
HETATM    4  N   UNK     0       2.846   5.201 -17.866  0.00  0.00    -0.361 N 
HETATM    5  C   UNK     0       3.435   4.884 -19.037  0.00  0.00     0.022 A 
HETATM    6  C   UNK     0       4.446   5.802 -19.306  0.00  0.00    -0.027 A 
HETATM    7  C   UNK     0       3.085   3.810 -20.019  0.00  0.00     0.115 C 
HETATM    8  C   UNK     0       1.608   3.609 -20.310  0.00  0.00     0.021 A 
HETATM    9  N   UNK     0       0.636   4.531 -20.381  0.00  0.00    -0.361 N 
HETATM   10  C   UNK     0      -0.537   3.891 -20.571  0.00  0.00     0.022 A 
HETATM   11  C   UNK     0      -0.313   2.518 -20.633  0.00  0.00    -0.027 A 
HETATM   12  C   UNK     0       1.036   2.334 -20.470  0.00  0.00    -0.031 A 
HETATM   13  C   UNK     0       1.742   0.996 -20.472  0.00  0.00     0.051 C 
HETATM   14  C   UNK     0      -1.916   4.539 -20.647  0.00  0.00     0.115 C 
HETATM   15  C   UNK     0      -2.315   5.288 -19.386  0.00  0.00     0.021 A 
HETATM   16  N   UNK     0      -1.669   6.315 -18.801  0.00  0.00    -0.361 N 
HETATM   17  C   UNK     0      -2.302   6.646 -17.674  0.00  0.00     0.022 A 
HETATM   18  C   UNK     0      -3.419   5.801 -17.521  0.00  0.00    -0.027 A 
HETATM   19  C   UNK     0      -3.417   4.956 -18.600  0.00  0.00    -0.031 A 
HETATM   20  C   UNK     0      -4.478   3.900 -18.848  0.00  0.00     0.051 C 
HETATM   21  C   UNK     0      -1.945   7.675 -16.625  0.00  0.00     0.115 C 
HETATM   22  C   UNK     0      -0.479   7.918 -16.357  0.00  0.00     0.022 A 
HETATM   23  N   UNK     0       0.511   7.019 -16.284  0.00  0.00    -0.361 N 
HETATM   24  C   UNK     0       1.679   7.684 -16.173  0.00  0.00     0.021 A 
HETATM   25  C   UNK     0       1.434   9.044 -16.164  0.00  0.00    -0.031 A 
HETATM   26  C   UNK     0       2.415  10.188 -16.018  0.00  0.00     0.051 C 
HETATM   27  C   UNK     0       0.060   9.218 -16.280  0.00  0.00    -0.027 A 
HETATM   28  C   UNK     0       3.082   7.101 -16.152  0.00  0.00     0.115 C 
HETATM   29  H   UNK     0       2.035   4.627 -17.361  0.00  0.00     0.165 HD
HETATM   30  H   UNK     0       0.781   5.639 -20.348  0.00  0.00     0.165 HD
HETATM   31  H   UNK     0      -0.775   6.849 -19.217  0.00  0.00     0.165 HD
HETATM   32  H   UNK     0       0.391   5.905 -16.267  0.00  0.00     0.165 HD
ENDROOT
BRANCH   6  33
HETATM   33  C   UNK     0       5.396   5.884 -20.474  0.00  0.00     0.051 C 
BRANCH  33  34
HETATM   34  C   UNK     0       6.392   4.750 -20.434  0.00  0.00     0.114 C 
BRANCH  34  35
HETATM   35  C   UNK     0       7.395   5.073 -19.380  0.00  0.00     0.139 C 
HETATM   36  O   UNK     0       8.226   6.012 -19.557  0.00  0.00    -0.650 OA
BRANCH  35  37
HETATM   37  O   UNK     0       7.468   4.381 -18.177  0.00  0.00    -0.776 OA
HETATM   38  H   UNK     0       7.802   3.432 -18.126  0.00  0.00     0.167 HD
ENDBRANCH  35  37
ENDBRANCH  34  35
ENDBRANCH  33  34
ENDBRANCH   6  33
BRANCH  27  39
HETATM   39  C   UNK     0      -0.594  10.555 -16.234  0.00  0.00     0.051 C 
BRANCH  39  40
HETATM   40  C   UNK     0      -0.928  11.120 -14.927  0.00  0.00     0.114 C 
BRANCH  40  41
HETATM   41  C   UNK     0      -1.766  10.422 -13.978  0.00  0.00     0.139 C 
HETATM   42  O   UNK     0      -3.000  10.372 -14.062  0.00  0.00    -0.650 OA
BRANCH  41  43
HETATM   43  O   UNK     0      -1.156   9.751 -12.880  0.00  0.00    -0.776 OA
HETATM   44  H   UNK     0      -1.364  10.154 -11.974  0.00  0.00     0.167 HD
ENDBRANCH  41  43
ENDBRANCH  40  41
ENDBRANCH  39  40
ENDBRANCH  27  39
BRANCH  11  45
HETATM   45  C   UNK     0      -1.310   1.410 -20.839  0.00  0.00     0.051 C 
BRANCH  45  46
HETATM   46  C   UNK     0      -2.009   0.985 -19.599  0.00  0.00     0.114 C 
BRANCH  46  47
HETATM   47  C   UNK     0      -3.381   0.552 -19.992  0.00  0.00     0.139 C 
HETATM   48  O   UNK     0      -3.663   0.498 -21.197  0.00  0.00    -0.650 OA
BRANCH  47  49
HETATM   49  O   UNK     0      -4.312   0.221 -19.041  0.00  0.00    -0.776 OA
HETATM   50  H   UNK     0      -5.313   0.413 -19.168  0.00  0.00     0.167 HD
ENDBRANCH  47  49
ENDBRANCH  46  47
ENDBRANCH  45  46
ENDBRANCH  11  45
BRANCH  18  51
HETATM   51  C   UNK     0      -4.446   5.813 -16.418  0.00  0.00     0.051 C 
BRANCH  51  52
HETATM   52  C   UNK     0      -5.525   6.794 -16.850  0.00  0.00     0.114 C 
BRANCH  52  53
HETATM   53  C   UNK     0      -5.660   7.916 -15.900  0.00  0.00     0.139 C 
HETATM   54  O   UNK     0      -5.221   7.807 -14.744  0.00  0.00    -0.650 OA
BRANCH  53  55
HETATM   55  O   UNK     0      -6.275   9.076 -16.301  0.00  0.00    -0.776 OA
HETATM   56  H   UNK     0      -6.793   9.203 -17.139  0.00  0.00     0.167 HD
ENDBRANCH  53  55
ENDBRANCH  52  53
ENDBRANCH  51  52
ENDBRANCH  18  51
TORSDOF 16
ENDMDL
MODEL 14
REMARK VINA RESULT:      -7.2     10.147     15.080
REMARK  16 active torsions:
REMARK  status: ('A' for Active; 'I' for Inactive)
REMARK    1  A    between atoms: C_6  and  C_7 
REMARK    2  A    between atoms: C_7  and  C_8 
REMARK    3  A    between atoms: C_8  and  C_9 
REMARK    4  A    between atoms: C_9  and  O_11 
REMARK    5  A    between atoms: C_16  and  C_17 
REMARK    6  A    between atoms: C_17  and  C_18 
REMARK    7  A    between atoms: C_18  and  C_19 
REMARK    8  A    between atoms: C_19  and  O_21 
REMARK    9  A    between atoms: C_28  and  C_29 
REMARK   10  A    between atoms: C_29  and  C_30 
REMARK   11  A    between atoms: C_30  and  C_31 
REMARK   12  A    between atoms: C_31  and  O_33 
REMARK   13  A    between atoms: C_42  and  C_43 
REMARK   14  A    between atoms: C_43  and  C_44 
REMARK   15  A    between atoms: C_44  and  C_45 
REMARK   16  A    between atoms: C_45  and  O_47 
ROOT
HETATM    1  C   UNK     0       4.845   6.028 -15.669  0.00  0.00     0.051 C 
HETATM    2  C   UNK     0       5.469   6.162 -17.043  0.00  0.00    -0.031 A 
HETATM    3  C   UNK     0       6.051   7.269 -17.641  0.00  0.00     0.021 A 
HETATM    4  N   UNK     0       6.447   6.937 -18.892  0.00  0.00    -0.361 N 
HETATM    5  C   UNK     0       6.139   5.641 -19.102  0.00  0.00     0.022 A 
HETATM    6  C   UNK     0       5.523   5.126 -17.966  0.00  0.00    -0.027 A 
HETATM    7  C   UNK     0       6.446   4.768 -20.278  0.00  0.00     0.115 C 
HETATM    8  C   UNK     0       7.837   4.892 -20.875  0.00  0.00     0.021 A 
HETATM    9  N   UNK     0       9.000   5.116 -20.245  0.00  0.00    -0.361 N 
HETATM   10  C   UNK     0       9.966   5.243 -21.179  0.00  0.00     0.022 A 
HETATM   11  C   UNK     0       9.411   5.087 -22.446  0.00  0.00    -0.027 A 
HETATM   12  C   UNK     0       8.070   4.865 -22.262  0.00  0.00    -0.031 A 
HETATM   13  C   UNK     0       7.063   4.633 -23.365  0.00  0.00     0.051 C 
HETATM   14  C   UNK     0      11.434   5.568 -20.920  0.00  0.00     0.115 C 
HETATM   15  C   UNK     0      11.657   6.909 -20.239  0.00  0.00     0.021 A 
HETATM   16  N   UNK     0      11.173   7.318 -19.051  0.00  0.00    -0.361 N 
HETATM   17  C   UNK     0      11.538   8.585 -18.841  0.00  0.00     0.022 A 
HETATM   18  C   UNK     0      12.304   9.019 -19.941  0.00  0.00    -0.027 A 
HETATM   19  C   UNK     0      12.372   7.961 -20.809  0.00  0.00    -0.031 A 
HETATM   20  C   UNK     0      13.140   7.990 -22.117  0.00  0.00     0.051 C 
HETATM   21  C   UNK     0      11.195   9.519 -17.703  0.00  0.00     0.115 C 
HETATM   22  C   UNK     0       9.831   9.377 -17.071  0.00  0.00     0.022 A 
HETATM   23  N   UNK     0       8.656   9.149 -17.673  0.00  0.00    -0.361 N 
HETATM   24  C   UNK     0       7.723   8.949 -16.721  0.00  0.00     0.021 A 
HETATM   25  C   UNK     0       8.309   9.060 -15.475  0.00  0.00    -0.031 A 
HETATM   26  C   UNK     0       7.667   8.958 -14.107  0.00  0.00     0.051 C 
HETATM   27  C   UNK     0       9.658   9.334 -15.673  0.00  0.00    -0.027 A 
HETATM   28  C   UNK     0       6.266   8.566 -16.913  0.00  0.00     0.115 C 
HETATM   29  H   UNK     0       6.907   7.632 -19.633  0.00  0.00     0.165 HD
HETATM   30  H   UNK     0       9.152   5.136 -19.137  0.00  0.00     0.165 HD
HETATM   31  H   UNK     0      10.603   6.685 -18.323  0.00  0.00     0.165 HD
HETATM   32  H   UNK     0       8.466   9.170 -18.778  0.00  0.00     0.165 HD
ENDROOT
BRANCH   6  33
HETATM   33  C   UNK     0       4.986   3.743 -17.696  0.00  0.00     0.051 C 
BRANCH  33  34
HETATM   34  C   UNK     0       6.066   2.851 -17.131  0.00  0.00     0.114 C 
BRANCH  34  35
HETATM   35  C   UNK     0       5.726   2.590 -15.702  0.00  0.00     0.139 C 
HETATM   36  O   UNK     0       4.763   1.824 -15.407  0.00  0.00    -0.650 OA
BRANCH  35  37
HETATM   37  O   UNK     0       6.432   3.156 -14.648  0.00  0.00    -0.776 OA
HETATM   38  H   UNK     0       6.670   4.135 -14.629  0.00  0.00     0.167 HD
ENDBRANCH  35  37
ENDBRANCH  34  35
ENDBRANCH  33  34
ENDBRANCH   6  33
BRANCH  27  39
HETATM   39  C   UNK     0      10.605   9.593 -14.554  0.00  0.00     0.051 C 
BRANCH  39  40
HETATM   40  C   UNK     0      11.473   8.501 -14.114  0.00  0.00     0.114 C 
BRANCH  40  41
HETATM   41  C   UNK     0      11.162   7.687 -12.960  0.00  0.00     0.139 C 
HETATM   42  O   UNK     0      10.284   7.977 -12.136  0.00  0.00    -0.650 OA
BRANCH  41  43
HETATM   43  O   UNK     0      11.895   6.486 -12.744  0.00  0.00    -0.776 OA
HETATM   44  H   UNK     0      11.378   5.638 -12.944  0.00  0.00     0.167 HD
ENDBRANCH  41  43
ENDBRANCH  40  41
ENDBRANCH  39  40
ENDBRANCH  27  39
BRANCH  11  45
HETATM   45  C   UNK     0      10.094   5.137 -23.786  0.00  0.00     0.051 C 
BRANCH  45  46
HETATM   46  C   UNK     0      10.270   6.510 -24.326  0.00  0.00     0.114 C 
BRANCH  46  47
HETATM   47  C   UNK     0      11.542   6.519 -25.104  0.00  0.00     0.139 C 
HETATM   48  O   UNK     0      12.374   5.626 -24.889  0.00  0.00    -0.650 OA
BRANCH  47  49
HETATM   49  O   UNK     0      11.788   7.495 -26.036  0.00  0.00    -0.776 OA
HETATM   50  H   UNK     0      12.292   7.300 -26.909  0.00  0.00     0.167 HD
ENDBRANCH  47  49
ENDBRANCH  46  47
ENDBRANCH  45  46
ENDBRANCH  11  45
BRANCH  18  51
HETATM   51  C   UNK     0      12.954  10.364 -20.144  0.00  0.00     0.051 C 
BRANCH  51  52
HETATM   52  C   UNK     0      14.340  10.265 -19.525  0.00  0.00     0.114 C 
BRANCH  52  53
HETATM   53  C   UNK     0      14.634  11.414 -18.649  0.00  0.00     0.139 C 
HETATM   54  O   UNK     0      14.111  11.490 -17.526  0.00  0.00    -0.650 OA
BRANCH  53  55
HETATM   55  O   UNK     0      15.487  12.400 -19.084  0.00  0.00    -0.776 OA
HETATM   56  H   UNK     0      15.276  13.369 -19.146  0.00  0.00     0.167 HD
ENDBRANCH  53  55
ENDBRANCH  52  53
ENDBRANCH  51  52
ENDBRANCH  18  51
TORSDOF 16
ENDMDL
MODEL 15
REMARK VINA RESULT:      -7.2     21.929     26.210
REMARK  16 active torsions:
REMARK  status: ('A' for Active; 'I' for Inactive)
REMARK    1  A    between atoms: C_6  and  C_7 
REMARK    2  A    between atoms: C_7  and  C_8 
REMARK    3  A    between atoms: C_8  and  C_9 
REMARK    4  A    between atoms: C_9  and  O_11 
REMARK    5  A    between atoms: C_16  and  C_17 
REMARK    6  A    between atoms: C_17  and  C_18 
REMARK    7  A    between atoms: C_18  and  C_19 
REMARK    8  A    between atoms: C_19  and  O_21 
REMARK    9  A    between atoms: C_28  and  C_29 
REMARK   10  A    between atoms: C_29  and  C_30 
REMARK   11  A    between atoms: C_30  and  C_31 
REMARK   12  A    between atoms: C_31  and  O_33 
REMARK   13  A    between atoms: C_42  and  C_43 
REMARK   14  A    between atoms: C_43  and  C_44 
REMARK   15  A    between atoms: C_44  and  C_45 
REMARK   16  A    between atoms: C_45  and  O_47 
ROOT
HETATM    1  C   UNK     0      -4.512   4.438 -18.232  0.00  0.00     0.051 C 
HETATM    2  C   UNK     0      -4.008   5.854 -18.043  0.00  0.00    -0.031 A 
HETATM    3  C   UNK     0      -3.597   6.775 -18.993  0.00  0.00     0.021 A 
HETATM    4  N   UNK     0      -3.197   7.907 -18.367  0.00  0.00    -0.361 N 
HETATM    5  C   UNK     0      -3.353   7.730 -17.038  0.00  0.00     0.022 A 
HETATM    6  C   UNK     0      -3.856   6.456 -16.801  0.00  0.00    -0.027 A 
HETATM    7  C   UNK     0      -3.147   8.702 -15.918  0.00  0.00     0.115 C 
HETATM    8  C   UNK     0      -3.656  10.115 -16.140  0.00  0.00     0.021 A 
HETATM    9  N   UNK     0      -4.751  10.515 -16.804  0.00  0.00    -0.361 N 
HETATM   10  C   UNK     0      -4.759  11.865 -16.825  0.00  0.00     0.022 A 
HETATM   11  C   UNK     0      -3.643  12.348 -16.149  0.00  0.00    -0.027 A 
HETATM   12  C   UNK     0      -2.943  11.251 -15.714  0.00  0.00    -0.031 A 
HETATM   13  C   UNK     0      -1.655  11.292 -14.923  0.00  0.00     0.051 C 
HETATM   14  C   UNK     0      -5.785  12.749 -17.527  0.00  0.00     0.115 C 
HETATM   15  C   UNK     0      -5.853  12.539 -19.032  0.00  0.00     0.021 A 
HETATM   16  N   UNK     0      -6.126  11.396 -19.690  0.00  0.00    -0.361 N 
HETATM   17  C   UNK     0      -6.019  11.611 -21.003  0.00  0.00     0.022 A 
HETATM   18  C   UNK     0      -5.670  12.960 -21.211  0.00  0.00    -0.027 A 
HETATM   19  C   UNK     0      -5.571  13.530 -19.969  0.00  0.00    -0.031 A 
HETATM   20  C   UNK     0      -5.246  14.995 -19.736  0.00  0.00     0.051 C 
HETATM   21  C   UNK     0      -6.153  10.646 -22.159  0.00  0.00     0.115 C 
HETATM   22  C   UNK     0      -5.691   9.224 -21.938  0.00  0.00     0.022 A 
HETATM   23  N   UNK     0      -4.607   8.797 -21.278  0.00  0.00    -0.361 N 
HETATM   24  C   UNK     0      -4.661   7.452 -21.201  0.00  0.00     0.021 A 
HETATM   25  C   UNK     0      -5.802   7.001 -21.837  0.00  0.00    -0.031 A 
HETATM   26  C   UNK     0      -6.277   5.579 -22.049  0.00  0.00     0.051 C 
HETATM   27  C   UNK     0      -6.478   8.118 -22.317  0.00  0.00    -0.027 A 
HETATM   28  C   UNK     0      -3.707   6.523 -20.471  0.00  0.00     0.115 C 
HETATM   29  H   UNK     0      -2.770   8.809 -18.865  0.00  0.00     0.165 HD
HETATM   30  H   UNK     0      -5.547   9.848 -17.215  0.00  0.00     0.165 HD
HETATM   31  H   UNK     0      -6.447  10.430 -19.220  0.00  0.00     0.165 HD
HETATM   32  H   UNK     0      -3.771   9.439 -20.897  0.00  0.00     0.165 HD
ENDROOT
BRANCH   6  33
HETATM   33  C   UNK     0      -4.196   5.774 -15.500  0.00  0.00     0.051 C 
BRANCH  33  34
HETATM   34  C   UNK     0      -5.692   5.681 -15.319  0.00  0.00     0.114 C 
BRANCH  34  35
HETATM   35  C   UNK     0      -6.235   7.069 -15.371  0.00  0.00     0.139 C 
HETATM   36  O   UNK     0      -6.980   7.427 -16.329  0.00  0.00    -0.650 OA
BRANCH  35  37
HETATM   37  O   UNK     0      -5.960   8.018 -14.394  0.00  0.00    -0.776 OA
HETATM   38  H   UNK     0      -5.551   8.911 -14.616  0.00  0.00     0.167 HD
ENDBRANCH  35  37
ENDBRANCH  34  35
ENDBRANCH  33  34
ENDBRANCH   6  33
BRANCH  27  39
HETATM   39  C   UNK     0      -7.725   8.025 -23.124  0.00  0.00     0.051 C 
BRANCH  39  40
HETATM   40  C   UNK     0      -8.969   7.673 -22.442  0.00  0.00     0.114 C 
BRANCH  40  41
HETATM   41  C   UNK     0      -9.822   6.599 -22.899  0.00  0.00     0.139 C 
HETATM   42  O   UNK     0     -10.475   5.874 -22.136  0.00  0.00    -0.650 OA
BRANCH  41  43
HETATM   43  O   UNK     0      -9.927   6.347 -24.296  0.00  0.00    -0.776 OA
HETATM   44  H   UNK     0      -9.738   5.388 -24.564  0.00  0.00     0.167 HD
ENDBRANCH  41  43
ENDBRANCH  40  41
ENDBRANCH  39  40
ENDBRANCH  27  39
BRANCH  11  45
HETATM   45  C   UNK     0      -3.233  13.775 -15.907  0.00  0.00     0.051 C 
BRANCH  45  46
HETATM   46  C   UNK     0      -2.395  14.357 -16.986  0.00  0.00     0.114 C 
BRANCH  46  47
HETATM   47  C   UNK     0      -2.854  15.760 -17.195  0.00  0.00     0.139 C 
HETATM   48  O   UNK     0      -3.687  16.233 -16.409  0.00  0.00    -0.650 OA
BRANCH  47  49
HETATM   49  O   UNK     0      -2.366  16.512 -18.233  0.00  0.00    -0.776 OA
HETATM   50  H   UNK     0      -1.372  16.762 -18.306  0.00  0.00     0.167 HD
ENDBRANCH  47  49
ENDBRANCH  46  47
ENDBRANCH  45  46
ENDBRANCH  11  45
BRANCH  18  51
HETATM   51  C   UNK     0      -5.464  13.671 -22.523  0.00  0.00     0.051 C 
BRANCH  51  52
HETATM   52  C   UNK     0      -4.201  13.082 -23.133  0.00  0.00     0.114 C 
BRANCH  52  53
HETATM   53  C   UNK     0      -3.959  13.592 -24.496  0.00  0.00     0.139 C 
HETATM   54  O   UNK     0      -3.227  12.962 -25.275  0.00  0.00    -0.650 OA
BRANCH  53  55
HETATM   55  O   UNK     0      -4.546  14.769 -24.895  0.00  0.00    -0.776 OA
HETATM   56  H   UNK     0      -4.342  15.270 -25.728  0.00  0.00     0.167 HD
ENDBRANCH  53  55
ENDBRANCH  52  53
ENDBRANCH  51  52
ENDBRANCH  18  51
TORSDOF 16
ENDMDL
MODEL 16
REMARK VINA RESULT:      -7.2     17.281     21.251
REMARK  16 active torsions:
REMARK  status: ('A' for Active; 'I' for Inactive)
REMARK    1  A    between atoms: C_6  and  C_7 
REMARK    2  A    between atoms: C_7  and  C_8 
REMARK    3  A    between atoms: C_8  and  C_9 
REMARK    4  A    between atoms: C_9  and  O_11 
REMARK    5  A    between atoms: C_16  and  C_17 
REMARK    6  A    between atoms: C_17  and  C_18 
REMARK    7  A    between atoms: C_18  and  C_19 
REMARK    8  A    between atoms: C_19  and  O_21 
REMARK    9  A    between atoms: C_28  and  C_29 
REMARK   10  A    between atoms: C_29  and  C_30 
REMARK   11  A    between atoms: C_30  and  C_31 
REMARK   12  A    between atoms: C_31  and  O_33 
REMARK   13  A    between atoms: C_42  and  C_43 
REMARK   14  A    between atoms: C_43  and  C_44 
REMARK   15  A    between atoms: C_44  and  C_45 
REMARK   16  A    between atoms: C_45  and  O_47 
ROOT
HETATM    1  C   UNK     0       4.022   4.379 -18.271  0.00  0.00     0.051 C 
HETATM    2  C   UNK     0       2.970   5.463 -18.153  0.00  0.00    -0.031 A 
HETATM    3  C   UNK     0       2.015   5.866 -19.073  0.00  0.00     0.021 A 
HETATM    4  N   UNK     0       1.306   6.895 -18.551  0.00  0.00    -0.361 N 
HETATM    5  C   UNK     0       1.783   7.151 -17.315  0.00  0.00     0.022 A 
HETATM    6  C   UNK     0       2.826   6.275 -17.035  0.00  0.00    -0.027 A 
HETATM    7  C   UNK     0       1.290   8.121 -16.287  0.00  0.00     0.115 C 
HETATM    8  C   UNK     0      -0.214   8.213 -16.102  0.00  0.00     0.021 A 
HETATM    9  N   UNK     0      -1.128   7.233 -16.179  0.00  0.00    -0.361 N 
HETATM   10  C   UNK     0      -2.350   7.787 -16.038  0.00  0.00     0.022 A 
HETATM   11  C   UNK     0      -2.220   9.161 -15.855  0.00  0.00    -0.027 A 
HETATM   12  C   UNK     0      -0.877   9.435 -15.893  0.00  0.00    -0.031 A 
HETATM   13  C   UNK     0      -0.261  10.807 -15.733  0.00  0.00     0.051 C 
HETATM   14  C   UNK     0      -3.687   7.055 -16.123  0.00  0.00     0.115 C 
HETATM   15  C   UNK     0      -3.939   6.388 -17.465  0.00  0.00     0.021 A 
HETATM   16  N   UNK     0      -3.187   5.451 -18.071  0.00  0.00    -0.361 N 
HETATM   17  C   UNK     0      -3.710   5.175 -19.268  0.00  0.00     0.022 A 
HETATM   18  C   UNK     0      -4.864   5.963 -19.447  0.00  0.00    -0.027 A 
HETATM   19  C   UNK     0      -4.997   6.718 -18.310  0.00  0.00    -0.031 A 
HETATM   20  C   UNK     0      -6.140   7.687 -18.070  0.00  0.00     0.051 C 
HETATM   21  C   UNK     0      -3.209   4.256 -20.359  0.00  0.00     0.115 C 
HETATM   22  C   UNK     0      -1.713   4.121 -20.525  0.00  0.00     0.022 A 
HETATM   23  N   UNK     0      -0.780   5.078 -20.449  0.00  0.00    -0.361 N 
HETATM   24  C   UNK     0       0.433   4.493 -20.514  0.00  0.00     0.021 A 
HETATM   25  C   UNK     0       0.277   3.127 -20.646  0.00  0.00    -0.031 A 
HETATM   26  C   UNK     0       1.338   2.056 -20.798  0.00  0.00     0.051 C 
HETATM   27  C   UNK     0      -1.088   2.864 -20.656  0.00  0.00    -0.027 A 
HETATM   28  C   UNK     0       1.793   5.156 -20.378  0.00  0.00     0.115 C 
HETATM   29  H   UNK     0       0.500   7.460 -19.075  0.00  0.00     0.165 HD
HETATM   30  H   UNK     0      -0.910   6.142 -16.284  0.00  0.00     0.165 HD
HETATM   31  H   UNK     0      -2.295   4.938 -17.626  0.00  0.00     0.165 HD
HETATM   32  H   UNK     0      -0.970   6.182 -20.392  0.00  0.00     0.165 HD
ENDROOT
BRANCH   6  33
HETATM   33  C   UNK     0       3.688   6.154 -15.804  0.00  0.00     0.051 C 
BRANCH  33  34
HETATM   34  C   UNK     0       4.926   7.009 -15.931  0.00  0.00     0.114 C 
BRANCH  34  35
HETATM   35  C   UNK     0       6.104   6.096 -15.898  0.00  0.00     0.139 C 
HETATM   36  O   UNK     0       7.172   6.411 -16.500  0.00  0.00    -0.650 OA
BRANCH  35  37
HETATM   37  O   UNK     0       6.094   4.883 -15.220  0.00  0.00    -0.776 OA
HETATM   38  H   UNK     0       6.261   4.823 -14.229  0.00  0.00     0.167 HD
ENDBRANCH  35  37
ENDBRANCH  34  35
ENDBRANCH  33  34
ENDBRANCH   6  33
BRANCH  27  39
HETATM   39  C   UNK     0      -1.650   1.500 -20.855  0.00  0.00     0.051 C 
BRANCH  39  40
HETATM   40  C   UNK     0      -1.987   0.709 -19.672  0.00  0.00     0.114 C 
BRANCH  40  41
HETATM   41  C   UNK     0      -3.155   0.988 -18.866  0.00  0.00     0.139 C 
HETATM   42  O   UNK     0      -3.170   1.823 -17.951  0.00  0.00    -0.650 OA
BRANCH  41  43
HETATM   43  O   UNK     0      -4.359   0.274 -19.124  0.00  0.00    -0.776 OA
HETATM   44  H   UNK     0      -5.195   0.846 -19.118  0.00  0.00     0.167 HD
ENDBRANCH  41  43
ENDBRANCH  40  41
ENDBRANCH  39  40
ENDBRANCH  27  39
BRANCH  11  45
HETATM   45  C   UNK     0      -3.299  10.189 -15.647  0.00  0.00     0.051 C 
BRANCH  45  46
HETATM   46  C   UNK     0      -3.306  10.795 -14.291  0.00  0.00     0.114 C 
BRANCH  46  47
HETATM   47  C   UNK     0      -4.123   9.907 -13.415  0.00  0.00     0.139 C 
HETATM   48  O   UNK     0      -3.683   9.614 -12.294  0.00  0.00    -0.650 OA
BRANCH  47  49
HETATM   49  O   UNK     0      -5.335   9.423 -13.839  0.00  0.00    -0.776 OA
HETATM   50  H   UNK     0      -5.411   8.592 -14.437  0.00  0.00     0.167 HD
ENDBRANCH  47  49
ENDBRANCH  46  47
ENDBRANCH  45  46
ENDBRANCH  11  45
BRANCH  18  51
HETATM   51  C   UNK     0      -5.800   5.981 -20.627  0.00  0.00     0.051 C 
BRANCH  51  52
HETATM   52  C   UNK     0      -5.247   7.019 -21.593  0.00  0.00     0.114 C 
BRANCH  52  53
HETATM   53  C   UNK     0      -5.038   6.458 -22.942  0.00  0.00     0.139 C 
HETATM   54  O   UNK     0      -4.474   7.134 -23.816  0.00  0.00    -0.650 OA
BRANCH  53  55
HETATM   55  O   UNK     0      -5.474   5.186 -23.224  0.00  0.00    -0.776 OA
HETATM   56  H   UNK     0      -5.800   4.520 -22.563  0.00  0.00     0.167 HD
ENDBRANCH  53  55
ENDBRANCH  52  53
ENDBRANCH  51  52
ENDBRANCH  18  51
TORSDOF 16
ENDMDL
MODEL 17
REMARK VINA RESULT:      -7.2     18.322     22.241
REMARK  16 active torsions:
REMARK  status: ('A' for Active; 'I' for Inactive)
REMARK    1  A    between atoms: C_6  and  C_7 
REMARK    2  A    between atoms: C_7  and  C_8 
REMARK    3  A    between atoms: C_8  and  C_9 
REMARK    4  A    between atoms: C_9  and  O_11 
REMARK    5  A    between atoms: C_16  and  C_17 
REMARK    6  A    between atoms: C_17  and  C_18 
REMARK    7  A    between atoms: C_18  and  C_19 
REMARK    8  A    between atoms: C_19  and  O_21 
REMARK    9  A    between atoms: C_28  and  C_29 
REMARK   10  A    between atoms: C_29  and  C_30 
REMARK   11  A    between atoms: C_30  and  C_31 
REMARK   12  A    between atoms: C_31  and  O_33 
REMARK   13  A    between atoms: C_42  and  C_43 
REMARK   14  A    between atoms: C_43  and  C_44 
REMARK   15  A    between atoms: C_44  and  C_45 
REMARK   16  A    between atoms: C_45  and  O_47 
ROOT
HETATM    1  C   UNK     0      -4.298   0.702 -22.541  0.00  0.00     0.051 C 
HETATM    2  C   UNK     0      -4.028   1.463 -21.258  0.00  0.00    -0.031 A 
HETATM    3  C   UNK     0      -2.919   1.423 -20.429  0.00  0.00     0.021 A 
HETATM    4  N   UNK     0      -3.126   2.249 -19.375  0.00  0.00    -0.361 N 
HETATM    5  C   UNK     0      -4.340   2.820 -19.520  0.00  0.00     0.022 A 
HETATM    6  C   UNK     0      -4.933   2.348 -20.686  0.00  0.00    -0.027 A 
HETATM    7  C   UNK     0      -5.003   3.872 -18.686  0.00  0.00     0.115 C 
HETATM    8  C   UNK     0      -4.131   5.026 -18.226  0.00  0.00     0.021 A 
HETATM    9  N   UNK     0      -3.125   5.628 -18.880  0.00  0.00    -0.361 N 
HETATM   10  C   UNK     0      -2.574   6.542 -18.054  0.00  0.00     0.022 A 
HETATM   11  C   UNK     0      -3.249   6.536 -16.837  0.00  0.00    -0.027 A 
HETATM   12  C   UNK     0      -4.231   5.584 -16.938  0.00  0.00    -0.031 A 
HETATM   13  C   UNK     0      -5.222   5.230 -15.852  0.00  0.00     0.051 C 
HETATM   14  C   UNK     0      -1.360   7.416 -18.358  0.00  0.00     0.115 C 
HETATM   15  C   UNK     0      -0.090   6.630 -18.639  0.00  0.00     0.021 A 
HETATM   16  N   UNK     0       0.111   5.710 -19.601  0.00  0.00    -0.361 N 
HETATM   17  C   UNK     0       1.337   5.199 -19.471  0.00  0.00     0.022 A 
HETATM   18  C   UNK     0       1.969   5.823 -18.377  0.00  0.00    -0.027 A 
HETATM   19  C   UNK     0       1.066   6.718 -17.866  0.00  0.00    -0.031 A 
HETATM   20  C   UNK     0       1.357   7.634 -16.691  0.00  0.00     0.051 C 
HETATM   21  C   UNK     0       2.017   4.094 -20.247  0.00  0.00     0.115 C 
HETATM   22  C   UNK     0       1.154   2.961 -20.749  0.00  0.00     0.022 A 
HETATM   23  N   UNK     0       0.144   2.346 -20.120  0.00  0.00    -0.361 N 
HETATM   24  C   UNK     0      -0.440   1.495 -20.989  0.00  0.00     0.021 A 
HETATM   25  C   UNK     0       0.218   1.556 -22.202  0.00  0.00    -0.031 A 
HETATM   26  C   UNK     0      -0.041   0.764 -23.467  0.00  0.00     0.051 C 
HETATM   27  C   UNK     0       1.242   2.487 -22.074  0.00  0.00    -0.027 A 
HETATM   28  C   UNK     0      -1.679   0.645 -20.767  0.00  0.00     0.115 C 
HETATM   29  H   UNK     0      -2.430   2.392 -18.516  0.00  0.00     0.165 HD
HETATM   30  H   UNK     0      -2.833   5.444 -19.943  0.00  0.00     0.165 HD
HETATM   31  H   UNK     0      -0.611   5.448 -20.419  0.00  0.00     0.165 HD
HETATM   32  H   UNK     0      -0.140   2.475 -19.044  0.00  0.00     0.165 HD
ENDROOT
BRANCH   6  33
HETATM   33  C   UNK     0      -6.277   2.669 -21.289  0.00  0.00     0.051 C 
BRANCH  33  34
HETATM   34  C   UNK     0      -6.220   3.963 -22.066  0.00  0.00     0.114 C 
BRANCH  34  35
HETATM   35  C   UNK     0      -7.608   4.503 -22.136  0.00  0.00     0.139 C 
HETATM   36  O   UNK     0      -7.823   5.736 -21.944  0.00  0.00    -0.650 OA
BRANCH  35  37
HETATM   37  O   UNK     0      -8.710   3.703 -22.413  0.00  0.00    -0.776 OA
HETATM   38  H   UNK     0      -9.411   3.501 -21.718  0.00  0.00     0.167 HD
ENDBRANCH  35  37
ENDBRANCH  34  35
ENDBRANCH  33  34
ENDBRANCH   6  33
BRANCH  27  39
HETATM   39  C   UNK     0       2.217   2.775 -23.160  0.00  0.00     0.051 C 
BRANCH  39  40
HETATM   40  C   UNK     0       3.564   2.215 -23.050  0.00  0.00     0.114 C 
BRANCH  40  41
HETATM   41  C   UNK     0       3.871   1.116 -22.162  0.00  0.00     0.139 C 
HETATM   42  O   UNK     0       3.700  -0.073 -22.462  0.00  0.00    -0.650 OA
BRANCH  41  43
HETATM   43  O   UNK     0       4.400   1.398 -20.871  0.00  0.00    -0.776 OA
HETATM   44  H   UNK     0       4.579   0.579 -20.303  0.00  0.00     0.167 HD
ENDBRANCH  41  43
ENDBRANCH  40  41
ENDBRANCH  39  40
ENDBRANCH  27  39
BRANCH  11  45
HETATM   45  C   UNK     0      -3.000   7.383 -15.618  0.00  0.00     0.051 C 
BRANCH  45  46
HETATM   46  C   UNK     0      -3.686   8.700 -15.644  0.00  0.00     0.114 C 
BRANCH  46  47
HETATM   47  C   UNK     0      -4.520   8.788 -14.412  0.00  0.00     0.139 C 
HETATM   48  O   UNK     0      -4.010   9.252 -13.383  0.00  0.00    -0.650 OA
BRANCH  47  49
HETATM   49  O   UNK     0      -5.825   8.363 -14.414  0.00  0.00    -0.776 OA
HETATM   50  H   UNK     0      -6.601   8.987 -14.664  0.00  0.00     0.167 HD
ENDBRANCH  47  49
ENDBRANCH  46  47
ENDBRANCH  45  46
ENDBRANCH  11  45
BRANCH  18  51
HETATM   51  C   UNK     0       3.366   5.595 -17.861  0.00  0.00     0.051 C 
BRANCH  51  52
HETATM   52  C   UNK     0       3.261   4.487 -16.823  0.00  0.00     0.114 C 
BRANCH  52  53
HETATM   53  C   UNK     0       4.200   3.383 -17.100  0.00  0.00     0.139 C 
HETATM   54  O   UNK     0       5.323   3.375 -16.571  0.00  0.00    -0.650 OA
BRANCH  53  55
HETATM   55  O   UNK     0       3.825   2.369 -17.947  0.00  0.00    -0.776 OA
HETATM   56  H   UNK     0       2.898   2.046 -18.097  0.00  0.00     0.167 HD
ENDBRANCH  53  55
ENDBRANCH  52  53
ENDBRANCH  51  52
ENDBRANCH  18  51
TORSDOF 16
ENDMDL
MODEL 18
REMARK VINA RESULT:      -7.1     17.686     21.792
REMARK  16 active torsions:
REMARK  status: ('A' for Active; 'I' for Inactive)
REMARK    1  A    between atoms: C_6  and  C_7 
REMARK    2  A    between atoms: C_7  and  C_8 
REMARK    3  A    between atoms: C_8  and  C_9 
REMARK    4  A    between atoms: C_9  and  O_11 
REMARK    5  A    between atoms: C_16  and  C_17 
REMARK    6  A    between atoms: C_17  and  C_18 
REMARK    7  A    between atoms: C_18  and  C_19 
REMARK    8  A    between atoms: C_19  and  O_21 
REMARK    9  A    between atoms: C_28  and  C_29 
REMARK   10  A    between atoms: C_29  and  C_30 
REMARK   11  A    between atoms: C_30  and  C_31 
REMARK   12  A    between atoms: C_31  and  O_33 
REMARK   13  A    between atoms: C_42  and  C_43 
REMARK   14  A    between atoms: C_43  and  C_44 
REMARK   15  A    between atoms: C_44  and  C_45 
REMARK   16  A    between atoms: C_45  and  O_47 
ROOT
HETATM    1  C   UNK     0       2.718   3.402 -20.238  0.00  0.00     0.051 C 
HETATM    2  C   UNK     0       2.070   4.682 -19.749  0.00  0.00    -0.031 A 
HETATM    3  C   UNK     0       1.029   5.408 -20.304  0.00  0.00     0.021 A 
HETATM    4  N   UNK     0       0.801   6.505 -19.543  0.00  0.00    -0.361 N 
HETATM    5  C   UNK     0       1.668   6.488 -18.510  0.00  0.00     0.022 A 
HETATM    6  C   UNK     0       2.479   5.362 -18.609  0.00  0.00    -0.027 A 
HETATM    7  C   UNK     0       1.772   7.414 -17.338  0.00  0.00     0.115 C 
HETATM    8  C   UNK     0       0.467   7.837 -16.686  0.00  0.00     0.021 A 
HETATM    9  N   UNK     0      -0.653   7.118 -16.514  0.00  0.00    -0.361 N 
HETATM   10  C   UNK     0      -1.590   7.925 -15.972  0.00  0.00     0.022 A 
HETATM   11  C   UNK     0      -1.056   9.195 -15.781  0.00  0.00    -0.027 A 
HETATM   12  C   UNK     0       0.240   9.147 -16.228  0.00  0.00    -0.031 A 
HETATM   13  C   UNK     0       1.214  10.303 -16.212  0.00  0.00     0.051 C 
HETATM   14  C   UNK     0      -3.036   7.546 -15.664  0.00  0.00     0.115 C 
HETATM   15  C   UNK     0      -3.837   7.126 -16.886  0.00  0.00     0.021 A 
HETATM   16  N   UNK     0      -3.569   6.118 -17.737  0.00  0.00    -0.361 N 
HETATM   17  C   UNK     0      -4.472   6.122 -18.719  0.00  0.00     0.022 A 
HETATM   18  C   UNK     0      -5.378   7.177 -18.492  0.00  0.00    -0.027 A 
HETATM   19  C   UNK     0      -4.970   7.798 -17.340  0.00  0.00    -0.031 A 
HETATM   20  C   UNK     0      -5.695   8.974 -16.712  0.00  0.00     0.051 C 
HETATM   21  C   UNK     0      -4.573   5.250 -19.950  0.00  0.00     0.115 C 
HETATM   22  C   UNK     0      -3.283   4.786 -20.584  0.00  0.00     0.022 A 
HETATM   23  N   UNK     0      -2.151   5.478 -20.764  0.00  0.00    -0.361 N 
HETATM   24  C   UNK     0      -1.209   4.635 -21.232  0.00  0.00     0.021 A 
HETATM   25  C   UNK     0      -1.750   3.371 -21.367  0.00  0.00    -0.031 A 
HETATM   26  C   UNK     0      -1.101   2.106 -21.889  0.00  0.00     0.051 C 
HETATM   27  C   UNK     0      -3.077   3.442 -20.958  0.00  0.00    -0.027 A 
HETATM   28  C   UNK     0       0.256   4.935 -21.503  0.00  0.00     0.115 C 
HETATM   29  H   UNK     0       0.055   7.304 -19.762  0.00  0.00     0.165 HD
HETATM   30  H   UNK     0      -0.771   6.027 -16.728  0.00  0.00     0.165 HD
HETATM   31  H   UNK     0      -2.753   5.358 -17.617  0.00  0.00     0.165 HD
HETATM   32  H   UNK     0      -2.018   6.580 -20.603  0.00  0.00     0.165 HD
ENDROOT
BRANCH   6  33
HETATM   33  C   UNK     0       3.600   4.892 -17.717  0.00  0.00     0.051 C 
BRANCH  33  34
HETATM   34  C   UNK     0       3.096   4.628 -16.318  0.00  0.00     0.114 C 
BRANCH  34  35
HETATM   35  C   UNK     0       3.687   3.336 -15.866  0.00  0.00     0.139 C 
HETATM   36  O   UNK     0       3.934   2.421 -16.705  0.00  0.00    -0.650 OA
BRANCH  35  37
HETATM   37  O   UNK     0       3.993   3.077 -14.536  0.00  0.00    -0.776 OA
HETATM   38  H   UNK     0       4.633   2.347 -14.267  0.00  0.00     0.167 HD
ENDBRANCH  35  37
ENDBRANCH  34  35
ENDBRANCH  33  34
ENDBRANCH   6  33
BRANCH  27  39
HETATM   39  C   UNK     0      -4.010   2.285 -21.028  0.00  0.00     0.051 C 
BRANCH  39  40
HETATM   40  C   UNK     0      -4.156   1.439 -19.844  0.00  0.00     0.114 C 
BRANCH  40  41
HETATM   41  C   UNK     0      -3.259   1.532 -18.714  0.00  0.00     0.139 C 
HETATM   42  O   UNK     0      -3.506   2.196 -17.698  0.00  0.00    -0.650 OA
BRANCH  41  43
HETATM   43  O   UNK     0      -2.021   0.830 -18.755  0.00  0.00    -0.776 OA
HETATM   44  H   UNK     0      -1.937   0.088 -18.071  0.00  0.00     0.167 HD
ENDBRANCH  41  43
ENDBRANCH  40  41
ENDBRANCH  39  40
ENDBRANCH  27  39
BRANCH  11  45
HETATM   45  C   UNK     0      -1.716  10.417 -15.201  0.00  0.00     0.051 C 
BRANCH  45  46
HETATM   46  C   UNK     0      -1.773  10.429 -13.717  0.00  0.00     0.114 C 
BRANCH  46  47
HETATM   47  C   UNK     0      -3.212  10.386 -13.330  0.00  0.00     0.139 C 
HETATM   48  O   UNK     0      -4.029  11.016 -14.016  0.00  0.00    -0.650 OA
BRANCH  47  49
HETATM   49  O   UNK     0      -3.624   9.666 -12.237  0.00  0.00    -0.776 OA
HETATM   50  H   UNK     0      -3.854  10.116 -11.343  0.00  0.00     0.167 HD
ENDBRANCH  47  49
ENDBRANCH  46  47
ENDBRANCH  45  46
ENDBRANCH  11  45
BRANCH  18  51
HETATM   51  C   UNK     0      -6.580   7.560 -19.317  0.00  0.00     0.051 C 
BRANCH  51  52
HETATM   52  C   UNK     0      -6.091   8.580 -20.335  0.00  0.00     0.114 C 
BRANCH  52  53
HETATM   53  C   UNK     0      -7.045   9.694 -20.497  0.00  0.00     0.139 C 
HETATM   54  O   UNK     0      -7.229  10.195 -21.618  0.00  0.00    -0.650 OA
BRANCH  53  55
HETATM   55  O   UNK     0      -7.722  10.174 -19.403  0.00  0.00    -0.776 OA
HETATM   56  H   UNK     0      -8.531   9.771 -18.993  0.00  0.00     0.167 HD
ENDBRANCH  53  55
ENDBRANCH  52  53
ENDBRANCH  51  52
ENDBRANCH  18  51
TORSDOF 16
ENDMDL
MODEL 19
REMARK VINA RESULT:      -7.1     18.083     22.813
REMARK  16 active torsions:
REMARK  status: ('A' for Active; 'I' for Inactive)
REMARK    1  A    between atoms: C_6  and  C_7 
REMARK    2  A    between atoms: C_7  and  C_8 
REMARK    3  A    between atoms: C_8  and  C_9 
REMARK    4  A    between atoms: C_9  and  O_11 
REMARK    5  A    between atoms: C_16  and  C_17 
REMARK    6  A    between atoms: C_17  and  C_18 
REMARK    7  A    between atoms: C_18  and  C_19 
REMARK    8  A    between atoms: C_19  and  O_21 
REMARK    9  A    between atoms: C_28  and  C_29 
REMARK   10  A    between atoms: C_29  and  C_30 
REMARK   11  A    between atoms: C_30  and  C_31 
REMARK   12  A    between atoms: C_31  and  O_33 
REMARK   13  A    between atoms: C_42  and  C_43 
REMARK   14  A    between atoms: C_43  and  C_44 
REMARK   15  A    between atoms: C_44  and  C_45 
REMARK   16  A    between atoms: C_45  and  O_47 
ROOT
HETATM    1  C   UNK     0      -4.843  10.171 -16.585  0.00  0.00     0.051 C 
HETATM    2  C   UNK     0      -3.673   9.209 -16.535  0.00  0.00    -0.031 A 
HETATM    3  C   UNK     0      -3.670   7.824 -16.573  0.00  0.00     0.021 A 
HETATM    4  N   UNK     0      -2.395   7.382 -16.470  0.00  0.00    -0.361 N 
HETATM    5  C   UNK     0      -1.583   8.455 -16.376  0.00  0.00     0.022 A 
HETATM    6  C   UNK     0      -2.350   9.615 -16.411  0.00  0.00    -0.027 A 
HETATM    7  C   UNK     0      -0.088   8.518 -16.336  0.00  0.00     0.115 C 
HETATM    8  C   UNK     0       0.658   7.605 -17.292  0.00  0.00     0.021 A 
HETATM    9  N   UNK     0       0.318   7.242 -18.539  0.00  0.00    -0.361 N 
HETATM   10  C   UNK     0       1.227   6.345 -18.977  0.00  0.00     0.022 A 
HETATM   11  C   UNK     0       2.184   6.131 -17.989  0.00  0.00    -0.027 A 
HETATM   12  C   UNK     0       1.832   6.922 -16.925  0.00  0.00    -0.031 A 
HETATM   13  C   UNK     0       2.590   7.020 -15.620  0.00  0.00     0.051 C 
HETATM   14  C   UNK     0       1.201   5.617 -20.318  0.00  0.00     0.115 C 
HETATM   15  C   UNK     0      -0.030   4.749 -20.523  0.00  0.00     0.021 A 
HETATM   16  N   UNK     0      -1.320   5.136 -20.507  0.00  0.00    -0.361 N 
HETATM   17  C   UNK     0      -2.101   4.063 -20.657  0.00  0.00     0.022 A 
HETATM   18  C   UNK     0      -1.281   2.925 -20.786  0.00  0.00    -0.027 A 
HETATM   19  C   UNK     0       0.014   3.368 -20.702  0.00  0.00    -0.031 A 
HETATM   20  C   UNK     0       1.225   2.463 -20.829  0.00  0.00     0.051 C 
HETATM   21  C   UNK     0      -3.608   3.949 -20.636  0.00  0.00     0.115 C 
HETATM   22  C   UNK     0      -4.366   4.882 -19.722  0.00  0.00     0.022 A 
HETATM   23  N   UNK     0      -4.049   5.264 -18.478  0.00  0.00    -0.361 N 
HETATM   24  C   UNK     0      -4.924   6.215 -18.091  0.00  0.00     0.021 A 
HETATM   25  C   UNK     0      -5.832   6.444 -19.107  0.00  0.00    -0.031 A 
HETATM   26  C   UNK     0      -7.019   7.384 -19.131  0.00  0.00     0.051 C 
HETATM   27  C   UNK     0      -5.496   5.602 -20.162  0.00  0.00    -0.027 A 
HETATM   28  C   UNK     0      -4.916   7.015 -16.800  0.00  0.00     0.115 C 
HETATM   29  H   UNK     0      -2.080   6.313 -16.424  0.00  0.00     0.165 HD
HETATM   30  H   UNK     0      -0.535   7.654 -19.131  0.00  0.00     0.165 HD
HETATM   31  H   UNK     0      -1.686   6.193 -20.437  0.00  0.00     0.165 HD
HETATM   32  H   UNK     0      -3.231   4.835 -17.844  0.00  0.00     0.165 HD
ENDROOT
BRANCH   6  33
HETATM   33  C   UNK     0      -1.928  11.060 -16.333  0.00  0.00     0.051 C 
BRANCH  33  34
HETATM   34  C   UNK     0      -2.275  11.648 -14.986  0.00  0.00     0.114 C 
BRANCH  34  35
HETATM   35  C   UNK     0      -1.055  11.560 -14.133  0.00  0.00     0.139 C 
HETATM   36  O   UNK     0      -0.244  12.530 -14.079  0.00  0.00    -0.650 OA
BRANCH  35  37
HETATM   37  O   UNK     0      -0.753  10.439 -13.370  0.00  0.00    -0.776 OA
HETATM   38  H   UNK     0      -1.436   9.998 -12.774  0.00  0.00     0.167 HD
ENDBRANCH  35  37
ENDBRANCH  34  35
ENDBRANCH  33  34
ENDBRANCH   6  33
BRANCH  27  39
HETATM   39  C   UNK     0      -6.295   5.512 -21.414  0.00  0.00     0.051 C 
BRANCH  39  40
HETATM   40  C   UNK     0      -7.132   4.331 -21.620  0.00  0.00     0.114 C 
BRANCH  40  41
HETATM   41  C   UNK     0      -8.370   4.384 -22.364  0.00  0.00     0.139 C 
HETATM   42  O   UNK     0      -8.494   3.952 -23.518  0.00  0.00    -0.650 OA
BRANCH  41  43
HETATM   43  O   UNK     0      -9.520   4.960 -21.752  0.00  0.00    -0.776 OA
HETATM   44  H   UNK     0      -9.350   5.366 -20.839  0.00  0.00     0.167 HD
ENDBRANCH  41  43
ENDBRANCH  40  41
ENDBRANCH  39  40
ENDBRANCH  27  39
BRANCH  11  45
HETATM   45  C   UNK     0       3.388   5.229 -18.023  0.00  0.00     0.051 C 
BRANCH  45  46
HETATM   46  C   UNK     0       3.091   3.809 -17.706  0.00  0.00     0.114 C 
BRANCH  46  47
HETATM   47  C   UNK     0       3.956   3.424 -16.554  0.00  0.00     0.139 C 
HETATM   48  O   UNK     0       4.747   4.263 -16.101  0.00  0.00    -0.650 OA
BRANCH  47  49
HETATM   49  O   UNK     0       3.881   2.168 -16.008  0.00  0.00    -0.776 OA
HETATM   50  H   UNK     0       3.725   2.018 -15.004  0.00  0.00     0.167 HD
ENDBRANCH  47  49
ENDBRANCH  46  47
ENDBRANCH  45  46
ENDBRANCH  11  45
BRANCH  18  51
HETATM   51  C   UNK     0      -1.707   1.496 -20.999  0.00  0.00     0.051 C 
BRANCH  51  52
HETATM   52  C   UNK     0      -1.716   0.844 -19.625  0.00  0.00     0.114 C 
BRANCH  52  53
HETATM   53  C   UNK     0      -3.021   0.995 -18.953  0.00  0.00     0.139 C 
HETATM   54  O   UNK     0      -3.139   1.771 -17.991  0.00  0.00    -0.650 OA
BRANCH  53  55
HETATM   55  O   UNK     0      -4.101   0.270 -19.396  0.00  0.00    -0.776 OA
HETATM   56  H   UNK     0      -4.503   0.315 -20.302  0.00  0.00     0.167 HD
ENDBRANCH  53  55
ENDBRANCH  52  53
ENDBRANCH  51  52
ENDBRANCH  18  51
TORSDOF 16
ENDMDL
MODEL 20
REMARK VINA RESULT:      -7.0     28.322     30.725
REMARK  16 active torsions:
REMARK  status: ('A' for Active; 'I' for Inactive)
REMARK    1  A    between atoms: C_6  and  C_7 
REMARK    2  A    between atoms: C_7  and  C_8 
REMARK    3  A    between atoms: C_8  and  C_9 
REMARK    4  A    between atoms: C_9  and  O_11 
REMARK    5  A    between atoms: C_16  and  C_17 
REMARK    6  A    between atoms: C_17  and  C_18 
REMARK    7  A    between atoms: C_18  and  C_19 
REMARK    8  A    between atoms: C_19  and  O_21 
REMARK    9  A    between atoms: C_28  and  C_29 
REMARK   10  A    between atoms: C_29  and  C_30 
REMARK   11  A    between atoms: C_30  and  C_31 
REMARK   12  A    between atoms: C_31  and  O_33 
REMARK   13  A    between atoms: C_42  and  C_43 
REMARK   14  A    between atoms: C_43  and  C_44 
REMARK   15  A    between atoms: C_44  and  C_45 
REMARK   16  A    between atoms: C_45  and  O_47 
ROOT
HETATM    1  C   UNK     0       3.388  -6.289  13.330  0.00  0.00     0.051 C 
HETATM    2  C   UNK     0       2.259  -5.995  12.363  0.00  0.00    -0.031 A 
HETATM    3  C   UNK     0       1.827  -6.725  11.266  0.00  0.00     0.021 A 
HETATM    4  N   UNK     0       0.804  -6.067  10.673  0.00  0.00    -0.361 N 
HETATM    5  C   UNK     0       0.568  -4.938  11.372  0.00  0.00     0.022 A 
HETATM    6  C   UNK     0       1.462  -4.860  12.435  0.00  0.00    -0.027 A 
HETATM    7  C   UNK     0      -0.509  -3.914  11.192  0.00  0.00     0.115 C 
HETATM    8  C   UNK     0      -1.905  -4.436  10.901  0.00  0.00     0.021 A 
HETATM    9  N   UNK     0      -2.498  -5.544  11.371  0.00  0.00    -0.361 N 
HETATM   10  C   UNK     0      -3.702  -5.662  10.773  0.00  0.00     0.022 A 
HETATM   11  C   UNK     0      -3.894  -4.595   9.900  0.00  0.00    -0.027 A 
HETATM   12  C   UNK     0      -2.766  -3.819   9.976  0.00  0.00    -0.031 A 
HETATM   13  C   UNK     0      -2.529  -2.543   9.200  0.00  0.00     0.051 C 
HETATM   14  C   UNK     0      -4.694  -6.807  10.959  0.00  0.00     0.115 C 
HETATM   15  C   UNK     0      -4.149  -8.165  10.548  0.00  0.00     0.021 A 
HETATM   16  N   UNK     0      -3.061  -8.794  11.031  0.00  0.00    -0.361 N 
HETATM   17  C   UNK     0      -2.881  -9.934  10.360  0.00  0.00     0.022 A 
HETATM   18  C   UNK     0      -3.906 -10.059   9.402  0.00  0.00    -0.027 A 
HETATM   19  C   UNK     0      -4.695  -8.945   9.531  0.00  0.00    -0.031 A 
HETATM   20  C   UNK     0      -5.944  -8.696   8.705  0.00  0.00     0.051 C 
HETATM   21  C   UNK     0      -1.774 -10.959  10.466  0.00  0.00     0.115 C 
HETATM   22  C   UNK     0      -0.389 -10.457  10.799  0.00  0.00     0.022 A 
HETATM   23  N   UNK     0       0.226  -9.356  10.349  0.00  0.00    -0.361 N 
HETATM   24  C   UNK     0       1.390  -9.218  11.015  0.00  0.00     0.021 A 
HETATM   25  C   UNK     0       1.533 -10.261  11.909  0.00  0.00    -0.031 A 
HETATM   26  C   UNK     0       2.684 -10.562  12.847  0.00  0.00     0.051 C 
HETATM   27  C   UNK     0       0.407 -11.068  11.789  0.00  0.00    -0.027 A 
HETATM   28  C   UNK     0       2.387  -8.076  10.918  0.00  0.00     0.115 C 
HETATM   29  H   UNK     0       0.281  -6.385   9.741  0.00  0.00     0.165 HD
HETATM   30  H   UNK     0      -2.090  -6.219  12.163  0.00  0.00     0.165 HD
HETATM   31  H   UNK     0      -2.434  -8.450  11.894  0.00  0.00     0.165 HD
HETATM   32  H   UNK     0      -0.136  -8.688   9.524  0.00  0.00     0.165 HD
ENDROOT
BRANCH   6  33
HETATM   33  C   UNK     0       1.617  -3.802  13.497  0.00  0.00     0.051 C 
BRANCH  33  34
HETATM   34  C   UNK     0       2.485  -2.669  13.003  0.00  0.00     0.114 C 
BRANCH  34  35
HETATM   35  C   UNK     0       3.767  -2.724  13.763  0.00  0.00     0.139 C 
HETATM   36  O   UNK     0       3.781  -3.141  14.958  0.00  0.00    -0.650 OA
BRANCH  35  37
HETATM   37  O   UNK     0       4.982  -2.334  13.213  0.00  0.00    -0.776 OA
HETATM   38  H   UNK     0       5.833  -2.321  13.752  0.00  0.00     0.167 HD
ENDBRANCH  35  37
ENDBRANCH  34  35
ENDBRANCH  33  34
ENDBRANCH   6  33
BRANCH  27  39
HETATM   39  C   UNK     0       0.235 -12.337  12.548  0.00  0.00     0.051 C 
BRANCH  39  40
HETATM   40  C   UNK     0       0.642 -13.588  11.908  0.00  0.00     0.114 C 
BRANCH  40  41
HETATM   41  C   UNK     0      -0.149 -14.219  10.876  0.00  0.00     0.139 C 
HETATM   42  O   UNK     0       0.012 -14.006   9.666  0.00  0.00    -0.650 OA
BRANCH  41  43
HETATM   43  O   UNK     0      -1.171 -15.136  11.251  0.00  0.00    -0.776 OA
HETATM   44  H   UNK     0      -2.095 -14.726  11.325  0.00  0.00     0.167 HD
ENDBRANCH  41  43
ENDBRANCH  40  41
ENDBRANCH  39  40
ENDBRANCH  27  39
BRANCH  11  45
HETATM   45  C   UNK     0      -5.082  -4.296   9.025  0.00  0.00     0.051 C 
BRANCH  45  46
HETATM   46  C   UNK     0      -5.351  -5.331   7.994  0.00  0.00     0.114 C 
BRANCH  46  47
HETATM   47  C   UNK     0      -4.421  -5.075   6.857  0.00  0.00     0.139 C 
HETATM   48  O   UNK     0      -3.291  -5.583   6.890  0.00  0.00    -0.650 OA
BRANCH  47  49
HETATM   49  O   UNK     0      -4.805  -4.292   5.798  0.00  0.00    -0.776 OA
HETATM   50  H   UNK     0      -4.215  -4.174   4.966  0.00  0.00     0.167 HD
ENDBRANCH  47  49
ENDBRANCH  46  47
ENDBRANCH  45  46
ENDBRANCH  11  45
BRANCH  18  51
HETATM   51  C   UNK     0      -4.134 -11.189   8.431  0.00  0.00     0.051 C 
BRANCH  51  52
HETATM   52  C   UNK     0      -4.815 -12.298   9.219  0.00  0.00     0.114 C 
BRANCH  52  53
HETATM   53  C   UNK     0      -3.988 -13.519   9.276  0.00  0.00     0.139 C 
HETATM   54  O   UNK     0      -3.627 -13.975  10.372  0.00  0.00    -0.650 OA
BRANCH  53  55
HETATM   55  O   UNK     0      -3.618 -14.143   8.109  0.00  0.00    -0.776 OA
HETATM   56  H   UNK     0      -3.820 -13.830   7.189  0.00  0.00     0.167 HD
ENDBRANCH  53  55
ENDBRANCH  52  53
ENDBRANCH  51  52
ENDBRANCH  18  51
TORSDOF 16
ENDMDL
