MODEL 1
REMARK VINA RESULT:     -10.9      0.000      0.000
REMARK  28 active torsions:
REMARK  status: ('A' for Active; 'I' for Inactive)
REMARK    1  A    between atoms: C_2  and  O_3 
REMARK    2  A    between atoms: C_2  and  C_4 
REMARK    3  A    between atoms: C_4  and  C_5 
REMARK    4  A    between atoms: C_5  and  C_6 
REMARK    5  A    between atoms: C_7  and  C_8 
REMARK    6  A    between atoms: C_8  and  C_9 
REMARK    7  A    between atoms: C_9  and  O_11 
REMARK    8  A    between atoms: C_28  and  C_29 
REMARK    9  A    between atoms: C_29  and  C_30 
REMARK   10  A    between atoms: C_30  and  O_32 
REMARK   11  A    between atoms: C_33  and  C_34 
REMARK   12  A    between atoms: C_34  and  C_35 
REMARK   13  A    between atoms: C_35  and  C_36 
REMARK   14  A    between atoms: C_36  and  O_38 
REMARK   15  A    between atoms: C_39  and  C_40 
REMARK   16  A    between atoms: C_40  and  C_41 
REMARK   17  A    between atoms: C_41  and  C_42 
REMARK   18  A    between atoms: C_42  and  O_44 
REMARK   19  A    between atoms: C_45  and  C_46 
REMARK   20  A    between atoms: C_46  and  C_47 
REMARK   21  A    between atoms: C_47  and  O_49 
REMARK   22  A    between atoms: C_50  and  C_51 
REMARK   23  A    between atoms: C_51  and  C_52 
REMARK   24  A    between atoms: C_52  and  O_54 
REMARK   25  A    between atoms: C_55  and  C_56 
REMARK   26  A    between atoms: C_56  and  C_57 
REMARK   27  A    between atoms: C_57  and  C_58 
REMARK   28  A    between atoms: C_58  and  O_60 
ROOT
ATOM      1  O   UNK d   0     -13.390 -20.726  -6.130  0.00  0.00    -0.650 OA
ATOM      2  C   UNK d   0     -12.954 -19.689  -6.676  0.00  0.00     0.139 C 
ENDROOT
BRANCH   2   3
ATOM      3  O   UNK d   0     -11.804 -19.754  -7.425  0.00  0.00    -0.776 OA
ATOM      4  H   UNK d   0     -11.648 -20.516  -8.087  0.00  0.00     0.167 HD
ENDBRANCH   2   3
BRANCH   2   5
ATOM      5  C   UNK d   0     -13.679 -18.396  -6.514  0.00  0.00     0.115 C 
BRANCH   5   6
ATOM      6  C   UNK d   0     -13.154 -17.382  -7.493  0.00  0.00     0.052 C 
BRANCH   6   7
ATOM      7  C   UNK d   0     -12.924 -16.030  -6.861  0.00  0.00    -0.020 A 
ATOM      8  C   UNK d   0     -13.689 -14.971  -6.940  0.00  0.00    -0.011 A 
ATOM      9  C   UNK d   0     -13.056 -13.907  -6.179  0.00  0.00     0.067 A 
ATOM     10  C   UNK d   0     -13.358 -12.574  -5.857  0.00  0.00     0.062 C 
ATOM     11  N   UNK d   0     -11.906 -14.403  -5.676  0.00  0.00    -0.248 NA
ATOM     12  C   UNK d   0     -12.756 -11.783  -4.873  0.00  0.00     0.041 A 
ATOM     13  N   UNK d   0     -11.464 -11.632  -4.524  0.00  0.00    -0.355 N 
ATOM     14  C   UNK d   0     -13.573 -11.021  -4.018  0.00  0.00    -0.022 A 
ATOM     15  C   UNK d   0     -11.441 -10.801  -3.465  0.00  0.00     0.042 A 
ATOM     16  H   UNK d   0     -10.584 -12.089  -5.028  0.00  0.00     0.166 HD
ATOM     17  C   UNK d   0     -10.356 -10.310  -2.713  0.00  0.00     0.062 C 
ATOM     18  C   UNK d   0     -12.745 -10.397  -3.119  0.00  0.00    -0.013 A 
ATOM     19  C   UNK d   0      -9.267 -10.987  -2.227  0.00  0.00     0.067 A 
ATOM     20  N   UNK d   0      -9.081 -12.233  -2.672  0.00  0.00    -0.248 NA
ATOM     21  C   UNK d   0      -8.196 -10.706  -1.285  0.00  0.00    -0.011 A 
ATOM     22  C   UNK d   0      -7.967 -12.786  -2.089  0.00  0.00     0.066 A 
ATOM     23  C   UNK d   0      -7.634 -14.071  -2.493  0.00  0.00     0.062 C 
ATOM     24  C   UNK d   0      -7.441 -11.764  -1.206  0.00  0.00    -0.020 A 
ATOM     25  C   UNK d   0      -8.244 -14.843  -3.493  0.00  0.00     0.041 A 
ATOM     26  N   UNK d   0      -9.530 -15.005  -3.830  0.00  0.00    -0.355 N 
ATOM     27  C   UNK d   0      -7.423 -15.604  -4.353  0.00  0.00    -0.022 A 
ATOM     28  C   UNK d   0      -9.555 -15.841  -4.880  0.00  0.00     0.042 A 
ATOM     29  H   UNK d   0     -10.413 -14.553  -3.316  0.00  0.00     0.166 HD
ATOM     30  C   UNK d   0     -10.628 -16.345  -5.633  0.00  0.00     0.062 C 
ATOM     31  C   UNK d   0      -8.244 -16.238  -5.234  0.00  0.00    -0.013 A 
ATOM     32  C   UNK d   0     -11.768 -15.676  -6.049  0.00  0.00     0.066 A 
BRANCH   8  33
ATOM     33  C   UNK d   0     -14.965 -14.854  -7.668  0.00  0.00     0.151 C 
BRANCH  33  34
ATOM     34  C   UNK d   0     -14.779 -14.631  -9.113  0.00  0.00     0.143 C 
ATOM     35  O   UNK d   0     -14.078 -13.697  -9.528  0.00  0.00    -0.650 OA
BRANCH  34  36
ATOM     36  O   UNK d   0     -15.394 -15.472 -10.012  0.00  0.00    -0.776 OA
ATOM     37  H   UNK d   0     -15.758 -15.123 -10.908  0.00  0.00     0.167 HD
ENDBRANCH  34  36
ENDBRANCH  33  34
ENDBRANCH   8  33
BRANCH  31  38
ATOM     38  C   UNK d   0      -7.812 -17.156  -6.354  0.00  0.00     0.151 C 
BRANCH  38  39
ATOM     39  C   UNK d   0      -7.520 -16.445  -7.581  0.00  0.00     0.143 C 
ATOM     40  O   UNK d   0      -6.457 -15.822  -7.753  0.00  0.00    -0.650 OA
BRANCH  39  41
ATOM     41  O   UNK d   0      -8.454 -16.451  -8.616  0.00  0.00    -0.776 OA
ATOM     42  H   UNK d   0      -8.243 -15.868  -9.432  0.00  0.00     0.167 HD
ENDBRANCH  39  41
ENDBRANCH  38  39
ENDBRANCH  31  38
BRANCH  27  43
ATOM     43  C   UNK d   0      -5.922 -15.749  -4.365  0.00  0.00     0.052 C 
BRANCH  43  44
ATOM     44  C   UNK d   0      -5.408 -16.668  -3.305  0.00  0.00     0.115 C 
BRANCH  44  45
ATOM     45  C   UNK d   0      -4.593 -15.838  -2.381  0.00  0.00     0.139 C 
ATOM     46  O   UNK d   0      -3.937 -14.883  -2.866  0.00  0.00    -0.650 OA
BRANCH  45  47
ATOM     47  O   UNK d   0      -4.535 -16.069  -1.023  0.00  0.00    -0.776 OA
ATOM     48  H   UNK d   0      -4.217 -16.966  -0.621  0.00  0.00     0.167 HD
ENDBRANCH  45  47
ENDBRANCH  44  45
ENDBRANCH  43  44
ENDBRANCH  27  43
BRANCH  24  49
ATOM     49  C   UNK d   0      -6.219 -11.900  -0.396  0.00  0.00     0.052 C 
BRANCH  49  50
ATOM     50  C   UNK d   0      -6.546 -12.492   0.951  0.00  0.00     0.115 C 
BRANCH  50  51
ATOM     51  C   UNK d   0      -6.356 -11.638   2.116  0.00  0.00     0.139 C 
ATOM     52  O   UNK d   0      -6.643 -12.008   3.279  0.00  0.00    -0.650 OA
BRANCH  51  53
ATOM     53  O   UNK d   0      -5.840 -10.362   1.955  0.00  0.00    -0.776 OA
ATOM     54  H   UNK d   0      -5.024 -10.248   1.380  0.00  0.00     0.167 HD
ENDBRANCH  51  53
ENDBRANCH  50  51
ENDBRANCH  49  50
ENDBRANCH  24  49
BRANCH  21  55
ATOM     55  C   UNK d   0      -8.036  -9.407  -0.566  0.00  0.00     0.151 C 
BRANCH  55  56
ATOM     56  C   UNK d   0      -6.756  -8.755  -0.883  0.00  0.00     0.143 C 
ATOM     57  O   UNK d   0      -5.882  -8.530  -0.022  0.00  0.00    -0.650 OA
BRANCH  56  58
ATOM     58  O   UNK d   0      -6.528  -8.381  -2.206  0.00  0.00    -0.776 OA
ATOM     59  H   UNK d   0      -7.383  -8.241  -2.773  0.00  0.00     0.167 HD
ENDBRANCH  56  58
ENDBRANCH  55  56
ENDBRANCH  21  55
BRANCH  18  60
ATOM     60  C   UNK d   0     -13.205  -9.482  -2.011  0.00  0.00     0.151 C 
BRANCH  60  61
ATOM     61  C   UNK d   0     -13.281  -8.137  -2.603  0.00  0.00     0.143 C 
ATOM     62  O   UNK d   0     -12.456  -7.606  -3.347  0.00  0.00    -0.650 OA
BRANCH  61  63
ATOM     63  O   UNK d   0     -14.437  -7.394  -2.264  0.00  0.00    -0.776 OA
ATOM     64  H   UNK d   0     -15.056  -7.702  -1.535  0.00  0.00     0.167 HD
ENDBRANCH  61  63
ENDBRANCH  60  61
ENDBRANCH  18  60
BRANCH  14  65
ATOM     65  C   UNK d   0     -15.053 -10.763  -4.049  0.00  0.00     0.052 C 
BRANCH  65  66
ATOM     66  C   UNK d   0     -15.451  -9.779  -5.090  0.00  0.00     0.115 C 
BRANCH  66  67
ATOM     67  C   UNK d   0     -16.441  -8.784  -4.788  0.00  0.00     0.139 C 
ATOM     68  O   UNK d   0     -16.851  -8.675  -3.574  0.00  0.00    -0.650 OA
BRANCH  67  69
ATOM     69  O   UNK d   0     -17.042  -7.884  -5.668  0.00  0.00    -0.776 OA
ATOM     70  H   UNK d   0     -16.744  -6.902  -5.577  0.00  0.00     0.167 HD
ENDBRANCH  67  69
ENDBRANCH  66  67
ENDBRANCH  65  66
ENDBRANCH  14  65
ENDBRANCH   6   7
ENDBRANCH   5   6
ENDBRANCH   2   5
TORSDOF 28
ENDMDL
MODEL 2
REMARK VINA RESULT:     -10.5     28.428     32.653
REMARK  28 active torsions:
REMARK  status: ('A' for Active; 'I' for Inactive)
REMARK    1  A    between atoms: C_2  and  O_3 
REMARK    2  A    between atoms: C_2  and  C_4 
REMARK    3  A    between atoms: C_4  and  C_5 
REMARK    4  A    between atoms: C_5  and  C_6 
REMARK    5  A    between atoms: C_7  and  C_8 
REMARK    6  A    between atoms: C_8  and  C_9 
REMARK    7  A    between atoms: C_9  and  O_11 
REMARK    8  A    between atoms: C_28  and  C_29 
REMARK    9  A    between atoms: C_29  and  C_30 
REMARK   10  A    between atoms: C_30  and  O_32 
REMARK   11  A    between atoms: C_33  and  C_34 
REMARK   12  A    between atoms: C_34  and  C_35 
REMARK   13  A    between atoms: C_35  and  C_36 
REMARK   14  A    between atoms: C_36  and  O_38 
REMARK   15  A    between atoms: C_39  and  C_40 
REMARK   16  A    between atoms: C_40  and  C_41 
REMARK   17  A    between atoms: C_41  and  C_42 
REMARK   18  A    between atoms: C_42  and  O_44 
REMARK   19  A    between atoms: C_45  and  C_46 
REMARK   20  A    between atoms: C_46  and  C_47 
REMARK   21  A    between atoms: C_47  and  O_49 
REMARK   22  A    between atoms: C_50  and  C_51 
REMARK   23  A    between atoms: C_51  and  C_52 
REMARK   24  A    between atoms: C_52  and  O_54 
REMARK   25  A    between atoms: C_55  and  C_56 
REMARK   26  A    between atoms: C_56  and  C_57 
REMARK   27  A    between atoms: C_57  and  C_58 
REMARK   28  A    between atoms: C_58  and  O_60 
ROOT
ATOM      1  O   UNK d   0     -30.607 -18.645  14.170  0.00  0.00    -0.650 OA
ATOM      2  C   UNK d   0     -31.242 -19.099  15.148  0.00  0.00     0.139 C 
ENDROOT
BRANCH   2   3
ATOM      3  O   UNK d   0     -31.348 -18.344  16.291  0.00  0.00    -0.776 OA
ATOM      4  H   UNK d   0     -30.929 -18.656  17.170  0.00  0.00     0.167 HD
ENDBRANCH   2   3
BRANCH   2   5
ATOM      5  C   UNK d   0     -31.873 -20.447  15.070  0.00  0.00     0.115 C 
BRANCH   5   6
ATOM      6  C   UNK d   0     -31.442 -21.148  13.810  0.00  0.00     0.052 C 
BRANCH   6   7
ATOM      7  C   UNK d   0     -32.611 -21.618  12.977  0.00  0.00    -0.020 A 
ATOM      8  C   UNK d   0     -32.749 -22.770  12.373  0.00  0.00    -0.011 A 
ATOM      9  C   UNK d   0     -34.031 -22.763  11.689  0.00  0.00     0.067 A 
ATOM     10  C   UNK d   0     -34.766 -23.667  10.905  0.00  0.00     0.062 C 
ATOM     11  N   UNK d   0     -34.606 -21.565  11.926  0.00  0.00    -0.248 NA
ATOM     12  C   UNK d   0     -36.119 -23.584  10.560  0.00  0.00     0.041 A 
ATOM     13  N   UNK d   0     -36.869 -22.540  10.158  0.00  0.00    -0.355 N 
ATOM     14  C   UNK d   0     -36.923 -24.733  10.676  0.00  0.00    -0.022 A 
ATOM     15  C   UNK d   0     -38.129 -22.996  10.024  0.00  0.00     0.042 A 
ATOM     16  H   UNK d   0     -36.511 -21.507   9.955  0.00  0.00     0.166 HD
ATOM     17  C   UNK d   0     -39.305 -22.327   9.629  0.00  0.00     0.062 C 
ATOM     18  C   UNK d   0     -38.202 -24.366  10.340  0.00  0.00    -0.013 A 
ATOM     19  C   UNK d   0     -39.771 -21.098  10.022  0.00  0.00     0.067 A 
ATOM     20  N   UNK d   0     -38.931 -20.326  10.716  0.00  0.00    -0.248 NA
ATOM     21  C   UNK d   0     -41.019 -20.364   9.891  0.00  0.00    -0.011 A 
ATOM     22  C   UNK d   0     -39.540 -19.141  11.050  0.00  0.00     0.066 A 
ATOM     23  C   UNK d   0     -38.764 -18.224  11.744  0.00  0.00     0.062 C 
ATOM     24  C   UNK d   0     -40.878 -19.221  10.499  0.00  0.00    -0.020 A 
ATOM     25  C   UNK d   0     -37.402 -18.321  12.070  0.00  0.00     0.041 A 
ATOM     26  N   UNK d   0     -36.660 -19.355  12.484  0.00  0.00    -0.355 N 
ATOM     27  C   UNK d   0     -36.596 -17.169  11.949  0.00  0.00    -0.022 A 
ATOM     28  C   UNK d   0     -35.405 -18.902  12.627  0.00  0.00     0.042 A 
ATOM     29  H   UNK d   0     -37.023 -20.390  12.698  0.00  0.00     0.166 HD
ATOM     30  C   UNK d   0     -34.228 -19.553  13.028  0.00  0.00     0.062 C 
ATOM     31  C   UNK d   0     -35.330 -17.527  12.299  0.00  0.00    -0.013 A 
ATOM     32  C   UNK d   0     -33.802 -20.830  12.696  0.00  0.00     0.066 A 
BRANCH   8  33
ATOM     33  C   UNK d   0     -31.787 -23.887  12.368  0.00  0.00     0.151 C 
BRANCH  33  34
ATOM     34  C   UNK d   0     -31.052 -24.002  11.095  0.00  0.00     0.143 C 
ATOM     35  O   UNK d   0     -29.916 -23.523  10.970  0.00  0.00    -0.650 OA
BRANCH  34  36
ATOM     36  O   UNK d   0     -31.640 -24.648  10.032  0.00  0.00    -0.776 OA
ATOM     37  H   UNK d   0     -32.312 -24.167   9.419  0.00  0.00     0.167 HD
ENDBRANCH  34  36
ENDBRANCH  33  34
ENDBRANCH   8  33
BRANCH  31  38
ATOM     38  C   UNK d   0     -34.119 -16.624  12.309  0.00  0.00     0.151 C 
BRANCH  38  39
ATOM     39  C   UNK d   0     -33.368 -16.678  11.073  0.00  0.00     0.143 C 
ATOM     40  O   UNK d   0     -33.668 -15.991  10.081  0.00  0.00    -0.650 OA
BRANCH  39  41
ATOM     41  O   UNK d   0     -32.265 -17.526  10.977  0.00  0.00    -0.776 OA
ATOM     42  H   UNK d   0     -31.461 -17.308  11.575  0.00  0.00     0.167 HD
ENDBRANCH  39  41
ENDBRANCH  38  39
ENDBRANCH  31  38
BRANCH  27  43
ATOM     43  C   UNK d   0     -36.977 -15.772  11.525  0.00  0.00     0.052 C 
BRANCH  43  44
ATOM     44  C   UNK d   0     -37.157 -15.632  10.049  0.00  0.00     0.115 C 
BRANCH  44  45
ATOM     45  C   UNK d   0     -38.178 -14.571   9.845  0.00  0.00     0.139 C 
ATOM     46  O   UNK d   0     -38.963 -14.684   8.871  0.00  0.00    -0.650 OA
BRANCH  45  47
ATOM     47  O   UNK d   0     -38.299 -13.480  10.678  0.00  0.00    -0.776 OA
ATOM     48  H   UNK d   0     -38.706 -12.582  10.371  0.00  0.00     0.167 HD
ENDBRANCH  45  47
ENDBRANCH  44  45
ENDBRANCH  43  44
ENDBRANCH  27  43
BRANCH  24  49
ATOM     49  C   UNK d   0     -41.887 -18.151  10.580  0.00  0.00     0.052 C 
BRANCH  49  50
ATOM     50  C   UNK d   0     -41.340 -16.871  10.002  0.00  0.00     0.115 C 
BRANCH  50  51
ATOM     51  C   UNK d   0     -41.536 -15.654  10.778  0.00  0.00     0.139 C 
ATOM     52  O   UNK d   0     -41.101 -15.519  11.946  0.00  0.00    -0.650 OA
BRANCH  51  53
ATOM     53  O   UNK d   0     -42.232 -14.591  10.223  0.00  0.00    -0.776 OA
ATOM     54  H   UNK d   0     -42.893 -14.101  10.801  0.00  0.00     0.167 HD
ENDBRANCH  51  53
ENDBRANCH  50  51
ENDBRANCH  49  50
ENDBRANCH  24  49
BRANCH  21  55
ATOM     55  C   UNK d   0     -42.220 -20.879   9.169  0.00  0.00     0.151 C 
BRANCH  55  56
ATOM     56  C   UNK d   0     -42.017 -20.909   7.713  0.00  0.00     0.143 C 
ATOM     57  O   UNK d   0     -41.917 -21.971   7.067  0.00  0.00    -0.650 OA
BRANCH  56  58
ATOM     58  O   UNK d   0     -41.935 -19.689   7.044  0.00  0.00    -0.776 OA
ATOM     59  H   UNK d   0     -41.008 -19.478   6.633  0.00  0.00     0.167 HD
ENDBRANCH  56  58
ENDBRANCH  55  56
ENDBRANCH  21  55
BRANCH  18  60
ATOM     60  C   UNK d   0     -39.394 -25.291  10.336  0.00  0.00     0.151 C 
BRANCH  60  61
ATOM     61  C   UNK d   0     -39.995 -25.182  11.674  0.00  0.00     0.143 C 
ATOM     62  O   UNK d   0     -39.646 -25.775  12.695  0.00  0.00    -0.650 OA
BRANCH  61  63
ATOM     63  O   UNK d   0     -41.091 -24.291  11.771  0.00  0.00    -0.776 OA
ATOM     64  H   UNK d   0     -41.041 -23.364  11.387  0.00  0.00     0.167 HD
ENDBRANCH  61  63
ENDBRANCH  60  61
ENDBRANCH  18  60
BRANCH  14  65
ATOM     65  C   UNK d   0     -36.558 -26.158  10.982  0.00  0.00     0.052 C 
BRANCH  65  66
ATOM     66  C   UNK d   0     -35.783 -26.807   9.890  0.00  0.00     0.115 C 
BRANCH  66  67
ATOM     67  C   UNK d   0     -34.353 -26.897   9.989  0.00  0.00     0.139 C 
ATOM     68  O   UNK d   0     -33.664 -26.923   8.904  0.00  0.00    -0.650 OA
BRANCH  67  69
ATOM     69  O   UNK d   0     -33.580 -26.962  11.148  0.00  0.00    -0.776 OA
ATOM     70  H   UNK d   0     -33.793 -26.257  11.868  0.00  0.00     0.167 HD
ENDBRANCH  67  69
ENDBRANCH  66  67
ENDBRANCH  65  66
ENDBRANCH  14  65
ENDBRANCH   6   7
ENDBRANCH   5   6
ENDBRANCH   2   5
TORSDOF 28
ENDMDL
MODEL 3
REMARK VINA RESULT:     -10.4      1.732      7.546
REMARK  28 active torsions:
REMARK  status: ('A' for Active; 'I' for Inactive)
REMARK    1  A    between atoms: C_2  and  O_3 
REMARK    2  A    between atoms: C_2  and  C_4 
REMARK    3  A    between atoms: C_4  and  C_5 
REMARK    4  A    between atoms: C_5  and  C_6 
REMARK    5  A    between atoms: C_7  and  C_8 
REMARK    6  A    between atoms: C_8  and  C_9 
REMARK    7  A    between atoms: C_9  and  O_11 
REMARK    8  A    between atoms: C_28  and  C_29 
REMARK    9  A    between atoms: C_29  and  C_30 
REMARK   10  A    between atoms: C_30  and  O_32 
REMARK   11  A    between atoms: C_33  and  C_34 
REMARK   12  A    between atoms: C_34  and  C_35 
REMARK   13  A    between atoms: C_35  and  C_36 
REMARK   14  A    between atoms: C_36  and  O_38 
REMARK   15  A    between atoms: C_39  and  C_40 
REMARK   16  A    between atoms: C_40  and  C_41 
REMARK   17  A    between atoms: C_41  and  C_42 
REMARK   18  A    between atoms: C_42  and  O_44 
REMARK   19  A    between atoms: C_45  and  C_46 
REMARK   20  A    between atoms: C_46  and  C_47 
REMARK   21  A    between atoms: C_47  and  O_49 
REMARK   22  A    between atoms: C_50  and  C_51 
REMARK   23  A    between atoms: C_51  and  C_52 
REMARK   24  A    between atoms: C_52  and  O_54 
REMARK   25  A    between atoms: C_55  and  C_56 
REMARK   26  A    between atoms: C_56  and  C_57 
REMARK   27  A    between atoms: C_57  and  C_58 
REMARK   28  A    between atoms: C_58  and  O_60 
ROOT
ATOM      1  O   UNK d   0     -14.953  -9.750  -6.829  0.00  0.00    -0.650 OA
ATOM      2  C   UNK d   0     -15.962 -10.285  -6.318  0.00  0.00     0.139 C 
ENDROOT
BRANCH   2   3
ATOM      3  O   UNK d   0     -17.054  -9.510  -6.013  0.00  0.00    -0.776 OA
ATOM      4  H   UNK d   0     -17.983  -9.742  -6.371  0.00  0.00     0.167 HD
ENDBRANCH   2   3
BRANCH   2   5
ATOM      5  C   UNK d   0     -15.974 -11.750  -6.045  0.00  0.00     0.115 C 
BRANCH   5   6
ATOM      6  C   UNK d   0     -15.280 -12.490  -7.156  0.00  0.00     0.052 C 
BRANCH   6   7
ATOM      7  C   UNK d   0     -14.088 -13.281  -6.671  0.00  0.00    -0.020 A 
ATOM      8  C   UNK d   0     -13.688 -14.456  -7.087  0.00  0.00    -0.011 A 
ATOM      9  C   UNK d   0     -12.505 -14.818  -6.324  0.00  0.00     0.067 A 
ATOM     10  C   UNK d   0     -11.611 -15.899  -6.294  0.00  0.00     0.062 C 
ATOM     11  N   UNK d   0     -12.259 -13.808  -5.462  0.00  0.00    -0.248 NA
ATOM     12  C   UNK d   0     -10.357 -15.945  -5.675  0.00  0.00     0.041 A 
ATOM     13  N   UNK d   0      -9.945 -15.501  -4.473  0.00  0.00    -0.355 N 
ATOM     14  C   UNK d   0      -9.268 -16.486  -6.383  0.00  0.00    -0.022 A 
ATOM     15  C   UNK d   0      -8.621 -15.738  -4.403  0.00  0.00     0.042 A 
ATOM     16  H   UNK d   0     -10.581 -15.046  -3.682  0.00  0.00     0.166 HD
ATOM     17  C   UNK d   0      -7.699 -15.473  -3.371  0.00  0.00     0.062 C 
ATOM     18  C   UNK d   0      -8.161 -16.354  -5.583  0.00  0.00    -0.013 A 
ATOM     19  C   UNK d   0      -7.555 -14.338  -2.614  0.00  0.00     0.067 A 
ATOM     20  N   UNK d   0      -8.521 -13.421  -2.708  0.00  0.00    -0.248 NA
ATOM     21  C   UNK d   0      -6.563 -13.821  -1.686  0.00  0.00    -0.011 A 
ATOM     22  C   UNK d   0      -8.232 -12.342  -1.910  0.00  0.00     0.066 A 
ATOM     23  C   UNK d   0      -9.176 -11.326  -1.882  0.00  0.00     0.062 C 
ATOM     24  C   UNK d   0      -6.963 -12.650  -1.281  0.00  0.00    -0.020 A 
ATOM     25  C   UNK d   0     -10.436 -11.304  -2.501  0.00  0.00     0.041 A 
ATOM     26  N   UNK d   0     -10.842 -11.733  -3.702  0.00  0.00    -0.355 N 
ATOM     27  C   UNK d   0     -11.529 -10.766  -1.788  0.00  0.00    -0.022 A 
ATOM     28  C   UNK d   0     -12.160 -11.489  -3.778  0.00  0.00     0.042 A 
ATOM     29  H   UNK d   0     -10.200 -12.179  -4.501  0.00  0.00     0.166 HD
ATOM     30  C   UNK d   0     -13.087 -11.739  -4.802  0.00  0.00     0.062 C 
ATOM     31  C   UNK d   0     -12.624 -10.880  -2.588  0.00  0.00    -0.013 A 
ATOM     32  C   UNK d   0     -13.176 -12.853  -5.622  0.00  0.00     0.066 A 
BRANCH   8  33
ATOM     33  C   UNK d   0     -14.312 -15.284  -8.135  0.00  0.00     0.151 C 
BRANCH  33  34
ATOM     34  C   UNK d   0     -15.291 -16.245  -7.595  0.00  0.00     0.143 C 
ATOM     35  O   UNK d   0     -14.963 -17.411  -7.335  0.00  0.00    -0.650 OA
BRANCH  34  36
ATOM     36  O   UNK d   0     -16.588 -15.838  -7.380  0.00  0.00    -0.776 OA
ATOM     37  H   UNK d   0     -17.378 -16.485  -7.505  0.00  0.00     0.167 HD
ENDBRANCH  34  36
ENDBRANCH  33  34
ENDBRANCH   8  33
BRANCH  31  38
ATOM     38  C   UNK d   0     -14.030 -10.449  -2.242  0.00  0.00     0.151 C 
BRANCH  38  39
ATOM     39  C   UNK d   0     -14.467  -9.296  -3.000  0.00  0.00     0.143 C 
ATOM     40  O   UNK d   0     -15.660  -9.109  -3.298  0.00  0.00    -0.650 OA
BRANCH  39  41
ATOM     41  O   UNK d   0     -13.528  -8.353  -3.418  0.00  0.00    -0.776 OA
ATOM     42  H   UNK d   0     -12.571  -8.471  -3.073  0.00  0.00     0.167 HD
ENDBRANCH  39  41
ENDBRANCH  38  39
ENDBRANCH  31  38
BRANCH  27  43
ATOM     43  C   UNK d   0     -11.568 -10.160  -0.407  0.00  0.00     0.052 C 
BRANCH  43  44
ATOM     44  C   UNK d   0     -10.745  -8.919  -0.283  0.00  0.00     0.115 C 
BRANCH  44  45
ATOM     45  C   UNK d   0     -11.696  -7.798  -0.070  0.00  0.00     0.139 C 
ATOM     46  O   UNK d   0     -12.762  -7.792  -0.735  0.00  0.00    -0.650 OA
BRANCH  45  47
ATOM     47  O   UNK d   0     -11.460  -6.777   0.824  0.00  0.00    -0.776 OA
ATOM     48  H   UNK d   0     -10.895  -5.945   0.588  0.00  0.00     0.167 HD
ENDBRANCH  45  47
ENDBRANCH  44  45
ENDBRANCH  43  44
ENDBRANCH  27  43
BRANCH  24  49
ATOM     49  C   UNK d   0      -6.277 -11.788  -0.303  0.00  0.00     0.052 C 
BRANCH  49  50
ATOM     50  C   UNK d   0      -6.215 -10.369  -0.808  0.00  0.00     0.115 C 
BRANCH  50  51
ATOM     51  C   UNK d   0      -6.238  -9.307   0.189  0.00  0.00     0.139 C 
ATOM     52  O   UNK d   0      -5.222  -8.638   0.488  0.00  0.00    -0.650 OA
BRANCH  51  53
ATOM     53  O   UNK d   0      -7.422  -9.010   0.847  0.00  0.00    -0.776 OA
ATOM     54  H   UNK d   0      -7.374  -8.457   1.684  0.00  0.00     0.167 HD
ENDBRANCH  51  53
ENDBRANCH  50  51
ENDBRANCH  49  50
ENDBRANCH  24  49
BRANCH  21  55
ATOM     55  C   UNK d   0      -5.320 -14.552  -1.298  0.00  0.00     0.151 C 
BRANCH  55  56
ATOM     56  C   UNK d   0      -4.264 -14.421  -2.313  0.00  0.00     0.143 C 
ATOM     57  O   UNK d   0      -4.123 -15.231  -3.250  0.00  0.00    -0.650 OA
BRANCH  56  58
ATOM     58  O   UNK d   0      -3.392 -13.339  -2.206  0.00  0.00    -0.776 OA
ATOM     59  H   UNK d   0      -2.972 -13.208  -1.268  0.00  0.00     0.167 HD
ENDBRANCH  56  58
ENDBRANCH  55  56
ENDBRANCH  21  55
BRANCH  18  60
ATOM     60  C   UNK d   0      -6.767 -16.797  -5.954  0.00  0.00     0.151 C 
BRANCH  60  61
ATOM     61  C   UNK d   0      -6.172 -15.676  -6.697  0.00  0.00     0.143 C 
ATOM     62  O   UNK d   0      -6.302 -15.428  -7.896  0.00  0.00    -0.650 OA
BRANCH  61  63
ATOM     63  O   UNK d   0      -5.367 -14.803  -5.927  0.00  0.00    -0.776 OA
ATOM     64  H   UNK d   0      -4.901 -15.124  -5.097  0.00  0.00     0.167 HD
ENDBRANCH  61  63
ENDBRANCH  60  61
ENDBRANCH  18  60
BRANCH  14  65
ATOM     65  C   UNK d   0      -9.213 -17.198  -7.705  0.00  0.00     0.052 C 
BRANCH  65  66
ATOM     66  C   UNK d   0      -9.876 -18.529  -7.676  0.00  0.00     0.115 C 
BRANCH  66  67
ATOM     67  C   UNK d   0     -10.841 -18.866  -8.684  0.00  0.00     0.139 C 
ATOM     68  O   UNK d   0     -12.056 -19.082  -8.324  0.00  0.00    -0.650 OA
BRANCH  67  69
ATOM     69  O   UNK d   0     -10.630 -18.998 -10.057  0.00  0.00    -0.776 OA
ATOM     70  H   UNK d   0     -10.607 -18.118 -10.592  0.00  0.00     0.167 HD
ENDBRANCH  67  69
ENDBRANCH  66  67
ENDBRANCH  65  66
ENDBRANCH  14  65
ENDBRANCH   6   7
ENDBRANCH   5   6
ENDBRANCH   2   5
TORSDOF 28
ENDMDL
MODEL 4
REMARK VINA RESULT:     -10.3     27.974     32.202
REMARK  28 active torsions:
REMARK  status: ('A' for Active; 'I' for Inactive)
REMARK    1  A    between atoms: C_2  and  O_3 
REMARK    2  A    between atoms: C_2  and  C_4 
REMARK    3  A    between atoms: C_4  and  C_5 
REMARK    4  A    between atoms: C_5  and  C_6 
REMARK    5  A    between atoms: C_7  and  C_8 
REMARK    6  A    between atoms: C_8  and  C_9 
REMARK    7  A    between atoms: C_9  and  O_11 
REMARK    8  A    between atoms: C_28  and  C_29 
REMARK    9  A    between atoms: C_29  and  C_30 
REMARK   10  A    between atoms: C_30  and  O_32 
REMARK   11  A    between atoms: C_33  and  C_34 
REMARK   12  A    between atoms: C_34  and  C_35 
REMARK   13  A    between atoms: C_35  and  C_36 
REMARK   14  A    between atoms: C_36  and  O_38 
REMARK   15  A    between atoms: C_39  and  C_40 
REMARK   16  A    between atoms: C_40  and  C_41 
REMARK   17  A    between atoms: C_41  and  C_42 
REMARK   18  A    between atoms: C_42  and  O_44 
REMARK   19  A    between atoms: C_45  and  C_46 
REMARK   20  A    between atoms: C_46  and  C_47 
REMARK   21  A    between atoms: C_47  and  O_49 
REMARK   22  A    between atoms: C_50  and  C_51 
REMARK   23  A    between atoms: C_51  and  C_52 
REMARK   24  A    between atoms: C_52  and  O_54 
REMARK   25  A    between atoms: C_55  and  C_56 
REMARK   26  A    between atoms: C_56  and  C_57 
REMARK   27  A    between atoms: C_57  and  C_58 
REMARK   28  A    between atoms: C_58  and  O_60 
ROOT
ATOM      1  O   UNK d   0     -30.533 -18.926  15.977  0.00  0.00    -0.650 OA
ATOM      2  C   UNK d   0     -31.682 -19.320  15.678  0.00  0.00     0.139 C 
ENDROOT
BRANCH   2   3
ATOM      3  O   UNK d   0     -32.717 -18.418  15.648  0.00  0.00    -0.776 OA
ATOM      4  H   UNK d   0     -33.206 -18.147  16.504  0.00  0.00     0.167 HD
ENDBRANCH   2   3
BRANCH   2   5
ATOM      5  C   UNK d   0     -31.921 -20.757  15.359  0.00  0.00     0.115 C 
BRANCH   5   6
ATOM      6  C   UNK d   0     -31.454 -21.061  13.961  0.00  0.00     0.052 C 
BRANCH   6   7
ATOM      7  C   UNK d   0     -32.592 -21.402  13.030  0.00  0.00    -0.020 A 
ATOM      8  C   UNK d   0     -32.930 -22.585  12.583  0.00  0.00    -0.011 A 
ATOM      9  C   UNK d   0     -34.080 -22.418  11.710  0.00  0.00     0.067 A 
ATOM     10  C   UNK d   0     -34.911 -23.262  10.957  0.00  0.00     0.062 C 
ATOM     11  N   UNK d   0     -34.371 -21.100  11.678  0.00  0.00    -0.248 NA
ATOM     12  C   UNK d   0     -36.152 -22.947  10.393  0.00  0.00     0.041 A 
ATOM     13  N   UNK d   0     -36.572 -21.852   9.731  0.00  0.00    -0.355 N 
ATOM     14  C   UNK d   0     -37.218 -23.852  10.543  0.00  0.00    -0.022 A 
ATOM     15  C   UNK d   0     -37.879 -22.036   9.465  0.00  0.00     0.042 A 
ATOM     16  H   UNK d   0     -35.953 -20.974   9.441  0.00  0.00     0.166 HD
ATOM     17  C   UNK d   0     -38.801 -21.206   8.796  0.00  0.00     0.062 C 
ATOM     18  C   UNK d   0     -38.320 -23.279   9.958  0.00  0.00    -0.013 A 
ATOM     19  C   UNK d   0     -39.000 -19.855   8.929  0.00  0.00     0.067 A 
ATOM     20  N   UNK d   0     -38.088 -19.176   9.630  0.00  0.00    -0.248 NA
ATOM     21  C   UNK d   0     -40.007 -18.900   8.498  0.00  0.00    -0.011 A 
ATOM     22  C   UNK d   0     -38.427 -17.846   9.690  0.00  0.00     0.066 A 
ATOM     23  C   UNK d   0     -37.543 -17.014  10.360  0.00  0.00     0.062 C 
ATOM     24  C   UNK d   0     -39.669 -17.727   8.950  0.00  0.00    -0.020 A 
ATOM     25  C   UNK d   0     -36.295 -17.349  10.909  0.00  0.00     0.041 A 
ATOM     26  N   UNK d   0     -35.881 -18.431  11.579  0.00  0.00    -0.355 N 
ATOM     27  C   UNK d   0     -35.224 -16.441  10.754  0.00  0.00    -0.022 A 
ATOM     28  C   UNK d   0     -34.580 -18.245  11.854  0.00  0.00     0.042 A 
ATOM     29  H   UNK d   0     -36.507 -19.306  11.879  0.00  0.00     0.166 HD
ATOM     30  C   UNK d   0     -33.654 -19.058  12.526  0.00  0.00     0.062 C 
ATOM     31  C   UNK d   0     -34.136 -17.001  11.348  0.00  0.00    -0.013 A 
ATOM     32  C   UNK d   0     -33.513 -20.435  12.452  0.00  0.00     0.066 A 
BRANCH   8  33
ATOM     33  C   UNK d   0     -32.274 -23.869  12.891  0.00  0.00     0.151 C 
BRANCH  33  34
ATOM     34  C   UNK d   0     -31.152 -24.168  11.984  0.00  0.00     0.143 C 
ATOM     35  O   UNK d   0     -30.606 -23.269  11.328  0.00  0.00    -0.650 OA
BRANCH  34  36
ATOM     36  O   UNK d   0     -30.707 -25.465  11.864  0.00  0.00    -0.776 OA
ATOM     37  H   UNK d   0     -31.101 -26.101  11.158  0.00  0.00     0.167 HD
ENDBRANCH  34  36
ENDBRANCH  33  34
ENDBRANCH   8  33
BRANCH  31  38
ATOM     38  C   UNK d   0     -32.752 -16.398  11.422  0.00  0.00     0.151 C 
BRANCH  38  39
ATOM     39  C   UNK d   0     -32.511 -15.695  12.664  0.00  0.00     0.143 C 
ATOM     40  O   UNK d   0     -32.739 -16.208  13.774  0.00  0.00    -0.650 OA
BRANCH  39  41
ATOM     41  O   UNK d   0     -32.004 -14.396  12.630  0.00  0.00    -0.776 OA
ATOM     42  H   UNK d   0     -32.681 -13.640  12.490  0.00  0.00     0.167 HD
ENDBRANCH  39  41
ENDBRANCH  38  39
ENDBRANCH  31  38
BRANCH  27  43
ATOM     43  C   UNK d   0     -35.202 -15.092  10.079  0.00  0.00     0.052 C 
BRANCH  43  44
ATOM     44  C   UNK d   0     -36.073 -14.081  10.750  0.00  0.00     0.115 C 
BRANCH  44  45
ATOM     45  C   UNK d   0     -35.171 -13.193  11.528  0.00  0.00     0.139 C 
ATOM     46  O   UNK d   0     -34.689 -13.632  12.601  0.00  0.00    -0.650 OA
BRANCH  45  47
ATOM     47  O   UNK d   0     -34.841 -11.919  11.118  0.00  0.00    -0.776 OA
ATOM     48  H   UNK d   0     -34.664 -11.146  11.780  0.00  0.00     0.167 HD
ENDBRANCH  45  47
ENDBRANCH  44  45
ENDBRANCH  43  44
ENDBRANCH  27  43
BRANCH  24  49
ATOM     49  C   UNK d   0     -40.389 -16.465   8.715  0.00  0.00     0.052 C 
BRANCH  49  50
ATOM     50  C   UNK d   0     -41.524 -16.318   9.696  0.00  0.00     0.115 C 
BRANCH  50  51
ATOM     51  C   UNK d   0     -41.786 -14.982  10.215  0.00  0.00     0.139 C 
ATOM     52  O   UNK d   0     -42.619 -14.205   9.693  0.00  0.00    -0.650 OA
BRANCH  51  53
ATOM     53  O   UNK d   0     -41.094 -14.531  11.329  0.00  0.00    -0.776 OA
ATOM     54  H   UNK d   0     -40.477 -13.746  11.220  0.00  0.00     0.167 HD
ENDBRANCH  51  53
ENDBRANCH  50  51
ENDBRANCH  49  50
ENDBRANCH  24  49
BRANCH  21  55
ATOM     55  C   UNK d   0     -41.200 -19.259   7.676  0.00  0.00     0.151 C 
BRANCH  55  56
ATOM     56  C   UNK d   0     -41.948 -20.388   8.252  0.00  0.00     0.143 C 
ATOM     57  O   UNK d   0     -42.173 -21.439   7.621  0.00  0.00    -0.650 OA
BRANCH  56  58
ATOM     58  O   UNK d   0     -42.415 -20.258   9.558  0.00  0.00    -0.776 OA
ATOM     59  H   UNK d   0     -41.717 -20.466  10.294  0.00  0.00     0.167 HD
ENDBRANCH  56  58
ENDBRANCH  55  56
ENDBRANCH  21  55
BRANCH  18  60
ATOM     60  C   UNK d   0     -39.690 -23.906   9.897  0.00  0.00     0.151 C 
BRANCH  60  61
ATOM     61  C   UNK d   0     -40.449 -23.330  11.018  0.00  0.00     0.143 C 
ATOM     62  O   UNK d   0     -40.598 -22.135  11.277  0.00  0.00    -0.650 OA
BRANCH  61  63
ATOM     63  O   UNK d   0     -41.063 -24.272  11.878  0.00  0.00    -0.776 OA
ATOM     64  H   UNK d   0     -41.275 -24.042  12.832  0.00  0.00     0.167 HD
ENDBRANCH  61  63
ENDBRANCH  60  61
ENDBRANCH  18  60
BRANCH  14  65
ATOM     65  C   UNK d   0     -37.249 -25.246  11.104  0.00  0.00     0.052 C 
BRANCH  65  66
ATOM     66  C   UNK d   0     -36.683 -26.260  10.174  0.00  0.00     0.115 C 
BRANCH  66  67
ATOM     67  C   UNK d   0     -35.947 -27.375  10.700  0.00  0.00     0.139 C 
ATOM     68  O   UNK d   0     -36.275 -28.559  10.322  0.00  0.00    -0.650 OA
BRANCH  67  69
ATOM     69  O   UNK d   0     -34.883 -27.346  11.601  0.00  0.00    -0.776 OA
ATOM     70  H   UNK d   0     -34.983 -26.693  12.391  0.00  0.00     0.167 HD
ENDBRANCH  67  69
ENDBRANCH  66  67
ENDBRANCH  65  66
ENDBRANCH  14  65
ENDBRANCH   6   7
ENDBRANCH   5   6
ENDBRANCH   2   5
TORSDOF 28
ENDMDL
MODEL 5
REMARK VINA RESULT:     -10.2      1.587      7.587
REMARK  28 active torsions:
REMARK  status: ('A' for Active; 'I' for Inactive)
REMARK    1  A    between atoms: C_2  and  O_3 
REMARK    2  A    between atoms: C_2  and  C_4 
REMARK    3  A    between atoms: C_4  and  C_5 
REMARK    4  A    between atoms: C_5  and  C_6 
REMARK    5  A    between atoms: C_7  and  C_8 
REMARK    6  A    between atoms: C_8  and  C_9 
REMARK    7  A    between atoms: C_9  and  O_11 
REMARK    8  A    between atoms: C_28  and  C_29 
REMARK    9  A    between atoms: C_29  and  C_30 
REMARK   10  A    between atoms: C_30  and  O_32 
REMARK   11  A    between atoms: C_33  and  C_34 
REMARK   12  A    between atoms: C_34  and  C_35 
REMARK   13  A    between atoms: C_35  and  C_36 
REMARK   14  A    between atoms: C_36  and  O_38 
REMARK   15  A    between atoms: C_39  and  C_40 
REMARK   16  A    between atoms: C_40  and  C_41 
REMARK   17  A    between atoms: C_41  and  C_42 
REMARK   18  A    between atoms: C_42  and  O_44 
REMARK   19  A    between atoms: C_45  and  C_46 
REMARK   20  A    between atoms: C_46  and  C_47 
REMARK   21  A    between atoms: C_47  and  O_49 
REMARK   22  A    between atoms: C_50  and  C_51 
REMARK   23  A    between atoms: C_51  and  C_52 
REMARK   24  A    between atoms: C_52  and  O_54 
REMARK   25  A    between atoms: C_55  and  C_56 
REMARK   26  A    between atoms: C_56  and  C_57 
REMARK   27  A    between atoms: C_57  and  C_58 
REMARK   28  A    between atoms: C_58  and  O_60 
ROOT
ATOM      1  O   UNK d   0     -17.083  -9.215  -5.915  0.00  0.00    -0.650 OA
ATOM      2  C   UNK d   0     -16.007  -9.842  -6.032  0.00  0.00     0.139 C 
ENDROOT
BRANCH   2   3
ATOM      3  O   UNK d   0     -14.925  -9.220  -6.607  0.00  0.00    -0.776 OA
ATOM      4  H   UNK d   0     -14.997  -8.778  -7.526  0.00  0.00     0.167 HD
ENDBRANCH   2   3
BRANCH   2   5
ATOM      5  C   UNK d   0     -15.904 -11.249  -5.551  0.00  0.00     0.115 C 
BRANCH   5   6
ATOM      6  C   UNK d   0     -15.643 -12.174  -6.709  0.00  0.00     0.052 C 
BRANCH   6   7
ATOM      7  C   UNK d   0     -14.468 -13.090  -6.468  0.00  0.00    -0.020 A 
ATOM      8  C   UNK d   0     -14.314 -14.319  -6.890  0.00  0.00    -0.011 A 
ATOM      9  C   UNK d   0     -13.031 -14.799  -6.403  0.00  0.00     0.067 A 
ATOM     10  C   UNK d   0     -12.284 -15.982  -6.516  0.00  0.00     0.062 C 
ATOM     11  N   UNK d   0     -12.474 -13.799  -5.689  0.00  0.00    -0.248 NA
ATOM     12  C   UNK d   0     -10.932 -16.163  -6.205  0.00  0.00     0.041 A 
ATOM     13  N   UNK d   0     -10.197 -15.732  -5.162  0.00  0.00    -0.355 N 
ATOM     14  C   UNK d   0     -10.112 -16.859  -7.112  0.00  0.00    -0.022 A 
ATOM     15  C   UNK d   0      -8.930 -16.130  -5.389  0.00  0.00     0.042 A 
ATOM     16  H   UNK d   0     -10.569 -15.175  -4.275  0.00  0.00     0.166 HD
ATOM     17  C   UNK d   0      -7.764 -15.947  -4.619  0.00  0.00     0.062 C 
ATOM     18  C   UNK d   0      -8.838 -16.839  -6.602  0.00  0.00    -0.013 A 
ATOM     19  C   UNK d   0      -7.315 -14.814  -3.990  0.00  0.00     0.067 A 
ATOM     20  N   UNK d   0      -8.166 -13.787  -3.913  0.00  0.00    -0.248 NA
ATOM     21  C   UNK d   0      -6.078 -14.392  -3.354  0.00  0.00    -0.011 A 
ATOM     22  C   UNK d   0      -7.574 -12.725  -3.275  0.00  0.00     0.066 A 
ATOM     23  C   UNK d   0      -8.363 -11.599  -3.092  0.00  0.00     0.062 C 
ATOM     24  C   UNK d   0      -6.234 -13.168  -2.941  0.00  0.00    -0.020 A 
ATOM     25  C   UNK d   0      -9.723 -11.442  -3.399  0.00  0.00     0.041 A 
ATOM     26  N   UNK d   0     -10.451 -11.857  -4.443  0.00  0.00    -0.355 N 
ATOM     27  C   UNK d   0     -10.546 -10.747  -2.486  0.00  0.00    -0.022 A 
ATOM     28  C   UNK d   0     -11.713 -11.454  -4.224  0.00  0.00     0.042 A 
ATOM     29  H   UNK d   0     -10.073 -12.408  -5.339  0.00  0.00     0.166 HD
ATOM     30  C   UNK d   0     -12.880 -11.621  -4.985  0.00  0.00     0.062 C 
ATOM     31  C   UNK d   0     -11.806 -10.751  -3.000  0.00  0.00    -0.013 A 
ATOM     32  C   UNK d   0     -13.288 -12.743  -5.689  0.00  0.00     0.066 A 
BRANCH   8  33
ATOM     33  C   UNK d   0     -15.260 -15.098  -7.709  0.00  0.00     0.151 C 
BRANCH  33  34
ATOM     34  C   UNK d   0     -15.027 -14.940  -9.156  0.00  0.00     0.143 C 
ATOM     35  O   UNK d   0     -15.665 -15.611  -9.980  0.00  0.00    -0.650 OA
BRANCH  34  36
ATOM     36  O   UNK d   0     -14.088 -14.035  -9.594  0.00  0.00    -0.776 OA
ATOM     37  H   UNK d   0     -14.334 -13.291 -10.261  0.00  0.00     0.167 HD
ENDBRANCH  34  36
ENDBRANCH  33  34
ENDBRANCH   8  33
BRANCH  31  38
ATOM     38  C   UNK d   0     -13.030 -10.136  -2.362  0.00  0.00     0.151 C 
BRANCH  38  39
ATOM     39  C   UNK d   0     -13.185  -8.732  -2.682  0.00  0.00     0.143 C 
ATOM     40  O   UNK d   0     -13.015  -7.835  -1.838  0.00  0.00    -0.650 OA
BRANCH  39  41
ATOM     41  O   UNK d   0     -13.537  -8.359  -3.979  0.00  0.00    -0.776 OA
ATOM     42  H   UNK d   0     -14.351  -8.827  -4.389  0.00  0.00     0.167 HD
ENDBRANCH  39  41
ENDBRANCH  38  39
ENDBRANCH  31  38
BRANCH  27  43
ATOM     43  C   UNK d   0     -10.184 -10.094  -1.176  0.00  0.00     0.052 C 
BRANCH  43  44
ATOM     44  C   UNK d   0      -8.778  -9.591  -1.134  0.00  0.00     0.115 C 
BRANCH  44  45
ATOM     45  C   UNK d   0      -8.698  -8.646   0.010  0.00  0.00     0.139 C 
ATOM     46  O   UNK d   0      -7.624  -8.590   0.658  0.00  0.00    -0.650 OA
BRANCH  45  47
ATOM     47  O   UNK d   0      -9.746  -7.832   0.381  0.00  0.00    -0.776 OA
ATOM     48  H   UNK d   0     -10.281  -7.264  -0.296  0.00  0.00     0.167 HD
ENDBRANCH  45  47
ENDBRANCH  44  45
ENDBRANCH  43  44
ENDBRANCH  27  43
BRANCH  24  49
ATOM     49  C   UNK d   0      -5.241 -12.365  -2.208  0.00  0.00     0.052 C 
BRANCH  49  50
ATOM     50  C   UNK d   0      -5.839 -11.830  -0.932  0.00  0.00     0.115 C 
BRANCH  50  51
ATOM     51  C   UNK d   0      -6.023 -12.773   0.163  0.00  0.00     0.139 C 
ATOM     52  O   UNK d   0      -5.140 -12.988   1.026  0.00  0.00    -0.650 OA
BRANCH  51  53
ATOM     53  O   UNK d   0      -7.215 -13.473   0.272  0.00  0.00    -0.776 OA
ATOM     54  H   UNK d   0      -7.887 -13.165   0.951  0.00  0.00     0.167 HD
ENDBRANCH  51  53
ENDBRANCH  50  51
ENDBRANCH  49  50
ENDBRANCH  24  49
BRANCH  21  55
ATOM     55  C   UNK d   0      -4.870 -15.259  -3.222  0.00  0.00     0.151 C 
BRANCH  55  56
ATOM     56  C   UNK d   0      -4.863 -16.006  -1.955  0.00  0.00     0.143 C 
ATOM     57  O   UNK d   0      -5.627 -15.735  -1.008  0.00  0.00    -0.650 OA
BRANCH  56  58
ATOM     58  O   UNK d   0      -3.956 -17.057  -1.825  0.00  0.00    -0.776 OA
ATOM     59  H   UNK d   0      -4.380 -17.971  -1.584  0.00  0.00     0.167 HD
ENDBRANCH  56  58
ENDBRANCH  55  56
ENDBRANCH  21  55
BRANCH  18  60
ATOM     60  C   UNK d   0      -7.634 -17.465  -7.260  0.00  0.00     0.151 C 
BRANCH  60  61
ATOM     61  C   UNK d   0      -7.025 -16.406  -8.079  0.00  0.00     0.143 C 
ATOM     62  O   UNK d   0      -7.411 -16.002  -9.177  0.00  0.00    -0.650 OA
BRANCH  61  63
ATOM     63  O   UNK d   0      -5.872 -15.801  -7.523  0.00  0.00    -0.776 OA
ATOM     64  H   UNK d   0      -4.970 -16.237  -7.600  0.00  0.00     0.167 HD
ENDBRANCH  61  63
ENDBRANCH  60  61
ENDBRANCH  18  60
BRANCH  14  65
ATOM     65  C   UNK d   0     -10.457 -17.618  -8.362  0.00  0.00     0.052 C 
BRANCH  65  66
ATOM     66  C   UNK d   0     -11.097 -18.932  -8.087  0.00  0.00     0.115 C 
BRANCH  66  67
ATOM     67  C   UNK d   0     -10.943 -20.009  -9.024  0.00  0.00     0.139 C 
ATOM     68  O   UNK d   0      -9.872 -20.718  -8.973  0.00  0.00    -0.650 OA
BRANCH  67  69
ATOM     69  O   UNK d   0     -11.833 -20.405 -10.022  0.00  0.00    -0.776 OA
ATOM     70  H   UNK d   0     -12.545 -19.710 -10.289  0.00  0.00     0.167 HD
ENDBRANCH  67  69
ENDBRANCH  66  67
ENDBRANCH  65  66
ENDBRANCH  14  65
ENDBRANCH   6   7
ENDBRANCH   5   6
ENDBRANCH   2   5
TORSDOF 28
ENDMDL
MODEL 6
REMARK VINA RESULT:     -10.0     27.611     31.577
REMARK  28 active torsions:
REMARK  status: ('A' for Active; 'I' for Inactive)
REMARK    1  A    between atoms: C_2  and  O_3 
REMARK    2  A    between atoms: C_2  and  C_4 
REMARK    3  A    between atoms: C_4  and  C_5 
REMARK    4  A    between atoms: C_5  and  C_6 
REMARK    5  A    between atoms: C_7  and  C_8 
REMARK    6  A    between atoms: C_8  and  C_9 
REMARK    7  A    between atoms: C_9  and  O_11 
REMARK    8  A    between atoms: C_28  and  C_29 
REMARK    9  A    between atoms: C_29  and  C_30 
REMARK   10  A    between atoms: C_30  and  O_32 
REMARK   11  A    between atoms: C_33  and  C_34 
REMARK   12  A    between atoms: C_34  and  C_35 
REMARK   13  A    between atoms: C_35  and  C_36 
REMARK   14  A    between atoms: C_36  and  O_38 
REMARK   15  A    between atoms: C_39  and  C_40 
REMARK   16  A    between atoms: C_40  and  C_41 
REMARK   17  A    between atoms: C_41  and  C_42 
REMARK   18  A    between atoms: C_42  and  O_44 
REMARK   19  A    between atoms: C_45  and  C_46 
REMARK   20  A    between atoms: C_46  and  C_47 
REMARK   21  A    between atoms: C_47  and  O_49 
REMARK   22  A    between atoms: C_50  and  C_51 
REMARK   23  A    between atoms: C_51  and  C_52 
REMARK   24  A    between atoms: C_52  and  O_54 
REMARK   25  A    between atoms: C_55  and  C_56 
REMARK   26  A    between atoms: C_56  and  C_57 
REMARK   27  A    between atoms: C_57  and  C_58 
REMARK   28  A    between atoms: C_58  and  O_60 
ROOT
ATOM      1  O   UNK d   0     -31.342 -24.550   9.639  0.00  0.00    -0.650 OA
ATOM      2  C   UNK d   0     -31.572 -24.587  10.869  0.00  0.00     0.139 C 
ENDROOT
BRANCH   2   3
ATOM      3  O   UNK d   0     -32.337 -25.608  11.380  0.00  0.00    -0.776 OA
ATOM      4  H   UNK d   0     -32.850 -25.495  12.256  0.00  0.00     0.167 HD
ENDBRANCH   2   3
BRANCH   2   5
ATOM      5  C   UNK d   0     -31.022 -23.532  11.765  0.00  0.00     0.115 C 
BRANCH   5   6
ATOM      6  C   UNK d   0     -31.870 -23.409  13.002  0.00  0.00     0.052 C 
BRANCH   6   7
ATOM      7  C   UNK d   0     -32.693 -22.143  13.019  0.00  0.00    -0.020 A 
ATOM      8  C   UNK d   0     -32.479 -21.061  13.723  0.00  0.00    -0.011 A 
ATOM      9  C   UNK d   0     -33.537 -20.113  13.415  0.00  0.00     0.067 A 
ATOM     10  C   UNK d   0     -33.868 -18.805  13.801  0.00  0.00     0.062 C 
ATOM     11  N   UNK d   0     -34.355 -20.704  12.518  0.00  0.00    -0.248 NA
ATOM     12  C   UNK d   0     -34.781 -17.945  13.181  0.00  0.00     0.041 A 
ATOM     13  N   UNK d   0     -36.012 -18.169  12.683  0.00  0.00    -0.355 N 
ATOM     14  C   UNK d   0     -34.409 -16.608  12.952  0.00  0.00    -0.022 A 
ATOM     15  C   UNK d   0     -36.427 -17.010  12.136  0.00  0.00     0.042 A 
ATOM     16  H   UNK d   0     -36.584 -19.121  12.734  0.00  0.00     0.166 HD
ATOM     17  C   UNK d   0     -37.634 -16.689  11.483  0.00  0.00     0.062 C 
ATOM     18  C   UNK d   0     -35.448 -16.008  12.285  0.00  0.00    -0.013 A 
ATOM     19  C   UNK d   0     -38.316 -17.403  10.532  0.00  0.00     0.067 A 
ATOM     20  N   UNK d   0     -37.917 -18.659  10.317  0.00  0.00    -0.248 NA
ATOM     21  C   UNK d   0     -39.421 -17.144   9.624  0.00  0.00    -0.011 A 
ATOM     22  C   UNK d   0     -38.680 -19.240   9.333  0.00  0.00     0.066 A 
ATOM     23  C   UNK d   0     -38.396 -20.564   9.034  0.00  0.00     0.062 C 
ATOM     24  C   UNK d   0     -39.626 -18.221   8.922  0.00  0.00    -0.020 A 
ATOM     25  C   UNK d   0     -37.483 -21.415   9.677  0.00  0.00     0.041 A 
ATOM     26  N   UNK d   0     -36.254 -21.196  10.159  0.00  0.00    -0.355 N 
ATOM     27  C   UNK d   0     -37.860 -22.755   9.911  0.00  0.00    -0.022 A 
ATOM     28  C   UNK d   0     -35.834 -22.352  10.697  0.00  0.00     0.042 A 
ATOM     29  H   UNK d   0     -35.676 -20.242  10.097  0.00  0.00     0.166 HD
ATOM     30  C   UNK d   0     -34.633 -22.689  11.341  0.00  0.00     0.062 C 
ATOM     31  C   UNK d   0     -36.823 -23.356  10.557  0.00  0.00    -0.013 A 
ATOM     32  C   UNK d   0     -33.902 -21.926  12.238  0.00  0.00     0.066 A 
BRANCH   8  33
ATOM     33  C   UNK d   0     -31.372 -20.825  14.669  0.00  0.00     0.151 C 
BRANCH  33  34
ATOM     34  C   UNK d   0     -30.928 -19.420  14.688  0.00  0.00     0.143 C 
ATOM     35  O   UNK d   0     -31.006 -18.742  15.723  0.00  0.00    -0.650 OA
BRANCH  34  36
ATOM     36  O   UNK d   0     -30.422 -18.856  13.540  0.00  0.00    -0.776 OA
ATOM     37  H   UNK d   0     -30.164 -17.860  13.503  0.00  0.00     0.167 HD
ENDBRANCH  34  36
ENDBRANCH  33  34
ENDBRANCH   8  33
BRANCH  31  38
ATOM     38  C   UNK d   0     -36.775 -24.791  11.025  0.00  0.00     0.151 C 
BRANCH  38  39
ATOM     39  C   UNK d   0     -36.155 -25.676  10.062  0.00  0.00     0.143 C 
ATOM     40  O   UNK d   0     -36.749 -26.657   9.581  0.00  0.00    -0.650 OA
BRANCH  39  41
ATOM     41  O   UNK d   0     -34.846 -25.431   9.649  0.00  0.00    -0.776 OA
ATOM     42  H   UNK d   0     -34.322 -24.722  10.171  0.00  0.00     0.167 HD
ENDBRANCH  39  41
ENDBRANCH  38  39
ENDBRANCH  31  38
BRANCH  27  43
ATOM     43  C   UNK d   0     -39.138 -23.469   9.550  0.00  0.00     0.052 C 
BRANCH  43  44
ATOM     44  C   UNK d   0     -40.125 -23.518  10.671  0.00  0.00     0.115 C 
BRANCH  44  45
ATOM     45  C   UNK d   0     -40.906 -22.256  10.605  0.00  0.00     0.139 C 
ATOM     46  O   UNK d   0     -41.634 -22.062   9.600  0.00  0.00    -0.650 OA
BRANCH  45  47
ATOM     47  O   UNK d   0     -40.867 -21.300  11.597  0.00  0.00    -0.776 OA
ATOM     48  H   UNK d   0     -41.653 -20.657  11.787  0.00  0.00     0.167 HD
ENDBRANCH  45  47
ENDBRANCH  44  45
ENDBRANCH  43  44
ENDBRANCH  27  43
BRANCH  24  49
ATOM     49  C   UNK d   0     -40.677 -18.410   7.908  0.00  0.00     0.052 C 
BRANCH  49  50
ATOM     50  C   UNK d   0     -40.186 -17.962   6.555  0.00  0.00     0.115 C 
BRANCH  50  51
ATOM     51  C   UNK d   0     -41.044 -17.058   5.802  0.00  0.00     0.139 C 
ATOM     52  O   UNK d   0     -40.642 -15.956   5.359  0.00  0.00    -0.650 OA
BRANCH  51  53
ATOM     53  O   UNK d   0     -42.363 -17.409   5.556  0.00  0.00    -0.776 OA
ATOM     54  H   UNK d   0     -43.077 -17.017   6.144  0.00  0.00     0.167 HD
ENDBRANCH  51  53
ENDBRANCH  50  51
ENDBRANCH  49  50
ENDBRANCH  24  49
BRANCH  21  55
ATOM     55  C   UNK d   0     -40.159 -15.848   9.555  0.00  0.00     0.151 C 
BRANCH  55  56
ATOM     56  C   UNK d   0     -41.401 -15.879  10.343  0.00  0.00     0.143 C 
ATOM     57  O   UNK d   0     -41.737 -16.859  11.036  0.00  0.00    -0.650 OA
BRANCH  56  58
ATOM     58  O   UNK d   0     -42.225 -14.755  10.300  0.00  0.00    -0.776 OA
ATOM     59  H   UNK d   0     -42.611 -14.462  11.215  0.00  0.00     0.167 HD
ENDBRANCH  56  58
ENDBRANCH  55  56
ENDBRANCH  21  55
BRANCH  18  60
ATOM     60  C   UNK d   0     -35.469 -14.570  11.831  0.00  0.00     0.151 C 
BRANCH  60  61
ATOM     61  C   UNK d   0     -35.293 -14.604  10.371  0.00  0.00     0.143 C 
ATOM     62  O   UNK d   0     -36.180 -14.609   9.517  0.00  0.00    -0.650 OA
BRANCH  61  63
ATOM     63  O   UNK d   0     -33.949 -14.633   9.927  0.00  0.00    -0.776 OA
ATOM     64  H   UNK d   0     -33.189 -14.479  10.565  0.00  0.00     0.167 HD
ENDBRANCH  61  63
ENDBRANCH  60  61
ENDBRANCH  18  60
BRANCH  14  65
ATOM     65  C   UNK d   0     -33.199 -15.836  13.397  0.00  0.00     0.052 C 
BRANCH  65  66
ATOM     66  C   UNK d   0     -32.155 -15.732  12.342  0.00  0.00     0.115 C 
BRANCH  66  67
ATOM     67  C   UNK d   0     -31.296 -14.582  12.303  0.00  0.00     0.139 C 
ATOM     68  O   UNK d   0     -31.313 -13.839  11.254  0.00  0.00    -0.650 OA
BRANCH  67  69
ATOM     69  O   UNK d   0     -30.409 -14.146  13.287  0.00  0.00    -0.776 OA
ATOM     70  H   UNK d   0     -30.831 -13.904  14.195  0.00  0.00     0.167 HD
ENDBRANCH  67  69
ENDBRANCH  66  67
ENDBRANCH  65  66
ENDBRANCH  14  65
ENDBRANCH   6   7
ENDBRANCH   5   6
ENDBRANCH   2   5
TORSDOF 28
ENDMDL
MODEL 7
REMARK VINA RESULT:      -9.7     27.814     31.555
REMARK  28 active torsions:
REMARK  status: ('A' for Active; 'I' for Inactive)
REMARK    1  A    between atoms: C_2  and  O_3 
REMARK    2  A    between atoms: C_2  and  C_4 
REMARK    3  A    between atoms: C_4  and  C_5 
REMARK    4  A    between atoms: C_5  and  C_6 
REMARK    5  A    between atoms: C_7  and  C_8 
REMARK    6  A    between atoms: C_8  and  C_9 
REMARK    7  A    between atoms: C_9  and  O_11 
REMARK    8  A    between atoms: C_28  and  C_29 
REMARK    9  A    between atoms: C_29  and  C_30 
REMARK   10  A    between atoms: C_30  and  O_32 
REMARK   11  A    between atoms: C_33  and  C_34 
REMARK   12  A    between atoms: C_34  and  C_35 
REMARK   13  A    between atoms: C_35  and  C_36 
REMARK   14  A    between atoms: C_36  and  O_38 
REMARK   15  A    between atoms: C_39  and  C_40 
REMARK   16  A    between atoms: C_40  and  C_41 
REMARK   17  A    between atoms: C_41  and  C_42 
REMARK   18  A    between atoms: C_42  and  O_44 
REMARK   19  A    between atoms: C_45  and  C_46 
REMARK   20  A    between atoms: C_46  and  C_47 
REMARK   21  A    between atoms: C_47  and  O_49 
REMARK   22  A    between atoms: C_50  and  C_51 
REMARK   23  A    between atoms: C_51  and  C_52 
REMARK   24  A    between atoms: C_52  and  O_54 
REMARK   25  A    between atoms: C_55  and  C_56 
REMARK   26  A    between atoms: C_56  and  C_57 
REMARK   27  A    between atoms: C_57  and  C_58 
REMARK   28  A    between atoms: C_58  and  O_60 
ROOT
ATOM      1  O   UNK d   0     -31.709 -13.940  11.399  0.00  0.00    -0.650 OA
ATOM      2  C   UNK d   0     -32.888 -14.262  11.665  0.00  0.00     0.139 C 
ENDROOT
BRANCH   2   3
ATOM      3  O   UNK d   0     -33.259 -14.439  12.976  0.00  0.00    -0.776 OA
ATOM      4  H   UNK d   0     -33.114 -13.702  13.669  0.00  0.00     0.167 HD
ENDBRANCH   2   3
BRANCH   2   5
ATOM      5  C   UNK d   0     -33.878 -14.451  10.567  0.00  0.00     0.115 C 
BRANCH   5   6
ATOM      6  C   UNK d   0     -35.275 -14.254  11.089  0.00  0.00     0.052 C 
BRANCH   6   7
ATOM      7  C   UNK d   0     -36.149 -15.468  10.885  0.00  0.00    -0.020 A 
ATOM      8  C   UNK d   0     -37.399 -15.496  10.499  0.00  0.00    -0.011 A 
ATOM      9  C   UNK d   0     -37.820 -16.886  10.454  0.00  0.00     0.067 A 
ATOM     10  C   UNK d   0     -38.992 -17.579  10.112  0.00  0.00     0.062 C 
ATOM     11  N   UNK d   0     -36.765 -17.636  10.835  0.00  0.00    -0.248 NA
ATOM     12  C   UNK d   0     -39.124 -18.949   9.863  0.00  0.00     0.041 A 
ATOM     13  N   UNK d   0     -38.612 -20.019  10.501  0.00  0.00    -0.355 N 
ATOM     14  C   UNK d   0     -39.859 -19.369   8.740  0.00  0.00    -0.022 A 
ATOM     15  C   UNK d   0     -38.996 -21.107   9.806  0.00  0.00     0.042 A 
ATOM     16  H   UNK d   0     -38.007 -20.007  11.434  0.00  0.00     0.166 HD
ATOM     17  C   UNK d   0     -38.740 -22.473  10.034  0.00  0.00     0.062 C 
ATOM     18  C   UNK d   0     -39.780 -20.739   8.695  0.00  0.00    -0.013 A 
ATOM     19  C   UNK d   0     -37.560 -23.085  10.372  0.00  0.00     0.067 A 
ATOM     20  N   UNK d   0     -36.548 -22.290  10.732  0.00  0.00    -0.248 NA
ATOM     21  C   UNK d   0     -37.073 -24.453  10.437  0.00  0.00    -0.011 A 
ATOM     22  C   UNK d   0     -35.435 -23.039  11.026  0.00  0.00     0.066 A 
ATOM     23  C   UNK d   0     -34.316 -22.339  11.453  0.00  0.00     0.062 C 
ATOM     24  C   UNK d   0     -35.828 -24.419  10.816  0.00  0.00    -0.020 A 
ATOM     25  C   UNK d   0     -34.208 -20.963  11.708  0.00  0.00     0.041 A 
ATOM     26  N   UNK d   0     -34.705 -19.899  11.066  0.00  0.00    -0.355 N 
ATOM     27  C   UNK d   0     -33.474 -20.542  12.839  0.00  0.00    -0.022 A 
ATOM     28  C   UNK d   0     -34.315 -18.812  11.752  0.00  0.00     0.042 A 
ATOM     29  H   UNK d   0     -35.304 -19.912  10.122  0.00  0.00     0.166 HD
ATOM     30  C   UNK d   0     -34.555 -17.447  11.532  0.00  0.00     0.062 C 
ATOM     31  C   UNK d   0     -33.537 -19.183  12.874  0.00  0.00    -0.013 A 
ATOM     32  C   UNK d   0     -35.728 -16.843  11.107  0.00  0.00     0.066 A 
BRANCH   8  33
ATOM     33  C   UNK d   0     -38.249 -14.337  10.168  0.00  0.00     0.151 C 
BRANCH  33  34
ATOM     34  C   UNK d   0     -39.632 -14.721   9.834  0.00  0.00     0.143 C 
ATOM     35  O   UNK d   0     -40.504 -14.789  10.712  0.00  0.00    -0.650 OA
BRANCH  34  36
ATOM     36  O   UNK d   0     -39.957 -15.009   8.528  0.00  0.00    -0.776 OA
ATOM     37  H   UNK d   0     -40.118 -15.977   8.219  0.00  0.00     0.167 HD
ENDBRANCH  34  36
ENDBRANCH  33  34
ENDBRANCH   8  33
BRANCH  31  38
ATOM     38  C   UNK d   0     -32.908 -18.289  13.917  0.00  0.00     0.151 C 
BRANCH  38  39
ATOM     39  C   UNK d   0     -31.557 -17.895  13.578  0.00  0.00     0.143 C 
ATOM     40  O   UNK d   0     -30.563 -18.545  13.946  0.00  0.00    -0.650 OA
BRANCH  39  41
ATOM     41  O   UNK d   0     -31.348 -16.748  12.812  0.00  0.00    -0.776 OA
ATOM     42  H   UNK d   0     -32.122 -16.448  12.210  0.00  0.00     0.167 HD
ENDBRANCH  39  41
ENDBRANCH  38  39
ENDBRANCH  31  38
BRANCH  27  43
ATOM     43  C   UNK d   0     -32.731 -21.367  13.860  0.00  0.00     0.052 C 
BRANCH  43  44
ATOM     44  C   UNK d   0     -31.349 -21.736  13.428  0.00  0.00     0.115 C 
BRANCH  44  45
ATOM     45  C   UNK d   0     -31.377 -23.188  13.110  0.00  0.00     0.139 C 
ATOM     46  O   UNK d   0     -32.115 -23.931  13.803  0.00  0.00    -0.650 OA
BRANCH  45  47
ATOM     47  O   UNK d   0     -30.637 -23.744  12.089  0.00  0.00    -0.776 OA
ATOM     48  H   UNK d   0     -30.964 -24.551  11.535  0.00  0.00     0.167 HD
ENDBRANCH  45  47
ENDBRANCH  44  45
ENDBRANCH  43  44
ENDBRANCH  27  43
BRANCH  24  49
ATOM     49  C   UNK d   0     -34.959 -25.585  11.049  0.00  0.00     0.052 C 
BRANCH  49  50
ATOM     50  C   UNK d   0     -34.474 -26.148   9.738  0.00  0.00     0.115 C 
BRANCH  50  51
ATOM     51  C   UNK d   0     -33.037 -26.324   9.580  0.00  0.00     0.139 C 
ATOM     52  O   UNK d   0     -32.536 -27.313   8.994  0.00  0.00    -0.650 OA
BRANCH  51  53
ATOM     53  O   UNK d   0     -32.169 -25.372  10.092  0.00  0.00    -0.776 OA
ATOM     54  H   UNK d   0     -31.181 -25.539  10.016  0.00  0.00     0.167 HD
ENDBRANCH  51  53
ENDBRANCH  50  51
ENDBRANCH  49  50
ENDBRANCH  24  49
BRANCH  21  55
ATOM     55  C   UNK d   0     -37.904 -25.651  10.118  0.00  0.00     0.151 C 
BRANCH  55  56
ATOM     56  C   UNK d   0     -38.537 -26.219  11.318  0.00  0.00     0.143 C 
ATOM     57  O   UNK d   0     -38.109 -27.242  11.886  0.00  0.00    -0.650 OA
BRANCH  56  58
ATOM     58  O   UNK d   0     -39.661 -25.571  11.827  0.00  0.00    -0.776 OA
ATOM     59  H   UNK d   0     -40.318 -26.181  12.346  0.00  0.00     0.167 HD
ENDBRANCH  56  58
ENDBRANCH  55  56
ENDBRANCH  21  55
BRANCH  18  60
ATOM     60  C   UNK d   0     -40.421 -21.608   7.642  0.00  0.00     0.151 C 
BRANCH  60  61
ATOM     61  C   UNK d   0     -41.771 -21.916   8.140  0.00  0.00     0.143 C 
ATOM     62  O   UNK d   0     -42.242 -21.621   9.238  0.00  0.00    -0.650 OA
BRANCH  61  63
ATOM     63  O   UNK d   0     -42.597 -22.629   7.238  0.00  0.00    -0.776 OA
ATOM     64  H   UNK d   0     -43.597 -22.620   7.333  0.00  0.00     0.167 HD
ENDBRANCH  61  63
ENDBRANCH  60  61
ENDBRANCH  18  60
BRANCH  14  65
ATOM     65  C   UNK d   0     -40.703 -18.590   7.773  0.00  0.00     0.052 C 
BRANCH  65  66
ATOM     66  C   UNK d   0     -39.908 -17.953   6.688  0.00  0.00     0.115 C 
BRANCH  66  67
ATOM     67  C   UNK d   0     -40.569 -17.148   5.700  0.00  0.00     0.139 C 
ATOM     68  O   UNK d   0     -40.223 -15.915   5.582  0.00  0.00    -0.650 OA
BRANCH  67  69
ATOM     69  O   UNK d   0     -41.575 -17.536   4.816  0.00  0.00    -0.776 OA
ATOM     70  H   UNK d   0     -42.434 -16.968   4.837  0.00  0.00     0.167 HD
ENDBRANCH  67  69
ENDBRANCH  66  67
ENDBRANCH  65  66
ENDBRANCH  14  65
ENDBRANCH   6   7
ENDBRANCH   5   6
ENDBRANCH   2   5
TORSDOF 28
ENDMDL
MODEL 8
REMARK VINA RESULT:      -9.6      1.821      8.131
REMARK  28 active torsions:
REMARK  status: ('A' for Active; 'I' for Inactive)
REMARK    1  A    between atoms: C_2  and  O_3 
REMARK    2  A    between atoms: C_2  and  C_4 
REMARK    3  A    between atoms: C_4  and  C_5 
REMARK    4  A    between atoms: C_5  and  C_6 
REMARK    5  A    between atoms: C_7  and  C_8 
REMARK    6  A    between atoms: C_8  and  C_9 
REMARK    7  A    between atoms: C_9  and  O_11 
REMARK    8  A    between atoms: C_28  and  C_29 
REMARK    9  A    between atoms: C_29  and  C_30 
REMARK   10  A    between atoms: C_30  and  O_32 
REMARK   11  A    between atoms: C_33  and  C_34 
REMARK   12  A    between atoms: C_34  and  C_35 
REMARK   13  A    between atoms: C_35  and  C_36 
REMARK   14  A    between atoms: C_36  and  O_38 
REMARK   15  A    between atoms: C_39  and  C_40 
REMARK   16  A    between atoms: C_40  and  C_41 
REMARK   17  A    between atoms: C_41  and  C_42 
REMARK   18  A    between atoms: C_42  and  O_44 
REMARK   19  A    between atoms: C_45  and  C_46 
REMARK   20  A    between atoms: C_46  and  C_47 
REMARK   21  A    between atoms: C_47  and  O_49 
REMARK   22  A    between atoms: C_50  and  C_51 
REMARK   23  A    between atoms: C_51  and  C_52 
REMARK   24  A    between atoms: C_52  and  O_54 
REMARK   25  A    between atoms: C_55  and  C_56 
REMARK   26  A    between atoms: C_56  and  C_57 
REMARK   27  A    between atoms: C_57  and  C_58 
REMARK   28  A    between atoms: C_58  and  O_60 
ROOT
ATOM      1  O   UNK d   0      -7.822 -16.650  -8.584  0.00  0.00    -0.650 OA
ATOM      2  C   UNK d   0      -7.698 -17.533  -7.706  0.00  0.00     0.139 C 
ENDROOT
BRANCH   2   3
ATOM      3  O   UNK d   0      -8.451 -18.679  -7.792  0.00  0.00    -0.776 OA
ATOM      4  H   UNK d   0      -8.008 -19.594  -7.900  0.00  0.00     0.167 HD
ENDBRANCH   2   3
BRANCH   2   5
ATOM      5  C   UNK d   0      -6.743 -17.338  -6.578  0.00  0.00     0.115 C 
BRANCH   5   6
ATOM      6  C   UNK d   0      -7.385 -17.748  -5.280  0.00  0.00     0.052 C 
BRANCH   6   7
ATOM      7  C   UNK d   0      -8.009 -16.584  -4.548  0.00  0.00    -0.020 A 
ATOM      8  C   UNK d   0      -7.534 -15.948  -3.508  0.00  0.00    -0.011 A 
ATOM      9  C   UNK d   0      -8.486 -14.910  -3.148  0.00  0.00     0.067 A 
ATOM     10  C   UNK d   0      -8.564 -13.900  -2.177  0.00  0.00     0.062 C 
ATOM     11  N   UNK d   0      -9.514 -14.990  -4.019  0.00  0.00    -0.248 NA
ATOM     12  C   UNK d   0      -9.437 -12.807  -2.158  0.00  0.00     0.041 A 
ATOM     13  N   UNK d   0     -10.752 -12.718  -2.436  0.00  0.00    -0.355 N 
ATOM     14  C   UNK d   0      -8.925 -11.531  -1.861  0.00  0.00    -0.022 A 
ATOM     15  C   UNK d   0     -11.085 -11.418  -2.330  0.00  0.00     0.042 A 
ATOM     16  H   UNK d   0     -11.435 -13.561  -2.682  0.00  0.00     0.166 HD
ATOM     17  C   UNK d   0     -12.326 -10.775  -2.512  0.00  0.00     0.062 C 
ATOM     18  C   UNK d   0      -9.966 -10.643  -1.971  0.00  0.00    -0.013 A 
ATOM     19  C   UNK d   0     -13.248 -10.949  -3.513  0.00  0.00     0.067 A 
ATOM     20  N   UNK d   0     -13.068 -11.992  -4.327  0.00  0.00    -0.248 NA
ATOM     21  C   UNK d   0     -14.439 -10.252  -3.968  0.00  0.00    -0.011 A 
ATOM     22  C   UNK d   0     -14.055 -12.027  -5.281  0.00  0.00     0.066 A 
ATOM     23  C   UNK d   0     -14.011 -13.088  -6.174  0.00  0.00     0.062 C 
ATOM     24  C   UNK d   0     -14.904 -10.885  -5.006  0.00  0.00    -0.020 A 
ATOM     25  C   UNK d   0     -13.133 -14.183  -6.168  0.00  0.00     0.041 A 
ATOM     26  N   UNK d   0     -11.823 -14.268  -5.907  0.00  0.00    -0.355 N 
ATOM     27  C   UNK d   0     -13.649 -15.463  -6.462  0.00  0.00    -0.022 A 
ATOM     28  C   UNK d   0     -11.486 -15.563  -6.020  0.00  0.00     0.042 A 
ATOM     29  H   UNK d   0     -11.136 -13.419  -5.670  0.00  0.00     0.166 HD
ATOM     30  C   UNK d   0     -10.255 -16.215  -5.851  0.00  0.00     0.062 C 
ATOM     31  C   UNK d   0     -12.614 -16.343  -6.370  0.00  0.00    -0.013 A 
ATOM     32  C   UNK d   0      -9.287 -15.977  -4.887  0.00  0.00     0.066 A 
BRANCH   8  33
ATOM     33  C   UNK d   0      -6.266 -16.221  -2.806  0.00  0.00     0.151 C 
BRANCH  33  34
ATOM     34  C   UNK d   0      -5.133 -15.457  -3.359  0.00  0.00     0.143 C 
ATOM     35  O   UNK d   0      -5.136 -15.077  -4.538  0.00  0.00    -0.650 OA
BRANCH  34  36
ATOM     36  O   UNK d   0      -4.057 -15.166  -2.552  0.00  0.00    -0.776 OA
ATOM     37  H   UNK d   0      -3.301 -14.545  -2.872  0.00  0.00     0.167 HD
ENDBRANCH  34  36
ENDBRANCH  33  34
ENDBRANCH   8  33
BRANCH  31  38
ATOM     38  C   UNK d   0     -12.691 -17.836  -6.588  0.00  0.00     0.151 C 
BRANCH  38  39
ATOM     39  C   UNK d   0     -12.318 -18.228  -7.931  0.00  0.00     0.143 C 
ATOM     40  O   UNK d   0     -11.175 -18.044  -8.384  0.00  0.00    -0.650 OA
BRANCH  39  41
ATOM     41  O   UNK d   0     -13.264 -18.835  -8.756  0.00  0.00    -0.776 OA
ATOM     42  H   UNK d   0     -13.969 -18.222  -9.179  0.00  0.00     0.167 HD
ENDBRANCH  39  41
ENDBRANCH  38  39
ENDBRANCH  31  38
BRANCH  27  43
ATOM     43  C   UNK d   0     -15.056 -15.871  -6.820  0.00  0.00     0.052 C 
BRANCH  43  44
ATOM     44  C   UNK d   0     -15.387 -15.649  -8.261  0.00  0.00     0.115 C 
BRANCH  44  45
ATOM     45  C   UNK d   0     -16.099 -16.868  -8.725  0.00  0.00     0.139 C 
ATOM     46  O   UNK d   0     -17.147 -17.207  -8.121  0.00  0.00    -0.650 OA
BRANCH  45  47
ATOM     47  O   UNK d   0     -15.662 -17.631  -9.786  0.00  0.00    -0.776 OA
ATOM     48  H   UNK d   0     -16.307 -18.105 -10.438  0.00  0.00     0.167 HD
ENDBRANCH  45  47
ENDBRANCH  44  45
ENDBRANCH  43  44
ENDBRANCH  27  43
BRANCH  24  49
ATOM     49  C   UNK d   0     -16.123 -10.542  -5.758  0.00  0.00     0.052 C 
BRANCH  49  50
ATOM     50  C   UNK d   0     -15.776  -9.709  -6.966  0.00  0.00     0.115 C 
BRANCH  50  51
ATOM     51  C   UNK d   0     -16.201  -8.315  -6.955  0.00  0.00     0.139 C 
ATOM     52  O   UNK d   0     -15.939  -7.522  -7.890  0.00  0.00    -0.650 OA
BRANCH  51  53
ATOM     53  O   UNK d   0     -16.921  -7.825  -5.877  0.00  0.00    -0.776 OA
ATOM     54  H   UNK d   0     -16.784  -8.255  -4.979  0.00  0.00     0.167 HD
ENDBRANCH  51  53
ENDBRANCH  50  51
ENDBRANCH  49  50
ENDBRANCH  24  49
BRANCH  21  55
ATOM     55  C   UNK d   0     -14.991  -9.027  -3.315  0.00  0.00     0.151 C 
BRANCH  55  56
ATOM     56  C   UNK d   0     -13.948  -8.254  -2.623  0.00  0.00     0.143 C 
ATOM     57  O   UNK d   0     -13.868  -8.192  -1.380  0.00  0.00    -0.650 OA
BRANCH  56  58
ATOM     58  O   UNK d   0     -13.021  -7.569  -3.405  0.00  0.00    -0.776 OA
ATOM     59  H   UNK d   0     -12.760  -6.631  -3.052  0.00  0.00     0.167 HD
ENDBRANCH  56  58
ENDBRANCH  55  56
ENDBRANCH  21  55
BRANCH  18  60
ATOM     60  C   UNK d   0      -9.860  -9.155  -1.745  0.00  0.00     0.151 C 
BRANCH  60  61
ATOM     61  C   UNK d   0     -10.057  -8.952  -0.301  0.00  0.00     0.143 C 
ATOM     62  O   UNK d   0      -9.184  -8.892   0.566  0.00  0.00    -0.650 OA
BRANCH  61  63
ATOM     63  O   UNK d   0     -11.404  -8.811   0.109  0.00  0.00    -0.776 OA
ATOM     64  H   UNK d   0     -11.657  -8.844   1.081  0.00  0.00     0.167 HD
ENDBRANCH  61  63
ENDBRANCH  60  61
ENDBRANCH  18  60
BRANCH  14  65
ATOM     65  C   UNK d   0      -7.563 -11.106  -1.390  0.00  0.00     0.052 C 
BRANCH  65  66
ATOM     66  C   UNK d   0      -6.645 -10.755  -2.506  0.00  0.00     0.115 C 
BRANCH  66  67
ATOM     67  C   UNK d   0      -5.946 -11.794  -3.208  0.00  0.00     0.139 C 
ATOM     68  O   UNK d   0      -4.830 -12.215  -2.729  0.00  0.00    -0.650 OA
BRANCH  67  69
ATOM     69  O   UNK d   0      -6.329 -12.435  -4.386  0.00  0.00    -0.776 OA
ATOM     70  H   UNK d   0      -5.619 -12.464  -5.131  0.00  0.00     0.167 HD
ENDBRANCH  67  69
ENDBRANCH  66  67
ENDBRANCH  65  66
ENDBRANCH  14  65
ENDBRANCH   6   7
ENDBRANCH   5   6
ENDBRANCH   2   5
TORSDOF 28
ENDMDL
MODEL 9
REMARK VINA RESULT:      -9.6     27.212     30.089
REMARK  28 active torsions:
REMARK  status: ('A' for Active; 'I' for Inactive)
REMARK    1  A    between atoms: C_2  and  O_3 
REMARK    2  A    between atoms: C_2  and  C_4 
REMARK    3  A    between atoms: C_4  and  C_5 
REMARK    4  A    between atoms: C_5  and  C_6 
REMARK    5  A    between atoms: C_7  and  C_8 
REMARK    6  A    between atoms: C_8  and  C_9 
REMARK    7  A    between atoms: C_9  and  O_11 
REMARK    8  A    between atoms: C_28  and  C_29 
REMARK    9  A    between atoms: C_29  and  C_30 
REMARK   10  A    between atoms: C_30  and  O_32 
REMARK   11  A    between atoms: C_33  and  C_34 
REMARK   12  A    between atoms: C_34  and  C_35 
REMARK   13  A    between atoms: C_35  and  C_36 
REMARK   14  A    between atoms: C_36  and  O_38 
REMARK   15  A    between atoms: C_39  and  C_40 
REMARK   16  A    between atoms: C_40  and  C_41 
REMARK   17  A    between atoms: C_41  and  C_42 
REMARK   18  A    between atoms: C_42  and  O_44 
REMARK   19  A    between atoms: C_45  and  C_46 
REMARK   20  A    between atoms: C_46  and  C_47 
REMARK   21  A    between atoms: C_47  and  O_49 
REMARK   22  A    between atoms: C_50  and  C_51 
REMARK   23  A    between atoms: C_51  and  C_52 
REMARK   24  A    between atoms: C_52  and  O_54 
REMARK   25  A    between atoms: C_55  and  C_56 
REMARK   26  A    between atoms: C_56  and  C_57 
REMARK   27  A    between atoms: C_57  and  C_58 
REMARK   28  A    between atoms: C_58  and  O_60 
ROOT
ATOM      1  O   UNK d   0     -41.379 -20.905  10.676  0.00  0.00    -0.650 OA
ATOM      2  C   UNK d   0     -41.231 -21.650   9.681  0.00  0.00     0.139 C 
ENDROOT
BRANCH   2   3
ATOM      3  O   UNK d   0     -42.242 -21.746   8.755  0.00  0.00    -0.776 OA
ATOM      4  H   UNK d   0     -42.105 -21.437   7.791  0.00  0.00     0.167 HD
ENDBRANCH   2   3
BRANCH   2   5
ATOM      5  C   UNK d   0     -39.969 -22.423   9.507  0.00  0.00     0.115 C 
BRANCH   5   6
ATOM      6  C   UNK d   0     -39.171 -21.861   8.362  0.00  0.00     0.052 C 
BRANCH   6   7
ATOM      7  C   UNK d   0     -38.260 -20.735   8.785  0.00  0.00    -0.020 A 
ATOM      8  C   UNK d   0     -38.302 -19.485   8.399  0.00  0.00    -0.011 A 
ATOM      9  C   UNK d   0     -37.222 -18.777   9.066  0.00  0.00     0.067 A 
ATOM     10  C   UNK d   0     -36.748 -17.456   9.101  0.00  0.00     0.062 C 
ATOM     11  N   UNK d   0     -36.569 -19.673   9.834  0.00  0.00    -0.248 NA
ATOM     12  C   UNK d   0     -35.857 -16.900  10.025  0.00  0.00     0.041 A 
ATOM     13  N   UNK d   0     -34.718 -17.382  10.559  0.00  0.00    -0.355 N 
ATOM     14  C   UNK d   0     -36.153 -15.645  10.586  0.00  0.00    -0.022 A 
ATOM     15  C   UNK d   0     -34.289 -16.468  11.449  0.00  0.00     0.042 A 
ATOM     16  H   UNK d   0     -34.217 -18.340  10.296  0.00  0.00     0.166 HD
ATOM     17  C   UNK d   0     -33.152 -16.469  12.282  0.00  0.00     0.062 C 
ATOM     18  C   UNK d   0     -35.163 -15.365  11.495  0.00  0.00    -0.013 A 
ATOM     19  C   UNK d   0     -32.649 -17.484  13.054  0.00  0.00     0.067 A 
ATOM     20  N   UNK d   0     -33.165 -18.701  12.864  0.00  0.00    -0.248 NA
ATOM     21  C   UNK d   0     -31.649 -17.603  14.103  0.00  0.00    -0.011 A 
ATOM     22  C   UNK d   0     -32.577 -19.606  13.713  0.00  0.00     0.066 A 
ATOM     23  C   UNK d   0     -32.995 -20.924  13.595  0.00  0.00     0.062 C 
ATOM     24  C   UNK d   0     -31.615 -18.846  14.487  0.00  0.00    -0.020 A 
ATOM     25  C   UNK d   0     -33.882 -21.464  12.651  0.00  0.00     0.041 A 
ATOM     26  N   UNK d   0     -35.022 -20.992  12.133  0.00  0.00    -0.355 N 
ATOM     27  C   UNK d   0     -33.581 -22.722  12.085  0.00  0.00    -0.022 A 
ATOM     28  C   UNK d   0     -35.457 -21.905  11.250  0.00  0.00     0.042 A 
ATOM     29  H   UNK d   0     -35.529 -20.034  12.405  0.00  0.00     0.166 HD
ATOM     30  C   UNK d   0     -36.590 -21.922  10.422  0.00  0.00     0.062 C 
ATOM     31  C   UNK d   0     -34.572 -23.008  11.197  0.00  0.00    -0.013 A 
ATOM     32  C   UNK d   0     -37.144 -20.870   9.710  0.00  0.00     0.066 A 
BRANCH   8  33
ATOM     33  C   UNK d   0     -39.261 -18.883   7.454  0.00  0.00     0.151 C 
BRANCH  33  34
ATOM     34  C   UNK d   0     -40.554 -18.558   8.083  0.00  0.00     0.143 C 
ATOM     35  O   UNK d   0     -40.602 -17.939   9.156  0.00  0.00    -0.650 OA
BRANCH  34  36
ATOM     36  O   UNK d   0     -41.721 -18.949   7.469  0.00  0.00    -0.776 OA
ATOM     37  H   UNK d   0     -42.448 -18.264   7.218  0.00  0.00     0.167 HD
ENDBRANCH  34  36
ENDBRANCH  33  34
ENDBRANCH   8  33
BRANCH  31  38
ATOM     38  C   UNK d   0     -34.669 -24.248  10.339  0.00  0.00     0.151 C 
BRANCH  38  39
ATOM     39  C   UNK d   0     -35.335 -25.345  11.009  0.00  0.00     0.143 C 
ATOM     40  O   UNK d   0     -36.568 -25.498  10.969  0.00  0.00    -0.650 OA
BRANCH  39  41
ATOM     41  O   UNK d   0     -34.579 -26.270  11.728  0.00  0.00    -0.776 OA
ATOM     42  H   UNK d   0     -34.174 -25.948  12.613  0.00  0.00     0.167 HD
ENDBRANCH  39  41
ENDBRANCH  38  39
ENDBRANCH  31  38
BRANCH  27  43
ATOM     43  C   UNK d   0     -32.415 -23.640  12.354  0.00  0.00     0.052 C 
BRANCH  43  44
ATOM     44  C   UNK d   0     -31.405 -23.649  11.253  0.00  0.00     0.115 C 
BRANCH  44  45
ATOM     45  C   UNK d   0     -30.865 -25.032  11.185  0.00  0.00     0.139 C 
ATOM     46  O   UNK d   0     -31.672 -25.974  10.988  0.00  0.00    -0.650 OA
BRANCH  45  47
ATOM     47  O   UNK d   0     -29.523 -25.318  11.322  0.00  0.00    -0.776 OA
ATOM     48  H   UNK d   0     -28.818 -24.600  11.555  0.00  0.00     0.167 HD
ENDBRANCH  45  47
ENDBRANCH  44  45
ENDBRANCH  43  44
ENDBRANCH  27  43
BRANCH  24  49
ATOM     49  C   UNK d   0     -30.716 -19.416  15.505  0.00  0.00     0.052 C 
BRANCH  49  50
ATOM     50  C   UNK d   0     -31.109 -18.937  16.879  0.00  0.00     0.115 C 
BRANCH  50  51
ATOM     51  C   UNK d   0     -32.426 -19.322  17.367  0.00  0.00     0.139 C 
ATOM     52  O   UNK d   0     -32.942 -20.436  17.113  0.00  0.00    -0.650 OA
BRANCH  51  53
ATOM     53  O   UNK d   0     -33.158 -18.435  18.141  0.00  0.00    -0.776 OA
ATOM     54  H   UNK d   0     -33.008 -18.436  19.135  0.00  0.00     0.167 HD
ENDBRANCH  51  53
ENDBRANCH  50  51
ENDBRANCH  49  50
ENDBRANCH  24  49
BRANCH  21  55
ATOM     55  C   UNK d   0     -30.830 -16.462  14.608  0.00  0.00     0.151 C 
BRANCH  55  56
ATOM     56  C   UNK d   0     -29.479 -16.453  14.027  0.00  0.00     0.143 C 
ATOM     57  O   UNK d   0     -28.657 -17.372  14.215  0.00  0.00    -0.650 OA
BRANCH  56  58
ATOM     58  O   UNK d   0     -29.120 -15.364  13.235  0.00  0.00    -0.776 OA
ATOM     59  H   UNK d   0     -29.915 -14.827  12.845  0.00  0.00     0.167 HD
ENDBRANCH  56  58
ENDBRANCH  55  56
ENDBRANCH  21  55
BRANCH  18  60
ATOM     60  C   UNK d   0     -35.090 -14.116  12.337  0.00  0.00     0.151 C 
BRANCH  60  61
ATOM     61  C   UNK d   0     -34.437 -13.100  11.498  0.00  0.00     0.143 C 
ATOM     62  O   UNK d   0     -34.858 -11.974  11.233  0.00  0.00    -0.650 OA
BRANCH  61  63
ATOM     63  O   UNK d   0     -33.191 -13.485  10.947  0.00  0.00    -0.776 OA
ATOM     64  H   UNK d   0     -32.431 -13.775  11.536  0.00  0.00     0.167 HD
ENDBRANCH  61  63
ENDBRANCH  60  61
ENDBRANCH  18  60
BRANCH  14  65
ATOM     65  C   UNK d   0     -37.236 -14.656  10.261  0.00  0.00     0.052 C 
BRANCH  65  66
ATOM     66  C   UNK d   0     -38.573 -15.070  10.768  0.00  0.00     0.115 C 
BRANCH  66  67
ATOM     67  C   UNK d   0     -39.746 -14.795   9.987  0.00  0.00     0.139 C 
ATOM     68  O   UNK d   0     -40.756 -14.250  10.567  0.00  0.00    -0.650 OA
BRANCH  67  69
ATOM     69  O   UNK d   0     -39.947 -15.049   8.631  0.00  0.00    -0.776 OA
ATOM     70  H   UNK d   0     -39.544 -14.359   7.981  0.00  0.00     0.167 HD
ENDBRANCH  67  69
ENDBRANCH  66  67
ENDBRANCH  65  66
ENDBRANCH  14  65
ENDBRANCH   6   7
ENDBRANCH   5   6
ENDBRANCH   2   5
TORSDOF 28
ENDMDL
MODEL 10
REMARK VINA RESULT:      -9.4      1.486     10.238
REMARK  28 active torsions:
REMARK  status: ('A' for Active; 'I' for Inactive)
REMARK    1  A    between atoms: C_2  and  O_3 
REMARK    2  A    between atoms: C_2  and  C_4 
REMARK    3  A    between atoms: C_4  and  C_5 
REMARK    4  A    between atoms: C_5  and  C_6 
REMARK    5  A    between atoms: C_7  and  C_8 
REMARK    6  A    between atoms: C_8  and  C_9 
REMARK    7  A    between atoms: C_9  and  O_11 
REMARK    8  A    between atoms: C_28  and  C_29 
REMARK    9  A    between atoms: C_29  and  C_30 
REMARK   10  A    between atoms: C_30  and  O_32 
REMARK   11  A    between atoms: C_33  and  C_34 
REMARK   12  A    between atoms: C_34  and  C_35 
REMARK   13  A    between atoms: C_35  and  C_36 
REMARK   14  A    between atoms: C_36  and  O_38 
REMARK   15  A    between atoms: C_39  and  C_40 
REMARK   16  A    between atoms: C_40  and  C_41 
REMARK   17  A    between atoms: C_41  and  C_42 
REMARK   18  A    between atoms: C_42  and  O_44 
REMARK   19  A    between atoms: C_45  and  C_46 
REMARK   20  A    between atoms: C_46  and  C_47 
REMARK   21  A    between atoms: C_47  and  O_49 
REMARK   22  A    between atoms: C_50  and  C_51 
REMARK   23  A    between atoms: C_51  and  C_52 
REMARK   24  A    between atoms: C_52  and  O_54 
REMARK   25  A    between atoms: C_55  and  C_56 
REMARK   26  A    between atoms: C_56  and  C_57 
REMARK   27  A    between atoms: C_57  and  C_58 
REMARK   28  A    between atoms: C_58  and  O_60 
ROOT
ATOM      1  O   UNK d   0     -13.353  -7.653  -2.119  0.00  0.00    -0.650 OA
ATOM      2  C   UNK d   0     -13.764  -8.447  -1.244  0.00  0.00     0.139 C 
ENDROOT
BRANCH   2   3
ATOM      3  O   UNK d   0     -15.101  -8.762  -1.195  0.00  0.00    -0.776 OA
ATOM      4  H   UNK d   0     -15.413  -9.734  -1.165  0.00  0.00     0.167 HD
ENDBRANCH   2   3
BRANCH   2   5
ATOM      5  C   UNK d   0     -12.810  -9.043  -0.267  0.00  0.00     0.115 C 
BRANCH   5   6
ATOM      6  C   UNK d   0     -11.412  -8.565  -0.551  0.00  0.00     0.052 C 
BRANCH   6   7
ATOM      7  C   UNK d   0     -10.551  -9.631  -1.186  0.00  0.00    -0.020 A 
ATOM      8  C   UNK d   0      -9.287  -9.877  -0.956  0.00  0.00    -0.011 A 
ATOM      9  C   UNK d   0      -8.888 -10.987  -1.806  0.00  0.00     0.067 A 
ATOM     10  C   UNK d   0      -7.715 -11.727  -2.022  0.00  0.00     0.062 C 
ATOM     11  N   UNK d   0      -9.971 -11.350  -2.525  0.00  0.00    -0.248 NA
ATOM     12  C   UNK d   0      -7.596 -12.952  -2.687  0.00  0.00     0.041 A 
ATOM     13  N   UNK d   0      -8.153 -13.398  -3.829  0.00  0.00    -0.355 N 
ATOM     14  C   UNK d   0      -6.822 -13.971  -2.104  0.00  0.00    -0.022 A 
ATOM     15  C   UNK d   0      -7.758 -14.676  -3.981  0.00  0.00     0.042 A 
ATOM     16  H   UNK d   0      -8.797 -12.815  -4.524  0.00  0.00     0.166 HD
ATOM     17  C   UNK d   0      -8.048 -15.606  -4.999  0.00  0.00     0.062 C 
ATOM     18  C   UNK d   0      -6.922 -15.071  -2.919  0.00  0.00    -0.013 A 
ATOM     19  C   UNK d   0      -9.251 -15.889  -5.593  0.00  0.00     0.067 A 
ATOM     20  N   UNK d   0     -10.263 -15.056  -5.334  0.00  0.00    -0.248 NA
ATOM     21  C   UNK d   0      -9.764 -16.924  -6.474  0.00  0.00    -0.011 A 
ATOM     22  C   UNK d   0     -11.400 -15.473  -5.982  0.00  0.00     0.066 A 
ATOM     23  C   UNK d   0     -12.524 -14.674  -5.830  0.00  0.00     0.062 C 
ATOM     24  C   UNK d   0     -11.023 -16.677  -6.695  0.00  0.00    -0.020 A 
ATOM     25  C   UNK d   0     -12.619 -13.440  -5.168  0.00  0.00     0.041 A 
ATOM     26  N   UNK d   0     -12.078 -13.001  -4.025  0.00  0.00    -0.355 N 
ATOM     27  C   UNK d   0     -13.393 -12.416  -5.757  0.00  0.00    -0.022 A 
ATOM     28  C   UNK d   0     -12.477 -11.730  -3.867  0.00  0.00     0.042 A 
ATOM     29  H   UNK d   0     -11.440 -13.592  -3.323  0.00  0.00     0.166 HD
ATOM     30  C   UNK d   0     -12.204 -10.796  -2.855  0.00  0.00     0.062 C 
ATOM     31  C   UNK d   0     -13.308 -11.330  -4.940  0.00  0.00    -0.013 A 
ATOM     32  C   UNK d   0     -11.005 -10.573  -2.198  0.00  0.00     0.066 A 
BRANCH   8  33
ATOM     33  C   UNK d   0      -8.403  -9.166  -0.013  0.00  0.00     0.151 C 
BRANCH  33  34
ATOM     34  C   UNK d   0      -7.129  -8.753  -0.627  0.00  0.00     0.143 C 
ATOM     35  O   UNK d   0      -7.075  -8.417  -1.819  0.00  0.00    -0.650 OA
BRANCH  34  36
ATOM     36  O   UNK d   0      -5.984  -8.742   0.136  0.00  0.00    -0.776 OA
ATOM     37  H   UNK d   0      -5.249  -9.451   0.008  0.00  0.00     0.167 HD
ENDBRANCH  34  36
ENDBRANCH  33  34
ENDBRANCH   8  33
BRANCH  31  38
ATOM     38  C   UNK d   0     -13.965  -9.989  -5.170  0.00  0.00     0.151 C 
BRANCH  38  39
ATOM     39  C   UNK d   0     -15.150  -9.799  -4.362  0.00  0.00     0.143 C 
ATOM     40  O   UNK d   0     -15.810  -8.745  -4.386  0.00  0.00    -0.650 OA
BRANCH  39  41
ATOM     41  O   UNK d   0     -15.581 -10.825  -3.522  0.00  0.00    -0.776 OA
ATOM     42  H   UNK d   0     -14.874 -11.251  -2.914  0.00  0.00     0.167 HD
ENDBRANCH  39  41
ENDBRANCH  38  39
ENDBRANCH  31  38
BRANCH  27  43
ATOM     43  C   UNK d   0     -14.193 -12.434  -7.035  0.00  0.00     0.052 C 
BRANCH  43  44
ATOM     44  C   UNK d   0     -15.585 -12.946  -6.854  0.00  0.00     0.115 C 
BRANCH  44  45
ATOM     45  C   UNK d   0     -15.590 -14.347  -7.349  0.00  0.00     0.139 C 
ATOM     46  O   UNK d   0     -16.351 -15.171  -6.784  0.00  0.00    -0.650 OA
BRANCH  45  47
ATOM     47  O   UNK d   0     -14.803 -14.772  -8.397  0.00  0.00    -0.776 OA
ATOM     48  H   UNK d   0     -14.356 -14.121  -9.062  0.00  0.00     0.167 HD
ENDBRANCH  45  47
ENDBRANCH  44  45
ENDBRANCH  43  44
ENDBRANCH  27  43
BRANCH  24  49
ATOM     49  C   UNK d   0     -11.921 -17.455  -7.565  0.00  0.00     0.052 C 
BRANCH  49  50
ATOM     50  C   UNK d   0     -12.912 -18.232  -6.737  0.00  0.00     0.115 C 
BRANCH  50  51
ATOM     51  C   UNK d   0     -14.322 -17.910  -6.911  0.00  0.00     0.139 C 
ATOM     52  O   UNK d   0     -14.866 -17.845  -8.038  0.00  0.00    -0.650 OA
BRANCH  51  53
ATOM     53  O   UNK d   0     -15.111 -17.658  -5.799  0.00  0.00    -0.776 OA
ATOM     54  H   UNK d   0     -16.104 -17.576  -5.929  0.00  0.00     0.167 HD
ENDBRANCH  51  53
ENDBRANCH  50  51
ENDBRANCH  49  50
ENDBRANCH  24  49
BRANCH  21  55
ATOM     55  C   UNK d   0      -8.941 -18.050  -7.008  0.00  0.00     0.151 C 
BRANCH  55  56
ATOM     56  C   UNK d   0      -7.890 -17.579  -7.923  0.00  0.00     0.143 C 
ATOM     57  O   UNK d   0      -6.698 -17.927  -7.818  0.00  0.00    -0.650 OA
BRANCH  56  58
ATOM     58  O   UNK d   0      -8.262 -16.707  -8.945  0.00  0.00    -0.776 OA
ATOM     59  H   UNK d   0      -8.089 -17.060  -9.904  0.00  0.00     0.167 HD
ENDBRANCH  56  58
ENDBRANCH  55  56
ENDBRANCH  21  55
BRANCH  18  60
ATOM     60  C   UNK d   0      -6.252 -16.398  -2.666  0.00  0.00     0.151 C 
BRANCH  60  61
ATOM     61  C   UNK d   0      -4.806 -16.131  -2.686  0.00  0.00     0.143 C 
ATOM     62  O   UNK d   0      -3.955 -16.597  -1.928  0.00  0.00    -0.650 OA
BRANCH  61  63
ATOM     63  O   UNK d   0      -4.372 -15.239  -3.696  0.00  0.00    -0.776 OA
ATOM     64  H   UNK d   0      -3.563 -14.659  -3.562  0.00  0.00     0.167 HD
ENDBRANCH  61  63
ENDBRANCH  60  61
ENDBRANCH  18  60
BRANCH  14  65
ATOM     65  C   UNK d   0      -5.924 -13.953  -0.899  0.00  0.00     0.052 C 
BRANCH  65  66
ATOM     66  C   UNK d   0      -6.602 -13.445   0.324  0.00  0.00     0.115 C 
BRANCH  66  67
ATOM     67  C   UNK d   0      -5.881 -12.609   1.242  0.00  0.00     0.139 C 
ATOM     68  O   UNK d   0      -4.768 -13.039   1.720  0.00  0.00    -0.650 OA
BRANCH  67  69
ATOM     69  O   UNK d   0      -6.239 -11.343   1.703  0.00  0.00    -0.776 OA
ATOM     70  H   UNK d   0      -6.199 -10.584   1.007  0.00  0.00     0.167 HD
ENDBRANCH  67  69
ENDBRANCH  66  67
ENDBRANCH  65  66
ENDBRANCH  14  65
ENDBRANCH   6   7
ENDBRANCH   5   6
ENDBRANCH   2   5
TORSDOF 28
ENDMDL
MODEL 11
REMARK VINA RESULT:      -9.3     27.843     31.786
REMARK  28 active torsions:
REMARK  status: ('A' for Active; 'I' for Inactive)
REMARK    1  A    between atoms: C_2  and  O_3 
REMARK    2  A    between atoms: C_2  and  C_4 
REMARK    3  A    between atoms: C_4  and  C_5 
REMARK    4  A    between atoms: C_5  and  C_6 
REMARK    5  A    between atoms: C_7  and  C_8 
REMARK    6  A    between atoms: C_8  and  C_9 
REMARK    7  A    between atoms: C_9  and  O_11 
REMARK    8  A    between atoms: C_28  and  C_29 
REMARK    9  A    between atoms: C_29  and  C_30 
REMARK   10  A    between atoms: C_30  and  O_32 
REMARK   11  A    between atoms: C_33  and  C_34 
REMARK   12  A    between atoms: C_34  and  C_35 
REMARK   13  A    between atoms: C_35  and  C_36 
REMARK   14  A    between atoms: C_36  and  O_38 
REMARK   15  A    between atoms: C_39  and  C_40 
REMARK   16  A    between atoms: C_40  and  C_41 
REMARK   17  A    between atoms: C_41  and  C_42 
REMARK   18  A    between atoms: C_42  and  O_44 
REMARK   19  A    between atoms: C_45  and  C_46 
REMARK   20  A    between atoms: C_46  and  C_47 
REMARK   21  A    between atoms: C_47  and  O_49 
REMARK   22  A    between atoms: C_50  and  C_51 
REMARK   23  A    between atoms: C_51  and  C_52 
REMARK   24  A    between atoms: C_52  and  O_54 
REMARK   25  A    between atoms: C_55  and  C_56 
REMARK   26  A    between atoms: C_56  and  C_57 
REMARK   27  A    between atoms: C_57  and  C_58 
REMARK   28  A    between atoms: C_58  and  O_60 
ROOT
ATOM      1  O   UNK d   0     -32.630 -26.651   8.363  0.00  0.00    -0.650 OA
ATOM      2  C   UNK d   0     -33.018 -26.269   9.490  0.00  0.00     0.139 C 
ENDROOT
BRANCH   2   3
ATOM      3  O   UNK d   0     -34.001 -26.977  10.139  0.00  0.00    -0.776 OA
ATOM      4  H   UNK d   0     -34.822 -26.506  10.524  0.00  0.00     0.167 HD
ENDBRANCH   2   3
BRANCH   2   5
ATOM      5  C   UNK d   0     -32.417 -25.059  10.118  0.00  0.00     0.115 C 
BRANCH   5   6
ATOM      6  C   UNK d   0     -32.970 -24.865  11.503  0.00  0.00     0.052 C 
BRANCH   6   7
ATOM      7  C   UNK d   0     -33.423 -23.447  11.755  0.00  0.00    -0.020 A 
ATOM      8  C   UNK d   0     -32.802 -22.520  12.438  0.00  0.00    -0.011 A 
ATOM      9  C   UNK d   0     -33.625 -21.322  12.413  0.00  0.00     0.067 A 
ATOM     10  C   UNK d   0     -33.527 -20.016  12.916  0.00  0.00     0.062 C 
ATOM     11  N   UNK d   0     -34.732 -21.612  11.698  0.00  0.00    -0.248 NA
ATOM     12  C   UNK d   0     -34.299 -18.907  12.553  0.00  0.00     0.041 A 
ATOM     13  N   UNK d   0     -35.622 -18.782  12.333  0.00  0.00    -0.355 N 
ATOM     14  C   UNK d   0     -33.655 -17.682  12.301  0.00  0.00    -0.022 A 
ATOM     15  C   UNK d   0     -35.833 -17.512  11.940  0.00  0.00     0.042 A 
ATOM     16  H   UNK d   0     -36.394 -19.571  12.471  0.00  0.00     0.166 HD
ATOM     17  C   UNK d   0     -37.026 -16.851  11.587  0.00  0.00     0.062 C 
ATOM     18  C   UNK d   0     -34.623 -16.791  11.908  0.00  0.00    -0.013 A 
ATOM     19  C   UNK d   0     -38.048 -17.288  10.784  0.00  0.00     0.067 A 
ATOM     20  N   UNK d   0     -38.034 -18.577  10.434  0.00  0.00    -0.248 NA
ATOM     21  C   UNK d   0     -39.214 -16.687  10.156  0.00  0.00    -0.011 A 
ATOM     22  C   UNK d   0     -39.104 -18.862   9.622  0.00  0.00     0.066 A 
ATOM     23  C   UNK d   0     -39.233 -20.181   9.213  0.00  0.00     0.062 C 
ATOM     24  C   UNK d   0     -39.825 -17.612   9.474  0.00  0.00    -0.020 A 
ATOM     25  C   UNK d   0     -38.454 -21.282   9.600  0.00  0.00     0.041 A 
ATOM     26  N   UNK d   0     -37.138 -21.410   9.804  0.00  0.00    -0.355 N 
ATOM     27  C   UNK d   0     -39.102 -22.510   9.857  0.00  0.00    -0.022 A 
ATOM     28  C   UNK d   0     -36.924 -22.679  10.187  0.00  0.00     0.042 A 
ATOM     29  H   UNK d   0     -36.362 -20.619   9.654  0.00  0.00     0.166 HD
ATOM     30  C   UNK d   0     -35.741 -23.351  10.532  0.00  0.00     0.062 C 
ATOM     31  C   UNK d   0     -38.141 -23.399  10.229  0.00  0.00    -0.013 A 
ATOM     32  C   UNK d   0     -34.672 -22.875  11.274  0.00  0.00     0.066 A 
BRANCH   8  33
ATOM     33  C   UNK d   0     -31.502 -22.646  13.122  0.00  0.00     0.151 C 
BRANCH  33  34
ATOM     34  C   UNK d   0     -31.408 -23.863  13.949  0.00  0.00     0.143 C 
ATOM     35  O   UNK d   0     -32.158 -24.030  14.922  0.00  0.00    -0.650 OA
BRANCH  34  36
ATOM     36  O   UNK d   0     -30.474 -24.822  13.636  0.00  0.00    -0.776 OA
ATOM     37  H   UNK d   0     -29.812 -25.174  14.341  0.00  0.00     0.167 HD
ENDBRANCH  34  36
ENDBRANCH  33  34
ENDBRANCH   8  33
BRANCH  31  38
ATOM     38  C   UNK d   0     -38.364 -24.843  10.616  0.00  0.00     0.151 C 
BRANCH  38  39
ATOM     39  C   UNK d   0     -37.153 -25.634  10.553  0.00  0.00     0.143 C 
ATOM     40  O   UNK d   0     -36.735 -26.127   9.491  0.00  0.00    -0.650 OA
BRANCH  39  41
ATOM     41  O   UNK d   0     -36.420 -25.860  11.718  0.00  0.00    -0.776 OA
ATOM     42  H   UNK d   0     -35.470 -26.224  11.601  0.00  0.00     0.167 HD
ENDBRANCH  39  41
ENDBRANCH  38  39
ENDBRANCH  31  38
BRANCH  27  43
ATOM     43  C   UNK d   0     -40.566 -22.860   9.761  0.00  0.00     0.052 C 
BRANCH  43  44
ATOM     44  C   UNK d   0     -41.466 -21.674   9.884  0.00  0.00     0.115 C 
BRANCH  44  45
ATOM     45  C   UNK d   0     -42.185 -21.550   8.589  0.00  0.00     0.139 C 
ATOM     46  O   UNK d   0     -41.669 -22.078   7.573  0.00  0.00    -0.650 OA
BRANCH  45  47
ATOM     47  O   UNK d   0     -43.387 -20.889   8.462  0.00  0.00    -0.776 OA
ATOM     48  H   UNK d   0     -44.264 -21.366   8.197  0.00  0.00     0.167 HD
ENDBRANCH  45  47
ENDBRANCH  44  45
ENDBRANCH  43  44
ENDBRANCH  27  43
BRANCH  24  49
ATOM     49  C   UNK d   0     -41.075 -17.447   8.713  0.00  0.00     0.052 C 
BRANCH  49  50
ATOM     50  C   UNK d   0     -40.773 -17.155   7.265  0.00  0.00     0.115 C 
BRANCH  50  51
ATOM     51  C   UNK d   0     -41.149 -15.842   6.759  0.00  0.00     0.139 C 
ATOM     52  O   UNK d   0     -41.479 -14.896   7.513  0.00  0.00    -0.650 OA
BRANCH  51  53
ATOM     53  O   UNK d   0     -41.152 -15.608   5.393  0.00  0.00    -0.776 OA
ATOM     54  H   UNK d   0     -41.223 -14.658   5.073  0.00  0.00     0.167 HD
ENDBRANCH  51  53
ENDBRANCH  50  51
ENDBRANCH  49  50
ENDBRANCH  24  49
BRANCH  21  55
ATOM     55  C   UNK d   0     -39.597 -15.252  10.307  0.00  0.00     0.151 C 
BRANCH  55  56
ATOM     56  C   UNK d   0     -40.891 -15.096  10.989  0.00  0.00     0.143 C 
ATOM     57  O   UNK d   0     -41.154 -15.651  12.074  0.00  0.00    -0.650 OA
BRANCH  56  58
ATOM     58  O   UNK d   0     -41.851 -14.289  10.381  0.00  0.00    -0.776 OA
ATOM     59  H   UNK d   0     -41.607 -13.961   9.429  0.00  0.00     0.167 HD
ENDBRANCH  56  58
ENDBRANCH  55  56
ENDBRANCH  21  55
BRANCH  18  60
ATOM     60  C   UNK d   0     -34.371 -15.353  11.530  0.00  0.00     0.151 C 
BRANCH  60  61
ATOM     61  C   UNK d   0     -33.783 -15.386  10.183  0.00  0.00     0.143 C 
ATOM     62  O   UNK d   0     -34.098 -16.130   9.253  0.00  0.00    -0.650 OA
BRANCH  61  63
ATOM     63  O   UNK d   0     -32.743 -14.452   9.956  0.00  0.00    -0.776 OA
ATOM     64  H   UNK d   0     -31.784 -14.746   9.900  0.00  0.00     0.167 HD
ENDBRANCH  61  63
ENDBRANCH  60  61
ENDBRANCH  18  60
BRANCH  14  65
ATOM     65  C   UNK d   0     -32.225 -17.267  12.496  0.00  0.00     0.052 C 
BRANCH  65  66
ATOM     66  C   UNK d   0     -32.062 -16.206  13.526  0.00  0.00     0.115 C 
BRANCH  66  67
ATOM     67  C   UNK d   0     -31.045 -15.206  13.363  0.00  0.00     0.139 C 
ATOM     68  O   UNK d   0     -31.298 -14.190  12.616  0.00  0.00    -0.650 OA
BRANCH  67  69
ATOM     69  O   UNK d   0     -29.770 -15.186  13.926  0.00  0.00    -0.776 OA
ATOM     70  H   UNK d   0     -29.233 -14.318  13.788  0.00  0.00     0.167 HD
ENDBRANCH  67  69
ENDBRANCH  66  67
ENDBRANCH  65  66
ENDBRANCH  14  65
ENDBRANCH   6   7
ENDBRANCH   5   6
ENDBRANCH   2   5
TORSDOF 28
ENDMDL
MODEL 12
REMARK VINA RESULT:      -9.2      1.454      8.001
REMARK  28 active torsions:
REMARK  status: ('A' for Active; 'I' for Inactive)
REMARK    1  A    between atoms: C_2  and  O_3 
REMARK    2  A    between atoms: C_2  and  C_4 
REMARK    3  A    between atoms: C_4  and  C_5 
REMARK    4  A    between atoms: C_5  and  C_6 
REMARK    5  A    between atoms: C_7  and  C_8 
REMARK    6  A    between atoms: C_8  and  C_9 
REMARK    7  A    between atoms: C_9  and  O_11 
REMARK    8  A    between atoms: C_28  and  C_29 
REMARK    9  A    between atoms: C_29  and  C_30 
REMARK   10  A    between atoms: C_30  and  O_32 
REMARK   11  A    between atoms: C_33  and  C_34 
REMARK   12  A    between atoms: C_34  and  C_35 
REMARK   13  A    between atoms: C_35  and  C_36 
REMARK   14  A    between atoms: C_36  and  O_38 
REMARK   15  A    between atoms: C_39  and  C_40 
REMARK   16  A    between atoms: C_40  and  C_41 
REMARK   17  A    between atoms: C_41  and  C_42 
REMARK   18  A    between atoms: C_42  and  O_44 
REMARK   19  A    between atoms: C_45  and  C_46 
REMARK   20  A    between atoms: C_46  and  C_47 
REMARK   21  A    between atoms: C_47  and  O_49 
REMARK   22  A    between atoms: C_50  and  C_51 
REMARK   23  A    between atoms: C_51  and  C_52 
REMARK   24  A    between atoms: C_52  and  O_54 
REMARK   25  A    between atoms: C_55  and  C_56 
REMARK   26  A    between atoms: C_56  and  C_57 
REMARK   27  A    between atoms: C_57  and  C_58 
REMARK   28  A    between atoms: C_58  and  O_60 
ROOT
ATOM      1  O   UNK d   0      -6.060  -8.910   0.479  0.00  0.00    -0.650 OA
ATOM      2  C   UNK d   0      -7.048  -8.876  -0.289  0.00  0.00     0.139 C 
ENDROOT
BRANCH   2   3
ATOM      3  O   UNK d   0      -6.959  -8.181  -1.470  0.00  0.00    -0.776 OA
ATOM      4  H   UNK d   0      -7.778  -8.046  -2.066  0.00  0.00     0.167 HD
ENDBRANCH   2   3
BRANCH   2   5
ATOM      5  C   UNK d   0      -8.307  -9.584   0.080  0.00  0.00     0.115 C 
BRANCH   5   6
ATOM      6  C   UNK d   0      -9.491  -8.884  -0.530  0.00  0.00     0.052 C 
BRANCH   6   7
ATOM      7  C   UNK d   0     -10.295  -9.785  -1.437  0.00  0.00    -0.020 A 
ATOM      8  C   UNK d   0     -11.533  -9.623  -1.829  0.00  0.00    -0.011 A 
ATOM      9  C   UNK d   0     -11.878 -10.746  -2.685  0.00  0.00     0.067 A 
ATOM     10  C   UNK d   0     -13.004 -11.151  -3.420  0.00  0.00     0.062 C 
ATOM     11  N   UNK d   0     -10.794 -11.547  -2.753  0.00  0.00    -0.248 NA
ATOM     12  C   UNK d   0     -13.058 -12.131  -4.416  0.00  0.00     0.041 A 
ATOM     13  N   UNK d   0     -12.504 -13.357  -4.485  0.00  0.00    -0.355 N 
ATOM     14  C   UNK d   0     -13.744 -11.849  -5.611  0.00  0.00    -0.022 A 
ATOM     15  C   UNK d   0     -12.815 -13.857  -5.696  0.00  0.00     0.042 A 
ATOM     16  H   UNK d   0     -11.922 -13.866  -3.686  0.00  0.00     0.166 HD
ATOM     17  C   UNK d   0     -12.492 -15.096  -6.283  0.00  0.00     0.062 C 
ATOM     18  C   UNK d   0     -13.592 -12.940  -6.431  0.00  0.00    -0.013 A 
ATOM     19  C   UNK d   0     -11.289 -15.755  -6.300  0.00  0.00     0.067 A 
ATOM     20  N   UNK d   0     -10.329 -15.282  -5.500  0.00  0.00    -0.248 NA
ATOM     21  C   UNK d   0     -10.732 -16.895  -7.008  0.00  0.00    -0.011 A 
ATOM     22  C   UNK d   0      -9.185 -16.029  -5.635  0.00  0.00     0.066 A 
ATOM     23  C   UNK d   0      -8.115 -15.669  -4.830  0.00  0.00     0.062 C 
ATOM     24  C   UNK d   0      -9.499 -17.047  -6.619  0.00  0.00    -0.020 A 
ATOM     25  C   UNK d   0      -8.085 -14.689  -3.826  0.00  0.00     0.041 A 
ATOM     26  N   UNK d   0      -8.623 -13.465  -3.763  0.00  0.00    -0.355 N 
ATOM     27  C   UNK d   0      -7.399 -14.975  -2.625  0.00  0.00    -0.022 A 
ATOM     28  C   UNK d   0      -8.307 -12.961  -2.560  0.00  0.00     0.042 A 
ATOM     29  H   UNK d   0      -9.199 -12.951  -4.571  0.00  0.00     0.166 HD
ATOM     30  C   UNK d   0      -8.614 -11.726  -1.967  0.00  0.00     0.062 C 
ATOM     31  C   UNK d   0      -7.535 -13.887  -1.818  0.00  0.00    -0.013 A 
ATOM     32  C   UNK d   0      -9.807 -11.024  -2.024  0.00  0.00     0.066 A 
BRANCH   8  33
ATOM     33  C   UNK d   0     -12.435  -8.512  -1.475  0.00  0.00     0.151 C 
BRANCH  33  34
ATOM     34  C   UNK d   0     -13.693  -8.973  -0.859  0.00  0.00     0.143 C 
ATOM     35  O   UNK d   0     -14.784  -8.504  -1.213  0.00  0.00    -0.650 OA
BRANCH  34  36
ATOM     36  O   UNK d   0     -13.651  -9.935   0.124  0.00  0.00    -0.776 OA
ATOM     37  H   UNK d   0     -13.028  -9.840   0.937  0.00  0.00     0.167 HD
ENDBRANCH  34  36
ENDBRANCH  33  34
ENDBRANCH   8  33
BRANCH  31  38
ATOM     38  C   UNK d   0      -6.978 -13.738  -0.421  0.00  0.00     0.151 C 
BRANCH  38  39
ATOM     39  C   UNK d   0      -5.943 -12.729  -0.334  0.00  0.00     0.143 C 
ATOM     40  O   UNK d   0      -5.141 -12.517  -1.261  0.00  0.00    -0.650 OA
BRANCH  39  41
ATOM     41  O   UNK d   0      -5.830 -11.961   0.824  0.00  0.00    -0.776 OA
ATOM     42  H   UNK d   0      -4.883 -11.688   1.106  0.00  0.00     0.167 HD
ENDBRANCH  39  41
ENDBRANCH  38  39
ENDBRANCH  31  38
BRANCH  27  43
ATOM     43  C   UNK d   0      -6.637 -16.214  -2.227  0.00  0.00     0.052 C 
BRANCH  43  44
ATOM     44  C   UNK d   0      -5.158 -16.005  -2.172  0.00  0.00     0.115 C 
BRANCH  44  45
ATOM     45  C   UNK d   0      -4.783 -15.289  -3.419  0.00  0.00     0.139 C 
ATOM     46  O   UNK d   0      -4.818 -15.927  -4.501  0.00  0.00    -0.650 OA
BRANCH  45  47
ATOM     47  O   UNK d   0      -4.408 -13.963  -3.436  0.00  0.00    -0.776 OA
ATOM     48  H   UNK d   0      -5.085 -13.190  -3.543  0.00  0.00     0.167 HD
ENDBRANCH  45  47
ENDBRANCH  44  45
ENDBRANCH  43  44
ENDBRANCH  27  43
BRANCH  24  49
ATOM     49  C   UNK d   0      -8.575 -18.108  -7.056  0.00  0.00     0.052 C 
BRANCH  49  50
ATOM     50  C   UNK d   0      -7.146 -17.666  -6.872  0.00  0.00     0.115 C 
BRANCH  50  51
ATOM     51  C   UNK d   0      -6.618 -16.705  -7.831  0.00  0.00     0.139 C 
ATOM     52  O   UNK d   0      -6.876 -16.762  -9.057  0.00  0.00    -0.650 OA
BRANCH  51  53
ATOM     53  O   UNK d   0      -5.794 -15.680  -7.393  0.00  0.00    -0.776 OA
ATOM     54  H   UNK d   0      -4.818 -15.878  -7.261  0.00  0.00     0.167 HD
ENDBRANCH  51  53
ENDBRANCH  50  51
ENDBRANCH  49  50
ENDBRANCH  24  49
BRANCH  21  55
ATOM     55  C   UNK d   0     -11.491 -17.715  -7.998  0.00  0.00     0.151 C 
BRANCH  55  56
ATOM     56  C   UNK d   0     -12.684 -18.335  -7.401  0.00  0.00     0.143 C 
ATOM     57  O   UNK d   0     -12.625 -19.331  -6.654  0.00  0.00    -0.650 OA
BRANCH  56  58
ATOM     58  O   UNK d   0     -13.924 -17.770  -7.695  0.00  0.00    -0.776 OA
ATOM     59  H   UNK d   0     -14.725 -18.426  -7.645  0.00  0.00     0.167 HD
ENDBRANCH  56  58
ENDBRANCH  55  56
ENDBRANCH  21  55
BRANCH  18  60
ATOM     60  C   UNK d   0     -14.162 -13.063  -7.822  0.00  0.00     0.151 C 
BRANCH  60  61
ATOM     61  C   UNK d   0     -15.078 -14.213  -7.783  0.00  0.00     0.143 C 
ATOM     62  O   UNK d   0     -15.987 -14.411  -6.976  0.00  0.00    -0.650 OA
BRANCH  61  63
ATOM     63  O   UNK d   0     -14.870 -15.183  -8.792  0.00  0.00    -0.776 OA
ATOM     64  H   UNK d   0     -14.494 -16.089  -8.572  0.00  0.00     0.167 HD
ENDBRANCH  61  63
ENDBRANCH  60  61
ENDBRANCH  18  60
BRANCH  14  65
ATOM     65  C   UNK d   0     -14.607 -10.681  -5.995  0.00  0.00     0.052 C 
BRANCH  65  66
ATOM     66  C   UNK d   0     -15.963 -10.734  -5.386  0.00  0.00     0.115 C 
BRANCH  66  67
ATOM     67  C   UNK d   0     -16.497  -9.572  -4.734  0.00  0.00     0.139 C 
ATOM     68  O   UNK d   0     -17.067  -8.672  -5.453  0.00  0.00    -0.650 OA
BRANCH  67  69
ATOM     69  O   UNK d   0     -16.479  -9.275  -3.372  0.00  0.00    -0.776 OA
ATOM     70  H   UNK d   0     -15.557  -9.319  -2.915  0.00  0.00     0.167 HD
ENDBRANCH  67  69
ENDBRANCH  66  67
ENDBRANCH  65  66
ENDBRANCH  14  65
ENDBRANCH   6   7
ENDBRANCH   5   6
ENDBRANCH   2   5
TORSDOF 28
ENDMDL
MODEL 13
REMARK VINA RESULT:      -9.1     27.747     30.723
REMARK  28 active torsions:
REMARK  status: ('A' for Active; 'I' for Inactive)
REMARK    1  A    between atoms: C_2  and  O_3 
REMARK    2  A    between atoms: C_2  and  C_4 
REMARK    3  A    between atoms: C_4  and  C_5 
REMARK    4  A    between atoms: C_5  and  C_6 
REMARK    5  A    between atoms: C_7  and  C_8 
REMARK    6  A    between atoms: C_8  and  C_9 
REMARK    7  A    between atoms: C_9  and  O_11 
REMARK    8  A    between atoms: C_28  and  C_29 
REMARK    9  A    between atoms: C_29  and  C_30 
REMARK   10  A    between atoms: C_30  and  O_32 
REMARK   11  A    between atoms: C_33  and  C_34 
REMARK   12  A    between atoms: C_34  and  C_35 
REMARK   13  A    between atoms: C_35  and  C_36 
REMARK   14  A    between atoms: C_36  and  O_38 
REMARK   15  A    between atoms: C_39  and  C_40 
REMARK   16  A    between atoms: C_40  and  C_41 
REMARK   17  A    between atoms: C_41  and  C_42 
REMARK   18  A    between atoms: C_42  and  O_44 
REMARK   19  A    between atoms: C_45  and  C_46 
REMARK   20  A    between atoms: C_46  and  C_47 
REMARK   21  A    between atoms: C_47  and  O_49 
REMARK   22  A    between atoms: C_50  and  C_51 
REMARK   23  A    between atoms: C_51  and  C_52 
REMARK   24  A    between atoms: C_52  and  O_54 
REMARK   25  A    between atoms: C_55  and  C_56 
REMARK   26  A    between atoms: C_56  and  C_57 
REMARK   27  A    between atoms: C_57  and  C_58 
REMARK   28  A    between atoms: C_58  and  O_60 
ROOT
ATOM      1  O   UNK d   0     -39.884 -26.239  12.768  0.00  0.00    -0.650 OA
ATOM      2  C   UNK d   0     -39.363 -25.724  11.754  0.00  0.00     0.139 C 
ENDROOT
BRANCH   2   3
ATOM      3  O   UNK d   0     -38.091 -26.093  11.388  0.00  0.00    -0.776 OA
ATOM      4  H   UNK d   0     -37.651 -25.710  10.549  0.00  0.00     0.167 HD
ENDBRANCH   2   3
BRANCH   2   5
ATOM      5  C   UNK d   0     -40.119 -24.720  10.953  0.00  0.00     0.115 C 
BRANCH   5   6
ATOM      6  C   UNK d   0     -39.412 -24.457   9.651  0.00  0.00     0.052 C 
BRANCH   6   7
ATOM      7  C   UNK d   0     -39.068 -22.999   9.461  0.00  0.00    -0.020 A 
ATOM      8  C   UNK d   0     -39.667 -22.132   8.685  0.00  0.00    -0.011 A 
ATOM      9  C   UNK d   0     -38.980 -20.859   8.826  0.00  0.00     0.067 A 
ATOM     10  C   UNK d   0     -39.129 -19.565   8.304  0.00  0.00     0.062 C 
ATOM     11  N   UNK d   0     -37.971 -21.044   9.703  0.00  0.00    -0.248 NA
ATOM     12  C   UNK d   0     -38.534 -18.389   8.773  0.00  0.00     0.041 A 
ATOM     13  N   UNK d   0     -37.279 -18.135   9.191  0.00  0.00    -0.355 N 
ATOM     14  C   UNK d   0     -39.326 -17.235   8.915  0.00  0.00    -0.022 A 
ATOM     15  C   UNK d   0     -37.257 -16.853   9.602  0.00  0.00     0.042 A 
ATOM     16  H   UNK d   0     -36.421 -18.843   9.178  0.00  0.00     0.166 HD
ATOM     17  C   UNK d   0     -36.202 -16.081  10.128  0.00  0.00     0.062 C 
ATOM     18  C   UNK d   0     -38.523 -16.256   9.444  0.00  0.00    -0.013 A 
ATOM     19  C   UNK d   0     -35.276 -16.421  11.081  0.00  0.00     0.067 A 
ATOM     20  N   UNK d   0     -35.216 -17.707  11.434  0.00  0.00    -0.248 NA
ATOM     21  C   UNK d   0     -34.285 -15.713  11.874  0.00  0.00    -0.011 A 
ATOM     22  C   UNK d   0     -34.259 -17.892  12.401  0.00  0.00     0.066 A 
ATOM     23  C   UNK d   0     -34.064 -19.195  12.835  0.00  0.00     0.062 C 
ATOM     24  C   UNK d   0     -33.697 -16.579  12.648  0.00  0.00    -0.020 A 
ATOM     25  C   UNK d   0     -34.663 -20.364  12.342  0.00  0.00     0.041 A 
ATOM     26  N   UNK d   0     -35.914 -20.620  11.941  0.00  0.00    -0.355 N 
ATOM     27  C   UNK d   0     -33.866 -21.521  12.196  0.00  0.00    -0.022 A 
ATOM     28  C   UNK d   0     -35.941 -21.901  11.539  0.00  0.00     0.042 A 
ATOM     29  H   UNK d   0     -36.778 -19.911  11.965  0.00  0.00     0.166 HD
ATOM     30  C   UNK d   0     -36.984 -22.684  11.022  0.00  0.00     0.062 C 
ATOM     31  C   UNK d   0     -34.666 -22.497  11.687  0.00  0.00    -0.013 A 
ATOM     32  C   UNK d   0     -37.970 -22.310  10.123  0.00  0.00     0.066 A 
BRANCH   8  33
ATOM     33  C   UNK d   0     -40.829 -22.381   7.812  0.00  0.00     0.151 C 
BRANCH  33  34
ATOM     34  C   UNK d   0     -41.907 -21.393   8.001  0.00  0.00     0.143 C 
ATOM     35  O   UNK d   0     -42.174 -20.566   7.118  0.00  0.00    -0.650 OA
BRANCH  34  36
ATOM     36  O   UNK d   0     -42.623 -21.392   9.176  0.00  0.00    -0.776 OA
ATOM     37  H   UNK d   0     -42.514 -20.637   9.866  0.00  0.00     0.167 HD
ENDBRANCH  34  36
ENDBRANCH  33  34
ENDBRANCH   8  33
BRANCH  31  38
ATOM     38  C   UNK d   0     -34.245 -23.908  11.350  0.00  0.00     0.151 C 
BRANCH  38  39
ATOM     39  C   UNK d   0     -33.525 -23.995  10.097  0.00  0.00     0.143 C 
ATOM     40  O   UNK d   0     -33.084 -22.990   9.512  0.00  0.00    -0.650 OA
BRANCH  39  41
ATOM     41  O   UNK d   0     -33.308 -25.244   9.515  0.00  0.00    -0.776 OA
ATOM     42  H   UNK d   0     -32.334 -25.547   9.422  0.00  0.00     0.167 HD
ENDBRANCH  39  41
ENDBRANCH  38  39
ENDBRANCH  31  38
BRANCH  27  43
ATOM     43  C   UNK d   0     -32.406 -21.725  12.516  0.00  0.00     0.052 C 
BRANCH  43  44
ATOM     44  C   UNK d   0     -32.177 -22.352  13.853  0.00  0.00     0.115 C 
BRANCH  44  45
ATOM     45  C   UNK d   0     -32.302 -21.265  14.859  0.00  0.00     0.139 C 
ATOM     46  O   UNK d   0     -31.411 -20.380  14.887  0.00  0.00    -0.650 OA
BRANCH  45  47
ATOM     47  O   UNK d   0     -33.351 -21.187  15.749  0.00  0.00    -0.776 OA
ATOM     48  H   UNK d   0     -33.754 -22.017  16.214  0.00  0.00     0.167 HD
ENDBRANCH  45  47
ENDBRANCH  44  45
ENDBRANCH  43  44
ENDBRANCH  27  43
BRANCH  24  49
ATOM     49  C   UNK d   0     -32.600 -16.297  13.590  0.00  0.00     0.052 C 
BRANCH  49  50
ATOM     50  C   UNK d   0     -31.294 -16.161  12.849  0.00  0.00     0.115 C 
BRANCH  50  51
ATOM     51  C   UNK d   0     -30.409 -15.078  13.255  0.00  0.00     0.139 C 
ATOM     52  O   UNK d   0     -30.834 -13.956  13.615  0.00  0.00    -0.650 OA
BRANCH  51  53
ATOM     53  O   UNK d   0     -29.036 -15.275  13.247  0.00  0.00    -0.776 OA
ATOM     54  H   UNK d   0     -28.475 -14.688  12.655  0.00  0.00     0.167 HD
ENDBRANCH  51  53
ENDBRANCH  50  51
ENDBRANCH  49  50
ENDBRANCH  24  49
BRANCH  21  55
ATOM     55  C   UNK d   0     -34.027 -14.246  11.773  0.00  0.00     0.151 C 
BRANCH  55  56
ATOM     56  C   UNK d   0     -32.971 -13.938  10.797  0.00  0.00     0.143 C 
ATOM     57  O   UNK d   0     -32.747 -14.649   9.797  0.00  0.00    -0.650 OA
BRANCH  56  58
ATOM     58  O   UNK d   0     -32.197 -12.800  11.015  0.00  0.00    -0.776 OA
ATOM     59  H   UNK d   0     -32.498 -11.960  10.489  0.00  0.00     0.167 HD
ENDBRANCH  56  58
ENDBRANCH  55  56
ENDBRANCH  21  55
BRANCH  18  60
ATOM     60  C   UNK d   0     -38.970 -14.852   9.769  0.00  0.00     0.151 C 
BRANCH  60  61
ATOM     61  C   UNK d   0     -40.064 -14.992  10.742  0.00  0.00     0.143 C 
ATOM     62  O   UNK d   0     -40.079 -15.707  11.744  0.00  0.00    -0.650 OA
BRANCH  61  63
ATOM     63  O   UNK d   0     -41.211 -14.207  10.475  0.00  0.00    -0.776 OA
ATOM     64  H   UNK d   0     -41.163 -13.204  10.466  0.00  0.00     0.167 HD
ENDBRANCH  61  63
ENDBRANCH  60  61
ENDBRANCH  18  60
BRANCH  14  65
ATOM     65  C   UNK d   0     -40.745 -16.962   8.501  0.00  0.00     0.052 C 
BRANCH  65  66
ATOM     66  C   UNK d   0     -40.864 -16.536   7.081  0.00  0.00     0.115 C 
BRANCH  66  67
ATOM     67  C   UNK d   0     -41.059 -15.148   6.768  0.00  0.00     0.139 C 
ATOM     68  O   UNK d   0     -41.819 -14.448   7.533  0.00  0.00    -0.650 OA
BRANCH  67  69
ATOM     69  O   UNK d   0     -40.515 -14.429   5.705  0.00  0.00    -0.776 OA
ATOM     70  H   UNK d   0     -40.154 -14.992   4.921  0.00  0.00     0.167 HD
ENDBRANCH  67  69
ENDBRANCH  66  67
ENDBRANCH  65  66
ENDBRANCH  14  65
ENDBRANCH   6   7
ENDBRANCH   5   6
ENDBRANCH   2   5
TORSDOF 28
ENDMDL
MODEL 14
REMARK VINA RESULT:      -9.1      2.039     10.627
REMARK  28 active torsions:
REMARK  status: ('A' for Active; 'I' for Inactive)
REMARK    1  A    between atoms: C_2  and  O_3 
REMARK    2  A    between atoms: C_2  and  C_4 
REMARK    3  A    between atoms: C_4  and  C_5 
REMARK    4  A    between atoms: C_5  and  C_6 
REMARK    5  A    between atoms: C_7  and  C_8 
REMARK    6  A    between atoms: C_8  and  C_9 
REMARK    7  A    between atoms: C_9  and  O_11 
REMARK    8  A    between atoms: C_28  and  C_29 
REMARK    9  A    between atoms: C_29  and  C_30 
REMARK   10  A    between atoms: C_30  and  O_32 
REMARK   11  A    between atoms: C_33  and  C_34 
REMARK   12  A    between atoms: C_34  and  C_35 
REMARK   13  A    between atoms: C_35  and  C_36 
REMARK   14  A    between atoms: C_36  and  O_38 
REMARK   15  A    between atoms: C_39  and  C_40 
REMARK   16  A    between atoms: C_40  and  C_41 
REMARK   17  A    between atoms: C_41  and  C_42 
REMARK   18  A    between atoms: C_42  and  O_44 
REMARK   19  A    between atoms: C_45  and  C_46 
REMARK   20  A    between atoms: C_46  and  C_47 
REMARK   21  A    between atoms: C_47  and  O_49 
REMARK   22  A    between atoms: C_50  and  C_51 
REMARK   23  A    between atoms: C_51  and  C_52 
REMARK   24  A    between atoms: C_52  and  O_54 
REMARK   25  A    between atoms: C_55  and  C_56 
REMARK   26  A    between atoms: C_56  and  C_57 
REMARK   27  A    between atoms: C_57  and  C_58 
REMARK   28  A    between atoms: C_58  and  O_60 
ROOT
ATOM      1  O   UNK d   0     -12.784  -8.461  -0.965  0.00  0.00    -0.650 OA
ATOM      2  C   UNK d   0     -11.654  -8.647  -0.462  0.00  0.00     0.139 C 
ENDROOT
BRANCH   2   3
ATOM      3  O   UNK d   0     -11.158  -7.735   0.438  0.00  0.00    -0.776 OA
ATOM      4  H   UNK d   0     -10.298  -7.921   0.958  0.00  0.00     0.167 HD
ENDBRANCH   2   3
BRANCH   2   5
ATOM      5  C   UNK d   0     -10.856  -9.849  -0.839  0.00  0.00     0.115 C 
BRANCH   5   6
ATOM      6  C   UNK d   0      -9.649  -9.438  -1.637  0.00  0.00     0.052 C 
BRANCH   6   7
ATOM      7  C   UNK d   0      -9.069 -10.577  -2.441  0.00  0.00    -0.020 A 
ATOM      8  C   UNK d   0      -7.809 -10.908  -2.563  0.00  0.00    -0.011 A 
ATOM      9  C   UNK d   0      -7.735 -12.063  -3.442  0.00  0.00     0.067 A 
ATOM     10  C   UNK d   0      -6.718 -12.890  -3.944  0.00  0.00     0.062 C 
ATOM     11  N   UNK d   0      -8.997 -12.365  -3.814  0.00  0.00    -0.248 NA
ATOM     12  C   UNK d   0      -6.868 -14.136  -4.564  0.00  0.00     0.041 A 
ATOM     13  N   UNK d   0      -7.750 -14.567  -5.485  0.00  0.00    -0.355 N 
ATOM     14  C   UNK d   0      -6.025 -15.194  -4.176  0.00  0.00    -0.022 A 
ATOM     15  C   UNK d   0      -7.494 -15.874  -5.687  0.00  0.00     0.042 A 
ATOM     16  H   UNK d   0      -8.525 -13.956  -5.997  0.00  0.00     0.166 HD
ATOM     17  C   UNK d   0      -8.115 -16.805  -6.543  0.00  0.00     0.062 C 
ATOM     18  C   UNK d   0      -6.419 -16.303  -4.883  0.00  0.00    -0.013 A 
ATOM     19  C   UNK d   0      -9.452 -17.014  -6.765  0.00  0.00     0.067 A 
ATOM     20  N   UNK d   0     -10.296 -16.105  -6.271  0.00  0.00    -0.248 NA
ATOM     21  C   UNK d   0     -10.255 -18.030  -7.424  0.00  0.00    -0.011 A 
ATOM     22  C   UNK d   0     -11.593 -16.454  -6.557  0.00  0.00     0.066 A 
ATOM     23  C   UNK d   0     -12.577 -15.573  -6.132  0.00  0.00     0.062 C 
ATOM     24  C   UNK d   0     -11.507 -17.699  -7.295  0.00  0.00    -0.020 A 
ATOM     25  C   UNK d   0     -12.405 -14.321  -5.523  0.00  0.00     0.041 A 
ATOM     26  N   UNK d   0     -11.538 -13.896  -4.596  0.00  0.00    -0.355 N 
ATOM     27  C   UNK d   0     -13.248 -13.258  -5.915  0.00  0.00    -0.022 A 
ATOM     28  C   UNK d   0     -11.797 -12.595  -4.387  0.00  0.00     0.042 A 
ATOM     29  H   UNK d   0     -10.767 -14.514  -4.075  0.00  0.00     0.166 HD
ATOM     30  C   UNK d   0     -11.194 -11.660  -3.532  0.00  0.00     0.062 C 
ATOM     31  C   UNK d   0     -12.870 -12.162  -5.202  0.00  0.00    -0.013 A 
ATOM     32  C   UNK d   0      -9.846 -11.508  -3.245  0.00  0.00     0.066 A 
BRANCH   8  33
ATOM     33  C   UNK d   0      -6.654 -10.241  -1.934  0.00  0.00     0.151 C 
BRANCH  33  34
ATOM     34  C   UNK d   0      -6.633 -10.396  -0.469  0.00  0.00     0.143 C 
ATOM     35  O   UNK d   0      -6.611  -9.405   0.276  0.00  0.00    -0.650 OA
BRANCH  34  36
ATOM     36  O   UNK d   0      -6.637 -11.658   0.077  0.00  0.00    -0.776 OA
ATOM     37  H   UNK d   0      -6.523 -12.495  -0.511  0.00  0.00     0.167 HD
ENDBRANCH  34  36
ENDBRANCH  33  34
ENDBRANCH   8  33
BRANCH  31  38
ATOM     38  C   UNK d   0     -13.480 -10.783  -5.296  0.00  0.00     0.151 C 
BRANCH  38  39
ATOM     39  C   UNK d   0     -14.580 -10.591  -4.375  0.00  0.00     0.143 C 
ATOM     40  O   UNK d   0     -14.427 -10.069  -3.256  0.00  0.00    -0.650 OA
BRANCH  39  41
ATOM     41  O   UNK d   0     -15.861 -11.001  -4.741  0.00  0.00    -0.776 OA
ATOM     42  H   UNK d   0     -16.479 -10.285  -5.137  0.00  0.00     0.167 HD
ENDBRANCH  39  41
ENDBRANCH  38  39
ENDBRANCH  31  38
BRANCH  27  43
ATOM     43  C   UNK d   0     -14.375 -13.249  -6.918  0.00  0.00     0.052 C 
BRANCH  43  44
ATOM     44  C   UNK d   0     -15.158 -14.521  -6.939  0.00  0.00     0.115 C 
BRANCH  44  45
ATOM     45  C   UNK d   0     -15.281 -14.921  -8.365  0.00  0.00     0.139 C 
ATOM     46  O   UNK d   0     -16.381 -15.382  -8.758  0.00  0.00    -0.650 OA
BRANCH  45  47
ATOM     47  O   UNK d   0     -14.245 -14.802  -9.266  0.00  0.00    -0.776 OA
ATOM     48  H   UNK d   0     -13.451 -14.157  -9.125  0.00  0.00     0.167 HD
ENDBRANCH  45  47
ENDBRANCH  44  45
ENDBRANCH  43  44
ENDBRANCH  27  43
BRANCH  24  49
ATOM     49  C   UNK d   0     -12.660 -18.431  -7.847  0.00  0.00     0.052 C 
BRANCH  49  50
ATOM     50  C   UNK d   0     -13.228 -19.371  -6.815  0.00  0.00     0.115 C 
BRANCH  50  51
ATOM     51  C   UNK d   0     -14.571 -19.091  -6.327  0.00  0.00     0.139 C 
ATOM     52  O   UNK d   0     -14.855 -18.051  -5.687  0.00  0.00    -0.650 OA
BRANCH  51  53
ATOM     53  O   UNK d   0     -15.592 -19.999  -6.567  0.00  0.00    -0.776 OA
ATOM     54  H   UNK d   0     -15.355 -20.880  -6.988  0.00  0.00     0.167 HD
ENDBRANCH  51  53
ENDBRANCH  50  51
ENDBRANCH  49  50
ENDBRANCH  24  49
BRANCH  21  55
ATOM     55  C   UNK d   0      -9.687 -19.224  -8.117  0.00  0.00     0.151 C 
BRANCH  55  56
ATOM     56  C   UNK d   0     -10.446 -19.571  -9.329  0.00  0.00     0.143 C 
ATOM     57  O   UNK d   0     -11.082 -20.638  -9.444  0.00  0.00    -0.650 OA
BRANCH  56  58
ATOM     58  O   UNK d   0     -10.443 -18.658 -10.381  0.00  0.00    -0.776 OA
ATOM     59  H   UNK d   0      -9.686 -18.794 -11.075  0.00  0.00     0.167 HD
ENDBRANCH  56  58
ENDBRANCH  55  56
ENDBRANCH  21  55
BRANCH  18  60
ATOM     60  C   UNK d   0      -5.789 -17.669  -4.771  0.00  0.00     0.151 C 
BRANCH  60  61
ATOM     61  C   UNK d   0      -6.709 -18.471  -3.951  0.00  0.00     0.143 C 
ATOM     62  O   UNK d   0      -6.720 -19.697  -3.833  0.00  0.00    -0.650 OA
BRANCH  61  63
ATOM     63  O   UNK d   0      -7.675 -17.731  -3.229  0.00  0.00    -0.776 OA
ATOM     64  H   UNK d   0      -8.655 -17.820  -3.432  0.00  0.00     0.167 HD
ENDBRANCH  61  63
ENDBRANCH  60  61
ENDBRANCH  18  60
BRANCH  14  65
ATOM     65  C   UNK d   0      -4.826 -15.212  -3.272  0.00  0.00     0.052 C 
BRANCH  65  66
ATOM     66  C   UNK d   0      -5.154 -15.616  -1.878  0.00  0.00     0.115 C 
BRANCH  66  67
ATOM     67  C   UNK d   0      -5.360 -14.610  -0.875  0.00  0.00     0.139 C 
ATOM     68  O   UNK d   0      -4.769 -13.476  -1.013  0.00  0.00    -0.650 OA
BRANCH  67  69
ATOM     69  O   UNK d   0      -6.145 -14.698   0.274  0.00  0.00    -0.776 OA
ATOM     70  H   UNK d   0      -5.697 -15.140   1.089  0.00  0.00     0.167 HD
ENDBRANCH  67  69
ENDBRANCH  66  67
ENDBRANCH  65  66
ENDBRANCH  14  65
ENDBRANCH   6   7
ENDBRANCH   5   6
ENDBRANCH   2   5
TORSDOF 28
ENDMDL
MODEL 15
REMARK VINA RESULT:      -9.1     27.829     31.677
REMARK  28 active torsions:
REMARK  status: ('A' for Active; 'I' for Inactive)
REMARK    1  A    between atoms: C_2  and  O_3 
REMARK    2  A    between atoms: C_2  and  C_4 
REMARK    3  A    between atoms: C_4  and  C_5 
REMARK    4  A    between atoms: C_5  and  C_6 
REMARK    5  A    between atoms: C_7  and  C_8 
REMARK    6  A    between atoms: C_8  and  C_9 
REMARK    7  A    between atoms: C_9  and  O_11 
REMARK    8  A    between atoms: C_28  and  C_29 
REMARK    9  A    between atoms: C_29  and  C_30 
REMARK   10  A    between atoms: C_30  and  O_32 
REMARK   11  A    between atoms: C_33  and  C_34 
REMARK   12  A    between atoms: C_34  and  C_35 
REMARK   13  A    between atoms: C_35  and  C_36 
REMARK   14  A    between atoms: C_36  and  O_38 
REMARK   15  A    between atoms: C_39  and  C_40 
REMARK   16  A    between atoms: C_40  and  C_41 
REMARK   17  A    between atoms: C_41  and  C_42 
REMARK   18  A    between atoms: C_42  and  O_44 
REMARK   19  A    between atoms: C_45  and  C_46 
REMARK   20  A    between atoms: C_46  and  C_47 
REMARK   21  A    between atoms: C_47  and  O_49 
REMARK   22  A    between atoms: C_50  and  C_51 
REMARK   23  A    between atoms: C_51  and  C_52 
REMARK   24  A    between atoms: C_52  and  O_54 
REMARK   25  A    between atoms: C_55  and  C_56 
REMARK   26  A    between atoms: C_56  and  C_57 
REMARK   27  A    between atoms: C_57  and  C_58 
REMARK   28  A    between atoms: C_58  and  O_60 
ROOT
ATOM      1  O   UNK d   0     -30.963 -13.881  13.411  0.00  0.00    -0.650 OA
ATOM      2  C   UNK d   0     -31.369 -15.047  13.215  0.00  0.00     0.139 C 
ENDROOT
BRANCH   2   3
ATOM      3  O   UNK d   0     -31.334 -15.955  14.247  0.00  0.00    -0.776 OA
ATOM      4  H   UNK d   0     -32.135 -16.078  14.869  0.00  0.00     0.167 HD
ENDBRANCH   2   3
BRANCH   2   5
ATOM      5  C   UNK d   0     -31.886 -15.445  11.875  0.00  0.00     0.115 C 
BRANCH   5   6
ATOM      6  C   UNK d   0     -33.105 -14.634  11.529  0.00  0.00     0.052 C 
BRANCH   6   7
ATOM      7  C   UNK d   0     -34.331 -15.490  11.318  0.00  0.00    -0.020 A 
ATOM      8  C   UNK d   0     -35.545 -15.090  11.039  0.00  0.00    -0.011 A 
ATOM      9  C   UNK d   0     -36.390 -16.268  10.936  0.00  0.00     0.067 A 
ATOM     10  C   UNK d   0     -37.739 -16.525  10.648  0.00  0.00     0.062 C 
ATOM     11  N   UNK d   0     -35.608 -17.343  11.172  0.00  0.00    -0.248 NA
ATOM     12  C   UNK d   0     -38.316 -17.757  10.319  0.00  0.00     0.041 A 
ATOM     13  N   UNK d   0     -38.134 -18.987  10.835  0.00  0.00    -0.355 N 
ATOM     14  C   UNK d   0     -39.212 -17.821   9.236  0.00  0.00    -0.022 A 
ATOM     15  C   UNK d   0     -38.886 -19.831  10.104  0.00  0.00     0.042 A 
ATOM     16  H   UNK d   0     -37.503 -19.251  11.712  0.00  0.00     0.166 HD
ATOM     17  C   UNK d   0     -39.066 -21.224  10.215  0.00  0.00     0.062 C 
ATOM     18  C   UNK d   0     -39.576 -19.136   9.091  0.00  0.00    -0.013 A 
ATOM     19  C   UNK d   0     -38.124 -22.202  10.408  0.00  0.00     0.067 A 
ATOM     20  N   UNK d   0     -36.893 -21.801  10.734  0.00  0.00    -0.248 NA
ATOM     21  C   UNK d   0     -38.096 -23.654  10.338  0.00  0.00    -0.011 A 
ATOM     22  C   UNK d   0     -36.061 -22.884  10.880  0.00  0.00     0.066 A 
ATOM     23  C   UNK d   0     -34.754 -22.611  11.256  0.00  0.00     0.062 C 
ATOM     24  C   UNK d   0     -36.885 -24.046  10.610  0.00  0.00    -0.020 A 
ATOM     25  C   UNK d   0     -34.198 -21.368  11.595  0.00  0.00     0.041 A 
ATOM     26  N   UNK d   0     -34.367 -20.147  11.072  0.00  0.00    -0.355 N 
ATOM     27  C   UNK d   0     -33.302 -21.304  12.684  0.00  0.00    -0.022 A 
ATOM     28  C   UNK d   0     -33.611 -19.305  11.794  0.00  0.00     0.042 A 
ATOM     29  H   UNK d   0     -34.994 -19.886  10.184  0.00  0.00     0.166 HD
ATOM     30  C   UNK d   0     -33.416 -17.919  11.689  0.00  0.00     0.062 C 
ATOM     31  C   UNK d   0     -32.926 -20.002  12.818  0.00  0.00    -0.013 A 
ATOM     32  C   UNK d   0     -34.358 -16.942  11.409  0.00  0.00     0.066 A 
BRANCH   8  33
ATOM     33  C   UNK d   0     -36.000 -13.698  10.862  0.00  0.00     0.151 C 
BRANCH  33  34
ATOM     34  C   UNK d   0     -35.233 -12.739  11.677  0.00  0.00     0.143 C 
ATOM     35  O   UNK d   0     -35.091 -12.910  12.896  0.00  0.00    -0.650 OA
BRANCH  34  36
ATOM     36  O   UNK d   0     -34.668 -11.639  11.073  0.00  0.00    -0.776 OA
ATOM     37  H   UNK d   0     -34.403 -11.653  10.079  0.00  0.00     0.167 HD
ENDBRANCH  34  36
ENDBRANCH  33  34
ENDBRANCH   8  33
BRANCH  31  38
ATOM     38  C   UNK d   0     -31.985 -19.449  13.862  0.00  0.00     0.151 C 
BRANCH  38  39
ATOM     39  C   UNK d   0     -32.660 -19.077  15.087  0.00  0.00     0.143 C 
ATOM     40  O   UNK d   0     -33.362 -18.054  15.175  0.00  0.00    -0.650 OA
BRANCH  39  41
ATOM     41  O   UNK d   0     -32.529 -19.885  16.215  0.00  0.00    -0.776 OA
ATOM     42  H   UNK d   0     -31.578 -20.039  16.565  0.00  0.00     0.167 HD
ENDBRANCH  39  41
ENDBRANCH  38  39
ENDBRANCH  31  38
BRANCH  27  43
ATOM     43  C   UNK d   0     -32.801 -22.409  13.580  0.00  0.00     0.052 C 
BRANCH  43  44
ATOM     44  C   UNK d   0     -31.381 -22.788  13.312  0.00  0.00     0.115 C 
BRANCH  44  45
ATOM     45  C   UNK d   0     -31.397 -24.206  12.867  0.00  0.00     0.139 C 
ATOM     46  O   UNK d   0     -31.776 -24.455  11.695  0.00  0.00    -0.650 OA
BRANCH  45  47
ATOM     47  O   UNK d   0     -31.010 -25.249  13.680  0.00  0.00    -0.776 OA
ATOM     48  H   UNK d   0     -30.535 -26.093  13.322  0.00  0.00     0.167 HD
ENDBRANCH  45  47
ENDBRANCH  44  45
ENDBRANCH  43  44
ENDBRANCH  27  43
BRANCH  24  49
ATOM     49  C   UNK d   0     -36.420 -25.442  10.688  0.00  0.00     0.052 C 
BRANCH  49  50
ATOM     50  C   UNK d   0     -35.033 -25.566  10.113  0.00  0.00     0.115 C 
BRANCH  50  51
ATOM     51  C   UNK d   0     -34.728 -26.780   9.367  0.00  0.00     0.139 C 
ATOM     52  O   UNK d   0     -33.578 -27.043   8.945  0.00  0.00    -0.650 OA
BRANCH  51  53
ATOM     53  O   UNK d   0     -35.737 -27.693   9.102  0.00  0.00    -0.776 OA
ATOM     54  H   UNK d   0     -35.590 -28.364   8.367  0.00  0.00     0.167 HD
ENDBRANCH  51  53
ENDBRANCH  50  51
ENDBRANCH  49  50
ENDBRANCH  24  49
BRANCH  21  55
ATOM     55  C   UNK d   0     -39.283 -24.497  10.010  0.00  0.00     0.151 C 
BRANCH  55  56
ATOM     56  C   UNK d   0     -40.102 -24.783  11.198  0.00  0.00     0.143 C 
ATOM     57  O   UNK d   0     -39.879 -25.749  11.954  0.00  0.00    -0.650 OA
BRANCH  56  58
ATOM     58  O   UNK d   0     -41.167 -23.927  11.473  0.00  0.00    -0.776 OA
ATOM     59  H   UNK d   0     -41.760 -23.692  10.657  0.00  0.00     0.167 HD
ENDBRANCH  56  58
ENDBRANCH  55  56
ENDBRANCH  21  55
BRANCH  18  60
ATOM     60  C   UNK d   0     -40.523 -19.661   8.040  0.00  0.00     0.151 C 
BRANCH  60  61
ATOM     61  C   UNK d   0     -41.723 -20.106   8.763  0.00  0.00     0.143 C 
ATOM     62  O   UNK d   0     -42.181 -19.633   9.804  0.00  0.00    -0.650 OA
BRANCH  61  63
ATOM     63  O   UNK d   0     -42.408 -21.199   8.179  0.00  0.00    -0.776 OA
ATOM     64  H   UNK d   0     -43.290 -21.512   8.543  0.00  0.00     0.167 HD
ENDBRANCH  61  63
ENDBRANCH  60  61
ENDBRANCH  18  60
BRANCH  14  65
ATOM     65  C   UNK d   0     -39.820 -16.731   8.400  0.00  0.00     0.052 C 
BRANCH  65  66
ATOM     66  C   UNK d   0     -40.179 -15.523   9.191  0.00  0.00     0.115 C 
BRANCH  66  67
ATOM     67  C   UNK d   0     -41.486 -15.420   9.778  0.00  0.00     0.139 C 
ATOM     68  O   UNK d   0     -42.101 -16.502  10.100  0.00  0.00    -0.650 OA
BRANCH  67  69
ATOM     69  O   UNK d   0     -42.207 -14.259  10.056  0.00  0.00    -0.776 OA
ATOM     70  H   UNK d   0     -41.866 -13.700  10.851  0.00  0.00     0.167 HD
ENDBRANCH  67  69
ENDBRANCH  66  67
ENDBRANCH  65  66
ENDBRANCH  14  65
ENDBRANCH   6   7
ENDBRANCH   5   6
ENDBRANCH   2   5
TORSDOF 28
ENDMDL
MODEL 16
REMARK VINA RESULT:      -8.9      2.187      8.660
REMARK  28 active torsions:
REMARK  status: ('A' for Active; 'I' for Inactive)
REMARK    1  A    between atoms: C_2  and  O_3 
REMARK    2  A    between atoms: C_2  and  C_4 
REMARK    3  A    between atoms: C_4  and  C_5 
REMARK    4  A    between atoms: C_5  and  C_6 
REMARK    5  A    between atoms: C_7  and  C_8 
REMARK    6  A    between atoms: C_8  and  C_9 
REMARK    7  A    between atoms: C_9  and  O_11 
REMARK    8  A    between atoms: C_28  and  C_29 
REMARK    9  A    between atoms: C_29  and  C_30 
REMARK   10  A    between atoms: C_30  and  O_32 
REMARK   11  A    between atoms: C_33  and  C_34 
REMARK   12  A    between atoms: C_34  and  C_35 
REMARK   13  A    between atoms: C_35  and  C_36 
REMARK   14  A    between atoms: C_36  and  O_38 
REMARK   15  A    between atoms: C_39  and  C_40 
REMARK   16  A    between atoms: C_40  and  C_41 
REMARK   17  A    between atoms: C_41  and  C_42 
REMARK   18  A    between atoms: C_42  and  O_44 
REMARK   19  A    between atoms: C_45  and  C_46 
REMARK   20  A    between atoms: C_46  and  C_47 
REMARK   21  A    between atoms: C_47  and  O_49 
REMARK   22  A    between atoms: C_50  and  C_51 
REMARK   23  A    between atoms: C_51  and  C_52 
REMARK   24  A    between atoms: C_52  and  O_54 
REMARK   25  A    between atoms: C_55  and  C_56 
REMARK   26  A    between atoms: C_56  and  C_57 
REMARK   27  A    between atoms: C_57  and  C_58 
REMARK   28  A    between atoms: C_58  and  O_60 
ROOT
ATOM      1  O   UNK d   0      -7.522  -8.649   1.017  0.00  0.00    -0.650 OA
ATOM      2  C   UNK d   0      -6.753  -9.297   0.272  0.00  0.00     0.139 C 
ENDROOT
BRANCH   2   3
ATOM      3  O   UNK d   0      -5.421  -8.963   0.225  0.00  0.00    -0.776 OA
ATOM      4  H   UNK d   0      -4.738  -9.434   0.822  0.00  0.00     0.167 HD
ENDBRANCH   2   3
BRANCH   2   5
ATOM      5  C   UNK d   0      -7.282 -10.419  -0.554  0.00  0.00     0.115 C 
BRANCH   5   6
ATOM      6  C   UNK d   0      -7.635  -9.925  -1.931  0.00  0.00     0.052 C 
BRANCH   6   7
ATOM      7  C   UNK d   0      -8.727 -10.742  -2.579  0.00  0.00    -0.020 A 
ATOM      8  C   UNK d   0     -10.001 -10.452  -2.658  0.00  0.00    -0.011 A 
ATOM      9  C   UNK d   0     -10.662 -11.539  -3.362  0.00  0.00     0.067 A 
ATOM     10  C   UNK d   0     -11.970 -11.826  -3.780  0.00  0.00     0.062 C 
ATOM     11  N   UNK d   0      -9.716 -12.451  -3.669  0.00  0.00    -0.248 NA
ATOM     12  C   UNK d   0     -12.371 -12.803  -4.698  0.00  0.00     0.041 A 
ATOM     13  N   UNK d   0     -11.979 -14.082  -4.860  0.00  0.00    -0.355 N 
ATOM     14  C   UNK d   0     -13.302 -12.460  -5.695  0.00  0.00    -0.022 A 
ATOM     15  C   UNK d   0     -12.632 -14.555  -5.938  0.00  0.00     0.042 A 
ATOM     16  H   UNK d   0     -11.270 -14.644  -4.213  0.00  0.00     0.166 HD
ATOM     17  C   UNK d   0     -12.593 -15.827  -6.543  0.00  0.00     0.062 C 
ATOM     18  C   UNK d   0     -13.471 -13.567  -6.488  0.00  0.00    -0.013 A 
ATOM     19  C   UNK d   0     -11.506 -16.611  -6.835  0.00  0.00     0.067 A 
ATOM     20  N   UNK d   0     -10.334 -16.237  -6.315  0.00  0.00    -0.248 NA
ATOM     21  C   UNK d   0     -11.263 -17.809  -7.620  0.00  0.00    -0.011 A 
ATOM     22  C   UNK d   0      -9.342 -17.103  -6.704  0.00  0.00     0.066 A 
ATOM     23  C   UNK d   0      -8.073 -16.853  -6.202  0.00  0.00     0.062 C 
ATOM     24  C   UNK d   0      -9.994 -18.090  -7.543  0.00  0.00    -0.020 A 
ATOM     25  C   UNK d   0      -7.694 -15.874  -5.270  0.00  0.00     0.041 A 
ATOM     26  N   UNK d   0      -8.072 -14.599  -5.119  0.00  0.00    -0.355 N 
ATOM     27  C   UNK d   0      -6.763 -16.221  -4.268  0.00  0.00    -0.022 A 
ATOM     28  C   UNK d   0      -7.416 -14.121  -4.050  0.00  0.00     0.042 A 
ATOM     29  H   UNK d   0      -8.777 -14.032  -5.776  0.00  0.00     0.166 HD
ATOM     30  C   UNK d   0      -7.438 -12.856  -3.442  0.00  0.00     0.062 C 
ATOM     31  C   UNK d   0      -6.581 -15.118  -3.491  0.00  0.00    -0.013 A 
ATOM     32  C   UNK d   0      -8.530 -12.031  -3.226  0.00  0.00     0.066 A 
BRANCH   8  33
ATOM     33  C   UNK d   0     -10.669  -9.248  -2.130  0.00  0.00     0.151 C 
BRANCH  33  34
ATOM     34  C   UNK d   0     -11.051  -9.383  -0.713  0.00  0.00     0.143 C 
ATOM     35  O   UNK d   0     -11.998 -10.108  -0.375  0.00  0.00    -0.650 OA
BRANCH  34  36
ATOM     36  O   UNK d   0     -10.347  -8.692   0.246  0.00  0.00    -0.776 OA
ATOM     37  H   UNK d   0     -10.742  -8.522   1.180  0.00  0.00     0.167 HD
ENDBRANCH  34  36
ENDBRANCH  33  34
ENDBRANCH   8  33
BRANCH  31  38
ATOM     38  C   UNK d   0      -5.681 -15.018  -2.282  0.00  0.00     0.151 C 
BRANCH  38  39
ATOM     39  C   UNK d   0      -6.413 -15.034  -1.033  0.00  0.00     0.143 C 
ATOM     40  O   UNK d   0      -5.983 -14.485  -0.003  0.00  0.00    -0.650 OA
BRANCH  39  41
ATOM     41  O   UNK d   0      -7.646 -15.682  -0.969  0.00  0.00    -0.776 OA
ATOM     42  H   UNK d   0      -8.269 -15.414  -0.200  0.00  0.00     0.167 HD
ENDBRANCH  39  41
ENDBRANCH  38  39
ENDBRANCH  31  38
BRANCH  27  43
ATOM     43  C   UNK d   0      -6.055 -17.531  -4.030  0.00  0.00     0.052 C 
BRANCH  43  44
ATOM     44  C   UNK d   0      -6.944 -18.721  -4.190  0.00  0.00     0.115 C 
BRANCH  44  45
ATOM     45  C   UNK d   0      -6.322 -19.824  -3.413  0.00  0.00     0.139 C 
ATOM     46  O   UNK d   0      -7.052 -20.780  -3.053  0.00  0.00    -0.650 OA
BRANCH  45  47
ATOM     47  O   UNK d   0      -4.984 -19.842  -3.080  0.00  0.00    -0.776 OA
ATOM     48  H   UNK d   0      -4.372 -20.652  -3.265  0.00  0.00     0.167 HD
ENDBRANCH  45  47
ENDBRANCH  44  45
ENDBRANCH  43  44
ENDBRANCH  27  43
BRANCH  24  49
ATOM     49  C   UNK d   0      -9.321 -19.246  -8.158  0.00  0.00     0.052 C 
BRANCH  49  50
ATOM     50  C   UNK d   0      -9.729 -20.521  -7.465  0.00  0.00     0.115 C 
BRANCH  50  51
ATOM     51  C   UNK d   0     -10.141 -21.634  -8.309  0.00  0.00     0.139 C 
ATOM     52  O   UNK d   0      -9.395 -22.613  -8.549  0.00  0.00    -0.650 OA
BRANCH  51  53
ATOM     53  O   UNK d   0     -11.403 -21.630  -8.882  0.00  0.00    -0.776 OA
ATOM     54  H   UNK d   0     -11.843 -20.744  -9.059  0.00  0.00     0.167 HD
ENDBRANCH  51  53
ENDBRANCH  50  51
ENDBRANCH  49  50
ENDBRANCH  24  49
BRANCH  21  55
ATOM     55  C   UNK d   0     -12.324 -18.551  -8.362  0.00  0.00     0.151 C 
BRANCH  55  56
ATOM     56  C   UNK d   0     -13.318 -19.146  -7.455  0.00  0.00     0.143 C 
ATOM     57  O   UNK d   0     -13.033 -20.041  -6.635  0.00  0.00    -0.650 OA
BRANCH  56  58
ATOM     58  O   UNK d   0     -14.628 -18.676  -7.529  0.00  0.00    -0.776 OA
ATOM     59  H   UNK d   0     -14.726 -17.646  -7.474  0.00  0.00     0.167 HD
ENDBRANCH  56  58
ENDBRANCH  55  56
ENDBRANCH  21  55
BRANCH  18  60
ATOM     60  C   UNK d   0     -14.381 -13.639  -7.689  0.00  0.00     0.151 C 
BRANCH  60  61
ATOM     61  C   UNK d   0     -15.244 -14.811  -7.472  0.00  0.00     0.143 C 
ATOM     62  O   UNK d   0     -16.052 -14.978  -6.559  0.00  0.00    -0.650 OA
BRANCH  61  63
ATOM     63  O   UNK d   0     -15.111 -15.843  -8.432  0.00  0.00    -0.776 OA
ATOM     64  H   UNK d   0     -15.649 -16.688  -8.362  0.00  0.00     0.167 HD
ENDBRANCH  61  63
ENDBRANCH  60  61
ENDBRANCH  18  60
BRANCH  14  65
ATOM     65  C   UNK d   0     -14.110 -11.209  -5.893  0.00  0.00     0.052 C 
BRANCH  65  66
ATOM     66  C   UNK d   0     -15.217 -11.069  -4.909  0.00  0.00     0.115 C 
BRANCH  66  67
ATOM     67  C   UNK d   0     -15.055 -10.206  -3.773  0.00  0.00     0.139 C 
ATOM     68  O   UNK d   0     -14.773  -8.968  -3.978  0.00  0.00    -0.650 OA
BRANCH  67  69
ATOM     69  O   UNK d   0     -15.165 -10.541  -2.424  0.00  0.00    -0.776 OA
ATOM     70  H   UNK d   0     -16.119 -10.528  -2.035  0.00  0.00     0.167 HD
ENDBRANCH  67  69
ENDBRANCH  66  67
ENDBRANCH  65  66
ENDBRANCH  14  65
ENDBRANCH   6   7
ENDBRANCH   5   6
ENDBRANCH   2   5
TORSDOF 28
ENDMDL
MODEL 17
REMARK VINA RESULT:      -8.7     28.049     31.805
REMARK  28 active torsions:
REMARK  status: ('A' for Active; 'I' for Inactive)
REMARK    1  A    between atoms: C_2  and  O_3 
REMARK    2  A    between atoms: C_2  and  C_4 
REMARK    3  A    between atoms: C_4  and  C_5 
REMARK    4  A    between atoms: C_5  and  C_6 
REMARK    5  A    between atoms: C_7  and  C_8 
REMARK    6  A    between atoms: C_8  and  C_9 
REMARK    7  A    between atoms: C_9  and  O_11 
REMARK    8  A    between atoms: C_28  and  C_29 
REMARK    9  A    between atoms: C_29  and  C_30 
REMARK   10  A    between atoms: C_30  and  O_32 
REMARK   11  A    between atoms: C_33  and  C_34 
REMARK   12  A    between atoms: C_34  and  C_35 
REMARK   13  A    between atoms: C_35  and  C_36 
REMARK   14  A    between atoms: C_36  and  O_38 
REMARK   15  A    between atoms: C_39  and  C_40 
REMARK   16  A    between atoms: C_40  and  C_41 
REMARK   17  A    between atoms: C_41  and  C_42 
REMARK   18  A    between atoms: C_42  and  O_44 
REMARK   19  A    between atoms: C_45  and  C_46 
REMARK   20  A    between atoms: C_46  and  C_47 
REMARK   21  A    between atoms: C_47  and  O_49 
REMARK   22  A    between atoms: C_50  and  C_51 
REMARK   23  A    between atoms: C_51  and  C_52 
REMARK   24  A    between atoms: C_52  and  O_54 
REMARK   25  A    between atoms: C_55  and  C_56 
REMARK   26  A    between atoms: C_56  and  C_57 
REMARK   27  A    between atoms: C_57  and  C_58 
REMARK   28  A    between atoms: C_58  and  O_60 
ROOT
ATOM      1  O   UNK d   0     -31.114 -25.501   8.367  0.00  0.00    -0.650 OA
ATOM      2  C   UNK d   0     -31.984 -26.392   8.484  0.00  0.00     0.139 C 
ENDROOT
BRANCH   2   3
ATOM      3  O   UNK d   0     -32.014 -27.427   7.581  0.00  0.00    -0.776 OA
ATOM      4  H   UNK d   0     -31.627 -28.343   7.815  0.00  0.00     0.167 HD
ENDBRANCH   2   3
BRANCH   2   5
ATOM      5  C   UNK d   0     -32.976 -26.328   9.595  0.00  0.00     0.115 C 
BRANCH   5   6
ATOM      6  C   UNK d   0     -32.289 -25.961  10.882  0.00  0.00     0.052 C 
BRANCH   6   7
ATOM      7  C   UNK d   0     -32.715 -24.609  11.404  0.00  0.00    -0.020 A 
ATOM      8  C   UNK d   0     -32.039 -23.806  12.185  0.00  0.00    -0.011 A 
ATOM      9  C   UNK d   0     -32.856 -22.628  12.425  0.00  0.00     0.067 A 
ATOM     10  C   UNK d   0     -32.715 -21.425  13.134  0.00  0.00     0.062 C 
ATOM     11  N   UNK d   0     -34.016 -22.801  11.756  0.00  0.00    -0.248 NA
ATOM     12  C   UNK d   0     -33.507 -20.277  13.022  0.00  0.00     0.041 A 
ATOM     13  N   UNK d   0     -34.842 -20.127  12.925  0.00  0.00    -0.355 N 
ATOM     14  C   UNK d   0     -32.878 -19.022  12.934  0.00  0.00    -0.022 A 
ATOM     15  C   UNK d   0     -35.075 -18.810  12.771  0.00  0.00     0.042 A 
ATOM     16  H   UNK d   0     -35.605 -20.934  12.985  0.00  0.00     0.166 HD
ATOM     17  C   UNK d   0     -36.289 -18.109  12.624  0.00  0.00     0.062 C 
ATOM     18  C   UNK d   0     -33.868 -18.085  12.771  0.00  0.00    -0.013 A 
ATOM     19  C   UNK d   0     -37.370 -18.412  11.837  0.00  0.00     0.067 A 
ATOM     20  N   UNK d   0     -37.389 -19.623  11.274  0.00  0.00    -0.248 NA
ATOM     21  C   UNK d   0     -38.577 -17.723  11.410  0.00  0.00    -0.011 A 
ATOM     22  C   UNK d   0     -38.518 -19.775  10.508  0.00  0.00     0.066 A 
ATOM     23  C   UNK d   0     -38.684 -21.007   9.892  0.00  0.00     0.062 C 
ATOM     24  C   UNK d   0     -39.242 -18.524  10.628  0.00  0.00    -0.020 A 
ATOM     25  C   UNK d   0     -37.883 -22.151  10.028  0.00  0.00     0.041 A 
ATOM     26  N   UNK d   0     -36.555 -22.301  10.108  0.00  0.00    -0.355 N 
ATOM     27  C   UNK d   0     -38.515 -23.410  10.120  0.00  0.00    -0.022 A 
ATOM     28  C   UNK d   0     -36.319 -23.615  10.254  0.00  0.00     0.042 A 
ATOM     29  H   UNK d   0     -35.789 -21.490  10.037  0.00  0.00     0.166 HD
ATOM     30  C   UNK d   0     -35.117 -24.327  10.391  0.00  0.00     0.062 C 
ATOM     31  C   UNK d   0     -37.533 -24.342  10.264  0.00  0.00    -0.013 A 
ATOM     32  C   UNK d   0     -33.993 -23.974  11.121  0.00  0.00     0.066 A 
BRANCH   8  33
ATOM     33  C   UNK d   0     -30.692 -24.036  12.739  0.00  0.00     0.151 C 
BRANCH  33  34
ATOM     34  C   UNK d   0     -30.705 -24.910  13.925  0.00  0.00     0.143 C 
ATOM     35  O   UNK d   0     -29.817 -25.757  14.102  0.00  0.00    -0.650 OA
BRANCH  34  36
ATOM     36  O   UNK d   0     -31.718 -24.783  14.847  0.00  0.00    -0.776 OA
ATOM     37  H   UNK d   0     -31.684 -25.276  15.750  0.00  0.00     0.167 HD
ENDBRANCH  34  36
ENDBRANCH  33  34
ENDBRANCH   8  33
BRANCH  31  38
ATOM     38  C   UNK d   0     -37.733 -25.831  10.416  0.00  0.00     0.151 C 
BRANCH  38  39
ATOM     39  C   UNK d   0     -37.806 -26.250  11.800  0.00  0.00     0.143 C 
ATOM     40  O   UNK d   0     -36.806 -26.631  12.434  0.00  0.00    -0.650 OA
BRANCH  39  41
ATOM     41  O   UNK d   0     -39.035 -26.229  12.460  0.00  0.00    -0.776 OA
ATOM     42  H   UNK d   0     -39.706 -25.514  12.163  0.00  0.00     0.167 HD
ENDBRANCH  39  41
ENDBRANCH  38  39
ENDBRANCH  31  38
BRANCH  27  43
ATOM     43  C   UNK d   0     -39.984 -23.751  10.076  0.00  0.00     0.052 C 
BRANCH  43  44
ATOM     44  C   UNK d   0     -40.862 -22.645  10.565  0.00  0.00     0.115 C 
BRANCH  44  45
ATOM     45  C   UNK d   0     -41.529 -22.071   9.368  0.00  0.00     0.139 C 
ATOM     46  O   UNK d   0     -41.107 -22.411   8.235  0.00  0.00    -0.650 OA
BRANCH  45  47
ATOM     47  O   UNK d   0     -42.587 -21.193   9.451  0.00  0.00    -0.776 OA
ATOM     48  H   UNK d   0     -43.272 -21.212  10.224  0.00  0.00     0.167 HD
ENDBRANCH  45  47
ENDBRANCH  44  45
ENDBRANCH  43  44
ENDBRANCH  27  43
BRANCH  24  49
ATOM     49  C   UNK d   0     -40.544 -18.243  10.001  0.00  0.00     0.052 C 
BRANCH  49  50
ATOM     50  C   UNK d   0     -40.354 -17.793   8.575  0.00  0.00     0.115 C 
BRANCH  50  51
ATOM     51  C   UNK d   0     -40.381 -18.822   7.545  0.00  0.00     0.139 C 
ATOM     52  O   UNK d   0     -39.362 -19.155   6.894  0.00  0.00    -0.650 OA
BRANCH  51  53
ATOM     53  O   UNK d   0     -41.571 -19.471   7.253  0.00  0.00    -0.776 OA
ATOM     54  H   UNK d   0     -41.664 -20.435   7.518  0.00  0.00     0.167 HD
ENDBRANCH  51  53
ENDBRANCH  50  51
ENDBRANCH  49  50
ENDBRANCH  24  49
BRANCH  21  55
ATOM     55  C   UNK d   0     -38.941 -16.338  11.830  0.00  0.00     0.151 C 
BRANCH  55  56
ATOM     56  C   UNK d   0     -38.757 -15.365  10.741  0.00  0.00     0.143 C 
ATOM     57  O   UNK d   0     -37.653 -15.158  10.200  0.00  0.00    -0.650 OA
BRANCH  56  58
ATOM     58  O   UNK d   0     -39.876 -14.654  10.310  0.00  0.00    -0.776 OA
ATOM     59  H   UNK d   0     -40.658 -15.239   9.965  0.00  0.00     0.167 HD
ENDBRANCH  56  58
ENDBRANCH  55  56
ENDBRANCH  21  55
BRANCH  18  60
ATOM     60  C   UNK d   0     -33.639 -16.601  12.624  0.00  0.00     0.151 C 
BRANCH  60  61
ATOM     61  C   UNK d   0     -33.645 -16.332  11.178  0.00  0.00     0.143 C 
ATOM     62  O   UNK d   0     -34.500 -15.716  10.542  0.00  0.00    -0.650 OA
BRANCH  61  63
ATOM     63  O   UNK d   0     -32.537 -16.849  10.464  0.00  0.00    -0.776 OA
ATOM     64  H   UNK d   0     -32.215 -16.411   9.620  0.00  0.00     0.167 HD
ENDBRANCH  61  63
ENDBRANCH  60  61
ENDBRANCH  18  60
BRANCH  14  65
ATOM     65  C   UNK d   0     -31.435 -18.635  13.089  0.00  0.00     0.052 C 
BRANCH  65  66
ATOM     66  C   UNK d   0     -31.083 -18.248  14.482  0.00  0.00     0.115 C 
BRANCH  66  67
ATOM     67  C   UNK d   0     -31.798 -18.829  15.584  0.00  0.00     0.139 C 
ATOM     68  O   UNK d   0     -31.276 -19.835  16.191  0.00  0.00    -0.650 OA
BRANCH  67  69
ATOM     69  O   UNK d   0     -33.030 -18.434  16.104  0.00  0.00    -0.776 OA
ATOM     70  H   UNK d   0     -33.286 -18.849  17.012  0.00  0.00     0.167 HD
ENDBRANCH  67  69
ENDBRANCH  66  67
ENDBRANCH  65  66
ENDBRANCH  14  65
ENDBRANCH   6   7
ENDBRANCH   5   6
ENDBRANCH   2   5
TORSDOF 28
ENDMDL
MODEL 18
REMARK VINA RESULT:      -8.7      1.508      8.121
REMARK  28 active torsions:
REMARK  status: ('A' for Active; 'I' for Inactive)
REMARK    1  A    between atoms: C_2  and  O_3 
REMARK    2  A    between atoms: C_2  and  C_4 
REMARK    3  A    between atoms: C_4  and  C_5 
REMARK    4  A    between atoms: C_5  and  C_6 
REMARK    5  A    between atoms: C_7  and  C_8 
REMARK    6  A    between atoms: C_8  and  C_9 
REMARK    7  A    between atoms: C_9  and  O_11 
REMARK    8  A    between atoms: C_28  and  C_29 
REMARK    9  A    between atoms: C_29  and  C_30 
REMARK   10  A    between atoms: C_30  and  O_32 
REMARK   11  A    between atoms: C_33  and  C_34 
REMARK   12  A    between atoms: C_34  and  C_35 
REMARK   13  A    between atoms: C_35  and  C_36 
REMARK   14  A    between atoms: C_36  and  O_38 
REMARK   15  A    between atoms: C_39  and  C_40 
REMARK   16  A    between atoms: C_40  and  C_41 
REMARK   17  A    between atoms: C_41  and  C_42 
REMARK   18  A    between atoms: C_42  and  O_44 
REMARK   19  A    between atoms: C_45  and  C_46 
REMARK   20  A    between atoms: C_46  and  C_47 
REMARK   21  A    between atoms: C_47  and  O_49 
REMARK   22  A    between atoms: C_50  and  C_51 
REMARK   23  A    between atoms: C_51  and  C_52 
REMARK   24  A    between atoms: C_52  and  O_54 
REMARK   25  A    between atoms: C_55  and  C_56 
REMARK   26  A    between atoms: C_56  and  C_57 
REMARK   27  A    between atoms: C_57  and  C_58 
REMARK   28  A    between atoms: C_58  and  O_60 
ROOT
ATOM      1  O   UNK d   0      -3.901 -17.016  -1.508  0.00  0.00    -0.650 OA
ATOM      2  C   UNK d   0      -4.629 -16.082  -1.912  0.00  0.00     0.139 C 
ENDROOT
BRANCH   2   3
ATOM      3  O   UNK d   0      -4.957 -15.063  -1.050  0.00  0.00    -0.776 OA
ATOM      4  H   UNK d   0      -4.718 -15.113  -0.058  0.00  0.00     0.167 HD
ENDBRANCH   2   3
BRANCH   2   5
ATOM      5  C   UNK d   0      -5.135 -16.080  -3.314  0.00  0.00     0.115 C 
BRANCH   5   6
ATOM      6  C   UNK d   0      -6.139 -17.185  -3.504  0.00  0.00     0.052 C 
BRANCH   6   7
ATOM      7  C   UNK d   0      -7.392 -16.717  -4.204  0.00  0.00    -0.020 A 
ATOM      8  C   UNK d   0      -8.021 -17.303  -5.191  0.00  0.00    -0.011 A 
ATOM      9  C   UNK d   0      -9.167 -16.480  -5.539  0.00  0.00     0.067 A 
ATOM     10  C   UNK d   0     -10.222 -16.551  -6.463  0.00  0.00     0.062 C 
ATOM     11  N   UNK d   0      -9.156 -15.409  -4.717  0.00  0.00    -0.248 NA
ATOM     12  C   UNK d   0     -11.399 -15.795  -6.464  0.00  0.00     0.041 A 
ATOM     13  N   UNK d   0     -11.611 -14.484  -6.239  0.00  0.00    -0.355 N 
ATOM     14  C   UNK d   0     -12.627 -16.448  -6.677  0.00  0.00    -0.022 A 
ATOM     15  C   UNK d   0     -12.943 -14.291  -6.295  0.00  0.00     0.042 A 
ATOM     16  H   UNK d   0     -10.834 -13.708  -6.063  0.00  0.00     0.166 HD
ATOM     17  C   UNK d   0     -13.702 -13.115  -6.134  0.00  0.00     0.062 C 
ATOM     18  C   UNK d   0     -13.613 -15.499  -6.568  0.00  0.00    -0.013 A 
ATOM     19  C   UNK d   0     -13.582 -12.134  -5.183  0.00  0.00     0.067 A 
ATOM     20  N   UNK d   0     -12.490 -12.168  -4.415  0.00  0.00    -0.248 NA
ATOM     21  C   UNK d   0     -14.378 -11.000  -4.746  0.00  0.00    -0.011 A 
ATOM     22  C   UNK d   0     -12.516 -11.139  -3.505  0.00  0.00     0.066 A 
ATOM     23  C   UNK d   0     -11.418 -11.033  -2.664  0.00  0.00     0.062 C 
ATOM     24  C   UNK d   0     -13.751 -10.424  -3.761  0.00  0.00    -0.020 A 
ATOM     25  C   UNK d   0     -10.239 -11.794  -2.687  0.00  0.00     0.041 A 
ATOM     26  N   UNK d   0     -10.029 -13.099  -2.896  0.00  0.00    -0.355 N 
ATOM     27  C   UNK d   0      -9.007 -11.137  -2.478  0.00  0.00    -0.022 A 
ATOM     28  C   UNK d   0      -8.703 -13.296  -2.832  0.00  0.00     0.042 A 
ATOM     29  H   UNK d   0     -10.812 -13.880  -3.062  0.00  0.00     0.166 HD
ATOM     30  C   UNK d   0      -7.935 -14.462  -2.981  0.00  0.00     0.062 C 
ATOM     31  C   UNK d   0      -8.030 -12.080  -2.568  0.00  0.00    -0.013 A 
ATOM     32  C   UNK d   0      -8.113 -15.493  -3.890  0.00  0.00     0.066 A 
BRANCH   8  33
ATOM     33  C   UNK d   0      -7.649 -18.568  -5.850  0.00  0.00     0.151 C 
BRANCH  33  34
ATOM     34  C   UNK d   0      -7.872 -18.539  -7.307  0.00  0.00     0.143 C 
ATOM     35  O   UNK d   0      -8.703 -19.289  -7.839  0.00  0.00    -0.650 OA
BRANCH  34  36
ATOM     36  O   UNK d   0      -7.144 -17.668  -8.084  0.00  0.00    -0.776 OA
ATOM     37  H   UNK d   0      -7.417 -17.463  -9.055  0.00  0.00     0.167 HD
ENDBRANCH  34  36
ENDBRANCH  33  34
ENDBRANCH   8  33
BRANCH  31  38
ATOM     38  C   UNK d   0      -6.545 -11.841  -2.427  0.00  0.00     0.151 C 
BRANCH  38  39
ATOM     39  C   UNK d   0      -6.110 -11.810  -1.047  0.00  0.00     0.143 C 
ATOM     40  O   UNK d   0      -5.419 -10.884  -0.587  0.00  0.00    -0.650 OA
BRANCH  39  41
ATOM     41  O   UNK d   0      -6.472 -12.849  -0.190  0.00  0.00    -0.776 OA
ATOM     42  H   UNK d   0      -6.670 -13.757  -0.623  0.00  0.00     0.167 HD
ENDBRANCH  39  41
ENDBRANCH  38  39
ENDBRANCH  31  38
BRANCH  27  43
ATOM     43  C   UNK d   0      -8.733  -9.680  -2.200  0.00  0.00     0.052 C 
BRANCH  43  44
ATOM     44  C   UNK d   0      -8.889  -9.314  -0.759  0.00  0.00     0.115 C 
BRANCH  44  45
ATOM     45  C   UNK d   0      -7.629  -8.638  -0.355  0.00  0.00     0.139 C 
ATOM     46  O   UNK d   0      -7.388  -8.521   0.872  0.00  0.00    -0.650 OA
BRANCH  45  47
ATOM     47  O   UNK d   0      -6.721  -8.143  -1.265  0.00  0.00    -0.776 OA
ATOM     48  H   UNK d   0      -6.358  -8.702  -2.055  0.00  0.00     0.167 HD
ENDBRANCH  45  47
ENDBRANCH  44  45
ENDBRANCH  43  44
ENDBRANCH  27  43
BRANCH  24  49
ATOM     49  C   UNK d   0     -14.185  -9.213  -3.044  0.00  0.00     0.052 C 
BRANCH  49  50
ATOM     50  C   UNK d   0     -15.567  -9.408  -2.474  0.00  0.00     0.115 C 
BRANCH  50  51
ATOM     51  C   UNK d   0     -16.174  -8.269  -1.799  0.00  0.00     0.139 C 
ATOM     52  O   UNK d   0     -16.206  -8.161  -0.550  0.00  0.00    -0.650 OA
BRANCH  51  53
ATOM     53  O   UNK d   0     -16.747  -7.252  -2.548  0.00  0.00    -0.776 OA
ATOM     54  H   UNK d   0     -17.618  -7.437  -3.012  0.00  0.00     0.167 HD
ENDBRANCH  51  53
ENDBRANCH  50  51
ENDBRANCH  49  50
ENDBRANCH  24  49
BRANCH  21  55
ATOM     55  C   UNK d   0     -15.681 -10.607  -5.360  0.00  0.00     0.151 C 
BRANCH  55  56
ATOM     56  C   UNK d   0     -15.514  -9.571  -6.391  0.00  0.00     0.143 C 
ATOM     57  O   UNK d   0     -16.455  -8.856  -6.787  0.00  0.00    -0.650 OA
BRANCH  56  58
ATOM     58  O   UNK d   0     -14.243  -9.395  -6.935  0.00  0.00    -0.776 OA
ATOM     59  H   UNK d   0     -13.546  -8.979  -6.291  0.00  0.00     0.167 HD
ENDBRANCH  56  58
ENDBRANCH  55  56
ENDBRANCH  21  55
BRANCH  18  60
ATOM     60  C   UNK d   0     -15.090 -15.767  -6.717  0.00  0.00     0.151 C 
BRANCH  60  61
ATOM     61  C   UNK d   0     -15.418 -15.450  -8.115  0.00  0.00     0.143 C 
ATOM     62  O   UNK d   0     -16.536 -15.446  -8.633  0.00  0.00    -0.650 OA
BRANCH  61  63
ATOM     63  O   UNK d   0     -14.312 -15.117  -8.933  0.00  0.00    -0.776 OA
ATOM     64  H   UNK d   0     -14.270 -15.411  -9.893  0.00  0.00     0.167 HD
ENDBRANCH  61  63
ENDBRANCH  60  61
ENDBRANCH  18  60
BRANCH  14  65
ATOM     65  C   UNK d   0     -12.928 -17.867  -7.069  0.00  0.00     0.052 C 
BRANCH  65  66
ATOM     66  C   UNK d   0     -13.727 -18.595  -6.047  0.00  0.00     0.115 C 
BRANCH  66  67
ATOM     67  C   UNK d   0     -13.837 -20.025  -6.117  0.00  0.00     0.139 C 
ATOM     68  O   UNK d   0     -14.505 -20.634  -5.202  0.00  0.00    -0.650 OA
BRANCH  67  69
ATOM     69  O   UNK d   0     -13.296 -20.877  -7.079  0.00  0.00    -0.776 OA
ATOM     70  H   UNK d   0     -13.220 -20.488  -8.030  0.00  0.00     0.167 HD
ENDBRANCH  67  69
ENDBRANCH  66  67
ENDBRANCH  65  66
ENDBRANCH  14  65
ENDBRANCH   6   7
ENDBRANCH   5   6
ENDBRANCH   2   5
TORSDOF 28
ENDMDL
MODEL 19
REMARK VINA RESULT:      -8.6      2.032     10.586
REMARK  28 active torsions:
REMARK  status: ('A' for Active; 'I' for Inactive)
REMARK    1  A    between atoms: C_2  and  O_3 
REMARK    2  A    between atoms: C_2  and  C_4 
REMARK    3  A    between atoms: C_4  and  C_5 
REMARK    4  A    between atoms: C_5  and  C_6 
REMARK    5  A    between atoms: C_7  and  C_8 
REMARK    6  A    between atoms: C_8  and  C_9 
REMARK    7  A    between atoms: C_9  and  O_11 
REMARK    8  A    between atoms: C_28  and  C_29 
REMARK    9  A    between atoms: C_29  and  C_30 
REMARK   10  A    between atoms: C_30  and  O_32 
REMARK   11  A    between atoms: C_33  and  C_34 
REMARK   12  A    between atoms: C_34  and  C_35 
REMARK   13  A    between atoms: C_35  and  C_36 
REMARK   14  A    between atoms: C_36  and  O_38 
REMARK   15  A    between atoms: C_39  and  C_40 
REMARK   16  A    between atoms: C_40  and  C_41 
REMARK   17  A    between atoms: C_41  and  C_42 
REMARK   18  A    between atoms: C_42  and  O_44 
REMARK   19  A    between atoms: C_45  and  C_46 
REMARK   20  A    between atoms: C_46  and  C_47 
REMARK   21  A    between atoms: C_47  and  O_49 
REMARK   22  A    between atoms: C_50  and  C_51 
REMARK   23  A    between atoms: C_51  and  C_52 
REMARK   24  A    between atoms: C_52  and  O_54 
REMARK   25  A    between atoms: C_55  and  C_56 
REMARK   26  A    between atoms: C_56  and  C_57 
REMARK   27  A    between atoms: C_57  and  C_58 
REMARK   28  A    between atoms: C_58  and  O_60 
ROOT
ATOM      1  O   UNK d   0     -12.306  -8.180  -0.896  0.00  0.00    -0.650 OA
ATOM      2  C   UNK d   0     -11.393  -8.068  -0.049  0.00  0.00     0.139 C 
ENDROOT
BRANCH   2   3
ATOM      3  O   UNK d   0     -11.352  -6.953   0.754  0.00  0.00    -0.776 OA
ATOM      4  H   UNK d   0     -11.713  -6.978   1.709  0.00  0.00     0.167 HD
ENDBRANCH   2   3
BRANCH   2   5
ATOM      5  C   UNK d   0     -10.360  -9.134   0.084  0.00  0.00     0.115 C 
BRANCH   5   6
ATOM      6  C   UNK d   0      -9.120  -8.752  -0.678  0.00  0.00     0.052 C 
BRANCH   6   7
ATOM      7  C   UNK d   0      -8.607  -9.871  -1.552  0.00  0.00    -0.020 A 
ATOM      8  C   UNK d   0      -7.365 -10.244  -1.725  0.00  0.00    -0.011 A 
ATOM      9  C   UNK d   0      -7.360 -11.356  -2.661  0.00  0.00     0.067 A 
ATOM     10  C   UNK d   0      -6.391 -12.196  -3.230  0.00  0.00     0.062 C 
ATOM     11  N   UNK d   0      -8.642 -11.590  -3.012  0.00  0.00    -0.248 NA
ATOM     12  C   UNK d   0      -6.606 -13.403  -3.905  0.00  0.00     0.041 A 
ATOM     13  N   UNK d   0      -7.528 -13.753  -4.822  0.00  0.00    -0.355 N 
ATOM     14  C   UNK d   0      -5.797 -14.510  -3.594  0.00  0.00    -0.022 A 
ATOM     15  C   UNK d   0      -7.330 -15.057  -5.094  0.00  0.00     0.042 A 
ATOM     16  H   UNK d   0      -8.291 -13.088  -5.282  0.00  0.00     0.166 HD
ATOM     17  C   UNK d   0      -8.009 -15.920  -5.977  0.00  0.00     0.062 C 
ATOM     18  C   UNK d   0      -6.253 -15.567  -4.342  0.00  0.00    -0.013 A 
ATOM     19  C   UNK d   0      -9.359 -16.065  -6.172  0.00  0.00     0.067 A 
ATOM     20  N   UNK d   0     -10.153 -15.150  -5.611  0.00  0.00    -0.248 NA
ATOM     21  C   UNK d   0     -10.219 -17.016  -6.857  0.00  0.00    -0.011 A 
ATOM     22  C   UNK d   0     -11.470 -15.434  -5.878  0.00  0.00     0.066 A 
ATOM     23  C   UNK d   0     -12.407 -14.538  -5.384  0.00  0.00     0.062 C 
ATOM     24  C   UNK d   0     -11.453 -16.643  -6.678  0.00  0.00    -0.020 A 
ATOM     25  C   UNK d   0     -12.169 -13.325  -4.719  0.00  0.00     0.041 A 
ATOM     26  N   UNK d   0     -11.263 -12.980  -3.797  0.00  0.00    -0.355 N 
ATOM     27  C   UNK d   0     -12.979 -12.212  -5.036  0.00  0.00    -0.022 A 
ATOM     28  C   UNK d   0     -11.464 -11.683  -3.518  0.00  0.00     0.042 A 
ATOM     29  H   UNK d   0     -10.503 -13.653  -3.328  0.00  0.00     0.166 HD
ATOM     30  C   UNK d   0     -10.801 -10.815  -2.635  0.00  0.00     0.062 C 
ATOM     31  C   UNK d   0     -12.539 -11.169  -4.281  0.00  0.00    -0.013 A 
ATOM     32  C   UNK d   0      -9.442 -10.730  -2.379  0.00  0.00     0.066 A 
BRANCH   8  33
ATOM     33  C   UNK d   0      -6.169  -9.654  -1.097  0.00  0.00     0.151 C 
BRANCH  33  34
ATOM     34  C   UNK d   0      -6.102  -9.907   0.354  0.00  0.00     0.143 C 
ATOM     35  O   UNK d   0      -6.000  -8.971   1.159  0.00  0.00    -0.650 OA
BRANCH  34  36
ATOM     36  O   UNK d   0      -6.152 -11.202   0.816  0.00  0.00    -0.776 OA
ATOM     37  H   UNK d   0      -5.297 -11.707   1.085  0.00  0.00     0.167 HD
ENDBRANCH  34  36
ENDBRANCH  33  34
ENDBRANCH   8  33
BRANCH  31  38
ATOM     38  C   UNK d   0     -13.095  -9.764  -4.292  0.00  0.00     0.151 C 
BRANCH  38  39
ATOM     39  C   UNK d   0     -14.098  -9.550  -3.270  0.00  0.00     0.143 C 
ATOM     40  O   UNK d   0     -14.660 -10.490  -2.682  0.00  0.00    -0.650 OA
BRANCH  39  41
ATOM     41  O   UNK d   0     -14.456  -8.248  -2.922  0.00  0.00    -0.776 OA
ATOM     42  H   UNK d   0     -13.843  -7.496  -3.254  0.00  0.00     0.167 HD
ENDBRANCH  39  41
ENDBRANCH  38  39
ENDBRANCH  31  38
BRANCH  27  43
ATOM     43  C   UNK d   0     -14.129 -12.109  -6.006  0.00  0.00     0.052 C 
BRANCH  43  44
ATOM     44  C   UNK d   0     -14.138 -10.830  -6.779  0.00  0.00     0.115 C 
BRANCH  44  45
ATOM     45  C   UNK d   0     -15.438 -10.170  -6.492  0.00  0.00     0.139 C 
ATOM     46  O   UNK d   0     -15.616  -9.002  -6.919  0.00  0.00    -0.650 OA
BRANCH  45  47
ATOM     47  O   UNK d   0     -16.449 -10.786  -5.786  0.00  0.00    -0.776 OA
ATOM     48  H   UNK d   0     -16.388 -11.762  -5.456  0.00  0.00     0.167 HD
ENDBRANCH  45  47
ENDBRANCH  44  45
ENDBRANCH  43  44
ENDBRANCH  27  43
BRANCH  24  49
ATOM     49  C   UNK d   0     -12.648 -17.302  -7.232  0.00  0.00     0.052 C 
BRANCH  49  50
ATOM     50  C   UNK d   0     -13.247 -18.243  -6.219  0.00  0.00     0.115 C 
BRANCH  50  51
ATOM     51  C   UNK d   0     -13.415 -19.633  -6.620  0.00  0.00     0.139 C 
ATOM     52  O   UNK d   0     -12.504 -20.292  -7.175  0.00  0.00    -0.650 OA
BRANCH  51  53
ATOM     53  O   UNK d   0     -14.625 -20.272  -6.392  0.00  0.00    -0.776 OA
ATOM     54  H   UNK d   0     -14.606 -21.217  -6.052  0.00  0.00     0.167 HD
ENDBRANCH  51  53
ENDBRANCH  50  51
ENDBRANCH  49  50
ENDBRANCH  24  49
BRANCH  21  55
ATOM     55  C   UNK d   0      -9.717 -18.195  -7.623  0.00  0.00     0.151 C 
BRANCH  55  56
ATOM     56  C   UNK d   0      -8.261 -18.141  -7.826  0.00  0.00     0.143 C 
ATOM     57  O   UNK d   0      -7.718 -17.339  -8.612  0.00  0.00    -0.650 OA
BRANCH  56  58
ATOM     58  O   UNK d   0      -7.471 -19.032  -7.101  0.00  0.00    -0.776 OA
ATOM     59  H   UNK d   0      -6.489 -19.105  -7.423  0.00  0.00     0.167 HD
ENDBRANCH  56  58
ENDBRANCH  55  56
ENDBRANCH  21  55
BRANCH  18  60
ATOM     60  C   UNK d   0      -5.675 -16.960  -4.314  0.00  0.00     0.151 C 
BRANCH  60  61
ATOM     61  C   UNK d   0      -6.756 -17.836  -3.837  0.00  0.00     0.143 C 
ATOM     62  O   UNK d   0      -6.896 -19.037  -4.070  0.00  0.00    -0.650 OA
BRANCH  61  63
ATOM     63  O   UNK d   0      -7.728 -17.205  -3.024  0.00  0.00    -0.776 OA
ATOM     64  H   UNK d   0      -7.781 -17.393  -2.038  0.00  0.00     0.167 HD
ENDBRANCH  61  63
ENDBRANCH  60  61
ENDBRANCH  18  60
BRANCH  14  65
ATOM     65  C   UNK d   0      -4.576 -14.620  -2.724  0.00  0.00     0.052 C 
BRANCH  65  66
ATOM     66  C   UNK d   0      -4.851 -15.272  -1.416  0.00  0.00     0.115 C 
BRANCH  66  67
ATOM     67  C   UNK d   0      -6.030 -14.917  -0.677  0.00  0.00     0.139 C 
ATOM     68  O   UNK d   0      -5.986 -13.886   0.090  0.00  0.00    -0.650 OA
BRANCH  67  69
ATOM     69  O   UNK d   0      -7.265 -15.565  -0.678  0.00  0.00    -0.776 OA
ATOM     70  H   UNK d   0      -7.637 -15.817  -1.605  0.00  0.00     0.167 HD
ENDBRANCH  67  69
ENDBRANCH  66  67
ENDBRANCH  65  66
ENDBRANCH  14  65
ENDBRANCH   6   7
ENDBRANCH   5   6
ENDBRANCH   2   5
TORSDOF 28
ENDMDL
MODEL 20
REMARK VINA RESULT:      -8.6     28.041     32.167
REMARK  28 active torsions:
REMARK  status: ('A' for Active; 'I' for Inactive)
REMARK    1  A    between atoms: C_2  and  O_3 
REMARK    2  A    between atoms: C_2  and  C_4 
REMARK    3  A    between atoms: C_4  and  C_5 
REMARK    4  A    between atoms: C_5  and  C_6 
REMARK    5  A    between atoms: C_7  and  C_8 
REMARK    6  A    between atoms: C_8  and  C_9 
REMARK    7  A    between atoms: C_9  and  O_11 
REMARK    8  A    between atoms: C_28  and  C_29 
REMARK    9  A    between atoms: C_29  and  C_30 
REMARK   10  A    between atoms: C_30  and  O_32 
REMARK   11  A    between atoms: C_33  and  C_34 
REMARK   12  A    between atoms: C_34  and  C_35 
REMARK   13  A    between atoms: C_35  and  C_36 
REMARK   14  A    between atoms: C_36  and  O_38 
REMARK   15  A    between atoms: C_39  and  C_40 
REMARK   16  A    between atoms: C_40  and  C_41 
REMARK   17  A    between atoms: C_41  and  C_42 
REMARK   18  A    between atoms: C_42  and  O_44 
REMARK   19  A    between atoms: C_45  and  C_46 
REMARK   20  A    between atoms: C_46  and  C_47 
REMARK   21  A    between atoms: C_47  and  O_49 
REMARK   22  A    between atoms: C_50  and  C_51 
REMARK   23  A    between atoms: C_51  and  C_52 
REMARK   24  A    between atoms: C_52  and  O_54 
REMARK   25  A    between atoms: C_55  and  C_56 
REMARK   26  A    between atoms: C_56  and  C_57 
REMARK   27  A    between atoms: C_57  and  C_58 
REMARK   28  A    between atoms: C_58  and  O_60 
ROOT
ATOM      1  O   UNK d   0     -39.782 -15.071  10.967  0.00  0.00    -0.650 OA
ATOM      2  C   UNK d   0     -39.202 -14.894   9.872  0.00  0.00     0.139 C 
ENDROOT
BRANCH   2   3
ATOM      3  O   UNK d   0     -39.924 -14.980   8.706  0.00  0.00    -0.776 OA
ATOM      4  H   UNK d   0     -40.076 -15.879   8.245  0.00  0.00     0.167 HD
ENDBRANCH   2   3
BRANCH   2   5
ATOM      5  C   UNK d   0     -37.743 -14.593   9.839  0.00  0.00     0.115 C 
BRANCH   5   6
ATOM      6  C   UNK d   0     -37.149 -14.757  11.211  0.00  0.00     0.052 C 
BRANCH   6   7
ATOM      7  C   UNK d   0     -36.230 -15.951  11.308  0.00  0.00    -0.020 A 
ATOM      8  C   UNK d   0     -34.975 -15.964  11.678  0.00  0.00    -0.011 A 
ATOM      9  C   UNK d   0     -34.504 -17.337  11.606  0.00  0.00     0.067 A 
ATOM     10  C   UNK d   0     -33.304 -18.012  11.879  0.00  0.00     0.062 C 
ATOM     11  N   UNK d   0     -35.537 -18.093  11.177  0.00  0.00    -0.248 NA
ATOM     12  C   UNK d   0     -33.120 -19.392  12.015  0.00  0.00     0.041 A 
ATOM     13  N   UNK d   0     -33.603 -20.426  11.299  0.00  0.00    -0.355 N 
ATOM     14  C   UNK d   0     -32.356 -19.874  13.093  0.00  0.00    -0.022 A 
ATOM     15  C   UNK d   0     -33.170 -21.551  11.900  0.00  0.00     0.042 A 
ATOM     16  H   UNK d   0     -34.220 -20.361  10.376  0.00  0.00     0.166 HD
ATOM     17  C   UNK d   0     -33.381 -22.903  11.566  0.00  0.00     0.062 C 
ATOM     18  C   UNK d   0     -32.386 -21.245  13.029  0.00  0.00    -0.013 A 
ATOM     19  C   UNK d   0     -34.543 -23.528  11.191  0.00  0.00     0.067 A 
ATOM     20  N   UNK d   0     -35.587 -22.744  10.907  0.00  0.00    -0.248 NA
ATOM     21  C   UNK d   0     -34.982 -24.903  11.022  0.00  0.00    -0.011 A 
ATOM     22  C   UNK d   0     -36.677 -23.507  10.566  0.00  0.00     0.066 A 
ATOM     23  C   UNK d   0     -37.825 -22.816  10.208  0.00  0.00     0.062 C 
ATOM     24  C   UNK d   0     -36.233 -24.884  10.660  0.00  0.00    -0.020 A 
ATOM     25  C   UNK d   0     -37.985 -21.429  10.065  0.00  0.00     0.041 A 
ATOM     26  N   UNK d   0     -37.518 -20.403  10.786  0.00  0.00    -0.355 N 
ATOM     27  C   UNK d   0     -38.749 -20.947   8.980  0.00  0.00    -0.022 A 
ATOM     28  C   UNK d   0     -37.955 -19.280  10.194  0.00  0.00     0.042 A 
ATOM     29  H   UNK d   0     -36.907 -20.470  11.719  0.00  0.00     0.166 HD
ATOM     30  C   UNK d   0     -37.761 -17.929  10.521  0.00  0.00     0.062 C 
ATOM     31  C   UNK d   0     -38.735 -19.588   9.054  0.00  0.00    -0.013 A 
ATOM     32  C   UNK d   0     -36.605 -17.318  10.980  0.00  0.00     0.066 A 
BRANCH   8  33
ATOM     33  C   UNK d   0     -34.162 -14.805  12.092  0.00  0.00     0.151 C 
BRANCH  33  34
ATOM     34  C   UNK d   0     -33.019 -14.560  11.194  0.00  0.00     0.143 C 
ATOM     35  O   UNK d   0     -31.901 -14.278  11.648  0.00  0.00    -0.650 OA
BRANCH  34  36
ATOM     36  O   UNK d   0     -33.199 -14.645   9.833  0.00  0.00    -0.776 OA
ATOM     37  H   UNK d   0     -32.746 -13.980   9.191  0.00  0.00     0.167 HD
ENDBRANCH  34  36
ENDBRANCH  33  34
ENDBRANCH   8  33
BRANCH  31  38
ATOM     38  C   UNK d   0     -39.408 -18.636   8.093  0.00  0.00     0.151 C 
BRANCH  38  39
ATOM     39  C   UNK d   0     -40.798 -18.398   8.420  0.00  0.00     0.143 C 
ATOM     40  O   UNK d   0     -41.144 -17.779   9.442  0.00  0.00    -0.650 OA
BRANCH  39  41
ATOM     41  O   UNK d   0     -41.795 -18.872   7.568  0.00  0.00    -0.776 OA
ATOM     42  H   UNK d   0     -42.270 -19.736   7.849  0.00  0.00     0.167 HD
ENDBRANCH  39  41
ENDBRANCH  38  39
ENDBRANCH  31  38
BRANCH  27  43
ATOM     43  C   UNK d   0     -39.476 -21.713   7.904  0.00  0.00     0.052 C 
BRANCH  43  44
ATOM     44  C   UNK d   0     -40.387 -22.769   8.442  0.00  0.00     0.115 C 
BRANCH  44  45
ATOM     45  C   UNK d   0     -41.506 -22.060   9.117  0.00  0.00     0.139 C 
ATOM     46  O   UNK d   0     -41.492 -21.990  10.371  0.00  0.00    -0.650 OA
BRANCH  45  47
ATOM     47  O   UNK d   0     -42.545 -21.477   8.425  0.00  0.00    -0.776 OA
ATOM     48  H   UNK d   0     -42.748 -21.688   7.435  0.00  0.00     0.167 HD
ENDBRANCH  45  47
ENDBRANCH  44  45
ENDBRANCH  43  44
ENDBRANCH  27  43
BRANCH  24  49
ATOM     49  C   UNK d   0     -37.063 -26.059  10.342  0.00  0.00     0.052 C 
BRANCH  49  50
ATOM     50  C   UNK d   0     -38.326 -26.045  11.164  0.00  0.00     0.115 C 
BRANCH  50  51
ATOM     51  C   UNK d   0     -38.265 -26.648  12.489  0.00  0.00     0.139 C 
ATOM     52  O   UNK d   0     -39.229 -26.620  13.290  0.00  0.00    -0.650 OA
BRANCH  51  53
ATOM     53  O   UNK d   0     -37.102 -27.281  12.901  0.00  0.00    -0.776 OA
ATOM     54  H   UNK d   0     -37.157 -27.916  13.678  0.00  0.00     0.167 HD
ENDBRANCH  51  53
ENDBRANCH  50  51
ENDBRANCH  49  50
ENDBRANCH  24  49
BRANCH  21  55
ATOM     55  C   UNK d   0     -34.105 -26.092  11.235  0.00  0.00     0.151 C 
BRANCH  55  56
ATOM     56  C   UNK d   0     -33.279 -26.387  10.054  0.00  0.00     0.143 C 
ATOM     57  O   UNK d   0     -32.062 -26.120   9.998  0.00  0.00    -0.650 OA
BRANCH  56  58
ATOM     58  O   UNK d   0     -33.900 -26.989   8.961  0.00  0.00    -0.776 OA
ATOM     59  H   UNK d   0     -33.297 -27.632   8.417  0.00  0.00     0.167 HD
ENDBRANCH  56  58
ENDBRANCH  55  56
ENDBRANCH  21  55
BRANCH  18  60
ATOM     60  C   UNK d   0     -31.700 -22.171  14.002  0.00  0.00     0.151 C 
BRANCH  60  61
ATOM     61  C   UNK d   0     -32.649 -22.370  15.107  0.00  0.00     0.143 C 
ATOM     62  O   UNK d   0     -33.327 -21.508  15.668  0.00  0.00    -0.650 OA
BRANCH  61  63
ATOM     63  O   UNK d   0     -32.780 -23.706  15.557  0.00  0.00    -0.776 OA
ATOM     64  H   UNK d   0     -32.052 -24.381  15.396  0.00  0.00     0.167 HD
ENDBRANCH  61  63
ENDBRANCH  60  61
ENDBRANCH  18  60
BRANCH  14  65
ATOM     65  C   UNK d   0     -31.527 -19.144  14.112  0.00  0.00     0.052 C 
BRANCH  65  66
ATOM     66  C   UNK d   0     -32.308 -18.727  15.307  0.00  0.00     0.115 C 
BRANCH  66  67
ATOM     67  C   UNK d   0     -31.693 -18.755  16.604  0.00  0.00     0.139 C 
ATOM     68  O   UNK d   0     -30.495 -19.210  16.706  0.00  0.00    -0.650 OA
BRANCH  67  69
ATOM     69  O   UNK d   0     -32.242 -18.341  17.817  0.00  0.00    -0.776 OA
ATOM     70  H   UNK d   0     -31.651 -17.718  18.387  0.00  0.00     0.167 HD
ENDBRANCH  67  69
ENDBRANCH  66  67
ENDBRANCH  65  66
ENDBRANCH  14  65
ENDBRANCH   6   7
ENDBRANCH   5   6
ENDBRANCH   2   5
TORSDOF 28
ENDMDL
