MODEL 1
REMARK VINA RESULT:      -8.6      0.000      0.000
REMARK  28 active torsions:
REMARK  status: ('A' for Active; 'I' for Inactive)
REMARK    1  A    between atoms: C_2  and  O_3 
REMARK    2  A    between atoms: C_2  and  C_4 
REMARK    3  A    between atoms: C_4  and  C_5 
REMARK    4  A    between atoms: C_5  and  C_6 
REMARK    5  A    between atoms: C_7  and  C_8 
REMARK    6  A    between atoms: C_8  and  C_9 
REMARK    7  A    between atoms: C_9  and  O_11 
REMARK    8  A    between atoms: C_28  and  C_29 
REMARK    9  A    between atoms: C_29  and  C_30 
REMARK   10  A    between atoms: C_30  and  O_32 
REMARK   11  A    between atoms: C_33  and  C_34 
REMARK   12  A    between atoms: C_34  and  C_35 
REMARK   13  A    between atoms: C_35  and  C_36 
REMARK   14  A    between atoms: C_36  and  O_38 
REMARK   15  A    between atoms: C_39  and  C_40 
REMARK   16  A    between atoms: C_40  and  C_41 
REMARK   17  A    between atoms: C_41  and  C_42 
REMARK   18  A    between atoms: C_42  and  O_44 
REMARK   19  A    between atoms: C_45  and  C_46 
REMARK   20  A    between atoms: C_46  and  C_47 
REMARK   21  A    between atoms: C_47  and  O_49 
REMARK   22  A    between atoms: C_50  and  C_51 
REMARK   23  A    between atoms: C_51  and  C_52 
REMARK   24  A    between atoms: C_52  and  O_54 
REMARK   25  A    between atoms: C_55  and  C_56 
REMARK   26  A    between atoms: C_56  and  C_57 
REMARK   27  A    between atoms: C_57  and  C_58 
REMARK   28  A    between atoms: C_58  and  O_60 
ROOT
ATOM      1  O   UNK d   0     -34.707  -3.095  15.821  0.00  0.00    -0.650 OA
ATOM      2  C   UNK d   0     -33.704  -3.798  15.567  0.00  0.00     0.139 C 
ENDROOT
BRANCH   2   3
ATOM      3  O   UNK d   0     -33.187  -4.612  16.546  0.00  0.00    -0.776 OA
ATOM      4  H   UNK d   0     -33.789  -5.245  17.078  0.00  0.00     0.167 HD
ENDBRANCH   2   3
BRANCH   2   5
ATOM      5  C   UNK d   0     -33.078  -3.749  14.216  0.00  0.00     0.115 C 
BRANCH   5   6
ATOM      6  C   UNK d   0     -31.967  -2.734  14.196  0.00  0.00     0.052 C 
BRANCH   6   7
ATOM      7  C   UNK d   0     -30.713  -3.259  13.539  0.00  0.00    -0.020 A 
ATOM      8  C   UNK d   0     -29.836  -4.090  14.042  0.00  0.00    -0.011 A 
ATOM      9  C   UNK d   0     -28.796  -4.295  13.047  0.00  0.00     0.067 A 
ATOM     10  C   UNK d   0     -27.622  -5.058  12.953  0.00  0.00     0.062 C 
ATOM     11  N   UNK d   0     -29.117  -3.546  11.972  0.00  0.00    -0.248 NA
ATOM     12  C   UNK d   0     -26.888  -5.343  11.796  0.00  0.00     0.041 A 
ATOM     13  N   UNK d   0     -26.530  -4.563  10.759  0.00  0.00    -0.355 N 
ATOM     14  C   UNK d   0     -26.454  -6.663  11.573  0.00  0.00    -0.022 A 
ATOM     15  C   UNK d   0     -25.888  -5.356   9.879  0.00  0.00     0.042 A 
ATOM     16  H   UNK d   0     -26.711  -3.470  10.658  0.00  0.00     0.166 HD
ATOM     17  C   UNK d   0     -25.308  -5.053   8.632  0.00  0.00     0.062 C 
ATOM     18  C   UNK d   0     -25.821  -6.679  10.356  0.00  0.00    -0.013 A 
ATOM     19  C   UNK d   0     -25.813  -4.295   7.607  0.00  0.00     0.067 A 
ATOM     20  N   UNK d   0     -26.908  -3.576   7.869  0.00  0.00    -0.248 NA
ATOM     21  C   UNK d   0     -25.468  -4.055   6.215  0.00  0.00    -0.011 A 
ATOM     22  C   UNK d   0     -27.304  -2.885   6.750  0.00  0.00     0.066 A 
ATOM     23  C   UNK d   0     -28.413  -2.064   6.893  0.00  0.00     0.062 C 
ATOM     24  C   UNK d   0     -26.346  -3.233   5.719  0.00  0.00    -0.020 A 
ATOM     25  C   UNK d   0     -29.128  -1.781   8.066  0.00  0.00     0.041 A 
ATOM     26  N   UNK d   0     -29.497  -2.560   9.091  0.00  0.00    -0.355 N 
ATOM     27  C   UNK d   0     -29.559  -0.455   8.292  0.00  0.00    -0.022 A 
ATOM     28  C   UNK d   0     -30.145  -1.774   9.965  0.00  0.00     0.042 A 
ATOM     29  H   UNK d   0     -29.324  -3.660   9.185  0.00  0.00     0.166 HD
ATOM     30  C   UNK d   0     -30.735  -2.063  11.205  0.00  0.00     0.062 C 
ATOM     31  C   UNK d   0     -30.203  -0.442   9.491  0.00  0.00    -0.013 A 
ATOM     32  C   UNK d   0     -30.260  -2.898  12.204  0.00  0.00     0.066 A 
BRANCH   8  33
ATOM     33  C   UNK d   0     -29.873  -4.714  15.377  0.00  0.00     0.151 C 
BRANCH  33  34
ATOM     34  C   UNK d   0     -29.765  -3.730  16.470  0.00  0.00     0.143 C 
ATOM     35  O   UNK d   0     -28.993  -2.764  16.383  0.00  0.00    -0.650 OA
BRANCH  34  36
ATOM     36  O   UNK d   0     -30.533  -3.890  17.601  0.00  0.00    -0.776 OA
ATOM     37  H   UNK d   0     -30.274  -3.440  18.489  0.00  0.00     0.167 HD
ENDBRANCH  34  36
ENDBRANCH  33  34
ENDBRANCH   8  33
BRANCH  31  38
ATOM     38  C   UNK d   0     -30.824   0.765  10.155  0.00  0.00     0.151 C 
BRANCH  38  39
ATOM     39  C   UNK d   0     -30.107   1.186  11.340  0.00  0.00     0.143 C 
ATOM     40  O   UNK d   0     -28.902   1.493  11.314  0.00  0.00    -0.650 OA
BRANCH  39  41
ATOM     41  O   UNK d   0     -30.778   1.255  12.560  0.00  0.00    -0.776 OA
ATOM     42  H   UNK d   0     -30.533   2.034  13.178  0.00  0.00     0.167 HD
ENDBRANCH  39  41
ENDBRANCH  38  39
ENDBRANCH  31  38
BRANCH  27  43
ATOM     43  C   UNK d   0     -29.387   0.768   7.427  0.00  0.00     0.052 C 
BRANCH  43  44
ATOM     44  C   UNK d   0     -28.387   1.738   7.968  0.00  0.00     0.115 C 
BRANCH  44  45
ATOM     45  C   UNK d   0     -27.153   0.960   8.253  0.00  0.00     0.139 C 
ATOM     46  O   UNK d   0     -26.354   0.749   7.307  0.00  0.00    -0.650 OA
BRANCH  45  47
ATOM     47  O   UNK d   0     -26.850   0.471   9.505  0.00  0.00    -0.776 OA
ATOM     48  H   UNK d   0     -26.713  -0.534   9.696  0.00  0.00     0.167 HD
ENDBRANCH  45  47
ENDBRANCH  44  45
ENDBRANCH  43  44
ENDBRANCH  27  43
BRANCH  24  49
ATOM     49  C   UNK d   0     -26.352  -2.692   4.349  0.00  0.00     0.052 C 
BRANCH  49  50
ATOM     50  C   UNK d   0     -25.574  -1.403   4.290  0.00  0.00     0.115 C 
BRANCH  50  51
ATOM     51  C   UNK d   0     -26.280  -0.221   3.815  0.00  0.00     0.139 C 
ATOM     52  O   UNK d   0     -26.107   0.256   2.669  0.00  0.00    -0.650 OA
BRANCH  51  53
ATOM     53  O   UNK d   0     -27.183   0.421   4.649  0.00  0.00    -0.776 OA
ATOM     54  H   UNK d   0     -26.897   1.277   5.091  0.00  0.00     0.167 HD
ENDBRANCH  51  53
ENDBRANCH  50  51
ENDBRANCH  49  50
ENDBRANCH  24  49
BRANCH  21  55
ATOM     55  C   UNK d   0     -24.293  -4.670   5.529  0.00  0.00     0.151 C 
BRANCH  55  56
ATOM     56  C   UNK d   0     -23.074  -4.593   6.348  0.00  0.00     0.143 C 
ATOM     57  O   UNK d   0     -22.398  -5.597   6.648  0.00  0.00    -0.650 OA
BRANCH  56  58
ATOM     58  O   UNK d   0     -22.672  -3.336   6.797  0.00  0.00    -0.776 OA
ATOM     59  H   UNK d   0     -21.763  -3.009   6.423  0.00  0.00     0.167 HD
ENDBRANCH  56  58
ENDBRANCH  55  56
ENDBRANCH  21  55
BRANCH  18  60
ATOM     60  C   UNK d   0     -25.206  -7.900   9.717  0.00  0.00     0.151 C 
BRANCH  60  61
ATOM     61  C   UNK d   0     -26.064  -8.231   8.569  0.00  0.00     0.143 C 
ATOM     62  O   UNK d   0     -27.255  -8.540   8.597  0.00  0.00    -0.650 OA
BRANCH  61  63
ATOM     63  O   UNK d   0     -25.426  -8.180   7.306  0.00  0.00    -0.776 OA
ATOM     64  H   UNK d   0     -25.462  -7.350   6.740  0.00  0.00     0.167 HD
ENDBRANCH  61  63
ENDBRANCH  60  61
ENDBRANCH  18  60
BRANCH  14  65
ATOM     65  C   UNK d   0     -26.506  -7.875  12.459  0.00  0.00     0.052 C 
BRANCH  65  66
ATOM     66  C   UNK d   0     -25.197  -8.191  13.090  0.00  0.00     0.115 C 
BRANCH  66  67
ATOM     67  C   UNK d   0     -24.219  -7.153  13.259  0.00  0.00     0.139 C 
ATOM     68  O   UNK d   0     -24.405  -6.280  14.184  0.00  0.00    -0.650 OA
BRANCH  67  69
ATOM     69  O   UNK d   0     -23.049  -6.956  12.526  0.00  0.00    -0.776 OA
ATOM     70  H   UNK d   0     -23.170  -6.857  11.507  0.00  0.00     0.167 HD
ENDBRANCH  67  69
ENDBRANCH  66  67
ENDBRANCH  65  66
ENDBRANCH  14  65
ENDBRANCH   6   7
ENDBRANCH   5   6
ENDBRANCH   2   5
TORSDOF 28
ENDMDL
MODEL 2
REMARK VINA RESULT:      -7.9      2.046      7.037
REMARK  28 active torsions:
REMARK  status: ('A' for Active; 'I' for Inactive)
REMARK    1  A    between atoms: C_2  and  O_3 
REMARK    2  A    between atoms: C_2  and  C_4 
REMARK    3  A    between atoms: C_4  and  C_5 
REMARK    4  A    between atoms: C_5  and  C_6 
REMARK    5  A    between atoms: C_7  and  C_8 
REMARK    6  A    between atoms: C_8  and  C_9 
REMARK    7  A    between atoms: C_9  and  O_11 
REMARK    8  A    between atoms: C_28  and  C_29 
REMARK    9  A    between atoms: C_29  and  C_30 
REMARK   10  A    between atoms: C_30  and  O_32 
REMARK   11  A    between atoms: C_33  and  C_34 
REMARK   12  A    between atoms: C_34  and  C_35 
REMARK   13  A    between atoms: C_35  and  C_36 
REMARK   14  A    between atoms: C_36  and  O_38 
REMARK   15  A    between atoms: C_39  and  C_40 
REMARK   16  A    between atoms: C_40  and  C_41 
REMARK   17  A    between atoms: C_41  and  C_42 
REMARK   18  A    between atoms: C_42  and  O_44 
REMARK   19  A    between atoms: C_45  and  C_46 
REMARK   20  A    between atoms: C_46  and  C_47 
REMARK   21  A    between atoms: C_47  and  O_49 
REMARK   22  A    between atoms: C_50  and  C_51 
REMARK   23  A    between atoms: C_51  and  C_52 
REMARK   24  A    between atoms: C_52  and  O_54 
REMARK   25  A    between atoms: C_55  and  C_56 
REMARK   26  A    between atoms: C_56  and  C_57 
REMARK   27  A    between atoms: C_57  and  C_58 
REMARK   28  A    between atoms: C_58  and  O_60 
ROOT
ATOM      1  O   UNK d   0     -32.380   3.230  10.631  0.00  0.00    -0.650 OA
ATOM      2  C   UNK d   0     -31.392   3.868  10.204  0.00  0.00     0.139 C 
ENDROOT
BRANCH   2   3
ATOM      3  O   UNK d   0     -31.275   5.205  10.498  0.00  0.00    -0.776 OA
ATOM      4  H   UNK d   0     -31.855   5.640  11.218  0.00  0.00     0.167 HD
ENDBRANCH   2   3
BRANCH   2   5
ATOM      5  C   UNK d   0     -30.355   3.179   9.385  0.00  0.00     0.115 C 
BRANCH   5   6
ATOM      6  C   UNK d   0     -29.034   3.192  10.105  0.00  0.00     0.052 C 
BRANCH   6   7
ATOM      7  C   UNK d   0     -28.819   1.957  10.947  0.00  0.00    -0.020 A 
ATOM      8  C   UNK d   0     -28.974   1.836  12.240  0.00  0.00    -0.011 A 
ATOM      9  C   UNK d   0     -28.643   0.467  12.602  0.00  0.00     0.067 A 
ATOM     10  C   UNK d   0     -28.625  -0.292  13.782  0.00  0.00     0.062 C 
ATOM     11  N   UNK d   0     -28.291  -0.173  11.467  0.00  0.00    -0.248 NA
ATOM     12  C   UNK d   0     -28.543  -1.684  13.893  0.00  0.00     0.041 A 
ATOM     13  N   UNK d   0     -27.783  -2.582  13.238  0.00  0.00    -0.355 N 
ATOM     14  C   UNK d   0     -29.408  -2.348  14.782  0.00  0.00    -0.022 A 
ATOM     15  C   UNK d   0     -28.149  -3.799  13.683  0.00  0.00     0.042 A 
ATOM     16  H   UNK d   0     -26.990  -2.359  12.491  0.00  0.00     0.166 HD
ATOM     17  C   UNK d   0     -27.675  -5.080  13.333  0.00  0.00     0.062 C 
ATOM     18  C   UNK d   0     -29.166  -3.693  14.651  0.00  0.00    -0.013 A 
ATOM     19  C   UNK d   0     -27.415  -5.593  12.088  0.00  0.00     0.067 A 
ATOM     20  N   UNK d   0     -27.412  -4.732  11.068  0.00  0.00    -0.248 NA
ATOM     21  C   UNK d   0     -27.136  -6.909  11.538  0.00  0.00    -0.011 A 
ATOM     22  C   UNK d   0     -27.153  -5.389   9.890  0.00  0.00     0.066 A 
ATOM     23  C   UNK d   0     -27.083  -4.604   8.748  0.00  0.00     0.062 C 
ATOM     24  C   UNK d   0     -26.988  -6.783  10.251  0.00  0.00    -0.020 A 
ATOM     25  C   UNK d   0     -27.155  -3.205   8.660  0.00  0.00     0.041 A 
ATOM     26  N   UNK d   0     -27.921  -2.314   9.300  0.00  0.00    -0.355 N 
ATOM     27  C   UNK d   0     -26.284  -2.539   7.771  0.00  0.00    -0.022 A 
ATOM     28  C   UNK d   0     -27.564  -1.100   8.852  0.00  0.00     0.042 A 
ATOM     29  H   UNK d   0     -28.725  -2.540  10.043  0.00  0.00     0.166 HD
ATOM     30  C   UNK d   0     -28.033   0.181   9.184  0.00  0.00     0.062 C 
ATOM     31  C   UNK d   0     -26.535  -1.207   7.887  0.00  0.00    -0.013 A 
ATOM     32  C   UNK d   0     -28.376   0.668  10.435  0.00  0.00     0.066 A 
BRANCH   8  33
ATOM     33  C   UNK d   0     -29.402   2.886  13.182  0.00  0.00     0.151 C 
BRANCH  33  34
ATOM     34  C   UNK d   0     -30.618   2.521  13.931  0.00  0.00     0.143 C 
ATOM     35  O   UNK d   0     -30.636   2.549  15.169  0.00  0.00    -0.650 OA
BRANCH  34  36
ATOM     36  O   UNK d   0     -31.747   2.142  13.241  0.00  0.00    -0.776 OA
ATOM     37  H   UNK d   0     -32.397   1.441  13.624  0.00  0.00     0.167 HD
ENDBRANCH  34  36
ENDBRANCH  33  34
ENDBRANCH   8  33
BRANCH  31  38
ATOM     38  C   UNK d   0     -25.833  -0.099   7.137  0.00  0.00     0.151 C 
BRANCH  38  39
ATOM     39  C   UNK d   0     -26.369   0.107   5.808  0.00  0.00     0.143 C 
ATOM     40  O   UNK d   0     -25.730  -0.181   4.781  0.00  0.00    -0.650 OA
BRANCH  39  41
ATOM     41  O   UNK d   0     -27.647   0.646   5.659  0.00  0.00    -0.776 OA
ATOM     42  H   UNK d   0     -27.827   1.541   6.126  0.00  0.00     0.167 HD
ENDBRANCH  39  41
ENDBRANCH  38  39
ENDBRANCH  31  38
BRANCH  27  43
ATOM     43  C   UNK d   0     -25.247  -3.111   6.837  0.00  0.00     0.052 C 
BRANCH  43  44
ATOM     44  C   UNK d   0     -23.854  -3.013   7.369  0.00  0.00     0.115 C 
BRANCH  44  45
ATOM     45  C   UNK d   0     -23.273  -4.379   7.292  0.00  0.00     0.139 C 
ATOM     46  O   UNK d   0     -22.805  -4.883   8.343  0.00  0.00    -0.650 OA
BRANCH  45  47
ATOM     47  O   UNK d   0     -23.234  -5.110   6.125  0.00  0.00    -0.776 OA
ATOM     48  H   UNK d   0     -22.784  -4.765   5.262  0.00  0.00     0.167 HD
ENDBRANCH  45  47
ENDBRANCH  44  45
ENDBRANCH  43  44
ENDBRANCH  27  43
BRANCH  24  49
ATOM     49  C   UNK d   0     -26.656  -7.863   9.305  0.00  0.00     0.052 C 
BRANCH  49  50
ATOM     50  C   UNK d   0     -25.163  -7.957   9.120  0.00  0.00     0.115 C 
BRANCH  50  51
ATOM     51  C   UNK d   0     -24.636  -7.639   7.800  0.00  0.00     0.139 C 
ATOM     52  O   UNK d   0     -25.347  -7.160   6.885  0.00  0.00    -0.650 OA
BRANCH  51  53
ATOM     53  O   UNK d   0     -23.298  -7.871   7.521  0.00  0.00    -0.776 OA
ATOM     54  H   UNK d   0     -23.019  -7.948   6.559  0.00  0.00     0.167 HD
ENDBRANCH  51  53
ENDBRANCH  50  51
ENDBRANCH  49  50
ENDBRANCH  24  49
BRANCH  21  55
ATOM     55  C   UNK d   0     -27.043  -8.154  12.357  0.00  0.00     0.151 C 
BRANCH  55  56
ATOM     56  C   UNK d   0     -25.667  -8.415  12.808  0.00  0.00     0.143 C 
ATOM     57  O   UNK d   0     -24.755  -7.570  12.716  0.00  0.00    -0.650 OA
BRANCH  56  58
ATOM     58  O   UNK d   0     -25.391  -9.665  13.359  0.00  0.00    -0.776 OA
ATOM     59  H   UNK d   0     -24.872 -10.311  12.737  0.00  0.00     0.167 HD
ENDBRANCH  56  58
ENDBRANCH  55  56
ENDBRANCH  21  55
BRANCH  18  60
ATOM     60  C   UNK d   0     -29.881  -4.778  15.416  0.00  0.00     0.151 C 
BRANCH  60  61
ATOM     61  C   UNK d   0     -31.242  -4.835  14.860  0.00  0.00     0.143 C 
ATOM     62  O   UNK d   0     -32.298  -4.905  15.489  0.00  0.00    -0.650 OA
BRANCH  61  63
ATOM     63  O   UNK d   0     -31.317  -4.803  13.447  0.00  0.00    -0.776 OA
ATOM     64  H   UNK d   0     -31.688  -5.581  12.930  0.00  0.00     0.167 HD
ENDBRANCH  61  63
ENDBRANCH  60  61
ENDBRANCH  18  60
BRANCH  14  65
ATOM     65  C   UNK d   0     -30.366  -1.808  15.805  0.00  0.00     0.052 C 
BRANCH  65  66
ATOM     66  C   UNK d   0     -31.424  -0.946  15.213  0.00  0.00     0.115 C 
BRANCH  66  67
ATOM     67  C   UNK d   0     -32.120  -1.381  14.035  0.00  0.00     0.139 C 
ATOM     68  O   UNK d   0     -31.842  -0.814  12.914  0.00  0.00    -0.650 OA
BRANCH  67  69
ATOM     69  O   UNK d   0     -33.094  -2.373  13.936  0.00  0.00    -0.776 OA
ATOM     70  H   UNK d   0     -33.843  -2.199  13.250  0.00  0.00     0.167 HD
ENDBRANCH  67  69
ENDBRANCH  66  67
ENDBRANCH  65  66
ENDBRANCH  14  65
ENDBRANCH   6   7
ENDBRANCH   5   6
ENDBRANCH   2   5
TORSDOF 28
ENDMDL
MODEL 3
REMARK VINA RESULT:      -7.7      2.557     10.348
REMARK  28 active torsions:
REMARK  status: ('A' for Active; 'I' for Inactive)
REMARK    1  A    between atoms: C_2  and  O_3 
REMARK    2  A    between atoms: C_2  and  C_4 
REMARK    3  A    between atoms: C_4  and  C_5 
REMARK    4  A    between atoms: C_5  and  C_6 
REMARK    5  A    between atoms: C_7  and  C_8 
REMARK    6  A    between atoms: C_8  and  C_9 
REMARK    7  A    between atoms: C_9  and  O_11 
REMARK    8  A    between atoms: C_28  and  C_29 
REMARK    9  A    between atoms: C_29  and  C_30 
REMARK   10  A    between atoms: C_30  and  O_32 
REMARK   11  A    between atoms: C_33  and  C_34 
REMARK   12  A    between atoms: C_34  and  C_35 
REMARK   13  A    between atoms: C_35  and  C_36 
REMARK   14  A    between atoms: C_36  and  O_38 
REMARK   15  A    between atoms: C_39  and  C_40 
REMARK   16  A    between atoms: C_40  and  C_41 
REMARK   17  A    between atoms: C_41  and  C_42 
REMARK   18  A    between atoms: C_42  and  O_44 
REMARK   19  A    between atoms: C_45  and  C_46 
REMARK   20  A    between atoms: C_46  and  C_47 
REMARK   21  A    between atoms: C_47  and  O_49 
REMARK   22  A    between atoms: C_50  and  C_51 
REMARK   23  A    between atoms: C_51  and  C_52 
REMARK   24  A    between atoms: C_52  and  O_54 
REMARK   25  A    between atoms: C_55  and  C_56 
REMARK   26  A    between atoms: C_56  and  C_57 
REMARK   27  A    between atoms: C_57  and  C_58 
REMARK   28  A    between atoms: C_58  and  O_60 
ROOT
ATOM      1  O   UNK d   0     -23.762  -4.032   2.369  0.00  0.00    -0.650 OA
ATOM      2  C   UNK d   0     -24.907  -3.528   2.343  0.00  0.00     0.139 C 
ENDROOT
BRANCH   2   3
ATOM      3  O   UNK d   0     -25.992  -4.333   2.095  0.00  0.00    -0.776 OA
ATOM      4  H   UNK d   0     -25.872  -5.304   1.799  0.00  0.00     0.167 HD
ENDBRANCH   2   3
BRANCH   2   5
ATOM      5  C   UNK d   0     -25.087  -2.067   2.578  0.00  0.00     0.115 C 
BRANCH   5   6
ATOM      6  C   UNK d   0     -26.522  -1.771   2.919  0.00  0.00     0.052 C 
BRANCH   6   7
ATOM      7  C   UNK d   0     -26.699  -1.325   4.351  0.00  0.00    -0.020 A 
ATOM      8  C   UNK d   0     -26.972  -0.121   4.784  0.00  0.00    -0.011 A 
ATOM      9  C   UNK d   0     -27.039  -0.175   6.235  0.00  0.00     0.067 A 
ATOM     10  C   UNK d   0     -27.304   0.734   7.271  0.00  0.00     0.062 C 
ATOM     11  N   UNK d   0     -26.787  -1.450   6.601  0.00  0.00    -0.248 NA
ATOM     12  C   UNK d   0     -27.598   0.435   8.606  0.00  0.00     0.041 A 
ATOM     13  N   UNK d   0     -27.056  -0.459   9.455  0.00  0.00    -0.355 N 
ATOM     14  C   UNK d   0     -28.668   1.100   9.232  0.00  0.00    -0.022 A 
ATOM     15  C   UNK d   0     -27.759  -0.383  10.601  0.00  0.00     0.042 A 
ATOM     16  H   UNK d   0     -26.181  -1.116   9.255  0.00  0.00     0.166 HD
ATOM     17  C   UNK d   0     -27.615  -1.093  11.809  0.00  0.00     0.062 C 
ATOM     18  C   UNK d   0     -28.779   0.583  10.499  0.00  0.00    -0.013 A 
ATOM     19  C   UNK d   0     -27.410  -2.436  12.002  0.00  0.00     0.067 A 
ATOM     20  N   UNK d   0     -27.108  -3.162  10.923  0.00  0.00    -0.248 NA
ATOM     21  C   UNK d   0     -27.448  -3.347  13.134  0.00  0.00    -0.011 A 
ATOM     22  C   UNK d   0     -26.948  -4.482  11.266  0.00  0.00     0.066 A 
ATOM     23  C   UNK d   0     -26.594  -5.348  10.242  0.00  0.00     0.062 C 
ATOM     24  C   UNK d   0     -27.181  -4.543  12.696  0.00  0.00    -0.020 A 
ATOM     25  C   UNK d   0     -26.290  -5.025   8.910  0.00  0.00     0.041 A 
ATOM     26  N   UNK d   0     -26.838  -4.148   8.062  0.00  0.00    -0.355 N 
ATOM     27  C   UNK d   0     -25.213  -5.690   8.284  0.00  0.00    -0.022 A 
ATOM     28  C   UNK d   0     -26.144  -4.227   6.915  0.00  0.00     0.042 A 
ATOM     29  H   UNK d   0     -27.724  -3.496   8.261  0.00  0.00     0.166 HD
ATOM     30  C   UNK d   0     -26.283  -3.534   5.703  0.00  0.00     0.062 C 
ATOM     31  C   UNK d   0     -25.113  -5.190   7.022  0.00  0.00    -0.013 A 
ATOM     32  C   UNK d   0     -26.575  -2.192   5.513  0.00  0.00     0.066 A 
BRANCH   8  33
ATOM     33  C   UNK d   0     -27.176   1.089   3.967  0.00  0.00     0.151 C 
BRANCH  33  34
ATOM     34  C   UNK d   0     -25.995   1.433   3.154  0.00  0.00     0.143 C 
ATOM     35  O   UNK d   0     -26.112   1.742   1.960  0.00  0.00    -0.650 OA
BRANCH  34  36
ATOM     36  O   UNK d   0     -24.747   1.409   3.732  0.00  0.00    -0.776 OA
ATOM     37  H   UNK d   0     -24.004   0.792   3.375  0.00  0.00     0.167 HD
ENDBRANCH  34  36
ENDBRANCH  33  34
ENDBRANCH   8  33
BRANCH  31  38
ATOM     38  C   UNK d   0     -24.094  -5.592   5.982  0.00  0.00     0.151 C 
BRANCH  38  39
ATOM     39  C   UNK d   0     -22.868  -4.827   6.071  0.00  0.00     0.143 C 
ATOM     40  O   UNK d   0     -22.845  -3.654   6.484  0.00  0.00    -0.650 OA
BRANCH  39  41
ATOM     41  O   UNK d   0     -21.663  -5.413   5.685  0.00  0.00    -0.776 OA
ATOM     42  H   UNK d   0     -21.600  -5.742   4.717  0.00  0.00     0.167 HD
ENDBRANCH  39  41
ENDBRANCH  38  39
ENDBRANCH  31  38
BRANCH  27  43
ATOM     43  C   UNK d   0     -24.299  -6.759   8.829  0.00  0.00     0.052 C 
BRANCH  43  44
ATOM     44  C   UNK d   0     -24.545  -8.107   8.234  0.00  0.00     0.115 C 
BRANCH  44  45
ATOM     45  C   UNK d   0     -25.774  -8.638   8.880  0.00  0.00     0.139 C 
ATOM     46  O   UNK d   0     -25.733  -8.892  10.109  0.00  0.00    -0.650 OA
BRANCH  45  47
ATOM     47  O   UNK d   0     -26.946  -8.856   8.190  0.00  0.00    -0.776 OA
ATOM     48  H   UNK d   0     -27.832  -9.109   8.656  0.00  0.00     0.167 HD
ENDBRANCH  45  47
ENDBRANCH  44  45
ENDBRANCH  43  44
ENDBRANCH  27  43
BRANCH  24  49
ATOM     49  C   UNK d   0     -27.077  -5.764  13.514  0.00  0.00     0.052 C 
BRANCH  49  50
ATOM     50  C   UNK d   0     -25.857  -6.557  13.120  0.00  0.00     0.115 C 
BRANCH  50  51
ATOM     51  C   UNK d   0     -25.983  -8.008  13.109  0.00  0.00     0.139 C 
ATOM     52  O   UNK d   0     -27.093  -8.591  13.110  0.00  0.00    -0.650 OA
BRANCH  51  53
ATOM     53  O   UNK d   0     -24.842  -8.796  13.099  0.00  0.00    -0.776 OA
ATOM     54  H   UNK d   0     -23.956  -8.347  12.944  0.00  0.00     0.167 HD
ENDBRANCH  51  53
ENDBRANCH  50  51
ENDBRANCH  49  50
ENDBRANCH  24  49
BRANCH  21  55
ATOM     55  C   UNK d   0     -27.742  -2.925  14.535  0.00  0.00     0.151 C 
BRANCH  55  56
ATOM     56  C   UNK d   0     -26.558  -2.365  15.203  0.00  0.00     0.143 C 
ATOM     57  O   UNK d   0     -25.662  -3.076  15.699  0.00  0.00    -0.650 OA
BRANCH  56  58
ATOM     58  O   UNK d   0     -26.449  -0.977  15.275  0.00  0.00    -0.776 OA
ATOM     59  H   UNK d   0     -26.557  -0.483  14.371  0.00  0.00     0.167 HD
ENDBRANCH  56  58
ENDBRANCH  55  56
ENDBRANCH  21  55
BRANCH  18  60
ATOM     60  C   UNK d   0     -29.807   1.006  11.519  0.00  0.00     0.151 C 
BRANCH  60  61
ATOM     61  C   UNK d   0     -30.679  -0.161  11.721  0.00  0.00     0.143 C 
ATOM     62  O   UNK d   0     -30.718  -0.897  12.707  0.00  0.00    -0.650 OA
BRANCH  61  63
ATOM     63  O   UNK d   0     -31.562  -0.445  10.651  0.00  0.00    -0.776 OA
ATOM     64  H   UNK d   0     -31.417  -0.048   9.740  0.00  0.00     0.167 HD
ENDBRANCH  61  63
ENDBRANCH  60  61
ENDBRANCH  18  60
BRANCH  14  65
ATOM     65  C   UNK d   0     -29.522   2.244   8.763  0.00  0.00     0.052 C 
BRANCH  65  66
ATOM     66  C   UNK d   0     -30.875   1.816   8.317  0.00  0.00     0.115 C 
BRANCH  66  67
ATOM     67  C   UNK d   0     -32.034   2.529   8.775  0.00  0.00     0.139 C 
ATOM     68  O   UNK d   0     -32.610   2.135   9.854  0.00  0.00    -0.650 OA
BRANCH  67  69
ATOM     69  O   UNK d   0     -32.644   3.635   8.183  0.00  0.00    -0.776 OA
ATOM     70  H   UNK d   0     -32.319   3.871   7.234  0.00  0.00     0.167 HD
ENDBRANCH  67  69
ENDBRANCH  66  67
ENDBRANCH  65  66
ENDBRANCH  14  65
ENDBRANCH   6   7
ENDBRANCH   5   6
ENDBRANCH   2   5
TORSDOF 28
ENDMDL
MODEL 4
REMARK VINA RESULT:      -7.7      3.006      9.768
REMARK  28 active torsions:
REMARK  status: ('A' for Active; 'I' for Inactive)
REMARK    1  A    between atoms: C_2  and  O_3 
REMARK    2  A    between atoms: C_2  and  C_4 
REMARK    3  A    between atoms: C_4  and  C_5 
REMARK    4  A    between atoms: C_5  and  C_6 
REMARK    5  A    between atoms: C_7  and  C_8 
REMARK    6  A    between atoms: C_8  and  C_9 
REMARK    7  A    between atoms: C_9  and  O_11 
REMARK    8  A    between atoms: C_28  and  C_29 
REMARK    9  A    between atoms: C_29  and  C_30 
REMARK   10  A    between atoms: C_30  and  O_32 
REMARK   11  A    between atoms: C_33  and  C_34 
REMARK   12  A    between atoms: C_34  and  C_35 
REMARK   13  A    between atoms: C_35  and  C_36 
REMARK   14  A    between atoms: C_36  and  O_38 
REMARK   15  A    between atoms: C_39  and  C_40 
REMARK   16  A    between atoms: C_40  and  C_41 
REMARK   17  A    between atoms: C_41  and  C_42 
REMARK   18  A    between atoms: C_42  and  O_44 
REMARK   19  A    between atoms: C_45  and  C_46 
REMARK   20  A    between atoms: C_46  and  C_47 
REMARK   21  A    between atoms: C_47  and  O_49 
REMARK   22  A    between atoms: C_50  and  C_51 
REMARK   23  A    between atoms: C_51  and  C_52 
REMARK   24  A    between atoms: C_52  and  O_54 
REMARK   25  A    between atoms: C_55  and  C_56 
REMARK   26  A    between atoms: C_56  and  C_57 
REMARK   27  A    between atoms: C_57  and  C_58 
REMARK   28  A    between atoms: C_58  and  O_60 
ROOT
ATOM      1  O   UNK d   0     -27.263  -7.923   9.309  0.00  0.00    -0.650 OA
ATOM      2  C   UNK d   0     -26.079  -8.320   9.389  0.00  0.00     0.139 C 
ENDROOT
BRANCH   2   3
ATOM      3  O   UNK d   0     -25.723  -9.175  10.403  0.00  0.00    -0.776 OA
ATOM      4  H   UNK d   0     -25.025  -8.906  11.100  0.00  0.00     0.167 HD
ENDBRANCH   2   3
BRANCH   2   5
ATOM      5  C   UNK d   0     -25.069  -7.865   8.392  0.00  0.00     0.115 C 
BRANCH   5   6
ATOM      6  C   UNK d   0     -24.128  -6.875   9.023  0.00  0.00     0.052 C 
BRANCH   6   7
ATOM      7  C   UNK d   0     -24.703  -5.480   9.076  0.00  0.00    -0.020 A 
ATOM      8  C   UNK d   0     -24.908  -4.663   8.075  0.00  0.00    -0.011 A 
ATOM      9  C   UNK d   0     -25.467  -3.433   8.611  0.00  0.00     0.067 A 
ATOM     10  C   UNK d   0     -25.915  -2.211   8.086  0.00  0.00     0.062 C 
ATOM     11  N   UNK d   0     -25.562  -3.586   9.949  0.00  0.00    -0.248 NA
ATOM     12  C   UNK d   0     -26.686  -1.241   8.737  0.00  0.00     0.041 A 
ATOM     13  N   UNK d   0     -26.613  -0.741   9.985  0.00  0.00    -0.355 N 
ATOM     14  C   UNK d   0     -27.782  -0.676   8.060  0.00  0.00    -0.022 A 
ATOM     15  C   UNK d   0     -27.639   0.120  10.120  0.00  0.00     0.042 A 
ATOM     16  H   UNK d   0     -25.840  -0.978  10.749  0.00  0.00     0.166 HD
ATOM     17  C   UNK d   0     -28.027   0.914  11.217  0.00  0.00     0.062 C 
ATOM     18  C   UNK d   0     -28.395   0.187   8.933  0.00  0.00    -0.013 A 
ATOM     19  C   UNK d   0     -28.118   0.570  12.542  0.00  0.00     0.067 A 
ATOM     20  N   UNK d   0     -27.592  -0.605  12.899  0.00  0.00    -0.248 NA
ATOM     21  C   UNK d   0     -28.682   1.168  13.740  0.00  0.00    -0.011 A 
ATOM     22  C   UNK d   0     -27.772  -0.819  14.243  0.00  0.00     0.066 A 
ATOM     23  C   UNK d   0     -27.238  -1.991  14.758  0.00  0.00     0.062 C 
ATOM     24  C   UNK d   0     -28.480   0.349  14.732  0.00  0.00    -0.020 A 
ATOM     25  C   UNK d   0     -26.456  -2.946  14.090  0.00  0.00     0.041 A 
ATOM     26  N   UNK d   0     -26.537  -3.453  12.855  0.00  0.00    -0.355 N 
ATOM     27  C   UNK d   0     -25.353  -3.509  14.769  0.00  0.00    -0.022 A 
ATOM     28  C   UNK d   0     -25.520  -4.319  12.721  0.00  0.00     0.042 A 
ATOM     29  H   UNK d   0     -27.321  -3.223  12.092  0.00  0.00     0.166 HD
ATOM     30  C   UNK d   0     -25.129  -5.123  11.638  0.00  0.00     0.062 C 
ATOM     31  C   UNK d   0     -24.755  -4.378  13.910  0.00  0.00    -0.013 A 
ATOM     32  C   UNK d   0     -25.119  -4.797  10.292  0.00  0.00     0.066 A 
BRANCH   8  33
ATOM     33  C   UNK d   0     -24.626  -4.920   6.650  0.00  0.00     0.151 C 
BRANCH  33  34
ATOM     34  C   UNK d   0     -23.264  -4.516   6.256  0.00  0.00     0.143 C 
ATOM     35  O   UNK d   0     -22.642  -5.140   5.386  0.00  0.00    -0.650 OA
BRANCH  34  36
ATOM     36  O   UNK d   0     -22.679  -3.431   6.867  0.00  0.00    -0.776 OA
ATOM     37  H   UNK d   0     -22.937  -3.152   7.823  0.00  0.00     0.167 HD
ENDBRANCH  34  36
ENDBRANCH  33  34
ENDBRANCH   8  33
BRANCH  31  38
ATOM     38  C   UNK d   0     -23.524  -5.207  14.193  0.00  0.00     0.151 C 
BRANCH  38  39
ATOM     39  C   UNK d   0     -22.298  -4.543  13.803  0.00  0.00     0.143 C 
ATOM     40  O   UNK d   0     -21.755  -3.679  14.514  0.00  0.00    -0.650 OA
BRANCH  39  41
ATOM     41  O   UNK d   0     -21.694  -4.873  12.591  0.00  0.00    -0.776 OA
ATOM     42  H   UNK d   0     -21.367  -4.095  12.011  0.00  0.00     0.167 HD
ENDBRANCH  39  41
ENDBRANCH  38  39
ENDBRANCH  31  38
BRANCH  27  43
ATOM     43  C   UNK d   0     -24.861  -3.257  16.173  0.00  0.00     0.052 C 
BRANCH  43  44
ATOM     44  C   UNK d   0     -24.401  -1.853  16.394  0.00  0.00     0.115 C 
BRANCH  44  45
ATOM     45  C   UNK d   0     -24.799  -1.489  17.779  0.00  0.00     0.139 C 
ATOM     46  O   UNK d   0     -25.703  -2.163  18.331  0.00  0.00    -0.650 OA
BRANCH  45  47
ATOM     47  O   UNK d   0     -24.215  -0.454  18.477  0.00  0.00    -0.776 OA
ATOM     48  H   UNK d   0     -24.040   0.475  18.059  0.00  0.00     0.167 HD
ENDBRANCH  45  47
ENDBRANCH  44  45
ENDBRANCH  43  44
ENDBRANCH  27  43
BRANCH  24  49
ATOM     49  C   UNK d   0     -28.856   0.577  16.138  0.00  0.00     0.052 C 
BRANCH  49  50
ATOM     50  C   UNK d   0     -27.625   0.651  17.004  0.00  0.00     0.115 C 
BRANCH  50  51
ATOM     51  C   UNK d   0     -26.926   1.928  17.059  0.00  0.00     0.139 C 
ATOM     52  O   UNK d   0     -27.499   3.023  16.848  0.00  0.00    -0.650 OA
BRANCH  51  53
ATOM     53  O   UNK d   0     -25.571   1.956  17.351  0.00  0.00    -0.776 OA
ATOM     54  H   UNK d   0     -25.187   1.207  17.899  0.00  0.00     0.167 HD
ENDBRANCH  51  53
ENDBRANCH  50  51
ENDBRANCH  49  50
ENDBRANCH  24  49
BRANCH  21  55
ATOM     55  C   UNK d   0     -29.359   2.498  13.771  0.00  0.00     0.151 C 
BRANCH  55  56
ATOM     56  C   UNK d   0     -30.524   2.544  12.874  0.00  0.00     0.143 C 
ATOM     57  O   UNK d   0     -30.716   3.471  12.063  0.00  0.00    -0.650 OA
BRANCH  56  58
ATOM     58  O   UNK d   0     -31.442   1.497  12.949  0.00  0.00    -0.776 OA
ATOM     59  H   UNK d   0     -31.401   0.824  12.162  0.00  0.00     0.167 HD
ENDBRANCH  56  58
ENDBRANCH  55  56
ENDBRANCH  21  55
BRANCH  18  60
ATOM     60  C   UNK d   0     -29.624   1.005   8.622  0.00  0.00     0.151 C 
BRANCH  60  61
ATOM     61  C   UNK d   0     -30.747   0.309   9.267  0.00  0.00     0.143 C 
ATOM     62  O   UNK d   0     -31.639   0.813   9.950  0.00  0.00    -0.650 OA
BRANCH  61  63
ATOM     63  O   UNK d   0     -30.783  -1.092   9.066  0.00  0.00    -0.776 OA
ATOM     64  H   UNK d   0     -31.146  -1.708   9.772  0.00  0.00     0.167 HD
ENDBRANCH  61  63
ENDBRANCH  60  61
ENDBRANCH  18  60
BRANCH  14  65
ATOM     65  C   UNK d   0     -28.231  -0.815   6.633  0.00  0.00     0.052 C 
BRANCH  65  66
ATOM     66  C   UNK d   0     -27.587   0.169   5.722  0.00  0.00     0.115 C 
BRANCH  66  67
ATOM     67  C   UNK d   0     -26.346  -0.162   5.080  0.00  0.00     0.139 C 
ATOM     68  O   UNK d   0     -26.182  -1.359   4.640  0.00  0.00    -0.650 OA
BRANCH  67  69
ATOM     69  O   UNK d   0     -25.250   0.672   4.860  0.00  0.00    -0.776 OA
ATOM     70  H   UNK d   0     -25.464   1.596   4.457  0.00  0.00     0.167 HD
ENDBRANCH  67  69
ENDBRANCH  66  67
ENDBRANCH  65  66
ENDBRANCH  14  65
ENDBRANCH   6   7
ENDBRANCH   5   6
ENDBRANCH   2   5
TORSDOF 28
ENDMDL
MODEL 5
REMARK VINA RESULT:      -7.5      1.607      2.250
REMARK  28 active torsions:
REMARK  status: ('A' for Active; 'I' for Inactive)
REMARK    1  A    between atoms: C_2  and  O_3 
REMARK    2  A    between atoms: C_2  and  C_4 
REMARK    3  A    between atoms: C_4  and  C_5 
REMARK    4  A    between atoms: C_5  and  C_6 
REMARK    5  A    between atoms: C_7  and  C_8 
REMARK    6  A    between atoms: C_8  and  C_9 
REMARK    7  A    between atoms: C_9  and  O_11 
REMARK    8  A    between atoms: C_28  and  C_29 
REMARK    9  A    between atoms: C_29  and  C_30 
REMARK   10  A    between atoms: C_30  and  O_32 
REMARK   11  A    between atoms: C_33  and  C_34 
REMARK   12  A    between atoms: C_34  and  C_35 
REMARK   13  A    between atoms: C_35  and  C_36 
REMARK   14  A    between atoms: C_36  and  O_38 
REMARK   15  A    between atoms: C_39  and  C_40 
REMARK   16  A    between atoms: C_40  and  C_41 
REMARK   17  A    between atoms: C_41  and  C_42 
REMARK   18  A    between atoms: C_42  and  O_44 
REMARK   19  A    between atoms: C_45  and  C_46 
REMARK   20  A    between atoms: C_46  and  C_47 
REMARK   21  A    between atoms: C_47  and  O_49 
REMARK   22  A    between atoms: C_50  and  C_51 
REMARK   23  A    between atoms: C_51  and  C_52 
REMARK   24  A    between atoms: C_52  and  O_54 
REMARK   25  A    between atoms: C_55  and  C_56 
REMARK   26  A    between atoms: C_56  and  C_57 
REMARK   27  A    between atoms: C_57  and  C_58 
REMARK   28  A    between atoms: C_58  and  O_60 
ROOT
ATOM      1  O   UNK d   0     -32.496  -1.295  16.476  0.00  0.00    -0.650 OA
ATOM      2  C   UNK d   0     -32.173  -1.228  15.269  0.00  0.00     0.139 C 
ENDROOT
BRANCH   2   3
ATOM      3  O   UNK d   0     -31.152  -0.390  14.890  0.00  0.00    -0.776 OA
ATOM      4  H   UNK d   0     -31.159   0.600  15.145  0.00  0.00     0.167 HD
ENDBRANCH   2   3
BRANCH   2   5
ATOM      5  C   UNK d   0     -32.893  -2.050  14.255  0.00  0.00     0.115 C 
BRANCH   5   6
ATOM      6  C   UNK d   0     -32.394  -3.469  14.291  0.00  0.00     0.052 C 
BRANCH   6   7
ATOM      7  C   UNK d   0     -30.961  -3.593  13.834  0.00  0.00    -0.020 A 
ATOM      8  C   UNK d   0     -29.957  -4.120  14.488  0.00  0.00    -0.011 A 
ATOM      9  C   UNK d   0     -28.773  -4.005  13.653  0.00  0.00     0.067 A 
ATOM     10  C   UNK d   0     -27.424  -4.380  13.753  0.00  0.00     0.062 C 
ATOM     11  N   UNK d   0     -29.146  -3.391  12.511  0.00  0.00    -0.248 NA
ATOM     12  C   UNK d   0     -26.481  -4.434  12.720  0.00  0.00     0.041 A 
ATOM     13  N   UNK d   0     -26.228  -3.585  11.705  0.00  0.00    -0.355 N 
ATOM     14  C   UNK d   0     -25.647  -5.562  12.618  0.00  0.00    -0.022 A 
ATOM     15  C   UNK d   0     -25.261  -4.150  10.958  0.00  0.00     0.042 A 
ATOM     16  H   UNK d   0     -26.710  -2.598  11.532  0.00  0.00     0.166 HD
ATOM     17  C   UNK d   0     -24.626  -3.691   9.787  0.00  0.00     0.062 C 
ATOM     18  C   UNK d   0     -24.871  -5.391  11.499  0.00  0.00    -0.013 A 
ATOM     19  C   UNK d   0     -25.183  -3.123   8.670  0.00  0.00     0.067 A 
ATOM     20  N   UNK d   0     -26.467  -2.767   8.749  0.00  0.00    -0.248 NA
ATOM     21  C   UNK d   0     -24.730  -2.795   7.328  0.00  0.00    -0.011 A 
ATOM     22  C   UNK d   0     -26.888  -2.231   7.556  0.00  0.00     0.066 A 
ATOM     23  C   UNK d   0     -28.199  -1.782   7.511  0.00  0.00     0.062 C 
ATOM     24  C   UNK d   0     -25.733  -2.277   6.680  0.00  0.00    -0.020 A 
ATOM     25  C   UNK d   0     -29.126  -1.724   8.563  0.00  0.00     0.041 A 
ATOM     26  N   UNK d   0     -29.388  -2.574   9.563  0.00  0.00    -0.355 N 
ATOM     27  C   UNK d   0     -29.960  -0.589   8.667  0.00  0.00    -0.022 A 
ATOM     28  C   UNK d   0     -30.358  -2.018  10.304  0.00  0.00     0.042 A 
ATOM     29  H   UNK d   0     -28.910  -3.571   9.730  0.00  0.00     0.166 HD
ATOM     30  C   UNK d   0     -31.006  -2.468  11.466  0.00  0.00     0.062 C 
ATOM     31  C   UNK d   0     -30.742  -0.766   9.766  0.00  0.00    -0.013 A 
ATOM     32  C   UNK d   0     -30.450  -3.118  12.557  0.00  0.00     0.066 A 
BRANCH   8  33
ATOM     33  C   UNK d   0     -29.996  -4.721  15.834  0.00  0.00     0.151 C 
BRANCH  33  34
ATOM     34  C   UNK d   0     -30.110  -3.716  16.905  0.00  0.00     0.143 C 
ATOM     35  O   UNK d   0     -29.279  -2.803  17.012  0.00  0.00    -0.650 OA
BRANCH  34  36
ATOM     36  O   UNK d   0     -31.154  -3.796  17.798  0.00  0.00    -0.776 OA
ATOM     37  H   UNK d   0     -31.518  -2.957  18.271  0.00  0.00     0.167 HD
ENDBRANCH  34  36
ENDBRANCH  33  34
ENDBRANCH   8  33
BRANCH  31  38
ATOM     38  C   UNK d   0     -31.783   0.199  10.284  0.00  0.00     0.151 C 
BRANCH  38  39
ATOM     39  C   UNK d   0     -31.466   0.713  11.600  0.00  0.00     0.143 C 
ATOM     40  O   UNK d   0     -30.299   0.954  11.957  0.00  0.00    -0.650 OA
BRANCH  39  41
ATOM     41  O   UNK d   0     -32.496   0.952  12.510  0.00  0.00    -0.776 OA
ATOM     42  H   UNK d   0     -33.140   0.176  12.691  0.00  0.00     0.167 HD
ENDBRANCH  39  41
ENDBRANCH  38  39
ENDBRANCH  31  38
BRANCH  27  43
ATOM     43  C   UNK d   0     -30.038   0.627   7.778  0.00  0.00     0.052 C 
BRANCH  43  44
ATOM     44  C   UNK d   0     -28.727   1.325   7.614  0.00  0.00     0.115 C 
BRANCH  44  45
ATOM     45  C   UNK d   0     -28.715   2.439   8.598  0.00  0.00     0.139 C 
ATOM     46  O   UNK d   0     -27.699   3.176   8.644  0.00  0.00    -0.650 OA
BRANCH  45  47
ATOM     47  O   UNK d   0     -29.767   2.696   9.449  0.00  0.00    -0.776 OA
ATOM     48  H   UNK d   0     -30.700   2.988   9.115  0.00  0.00     0.167 HD
ENDBRANCH  45  47
ENDBRANCH  44  45
ENDBRANCH  43  44
ENDBRANCH  27  43
BRANCH  24  49
ATOM     49  C   UNK d   0     -25.705  -1.768   5.299  0.00  0.00     0.052 C 
BRANCH  49  50
ATOM     50  C   UNK d   0     -25.411  -0.290   5.290  0.00  0.00     0.115 C 
BRANCH  50  51
ATOM     51  C   UNK d   0     -25.594   0.417   4.030  0.00  0.00     0.139 C 
ATOM     52  O   UNK d   0     -24.636   0.729   3.284  0.00  0.00    -0.650 OA
BRANCH  51  53
ATOM     53  O   UNK d   0     -26.871   0.772   3.621  0.00  0.00    -0.776 OA
ATOM     54  H   UNK d   0     -26.963   1.428   2.866  0.00  0.00     0.167 HD
ENDBRANCH  51  53
ENDBRANCH  50  51
ENDBRANCH  49  50
ENDBRANCH  24  49
BRANCH  21  55
ATOM     55  C   UNK d   0     -23.340  -3.029   6.835  0.00  0.00     0.151 C 
BRANCH  55  56
ATOM     56  C   UNK d   0     -23.140  -4.417   6.390  0.00  0.00     0.143 C 
ATOM     57  O   UNK d   0     -23.315  -4.780   5.211  0.00  0.00    -0.650 OA
BRANCH  56  58
ATOM     58  O   UNK d   0     -22.736  -5.352   7.342  0.00  0.00    -0.776 OA
ATOM     59  H   UNK d   0     -21.998  -6.006   7.026  0.00  0.00     0.167 HD
ENDBRANCH  56  58
ENDBRANCH  55  56
ENDBRANCH  21  55
BRANCH  18  60
ATOM     60  C   UNK d   0     -23.836  -6.371  11.006  0.00  0.00     0.151 C 
BRANCH  60  61
ATOM     61  C   UNK d   0     -22.550  -5.660  11.055  0.00  0.00     0.143 C 
ATOM     62  O   UNK d   0     -21.736  -5.534  10.140  0.00  0.00    -0.650 OA
BRANCH  61  63
ATOM     63  O   UNK d   0     -22.239  -5.063  12.301  0.00  0.00    -0.776 OA
ATOM     64  H   UNK d   0     -21.394  -5.297  12.791  0.00  0.00     0.167 HD
ENDBRANCH  61  63
ENDBRANCH  60  61
ENDBRANCH  18  60
BRANCH  14  65
ATOM     65  C   UNK d   0     -25.461  -6.731  13.544  0.00  0.00     0.052 C 
BRANCH  65  66
ATOM     66  C   UNK d   0     -25.081  -7.981  12.833  0.00  0.00     0.115 C 
BRANCH  66  67
ATOM     67  C   UNK d   0     -26.071  -8.702  12.083  0.00  0.00     0.139 C 
ATOM     68  O   UNK d   0     -27.257  -8.800  12.568  0.00  0.00    -0.650 OA
BRANCH  67  69
ATOM     69  O   UNK d   0     -25.913  -9.338  10.852  0.00  0.00    -0.776 OA
ATOM     70  H   UNK d   0     -26.762  -9.411  10.274  0.00  0.00     0.167 HD
ENDBRANCH  67  69
ENDBRANCH  66  67
ENDBRANCH  65  66
ENDBRANCH  14  65
ENDBRANCH   6   7
ENDBRANCH   5   6
ENDBRANCH   2   5
TORSDOF 28
ENDMDL
MODEL 6
REMARK VINA RESULT:      -7.5     32.865     38.067
REMARK  28 active torsions:
REMARK  status: ('A' for Active; 'I' for Inactive)
REMARK    1  A    between atoms: C_2  and  O_3 
REMARK    2  A    between atoms: C_2  and  C_4 
REMARK    3  A    between atoms: C_4  and  C_5 
REMARK    4  A    between atoms: C_5  and  C_6 
REMARK    5  A    between atoms: C_7  and  C_8 
REMARK    6  A    between atoms: C_8  and  C_9 
REMARK    7  A    between atoms: C_9  and  O_11 
REMARK    8  A    between atoms: C_28  and  C_29 
REMARK    9  A    between atoms: C_29  and  C_30 
REMARK   10  A    between atoms: C_30  and  O_32 
REMARK   11  A    between atoms: C_33  and  C_34 
REMARK   12  A    between atoms: C_34  and  C_35 
REMARK   13  A    between atoms: C_35  and  C_36 
REMARK   14  A    between atoms: C_36  and  O_38 
REMARK   15  A    between atoms: C_39  and  C_40 
REMARK   16  A    between atoms: C_40  and  C_41 
REMARK   17  A    between atoms: C_41  and  C_42 
REMARK   18  A    between atoms: C_42  and  O_44 
REMARK   19  A    between atoms: C_45  and  C_46 
REMARK   20  A    between atoms: C_46  and  C_47 
REMARK   21  A    between atoms: C_47  and  O_49 
REMARK   22  A    between atoms: C_50  and  C_51 
REMARK   23  A    between atoms: C_51  and  C_52 
REMARK   24  A    between atoms: C_52  and  O_54 
REMARK   25  A    between atoms: C_55  and  C_56 
REMARK   26  A    between atoms: C_56  and  C_57 
REMARK   27  A    between atoms: C_57  and  C_58 
REMARK   28  A    between atoms: C_58  and  O_60 
ROOT
ATOM      1  O   UNK d   0      10.737  10.342   1.110  0.00  0.00    -0.650 OA
ATOM      2  C   UNK d   0      11.020   9.147   0.871  0.00  0.00     0.139 C 
ENDROOT
BRANCH   2   3
ATOM      3  O   UNK d   0      12.262   8.837   0.371  0.00  0.00    -0.776 OA
ATOM      4  H   UNK d   0      12.441   7.933  -0.073  0.00  0.00     0.167 HD
ENDBRANCH   2   3
BRANCH   2   5
ATOM      5  C   UNK d   0      10.017   8.074   1.126  0.00  0.00     0.115 C 
BRANCH   5   6
ATOM      6  C   UNK d   0      10.652   6.721   0.953  0.00  0.00     0.052 C 
BRANCH   6   7
ATOM      7  C   UNK d   0      10.611   5.894   2.216  0.00  0.00    -0.020 A 
ATOM      8  C   UNK d   0      11.512   5.839   3.164  0.00  0.00    -0.011 A 
ATOM      9  C   UNK d   0      11.042   4.903   4.171  0.00  0.00     0.067 A 
ATOM     10  C   UNK d   0      11.509   4.424   5.405  0.00  0.00     0.062 C 
ATOM     11  N   UNK d   0       9.849   4.430   3.753  0.00  0.00    -0.248 NA
ATOM     12  C   UNK d   0      10.779   3.726   6.374  0.00  0.00     0.041 A 
ATOM     13  N   UNK d   0       9.886   2.725   6.260  0.00  0.00    -0.355 N 
ATOM     14  C   UNK d   0      10.899   4.109   7.722  0.00  0.00    -0.022 A 
ATOM     15  C   UNK d   0       9.431   2.467   7.501  0.00  0.00     0.042 A 
ATOM     16  H   UNK d   0       9.598   2.197   5.325  0.00  0.00     0.166 HD
ATOM     17  C   UNK d   0       8.490   1.519   7.950  0.00  0.00     0.062 C 
ATOM     18  C   UNK d   0      10.043   3.315   8.444  0.00  0.00    -0.013 A 
ATOM     19  C   UNK d   0       7.269   1.197   7.416  0.00  0.00     0.067 A 
ATOM     20  N   UNK d   0       6.991   1.684   6.204  0.00  0.00    -0.248 NA
ATOM     21  C   UNK d   0       6.111   0.429   7.843  0.00  0.00    -0.011 A 
ATOM     22  C   UNK d   0       5.736   1.292   5.808  0.00  0.00     0.066 A 
ATOM     23  C   UNK d   0       5.332   1.699   4.545  0.00  0.00     0.062 C 
ATOM     24  C   UNK d   0       5.216   0.492   6.900  0.00  0.00    -0.020 A 
ATOM     25  C   UNK d   0       6.085   2.388   3.582  0.00  0.00     0.041 A 
ATOM     26  N   UNK d   0       6.961   3.394   3.693  0.00  0.00    -0.355 N 
ATOM     27  C   UNK d   0       5.967   2.001   2.229  0.00  0.00    -0.022 A 
ATOM     28  C   UNK d   0       7.410   3.659   2.456  0.00  0.00     0.042 A 
ATOM     29  H   UNK d   0       7.242   3.930   4.632  0.00  0.00     0.166 HD
ATOM     30  C   UNK d   0       8.339   4.604   1.994  0.00  0.00     0.062 C 
ATOM     31  C   UNK d   0       6.802   2.799   1.510  0.00  0.00    -0.013 A 
ATOM     32  C   UNK d   0       9.533   4.988   2.583  0.00  0.00     0.066 A 
BRANCH   8  33
ATOM     33  C   UNK d   0      12.785   6.581   3.218  0.00  0.00     0.151 C 
BRANCH  33  34
ATOM     34  C   UNK d   0      13.938   5.767   2.792  0.00  0.00     0.143 C 
ATOM     35  O   UNK d   0      14.243   5.673   1.594  0.00  0.00    -0.650 OA
BRANCH  34  36
ATOM     36  O   UNK d   0      14.682   5.102   3.739  0.00  0.00    -0.776 OA
ATOM     37  H   UNK d   0      14.255   4.759   4.610  0.00  0.00     0.167 HD
ENDBRANCH  34  36
ENDBRANCH  33  34
ENDBRANCH   8  33
BRANCH  31  38
ATOM     38  C   UNK d   0       7.023   2.742   0.016  0.00  0.00     0.151 C 
BRANCH  38  39
ATOM     39  C   UNK d   0       8.177   1.950  -0.352  0.00  0.00     0.143 C 
ATOM     40  O   UNK d   0       9.162   2.439  -0.933  0.00  0.00    -0.650 OA
BRANCH  39  41
ATOM     41  O   UNK d   0       8.200   0.589  -0.048  0.00  0.00    -0.776 OA
ATOM     42  H   UNK d   0       7.299   0.145   0.151  0.00  0.00     0.167 HD
ENDBRANCH  39  41
ENDBRANCH  38  39
ENDBRANCH  31  38
BRANCH  27  43
ATOM     43  C   UNK d   0       5.107   0.927   1.611  0.00  0.00     0.052 C 
BRANCH  43  44
ATOM     44  C   UNK d   0       3.781   1.429   1.142  0.00  0.00     0.115 C 
BRANCH  44  45
ATOM     45  C   UNK d   0       2.794   1.069   2.193  0.00  0.00     0.139 C 
ATOM     46  O   UNK d   0       1.914   1.913   2.493  0.00  0.00    -0.650 OA
BRANCH  45  47
ATOM     47  O   UNK d   0       2.804  -0.147   2.843  0.00  0.00    -0.776 OA
ATOM     48  H   UNK d   0       1.941  -0.662   3.080  0.00  0.00     0.167 HD
ENDBRANCH  45  47
ENDBRANCH  44  45
ENDBRANCH  43  44
ENDBRANCH  27  43
BRANCH  24  49
ATOM     49  C   UNK d   0       3.904  -0.177   6.902  0.00  0.00     0.052 C 
BRANCH  49  50
ATOM     50  C   UNK d   0       2.803   0.829   7.123  0.00  0.00     0.115 C 
BRANCH  50  51
ATOM     51  C   UNK d   0       1.956   1.149   5.982  0.00  0.00     0.139 C 
ATOM     52  O   UNK d   0       1.190   0.309   5.452  0.00  0.00    -0.650 OA
BRANCH  51  53
ATOM     53  O   UNK d   0       1.984   2.426   5.443  0.00  0.00    -0.776 OA
ATOM     54  H   UNK d   0       1.823   2.529   4.456  0.00  0.00     0.167 HD
ENDBRANCH  51  53
ENDBRANCH  50  51
ENDBRANCH  49  50
ENDBRANCH  24  49
BRANCH  21  55
ATOM     55  C   UNK d   0       6.022  -0.291   9.148  0.00  0.00     0.151 C 
BRANCH  55  56
ATOM     56  C   UNK d   0       6.761  -1.563   9.127  0.00  0.00     0.143 C 
ATOM     57  O   UNK d   0       6.364  -2.564   8.498  0.00  0.00    -0.650 OA
BRANCH  56  58
ATOM     58  O   UNK d   0       7.953  -1.633   9.847  0.00  0.00    -0.776 OA
ATOM     59  H   UNK d   0       8.810  -1.473   9.287  0.00  0.00     0.167 HD
ENDBRANCH  56  58
ENDBRANCH  55  56
ENDBRANCH  21  55
BRANCH  18  60
ATOM     60  C   UNK d   0       9.846   3.392   9.938  0.00  0.00     0.151 C 
BRANCH  60  61
ATOM     61  C   UNK d   0       8.920   4.512  10.166  0.00  0.00     0.143 C 
ATOM     62  O   UNK d   0       9.103   5.491  10.889  0.00  0.00    -0.650 OA
BRANCH  61  63
ATOM     63  O   UNK d   0       7.692   4.430   9.466  0.00  0.00    -0.776 OA
ATOM     64  H   UNK d   0       6.846   4.154   9.933  0.00  0.00     0.167 HD
ENDBRANCH  61  63
ENDBRANCH  60  61
ENDBRANCH  18  60
BRANCH  14  65
ATOM     65  C   UNK d   0      11.825   5.089   8.385  0.00  0.00     0.052 C 
BRANCH  65  66
ATOM     66  C   UNK d   0      11.304   6.483   8.368  0.00  0.00     0.115 C 
BRANCH  66  67
ATOM     67  C   UNK d   0      11.491   7.326   9.515  0.00  0.00     0.139 C 
ATOM     68  O   UNK d   0      11.171   8.568   9.422  0.00  0.00    -0.650 OA
BRANCH  67  69
ATOM     69  O   UNK d   0      11.994   6.967  10.765  0.00  0.00    -0.776 OA
ATOM     70  H   UNK d   0      12.969   7.240  10.951  0.00  0.00     0.167 HD
ENDBRANCH  67  69
ENDBRANCH  66  67
ENDBRANCH  65  66
ENDBRANCH  14  65
ENDBRANCH   6   7
ENDBRANCH   5   6
ENDBRANCH   2   5
TORSDOF 28
ENDMDL
MODEL 7
REMARK VINA RESULT:      -7.4      2.023      2.453
REMARK  28 active torsions:
REMARK  status: ('A' for Active; 'I' for Inactive)
REMARK    1  A    between atoms: C_2  and  O_3 
REMARK    2  A    between atoms: C_2  and  C_4 
REMARK    3  A    between atoms: C_4  and  C_5 
REMARK    4  A    between atoms: C_5  and  C_6 
REMARK    5  A    between atoms: C_7  and  C_8 
REMARK    6  A    between atoms: C_8  and  C_9 
REMARK    7  A    between atoms: C_9  and  O_11 
REMARK    8  A    between atoms: C_28  and  C_29 
REMARK    9  A    between atoms: C_29  and  C_30 
REMARK   10  A    between atoms: C_30  and  O_32 
REMARK   11  A    between atoms: C_33  and  C_34 
REMARK   12  A    between atoms: C_34  and  C_35 
REMARK   13  A    between atoms: C_35  and  C_36 
REMARK   14  A    between atoms: C_36  and  O_38 
REMARK   15  A    between atoms: C_39  and  C_40 
REMARK   16  A    between atoms: C_40  and  C_41 
REMARK   17  A    between atoms: C_41  and  C_42 
REMARK   18  A    between atoms: C_42  and  O_44 
REMARK   19  A    between atoms: C_45  and  C_46 
REMARK   20  A    between atoms: C_46  and  C_47 
REMARK   21  A    between atoms: C_47  and  O_49 
REMARK   22  A    between atoms: C_50  and  C_51 
REMARK   23  A    between atoms: C_51  and  C_52 
REMARK   24  A    between atoms: C_52  and  O_54 
REMARK   25  A    between atoms: C_55  and  C_56 
REMARK   26  A    between atoms: C_56  and  C_57 
REMARK   27  A    between atoms: C_57  and  C_58 
REMARK   28  A    between atoms: C_58  and  O_60 
ROOT
ATOM      1  O   UNK d   0     -32.545  -2.457  16.737  0.00  0.00    -0.650 OA
ATOM      2  C   UNK d   0     -31.937  -1.777  15.880  0.00  0.00     0.139 C 
ENDROOT
BRANCH   2   3
ATOM      3  O   UNK d   0     -30.663  -1.337  16.148  0.00  0.00    -0.776 OA
ATOM      4  H   UNK d   0     -30.298  -1.329  17.103  0.00  0.00     0.167 HD
ENDBRANCH   2   3
BRANCH   2   5
ATOM      5  C   UNK d   0     -32.593  -1.451  14.582  0.00  0.00     0.115 C 
BRANCH   5   6
ATOM      6  C   UNK d   0     -32.774  -2.700  13.764  0.00  0.00     0.052 C 
BRANCH   6   7
ATOM      7  C   UNK d   0     -31.518  -3.099  13.027  0.00  0.00    -0.020 A 
ATOM      8  C   UNK d   0     -30.733  -4.116  13.279  0.00  0.00    -0.011 A 
ATOM      9  C   UNK d   0     -29.648  -4.091  12.313  0.00  0.00     0.067 A 
ATOM     10  C   UNK d   0     -28.524  -4.883  12.031  0.00  0.00     0.062 C 
ATOM     11  N   UNK d   0     -29.847  -3.021  11.515  0.00  0.00    -0.248 NA
ATOM     12  C   UNK d   0     -27.737  -4.857  10.875  0.00  0.00     0.041 A 
ATOM     13  N   UNK d   0     -27.261  -3.827  10.150  0.00  0.00    -0.355 N 
ATOM     14  C   UNK d   0     -27.380  -6.074  10.267  0.00  0.00    -0.022 A 
ATOM     15  C   UNK d   0     -26.618  -4.359   9.093  0.00  0.00     0.042 A 
ATOM     16  H   UNK d   0     -27.360  -2.746  10.391  0.00  0.00     0.166 HD
ATOM     17  C   UNK d   0     -25.938  -3.735   8.028  0.00  0.00     0.062 C 
ATOM     18  C   UNK d   0     -26.672  -5.766   9.132  0.00  0.00    -0.013 A 
ATOM     19  C   UNK d   0     -26.324  -2.656   7.273  0.00  0.00     0.067 A 
ATOM     20  N   UNK d   0     -27.382  -1.964   7.704  0.00  0.00    -0.248 NA
ATOM     21  C   UNK d   0     -25.873  -2.028   6.043  0.00  0.00    -0.011 A 
ATOM     22  C   UNK d   0     -27.657  -0.930   6.843  0.00  0.00     0.066 A 
ATOM     23  C   UNK d   0     -28.715  -0.103   7.191  0.00  0.00     0.062 C 
ATOM     24  C   UNK d   0     -26.660  -1.021   5.795  0.00  0.00    -0.020 A 
ATOM     25  C   UNK d   0     -29.485  -0.138   8.364  0.00  0.00     0.041 A 
ATOM     26  N   UNK d   0     -29.971  -1.162   9.076  0.00  0.00    -0.355 N 
ATOM     27  C   UNK d   0     -29.839   1.084   8.976  0.00  0.00    -0.022 A 
ATOM     28  C   UNK d   0     -30.620  -0.634  10.126  0.00  0.00     0.042 A 
ATOM     29  H   UNK d   0     -29.879  -2.248   8.827  0.00  0.00     0.166 HD
ATOM     30  C   UNK d   0     -31.308  -1.242  11.187  0.00  0.00     0.062 C 
ATOM     31  C   UNK d   0     -30.556   0.780  10.092  0.00  0.00    -0.013 A 
ATOM     32  C   UNK d   0     -30.956  -2.383  11.892  0.00  0.00     0.066 A 
BRANCH   8  33
ATOM     33  C   UNK d   0     -30.899  -5.118  14.348  0.00  0.00     0.151 C 
BRANCH  33  34
ATOM     34  C   UNK d   0     -29.871  -5.007  15.398  0.00  0.00     0.143 C 
ATOM     35  O   UNK d   0     -28.740  -5.486  15.235  0.00  0.00    -0.650 OA
BRANCH  34  36
ATOM     36  O   UNK d   0     -30.174  -4.362  16.575  0.00  0.00    -0.776 OA
ATOM     37  H   UNK d   0     -29.439  -4.099  17.245  0.00  0.00     0.167 HD
ENDBRANCH  34  36
ENDBRANCH  33  34
ENDBRANCH   8  33
BRANCH  31  38
ATOM     38  C   UNK d   0     -31.137   1.769  11.076  0.00  0.00     0.151 C 
BRANCH  38  39
ATOM     39  C   UNK d   0     -32.419   2.293  10.655  0.00  0.00     0.143 C 
ATOM     40  O   UNK d   0     -32.550   3.442  10.197  0.00  0.00    -0.650 OA
BRANCH  39  41
ATOM     41  O   UNK d   0     -33.555   1.492  10.759  0.00  0.00    -0.776 OA
ATOM     42  H   UNK d   0     -34.458   1.950  10.600  0.00  0.00     0.167 HD
ENDBRANCH  39  41
ENDBRANCH  38  39
ENDBRANCH  31  38
BRANCH  27  43
ATOM     43  C   UNK d   0     -29.528   2.496   8.547  0.00  0.00     0.052 C 
BRANCH  43  44
ATOM     44  C   UNK d   0     -28.255   3.023   9.126  0.00  0.00     0.115 C 
BRANCH  44  45
ATOM     45  C   UNK d   0     -28.579   4.337   9.739  0.00  0.00     0.139 C 
ATOM     46  O   UNK d   0     -27.663   5.192   9.826  0.00  0.00    -0.650 OA
BRANCH  45  47
ATOM     47  O   UNK d   0     -29.836   4.653  10.207  0.00  0.00    -0.776 OA
ATOM     48  H   UNK d   0     -30.049   5.544  10.686  0.00  0.00     0.167 HD
ENDBRANCH  45  47
ENDBRANCH  44  45
ENDBRANCH  43  44
ENDBRANCH  27  43
BRANCH  24  49
ATOM     49  C   UNK d   0     -26.541  -0.084   4.664  0.00  0.00     0.052 C 
BRANCH  49  50
ATOM     50  C   UNK d   0     -26.942  -0.759   3.378  0.00  0.00     0.115 C 
BRANCH  50  51
ATOM     51  C   UNK d   0     -26.983   0.066   2.179  0.00  0.00     0.139 C 
ATOM     52  O   UNK d   0     -26.070   0.056   1.319  0.00  0.00    -0.650 OA
BRANCH  51  53
ATOM     53  O   UNK d   0     -28.065   0.905   1.960  0.00  0.00    -0.776 OA
ATOM     54  H   UNK d   0     -28.700   0.677   1.215  0.00  0.00     0.167 HD
ENDBRANCH  51  53
ENDBRANCH  50  51
ENDBRANCH  49  50
ENDBRANCH  24  49
BRANCH  21  55
ATOM     55  C   UNK d   0     -24.701  -2.496   5.247  0.00  0.00     0.151 C 
BRANCH  55  56
ATOM     56  C   UNK d   0     -25.008  -3.711   4.476  0.00  0.00     0.143 C 
ATOM     57  O   UNK d   0     -26.170  -4.132   4.314  0.00  0.00    -0.650 OA
BRANCH  56  58
ATOM     58  O   UNK d   0     -23.941  -4.406   3.909  0.00  0.00    -0.776 OA
ATOM     59  H   UNK d   0     -24.169  -4.922   3.040  0.00  0.00     0.167 HD
ENDBRANCH  56  58
ENDBRANCH  55  56
ENDBRANCH  21  55
BRANCH  18  60
ATOM     60  C   UNK d   0     -26.100  -6.776   8.168  0.00  0.00     0.151 C 
BRANCH  60  61
ATOM     61  C   UNK d   0     -24.639  -6.640   8.260  0.00  0.00     0.143 C 
ATOM     62  O   UNK d   0     -23.956  -6.648   9.285  0.00  0.00    -0.650 OA
BRANCH  61  63
ATOM     63  O   UNK d   0     -23.969  -6.486   7.023  0.00  0.00    -0.776 OA
ATOM     64  H   UNK d   0     -23.418  -7.231   6.635  0.00  0.00     0.167 HD
ENDBRANCH  61  63
ENDBRANCH  60  61
ENDBRANCH  18  60
BRANCH  14  65
ATOM     65  C   UNK d   0     -27.571  -7.492  10.724  0.00  0.00     0.052 C 
BRANCH  65  66
ATOM     66  C   UNK d   0     -26.333  -8.093  11.289  0.00  0.00     0.115 C 
BRANCH  66  67
ATOM     67  C   UNK d   0     -26.284  -8.445  12.680  0.00  0.00     0.139 C 
ATOM     68  O   UNK d   0     -26.983  -7.758  13.512  0.00  0.00    -0.650 OA
BRANCH  67  69
ATOM     69  O   UNK d   0     -25.550  -9.471  13.275  0.00  0.00    -0.776 OA
ATOM     70  H   UNK d   0     -25.212  -9.285  14.230  0.00  0.00     0.167 HD
ENDBRANCH  67  69
ENDBRANCH  66  67
ENDBRANCH  65  66
ENDBRANCH  14  65
ENDBRANCH   6   7
ENDBRANCH   5   6
ENDBRANCH   2   5
TORSDOF 28
ENDMDL
MODEL 8
REMARK VINA RESULT:      -7.3     33.250     38.454
REMARK  28 active torsions:
REMARK  status: ('A' for Active; 'I' for Inactive)
REMARK    1  A    between atoms: C_2  and  O_3 
REMARK    2  A    between atoms: C_2  and  C_4 
REMARK    3  A    between atoms: C_4  and  C_5 
REMARK    4  A    between atoms: C_5  and  C_6 
REMARK    5  A    between atoms: C_7  and  C_8 
REMARK    6  A    between atoms: C_8  and  C_9 
REMARK    7  A    between atoms: C_9  and  O_11 
REMARK    8  A    between atoms: C_28  and  C_29 
REMARK    9  A    between atoms: C_29  and  C_30 
REMARK   10  A    between atoms: C_30  and  O_32 
REMARK   11  A    between atoms: C_33  and  C_34 
REMARK   12  A    between atoms: C_34  and  C_35 
REMARK   13  A    between atoms: C_35  and  C_36 
REMARK   14  A    between atoms: C_36  and  O_38 
REMARK   15  A    between atoms: C_39  and  C_40 
REMARK   16  A    between atoms: C_40  and  C_41 
REMARK   17  A    between atoms: C_41  and  C_42 
REMARK   18  A    between atoms: C_42  and  O_44 
REMARK   19  A    between atoms: C_45  and  C_46 
REMARK   20  A    between atoms: C_46  and  C_47 
REMARK   21  A    between atoms: C_47  and  O_49 
REMARK   22  A    between atoms: C_50  and  C_51 
REMARK   23  A    between atoms: C_51  and  C_52 
REMARK   24  A    between atoms: C_52  and  O_54 
REMARK   25  A    between atoms: C_55  and  C_56 
REMARK   26  A    between atoms: C_56  and  C_57 
REMARK   27  A    between atoms: C_57  and  C_58 
REMARK   28  A    between atoms: C_58  and  O_60 
ROOT
ATOM      1  O   UNK d   0      10.572   9.466   1.544  0.00  0.00    -0.650 OA
ATOM      2  C   UNK d   0      11.606   8.761   1.518  0.00  0.00     0.139 C 
ENDROOT
BRANCH   2   3
ATOM      3  O   UNK d   0      12.403   8.775   0.399  0.00  0.00    -0.776 OA
ATOM      4  H   UNK d   0      12.547   9.634  -0.136  0.00  0.00     0.167 HD
ENDBRANCH   2   3
BRANCH   2   5
ATOM      5  C   UNK d   0      11.965   7.917   2.693  0.00  0.00     0.115 C 
BRANCH   5   6
ATOM      6  C   UNK d   0      12.161   6.489   2.263  0.00  0.00     0.052 C 
BRANCH   6   7
ATOM      7  C   UNK d   0      10.948   5.630   2.531  0.00  0.00    -0.020 A 
ATOM      8  C   UNK d   0       9.947   5.388   1.724  0.00  0.00    -0.011 A 
ATOM      9  C   UNK d   0       9.015   4.517   2.420  0.00  0.00     0.067 A 
ATOM     10  C   UNK d   0       7.795   3.892   2.118  0.00  0.00     0.062 C 
ATOM     11  N   UNK d   0       9.525   4.283   3.647  0.00  0.00    -0.248 NA
ATOM     12  C   UNK d   0       7.176   2.856   2.825  0.00  0.00     0.041 A 
ATOM     13  N   UNK d   0       7.013   2.659   4.147  0.00  0.00    -0.355 N 
ATOM     14  C   UNK d   0       6.652   1.762   2.111  0.00  0.00    -0.022 A 
ATOM     15  C   UNK d   0       6.407   1.465   4.290  0.00  0.00     0.042 A 
ATOM     16  H   UNK d   0       7.303   3.358   4.962  0.00  0.00     0.166 HD
ATOM     17  C   UNK d   0       6.004   0.779   5.454  0.00  0.00     0.062 C 
ATOM     18  C   UNK d   0       6.165   0.873   3.036  0.00  0.00    -0.013 A 
ATOM     19  C   UNK d   0       6.692   0.591   6.625  0.00  0.00     0.067 A 
ATOM     20  N   UNK d   0       7.810   1.302   6.791  0.00  0.00    -0.248 NA
ATOM     21  C   UNK d   0       6.532  -0.237   7.809  0.00  0.00    -0.011 A 
ATOM     22  C   UNK d   0       8.393   0.999   7.997  0.00  0.00     0.066 A 
ATOM     23  C   UNK d   0       9.548   1.697   8.316  0.00  0.00     0.062 C 
ATOM     24  C   UNK d   0       7.533   0.003   8.606  0.00  0.00    -0.020 A 
ATOM     25  C   UNK d   0      10.147   2.744   7.598  0.00  0.00     0.041 A 
ATOM     26  N   UNK d   0      10.322   2.933   6.285  0.00  0.00    -0.355 N 
ATOM     27  C   UNK d   0      10.668   3.843   8.315  0.00  0.00    -0.022 A 
ATOM     28  C   UNK d   0      10.934   4.119   6.139  0.00  0.00     0.042 A 
ATOM     29  H   UNK d   0      10.040   2.224   5.468  0.00  0.00     0.166 HD
ATOM     30  C   UNK d   0      11.349   4.809   4.989  0.00  0.00     0.062 C 
ATOM     31  C   UNK d   0      11.167   4.718   7.400  0.00  0.00    -0.013 A 
ATOM     32  C   UNK d   0      10.687   4.924   3.777  0.00  0.00     0.066 A 
BRANCH   8  33
ATOM     33  C   UNK d   0       9.773   5.901   0.352  0.00  0.00     0.151 C 
BRANCH  33  34
ATOM     34  C   UNK d   0      10.603   5.187  -0.634  0.00  0.00     0.143 C 
ATOM     35  O   UNK d   0      11.037   4.050  -0.397  0.00  0.00    -0.650 OA
BRANCH  34  36
ATOM     36  O   UNK d   0      10.900   5.794  -1.832  0.00  0.00    -0.776 OA
ATOM     37  H   UNK d   0      10.888   6.818  -1.930  0.00  0.00     0.167 HD
ENDBRANCH  34  36
ENDBRANCH  33  34
ENDBRANCH   8  33
BRANCH  31  38
ATOM     38  C   UNK d   0      11.815   6.049   7.701  0.00  0.00     0.151 C 
BRANCH  38  39
ATOM     39  C   UNK d   0      10.857   7.127   7.815  0.00  0.00     0.143 C 
ATOM     40  O   UNK d   0      10.137   7.481   6.864  0.00  0.00    -0.650 OA
BRANCH  39  41
ATOM     41  O   UNK d   0      10.724   7.802   9.028  0.00  0.00    -0.776 OA
ATOM     42  H   UNK d   0      10.846   8.819   9.006  0.00  0.00     0.167 HD
ENDBRANCH  39  41
ENDBRANCH  38  39
ENDBRANCH  31  38
BRANCH  27  43
ATOM     43  C   UNK d   0      10.708   4.084   9.803  0.00  0.00     0.052 C 
BRANCH  43  44
ATOM     44  C   UNK d   0       9.410   3.795  10.484  0.00  0.00     0.115 C 
BRANCH  44  45
ATOM     45  C   UNK d   0       8.444   4.818  10.007  0.00  0.00     0.139 C 
ATOM     46  O   UNK d   0       8.723   6.028  10.195  0.00  0.00    -0.650 OA
BRANCH  45  47
ATOM     47  O   UNK d   0       7.267   4.494   9.368  0.00  0.00    -0.776 OA
ATOM     48  H   UNK d   0       6.478   5.155   9.276  0.00  0.00     0.167 HD
ENDBRANCH  45  47
ENDBRANCH  44  45
ENDBRANCH  43  44
ENDBRANCH  27  43
BRANCH  24  49
ATOM     49  C   UNK d   0       7.746  -0.592   9.936  0.00  0.00     0.052 C 
BRANCH  49  50
ATOM     50  C   UNK d   0       8.222  -2.016   9.803  0.00  0.00     0.115 C 
BRANCH  50  51
ATOM     51  C   UNK d   0       9.298  -2.272   8.855  0.00  0.00     0.139 C 
ATOM     52  O   UNK d   0      10.475  -1.888   9.048  0.00  0.00    -0.650 OA
BRANCH  51  53
ATOM     53  O   UNK d   0       9.030  -2.965   7.684  0.00  0.00    -0.776 OA
ATOM     54  H   UNK d   0       8.342  -3.697   7.712  0.00  0.00     0.167 HD
ENDBRANCH  51  53
ENDBRANCH  50  51
ENDBRANCH  49  50
ENDBRANCH  24  49
BRANCH  21  55
ATOM     55  C   UNK d   0       5.393  -1.179   8.022  0.00  0.00     0.151 C 
BRANCH  55  56
ATOM     56  C   UNK d   0       5.358  -2.241   7.005  0.00  0.00     0.143 C 
ATOM     57  O   UNK d   0       6.244  -3.114   6.911  0.00  0.00    -0.650 OA
BRANCH  56  58
ATOM     58  O   UNK d   0       4.283  -2.257   6.119  0.00  0.00    -0.776 OA
ATOM     59  H   UNK d   0       4.469  -1.819   5.199  0.00  0.00     0.167 HD
ENDBRANCH  56  58
ENDBRANCH  55  56
ENDBRANCH  21  55
BRANCH  18  60
ATOM     60  C   UNK d   0       5.519  -0.450   2.706  0.00  0.00     0.151 C 
BRANCH  60  61
ATOM     61  C   UNK d   0       4.072  -0.190   2.648  0.00  0.00     0.143 C 
ATOM     62  O   UNK d   0       3.430   0.221   1.682  0.00  0.00    -0.650 OA
BRANCH  61  63
ATOM     63  O   UNK d   0       3.366  -0.449   3.848  0.00  0.00    -0.776 OA
ATOM     64  H   UNK d   0       2.678  -1.180   3.897  0.00  0.00     0.167 HD
ENDBRANCH  61  63
ENDBRANCH  60  61
ENDBRANCH  18  60
BRANCH  14  65
ATOM     65  C   UNK d   0       6.491   1.542   0.633  0.00  0.00     0.052 C 
BRANCH  65  66
ATOM     66  C   UNK d   0       7.721   1.010  -0.013  0.00  0.00     0.115 C 
BRANCH  66  67
ATOM     67  C   UNK d   0       8.459   1.836  -0.926  0.00  0.00     0.139 C 
ATOM     68  O   UNK d   0       7.910   2.916  -1.358  0.00  0.00    -0.650 OA
BRANCH  67  69
ATOM     69  O   UNK d   0       9.741   1.617  -1.429  0.00  0.00    -0.776 OA
ATOM     70  H   UNK d   0      10.145   0.690  -1.237  0.00  0.00     0.167 HD
ENDBRANCH  67  69
ENDBRANCH  66  67
ENDBRANCH  65  66
ENDBRANCH  14  65
ENDBRANCH   6   7
ENDBRANCH   5   6
ENDBRANCH   2   5
TORSDOF 28
ENDMDL
MODEL 9
REMARK VINA RESULT:      -7.3      4.922     11.840
REMARK  28 active torsions:
REMARK  status: ('A' for Active; 'I' for Inactive)
REMARK    1  A    between atoms: C_2  and  O_3 
REMARK    2  A    between atoms: C_2  and  C_4 
REMARK    3  A    between atoms: C_4  and  C_5 
REMARK    4  A    between atoms: C_5  and  C_6 
REMARK    5  A    between atoms: C_7  and  C_8 
REMARK    6  A    between atoms: C_8  and  C_9 
REMARK    7  A    between atoms: C_9  and  O_11 
REMARK    8  A    between atoms: C_28  and  C_29 
REMARK    9  A    between atoms: C_29  and  C_30 
REMARK   10  A    between atoms: C_30  and  O_32 
REMARK   11  A    between atoms: C_33  and  C_34 
REMARK   12  A    between atoms: C_34  and  C_35 
REMARK   13  A    between atoms: C_35  and  C_36 
REMARK   14  A    between atoms: C_36  and  O_38 
REMARK   15  A    between atoms: C_39  and  C_40 
REMARK   16  A    between atoms: C_40  and  C_41 
REMARK   17  A    between atoms: C_41  and  C_42 
REMARK   18  A    between atoms: C_42  and  O_44 
REMARK   19  A    between atoms: C_45  and  C_46 
REMARK   20  A    between atoms: C_46  and  C_47 
REMARK   21  A    between atoms: C_47  and  O_49 
REMARK   22  A    between atoms: C_50  and  C_51 
REMARK   23  A    between atoms: C_51  and  C_52 
REMARK   24  A    between atoms: C_52  and  O_54 
REMARK   25  A    between atoms: C_55  and  C_56 
REMARK   26  A    between atoms: C_56  and  C_57 
REMARK   27  A    between atoms: C_57  and  C_58 
REMARK   28  A    between atoms: C_58  and  O_60 
ROOT
ATOM      1  O   UNK d   0     -23.547  -3.325   0.028  0.00  0.00    -0.650 OA
ATOM      2  C   UNK d   0     -22.348  -3.097   0.301  0.00  0.00     0.139 C 
ENDROOT
BRANCH   2   3
ATOM      3  O   UNK d   0     -21.708  -2.043  -0.306  0.00  0.00    -0.776 OA
ATOM      4  H   UNK d   0     -20.690  -1.954  -0.273  0.00  0.00     0.167 HD
ENDBRANCH   2   3
BRANCH   2   5
ATOM      5  C   UNK d   0     -21.623  -3.963   1.274  0.00  0.00     0.115 C 
BRANCH   5   6
ATOM      6  C   UNK d   0     -22.530  -5.058   1.767  0.00  0.00     0.052 C 
BRANCH   6   7
ATOM      7  C   UNK d   0     -22.798  -4.966   3.250  0.00  0.00    -0.020 A 
ATOM      8  C   UNK d   0     -23.886  -4.541   3.840  0.00  0.00    -0.011 A 
ATOM      9  C   UNK d   0     -23.677  -4.628   5.276  0.00  0.00     0.067 A 
ATOM     10  C   UNK d   0     -24.432  -4.357   6.428  0.00  0.00     0.062 C 
ATOM     11  N   UNK d   0     -22.431  -5.111   5.471  0.00  0.00    -0.248 NA
ATOM     12  C   UNK d   0     -24.158  -4.769   7.736  0.00  0.00     0.041 A 
ATOM     13  N   UNK d   0     -23.006  -4.801   8.433  0.00  0.00    -0.355 N 
ATOM     14  C   UNK d   0     -25.201  -5.305   8.513  0.00  0.00    -0.022 A 
ATOM     15  C   UNK d   0     -23.290  -5.352   9.628  0.00  0.00     0.042 A 
ATOM     16  H   UNK d   0     -22.016  -4.425   8.093  0.00  0.00     0.166 HD
ATOM     17  C   UNK d   0     -22.455  -5.619  10.732  0.00  0.00     0.062 C 
ATOM     18  C   UNK d   0     -24.656  -5.682   9.716  0.00  0.00    -0.013 A 
ATOM     19  C   UNK d   0     -21.203  -6.178  10.751  0.00  0.00     0.067 A 
ATOM     20  N   UNK d   0     -20.586  -6.319   9.575  0.00  0.00    -0.248 NA
ATOM     21  C   UNK d   0     -20.310  -6.707  11.769  0.00  0.00    -0.011 A 
ATOM     22  C   UNK d   0     -19.355  -6.903   9.750  0.00  0.00     0.066 A 
ATOM     23  C   UNK d   0     -18.587  -7.075   8.608  0.00  0.00     0.062 C 
ATOM     24  C   UNK d   0     -19.233  -7.134  11.176  0.00  0.00    -0.020 A 
ATOM     25  C   UNK d   0     -18.874  -6.643   7.304  0.00  0.00     0.041 A 
ATOM     26  N   UNK d   0     -20.016  -6.625   6.607  0.00  0.00    -0.355 N 
ATOM     27  C   UNK d   0     -17.828  -6.101   6.527  0.00  0.00    -0.022 A 
ATOM     28  C   UNK d   0     -19.734  -6.084   5.411  0.00  0.00     0.042 A 
ATOM     29  H   UNK d   0     -21.008  -7.013   6.945  0.00  0.00     0.166 HD
ATOM     30  C   UNK d   0     -20.553  -5.821   4.301  0.00  0.00     0.062 C 
ATOM     31  C   UNK d   0     -18.363  -5.743   5.328  0.00  0.00    -0.013 A 
ATOM     32  C   UNK d   0     -21.850  -5.335   4.291  0.00  0.00     0.066 A 
BRANCH   8  33
ATOM     33  C   UNK d   0     -25.114  -4.051   3.186  0.00  0.00     0.151 C 
BRANCH  33  34
ATOM     34  C   UNK d   0     -26.095  -5.123   2.940  0.00  0.00     0.143 C 
ATOM     35  O   UNK d   0     -25.882  -5.998   2.088  0.00  0.00    -0.650 OA
BRANCH  34  36
ATOM     36  O   UNK d   0     -27.263  -5.149   3.666  0.00  0.00    -0.776 OA
ATOM     37  H   UNK d   0     -28.138  -4.763   3.286  0.00  0.00     0.167 HD
ENDBRANCH  34  36
ENDBRANCH  33  34
ENDBRANCH   8  33
BRANCH  31  38
ATOM     38  C   UNK d   0     -17.623  -5.105   4.176  0.00  0.00     0.151 C 
BRANCH  38  39
ATOM     39  C   UNK d   0     -16.884  -6.064   3.383  0.00  0.00     0.143 C 
ATOM     40  O   UNK d   0     -15.721  -5.853   2.997  0.00  0.00    -0.650 OA
BRANCH  39  41
ATOM     41  O   UNK d   0     -17.484  -7.273   3.032  0.00  0.00    -0.776 OA
ATOM     42  H   UNK d   0     -18.450  -7.227   2.691  0.00  0.00     0.167 HD
ENDBRANCH  39  41
ENDBRANCH  38  39
ENDBRANCH  31  38
BRANCH  27  43
ATOM     43  C   UNK d   0     -16.372  -5.916   6.875  0.00  0.00     0.052 C 
BRANCH  43  44
ATOM     44  C   UNK d   0     -16.062  -4.560   7.421  0.00  0.00     0.115 C 
BRANCH  44  45
ATOM     45  C   UNK d   0     -15.103  -4.762   8.539  0.00  0.00     0.139 C 
ATOM     46  O   UNK d   0     -14.035  -5.377   8.298  0.00  0.00    -0.650 OA
BRANCH  45  47
ATOM     47  O   UNK d   0     -15.336  -4.299   9.816  0.00  0.00    -0.776 OA
ATOM     48  H   UNK d   0     -15.108  -3.337  10.113  0.00  0.00     0.167 HD
ENDBRANCH  45  47
ENDBRANCH  44  45
ENDBRANCH  43  44
ENDBRANCH  27  43
BRANCH  24  49
ATOM     49  C   UNK d   0     -18.050  -7.712  11.836  0.00  0.00     0.052 C 
BRANCH  49  50
ATOM     50  C   UNK d   0     -18.164  -9.214  11.895  0.00  0.00     0.115 C 
BRANCH  50  51
ATOM     51  C   UNK d   0     -16.951  -9.983  11.650  0.00  0.00     0.139 C 
ATOM     52  O   UNK d   0     -16.780 -10.663  10.611  0.00  0.00    -0.650 OA
BRANCH  51  53
ATOM     53  O   UNK d   0     -15.934  -9.979  12.591  0.00  0.00    -0.776 OA
ATOM     54  H   UNK d   0     -15.976 -10.648  13.340  0.00  0.00     0.167 HD
ENDBRANCH  51  53
ENDBRANCH  50  51
ENDBRANCH  49  50
ENDBRANCH  24  49
BRANCH  21  55
ATOM     55  C   UNK d   0     -20.626  -6.727  13.228  0.00  0.00     0.151 C 
BRANCH  55  56
ATOM     56  C   UNK d   0     -21.257  -5.475  13.673  0.00  0.00     0.143 C 
ATOM     57  O   UNK d   0     -22.317  -5.450  14.329  0.00  0.00    -0.650 OA
BRANCH  56  58
ATOM     58  O   UNK d   0     -20.629  -4.277  13.337  0.00  0.00    -0.776 OA
ATOM     59  H   UNK d   0     -21.106  -3.726  12.600  0.00  0.00     0.167 HD
ENDBRANCH  56  58
ENDBRANCH  55  56
ENDBRANCH  21  55
BRANCH  18  60
ATOM     60  C   UNK d   0     -25.421  -6.315  10.851  0.00  0.00     0.151 C 
BRANCH  60  61
ATOM     61  C   UNK d   0     -25.423  -7.761  10.580  0.00  0.00     0.143 C 
ATOM     62  O   UNK d   0     -25.089  -8.320   9.535  0.00  0.00    -0.650 OA
BRANCH  61  63
ATOM     63  O   UNK d   0     -25.859  -8.574  11.653  0.00  0.00    -0.776 OA
ATOM     64  H   UNK d   0     -25.748  -9.572  11.625  0.00  0.00     0.167 HD
ENDBRANCH  61  63
ENDBRANCH  60  61
ENDBRANCH  18  60
BRANCH  14  65
ATOM     65  C   UNK d   0     -26.676  -5.398   8.245  0.00  0.00     0.052 C 
BRANCH  65  66
ATOM     66  C   UNK d   0     -27.440  -4.242   8.788  0.00  0.00     0.115 C 
BRANCH  66  67
ATOM     67  C   UNK d   0     -27.668  -3.089   7.963  0.00  0.00     0.139 C 
ATOM     68  O   UNK d   0     -27.792  -3.257   6.694  0.00  0.00    -0.650 OA
BRANCH  67  69
ATOM     69  O   UNK d   0     -27.776  -1.759   8.367  0.00  0.00    -0.776 OA
ATOM     70  H   UNK d   0     -26.966  -1.379   8.879  0.00  0.00     0.167 HD
ENDBRANCH  67  69
ENDBRANCH  66  67
ENDBRANCH  65  66
ENDBRANCH  14  65
ENDBRANCH   6   7
ENDBRANCH   5   6
ENDBRANCH   2   5
TORSDOF 28
ENDMDL
MODEL 10
REMARK VINA RESULT:      -7.2      2.478      7.882
REMARK  28 active torsions:
REMARK  status: ('A' for Active; 'I' for Inactive)
REMARK    1  A    between atoms: C_2  and  O_3 
REMARK    2  A    between atoms: C_2  and  C_4 
REMARK    3  A    between atoms: C_4  and  C_5 
REMARK    4  A    between atoms: C_5  and  C_6 
REMARK    5  A    between atoms: C_7  and  C_8 
REMARK    6  A    between atoms: C_8  and  C_9 
REMARK    7  A    between atoms: C_9  and  O_11 
REMARK    8  A    between atoms: C_28  and  C_29 
REMARK    9  A    between atoms: C_29  and  C_30 
REMARK   10  A    between atoms: C_30  and  O_32 
REMARK   11  A    between atoms: C_33  and  C_34 
REMARK   12  A    between atoms: C_34  and  C_35 
REMARK   13  A    between atoms: C_35  and  C_36 
REMARK   14  A    between atoms: C_36  and  O_38 
REMARK   15  A    between atoms: C_39  and  C_40 
REMARK   16  A    between atoms: C_40  and  C_41 
REMARK   17  A    between atoms: C_41  and  C_42 
REMARK   18  A    between atoms: C_42  and  O_44 
REMARK   19  A    between atoms: C_45  and  C_46 
REMARK   20  A    between atoms: C_46  and  C_47 
REMARK   21  A    between atoms: C_47  and  O_49 
REMARK   22  A    between atoms: C_50  and  C_51 
REMARK   23  A    between atoms: C_51  and  C_52 
REMARK   24  A    between atoms: C_52  and  O_54 
REMARK   25  A    between atoms: C_55  and  C_56 
REMARK   26  A    between atoms: C_56  and  C_57 
REMARK   27  A    between atoms: C_57  and  C_58 
REMARK   28  A    between atoms: C_58  and  O_60 
ROOT
ATOM      1  O   UNK d   0     -22.492  -5.069   8.628  0.00  0.00    -0.650 OA
ATOM      2  C   UNK d   0     -23.127  -5.809   7.844  0.00  0.00     0.139 C 
ENDROOT
BRANCH   2   3
ATOM      3  O   UNK d   0     -23.175  -5.490   6.508  0.00  0.00    -0.776 OA
ATOM      4  H   UNK d   0     -22.346  -5.570   5.916  0.00  0.00     0.167 HD
ENDBRANCH   2   3
BRANCH   2   5
ATOM      5  C   UNK d   0     -23.822  -7.022   8.358  0.00  0.00     0.115 C 
BRANCH   5   6
ATOM      6  C   UNK d   0     -25.218  -7.093   7.801  0.00  0.00     0.052 C 
BRANCH   6   7
ATOM      7  C   UNK d   0     -26.216  -6.323   8.633  0.00  0.00    -0.020 A 
ATOM      8  C   UNK d   0     -26.915  -6.760   9.649  0.00  0.00    -0.011 A 
ATOM      9  C   UNK d   0     -27.743  -5.665  10.124  0.00  0.00     0.067 A 
ATOM     10  C   UNK d   0     -28.672  -5.472  11.158  0.00  0.00     0.062 C 
ATOM     11  N   UNK d   0     -27.489  -4.599   9.335  0.00  0.00    -0.248 NA
ATOM     12  C   UNK d   0     -29.168  -4.254  11.636  0.00  0.00     0.041 A 
ATOM     13  N   UNK d   0     -29.579  -3.149  10.986  0.00  0.00    -0.355 N 
ATOM     14  C   UNK d   0     -29.233  -4.044  13.025  0.00  0.00    -0.022 A 
ATOM     15  C   UNK d   0     -29.895  -2.239  11.928  0.00  0.00     0.042 A 
ATOM     16  H   UNK d   0     -29.663  -3.020   9.885  0.00  0.00     0.166 HD
ATOM     17  C   UNK d   0     -30.376  -0.921  11.799  0.00  0.00     0.062 C 
ATOM     18  C   UNK d   0     -29.690  -2.764  13.219  0.00  0.00    -0.013 A 
ATOM     19  C   UNK d   0     -29.953   0.073  10.955  0.00  0.00     0.067 A 
ATOM     20  N   UNK d   0     -29.110  -0.279   9.981  0.00  0.00    -0.248 NA
ATOM     21  C   UNK d   0     -30.176   1.504  10.831  0.00  0.00    -0.011 A 
ATOM     22  C   UNK d   0     -28.764   0.819   9.231  0.00  0.00     0.066 A 
ATOM     23  C   UNK d   0     -27.918   0.588   8.156  0.00  0.00     0.062 C 
ATOM     24  C   UNK d   0     -29.474   1.935   9.823  0.00  0.00    -0.020 A 
ATOM     25  C   UNK d   0     -27.441  -0.645   7.685  0.00  0.00     0.041 A 
ATOM     26  N   UNK d   0     -27.019  -1.738   8.330  0.00  0.00    -0.355 N 
ATOM     27  C   UNK d   0     -27.381  -0.857   6.290  0.00  0.00    -0.022 A 
ATOM     28  C   UNK d   0     -26.695  -2.644   7.394  0.00  0.00     0.042 A 
ATOM     29  H   UNK d   0     -26.925  -1.862   9.437  0.00  0.00     0.166 HD
ATOM     30  C   UNK d   0     -26.206  -3.955   7.507  0.00  0.00     0.062 C 
ATOM     31  C   UNK d   0     -26.911  -2.119   6.097  0.00  0.00    -0.013 A 
ATOM     32  C   UNK d   0     -26.578  -4.930   8.419  0.00  0.00     0.066 A 
BRANCH   8  33
ATOM     33  C   UNK d   0     -26.887  -8.118  10.223  0.00  0.00     0.151 C 
BRANCH  33  34
ATOM     34  C   UNK d   0     -26.190  -8.175  11.521  0.00  0.00     0.143 C 
ATOM     35  O   UNK d   0     -26.677  -8.793  12.478  0.00  0.00    -0.650 OA
BRANCH  34  36
ATOM     36  O   UNK d   0     -24.983  -7.532  11.668  0.00  0.00    -0.776 OA
ATOM     37  H   UNK d   0     -24.935  -6.548  11.965  0.00  0.00     0.167 HD
ENDBRANCH  34  36
ENDBRANCH  33  34
ENDBRANCH   8  33
BRANCH  31  38
ATOM     38  C   UNK d   0     -26.691  -2.794   4.763  0.00  0.00     0.151 C 
BRANCH  38  39
ATOM     39  C   UNK d   0     -25.310  -2.750   4.332  0.00  0.00     0.143 C 
ATOM     40  O   UNK d   0     -24.365  -3.008   5.098  0.00  0.00    -0.650 OA
BRANCH  39  41
ATOM     41  O   UNK d   0     -25.014  -2.408   3.013  0.00  0.00    -0.776 OA
ATOM     42  H   UNK d   0     -25.329  -3.058   2.286  0.00  0.00     0.167 HD
ENDBRANCH  39  41
ENDBRANCH  38  39
ENDBRANCH  31  38
BRANCH  27  43
ATOM     43  C   UNK d   0     -27.744   0.077   5.162  0.00  0.00     0.052 C 
BRANCH  43  44
ATOM     44  C   UNK d   0     -26.563   0.534   4.370  0.00  0.00     0.115 C 
BRANCH  44  45
ATOM     45  C   UNK d   0     -26.997   0.583   2.950  0.00  0.00     0.139 C 
ATOM     46  O   UNK d   0     -27.221   1.708   2.438  0.00  0.00    -0.650 OA
BRANCH  45  47
ATOM     47  O   UNK d   0     -27.157  -0.547   2.178  0.00  0.00    -0.776 OA
ATOM     48  H   UNK d   0     -27.466  -0.513   1.193  0.00  0.00     0.167 HD
ENDBRANCH  45  47
ENDBRANCH  44  45
ENDBRANCH  43  44
ENDBRANCH  27  43
BRANCH  24  49
ATOM     49  C   UNK d   0     -29.436   3.319   9.320  0.00  0.00     0.052 C 
BRANCH  49  50
ATOM     50  C   UNK d   0     -28.331   4.091   9.993  0.00  0.00     0.115 C 
BRANCH  50  51
ATOM     51  C   UNK d   0     -28.686   5.365  10.604  0.00  0.00     0.139 C 
ATOM     52  O   UNK d   0     -29.574   5.469  11.483  0.00  0.00    -0.650 OA
BRANCH  51  53
ATOM     53  O   UNK d   0     -28.030   6.521  10.210  0.00  0.00    -0.776 OA
ATOM     54  H   UNK d   0     -27.163   6.753  10.661  0.00  0.00     0.167 HD
ENDBRANCH  51  53
ENDBRANCH  50  51
ENDBRANCH  49  50
ENDBRANCH  24  49
BRANCH  21  55
ATOM     55  C   UNK d   0     -31.071   2.291  11.731  0.00  0.00     0.151 C 
BRANCH  55  56
ATOM     56  C   UNK d   0     -32.487   2.152  11.359  0.00  0.00     0.143 C 
ATOM     57  O   UNK d   0     -32.975   2.691  10.347  0.00  0.00    -0.650 OA
BRANCH  56  58
ATOM     58  O   UNK d   0     -33.303   1.380  12.185  0.00  0.00    -0.776 OA
ATOM     59  H   UNK d   0     -34.186   1.837  12.477  0.00  0.00     0.167 HD
ENDBRANCH  56  58
ENDBRANCH  55  56
ENDBRANCH  21  55
BRANCH  18  60
ATOM     60  C   UNK d   0     -29.903  -2.116  14.564  0.00  0.00     0.151 C 
BRANCH  60  61
ATOM     61  C   UNK d   0     -28.811  -1.144  14.722  0.00  0.00     0.143 C 
ATOM     62  O   UNK d   0     -27.607  -1.387  14.807  0.00  0.00    -0.650 OA
BRANCH  61  63
ATOM     63  O   UNK d   0     -29.215   0.212  14.778  0.00  0.00    -0.776 OA
ATOM     64  H   UNK d   0     -28.586   0.951  14.519  0.00  0.00     0.167 HD
ENDBRANCH  61  63
ENDBRANCH  60  61
ENDBRANCH  18  60
BRANCH  14  65
ATOM     65  C   UNK d   0     -28.991  -4.984  14.172  0.00  0.00     0.052 C 
BRANCH  65  66
ATOM     66  C   UNK d   0     -27.622  -5.565  14.169  0.00  0.00     0.115 C 
BRANCH  66  67
ATOM     67  C   UNK d   0     -26.486  -4.709  13.974  0.00  0.00     0.139 C 
ATOM     68  O   UNK d   0     -25.717  -4.929  12.967  0.00  0.00    -0.650 OA
BRANCH  67  69
ATOM     69  O   UNK d   0     -26.087  -3.628  14.759  0.00  0.00    -0.776 OA
ATOM     70  H   UNK d   0     -25.805  -2.781  14.246  0.00  0.00     0.167 HD
ENDBRANCH  67  69
ENDBRANCH  66  67
ENDBRANCH  65  66
ENDBRANCH  14  65
ENDBRANCH   6   7
ENDBRANCH   5   6
ENDBRANCH   2   5
TORSDOF 28
ENDMDL
MODEL 11
REMARK VINA RESULT:      -7.2      1.935      8.105
REMARK  28 active torsions:
REMARK  status: ('A' for Active; 'I' for Inactive)
REMARK    1  A    between atoms: C_2  and  O_3 
REMARK    2  A    between atoms: C_2  and  C_4 
REMARK    3  A    between atoms: C_4  and  C_5 
REMARK    4  A    between atoms: C_5  and  C_6 
REMARK    5  A    between atoms: C_7  and  C_8 
REMARK    6  A    between atoms: C_8  and  C_9 
REMARK    7  A    between atoms: C_9  and  O_11 
REMARK    8  A    between atoms: C_28  and  C_29 
REMARK    9  A    between atoms: C_29  and  C_30 
REMARK   10  A    between atoms: C_30  and  O_32 
REMARK   11  A    between atoms: C_33  and  C_34 
REMARK   12  A    between atoms: C_34  and  C_35 
REMARK   13  A    between atoms: C_35  and  C_36 
REMARK   14  A    between atoms: C_36  and  O_38 
REMARK   15  A    between atoms: C_39  and  C_40 
REMARK   16  A    between atoms: C_40  and  C_41 
REMARK   17  A    between atoms: C_41  and  C_42 
REMARK   18  A    between atoms: C_42  and  O_44 
REMARK   19  A    between atoms: C_45  and  C_46 
REMARK   20  A    between atoms: C_46  and  C_47 
REMARK   21  A    between atoms: C_47  and  O_49 
REMARK   22  A    between atoms: C_50  and  C_51 
REMARK   23  A    between atoms: C_51  and  C_52 
REMARK   24  A    between atoms: C_52  and  O_54 
REMARK   25  A    between atoms: C_55  and  C_56 
REMARK   26  A    between atoms: C_56  and  C_57 
REMARK   27  A    between atoms: C_57  and  C_58 
REMARK   28  A    between atoms: C_58  and  O_60 
ROOT
ATOM      1  O   UNK d   0     -20.855  -6.192   6.148  0.00  0.00    -0.650 OA
ATOM      2  C   UNK d   0     -21.750  -5.639   5.471  0.00  0.00     0.139 C 
ENDROOT
BRANCH   2   3
ATOM      3  O   UNK d   0     -21.554  -5.444   4.126  0.00  0.00    -0.776 OA
ATOM      4  H   UNK d   0     -22.344  -5.328   3.488  0.00  0.00     0.167 HD
ENDBRANCH   2   3
BRANCH   2   5
ATOM      5  C   UNK d   0     -23.016  -5.198   6.123  0.00  0.00     0.115 C 
BRANCH   5   6
ATOM      6  C   UNK d   0     -23.053  -5.666   7.553  0.00  0.00     0.052 C 
BRANCH   6   7
ATOM      7  C   UNK d   0     -24.367  -5.361   8.230  0.00  0.00    -0.020 A 
ATOM      8  C   UNK d   0     -24.982  -6.075   9.138  0.00  0.00    -0.011 A 
ATOM      9  C   UNK d   0     -26.215  -5.388   9.485  0.00  0.00     0.067 A 
ATOM     10  C   UNK d   0     -27.278  -5.604  10.375  0.00  0.00     0.062 C 
ATOM     11  N   UNK d   0     -26.273  -4.267   8.736  0.00  0.00    -0.248 NA
ATOM     12  C   UNK d   0     -28.252  -4.681  10.772  0.00  0.00     0.041 A 
ATOM     13  N   UNK d   0     -28.954  -3.775  10.066  0.00  0.00    -0.355 N 
ATOM     14  C   UNK d   0     -28.576  -4.578  12.137  0.00  0.00    -0.022 A 
ATOM     15  C   UNK d   0     -29.710  -3.094  10.949  0.00  0.00     0.042 A 
ATOM     16  H   UNK d   0     -28.932  -3.632   8.963  0.00  0.00     0.166 HD
ATOM     17  C   UNK d   0     -30.626  -2.043  10.747  0.00  0.00     0.062 C 
ATOM     18  C   UNK d   0     -29.499  -3.569  12.257  0.00  0.00    -0.013 A 
ATOM     19  C   UNK d   0     -30.495  -0.922   9.967  0.00  0.00     0.067 A 
ATOM     20  N   UNK d   0     -29.459  -0.889   9.125  0.00  0.00    -0.248 NA
ATOM     21  C   UNK d   0     -31.217   0.329   9.807  0.00  0.00    -0.011 A 
ATOM     22  C   UNK d   0     -29.451   0.294   8.427  0.00  0.00     0.066 A 
ATOM     23  C   UNK d   0     -28.444   0.446   7.485  0.00  0.00     0.062 C 
ATOM     24  C   UNK d   0     -30.598   1.038   8.907  0.00  0.00    -0.020 A 
ATOM     25  C   UNK d   0     -27.483  -0.499   7.092  0.00  0.00     0.041 A 
ATOM     26  N   UNK d   0     -26.774  -1.389   7.796  0.00  0.00    -0.355 N 
ATOM     27  C   UNK d   0     -27.162  -0.605   5.721  0.00  0.00    -0.022 A 
ATOM     28  C   UNK d   0     -26.013  -2.063   6.919  0.00  0.00     0.042 A 
ATOM     29  H   UNK d   0     -26.790  -1.524   8.906  0.00  0.00     0.166 HD
ATOM     30  C   UNK d   0     -25.091  -3.104   7.107  0.00  0.00     0.062 C 
ATOM     31  C   UNK d   0     -26.233  -1.593   5.603  0.00  0.00    -0.013 A 
ATOM     32  C   UNK d   0     -25.191  -4.192   7.960  0.00  0.00     0.066 A 
BRANCH   8  33
ATOM     33  C   UNK d   0     -24.527  -7.353   9.716  0.00  0.00     0.151 C 
BRANCH  33  34
ATOM     34  C   UNK d   0     -25.521  -8.432   9.569  0.00  0.00     0.143 C 
ATOM     35  O   UNK d   0     -26.037  -8.676   8.469  0.00  0.00    -0.650 OA
BRANCH  34  36
ATOM     36  O   UNK d   0     -25.880  -9.174  10.670  0.00  0.00    -0.776 OA
ATOM     37  H   UNK d   0     -25.188  -9.438  11.385  0.00  0.00     0.167 HD
ENDBRANCH  34  36
ENDBRANCH  33  34
ENDBRANCH   8  33
BRANCH  31  38
ATOM     38  C   UNK d   0     -25.601  -2.072   4.317  0.00  0.00     0.151 C 
BRANCH  38  39
ATOM     39  C   UNK d   0     -26.471  -2.941   3.553  0.00  0.00     0.143 C 
ATOM     40  O   UNK d   0     -27.258  -3.738   4.094  0.00  0.00    -0.650 OA
BRANCH  39  41
ATOM     41  O   UNK d   0     -26.438  -2.892   2.160  0.00  0.00    -0.776 OA
ATOM     42  H   UNK d   0     -25.610  -2.465   1.732  0.00  0.00     0.167 HD
ENDBRANCH  39  41
ENDBRANCH  38  39
ENDBRANCH  31  38
BRANCH  27  43
ATOM     43  C   UNK d   0     -27.692   0.183   4.549  0.00  0.00     0.052 C 
BRANCH  43  44
ATOM     44  C   UNK d   0     -26.661   1.051   3.906  0.00  0.00     0.115 C 
BRANCH  44  45
ATOM     45  C   UNK d   0     -26.730   0.782   2.446  0.00  0.00     0.139 C 
ATOM     46  O   UNK d   0     -27.611  -0.012   2.032  0.00  0.00    -0.650 OA
BRANCH  45  47
ATOM     47  O   UNK d   0     -25.877   1.368   1.536  0.00  0.00    -0.776 OA
ATOM     48  H   UNK d   0     -25.381   2.254   1.724  0.00  0.00     0.167 HD
ENDBRANCH  45  47
ENDBRANCH  44  45
ENDBRANCH  43  44
ENDBRANCH  27  43
BRANCH  24  49
ATOM     49  C   UNK d   0     -31.012   2.361   8.408  0.00  0.00     0.052 C 
BRANCH  49  50
ATOM     50  C   UNK d   0     -30.625   3.436   9.391  0.00  0.00     0.115 C 
BRANCH  50  51
ATOM     51  C   UNK d   0     -29.253   3.430   9.878  0.00  0.00     0.139 C 
ATOM     52  O   UNK d   0     -28.273   3.696   9.142  0.00  0.00    -0.650 OA
BRANCH  51  53
ATOM     53  O   UNK d   0     -28.996   3.117  11.204  0.00  0.00    -0.776 OA
ATOM     54  H   UNK d   0     -28.149   3.464  11.619  0.00  0.00     0.167 HD
ENDBRANCH  51  53
ENDBRANCH  50  51
ENDBRANCH  49  50
ENDBRANCH  24  49
BRANCH  21  55
ATOM     55  C   UNK d   0     -32.453   0.684  10.566  0.00  0.00     0.151 C 
BRANCH  55  56
ATOM     56  C   UNK d   0     -32.158   1.523  11.738  0.00  0.00     0.143 C 
ATOM     57  O   UNK d   0     -32.875   2.485  12.076  0.00  0.00    -0.650 OA
BRANCH  56  58
ATOM     58  O   UNK d   0     -31.025   1.214  12.489  0.00  0.00    -0.776 OA
ATOM     59  H   UNK d   0     -30.666   1.989  13.075  0.00  0.00     0.167 HD
ENDBRANCH  56  58
ENDBRANCH  55  56
ENDBRANCH  21  55
BRANCH  18  60
ATOM     60  C   UNK d   0     -30.117  -3.113  13.556  0.00  0.00     0.151 C 
BRANCH  60  61
ATOM     61  C   UNK d   0     -31.269  -3.997  13.787  0.00  0.00     0.143 C 
ATOM     62  O   UNK d   0     -31.325  -4.958  14.555  0.00  0.00    -0.650 OA
BRANCH  61  63
ATOM     63  O   UNK d   0     -32.427  -3.686  13.034  0.00  0.00    -0.776 OA
ATOM     64  H   UNK d   0     -32.427  -3.752  12.032  0.00  0.00     0.167 HD
ENDBRANCH  61  63
ENDBRANCH  60  61
ENDBRANCH  18  60
BRANCH  14  65
ATOM     65  C   UNK d   0     -28.157  -5.417  13.311  0.00  0.00     0.052 C 
BRANCH  65  66
ATOM     66  C   UNK d   0     -26.875  -4.969  13.918  0.00  0.00     0.115 C 
BRANCH  66  67
ATOM     67  C   UNK d   0     -25.635  -5.245  13.247  0.00  0.00     0.139 C 
ATOM     68  O   UNK d   0     -25.238  -6.466  13.170  0.00  0.00    -0.650 OA
BRANCH  67  69
ATOM     69  O   UNK d   0     -24.770  -4.333  12.645  0.00  0.00    -0.776 OA
ATOM     70  H   UNK d   0     -23.976  -4.020  13.222  0.00  0.00     0.167 HD
ENDBRANCH  67  69
ENDBRANCH  66  67
ENDBRANCH  65  66
ENDBRANCH  14  65
ENDBRANCH   6   7
ENDBRANCH   5   6
ENDBRANCH   2   5
TORSDOF 28
ENDMDL
MODEL 12
REMARK VINA RESULT:      -7.2      3.102     10.193
REMARK  28 active torsions:
REMARK  status: ('A' for Active; 'I' for Inactive)
REMARK    1  A    between atoms: C_2  and  O_3 
REMARK    2  A    between atoms: C_2  and  C_4 
REMARK    3  A    between atoms: C_4  and  C_5 
REMARK    4  A    between atoms: C_5  and  C_6 
REMARK    5  A    between atoms: C_7  and  C_8 
REMARK    6  A    between atoms: C_8  and  C_9 
REMARK    7  A    between atoms: C_9  and  O_11 
REMARK    8  A    between atoms: C_28  and  C_29 
REMARK    9  A    between atoms: C_29  and  C_30 
REMARK   10  A    between atoms: C_30  and  O_32 
REMARK   11  A    between atoms: C_33  and  C_34 
REMARK   12  A    between atoms: C_34  and  C_35 
REMARK   13  A    between atoms: C_35  and  C_36 
REMARK   14  A    between atoms: C_36  and  O_38 
REMARK   15  A    between atoms: C_39  and  C_40 
REMARK   16  A    between atoms: C_40  and  C_41 
REMARK   17  A    between atoms: C_41  and  C_42 
REMARK   18  A    between atoms: C_42  and  O_44 
REMARK   19  A    between atoms: C_45  and  C_46 
REMARK   20  A    between atoms: C_46  and  C_47 
REMARK   21  A    between atoms: C_47  and  O_49 
REMARK   22  A    between atoms: C_50  and  C_51 
REMARK   23  A    between atoms: C_51  and  C_52 
REMARK   24  A    between atoms: C_52  and  O_54 
REMARK   25  A    between atoms: C_55  and  C_56 
REMARK   26  A    between atoms: C_56  and  C_57 
REMARK   27  A    between atoms: C_57  and  C_58 
REMARK   28  A    between atoms: C_58  and  O_60 
ROOT
ATOM      1  O   UNK d   0     -24.572  -8.087   7.529  0.00  0.00    -0.650 OA
ATOM      2  C   UNK d   0     -25.428  -8.181   8.436  0.00  0.00     0.139 C 
ENDROOT
BRANCH   2   3
ATOM      3  O   UNK d   0     -26.611  -8.831   8.180  0.00  0.00    -0.776 OA
ATOM      4  H   UNK d   0     -27.302  -8.437   7.539  0.00  0.00     0.167 HD
ENDBRANCH   2   3
BRANCH   2   5
ATOM      5  C   UNK d   0     -25.164  -7.591   9.779  0.00  0.00     0.115 C 
BRANCH   5   6
ATOM      6  C   UNK d   0     -24.171  -6.466   9.664  0.00  0.00     0.052 C 
BRANCH   6   7
ATOM      7  C   UNK d   0     -24.820  -5.106   9.758  0.00  0.00    -0.020 A 
ATOM      8  C   UNK d   0     -25.182  -4.324   8.773  0.00  0.00    -0.011 A 
ATOM      9  C   UNK d   0     -25.753  -3.118   9.349  0.00  0.00     0.067 A 
ATOM     10  C   UNK d   0     -26.329  -1.936   8.858  0.00  0.00     0.062 C 
ATOM     11  N   UNK d   0     -25.694  -3.248  10.691  0.00  0.00    -0.248 NA
ATOM     12  C   UNK d   0     -27.083  -1.000   9.574  0.00  0.00     0.041 A 
ATOM     13  N   UNK d   0     -26.906  -0.470  10.799  0.00  0.00    -0.355 N 
ATOM     14  C   UNK d   0     -28.278  -0.515   9.012  0.00  0.00    -0.022 A 
ATOM     15  C   UNK d   0     -27.962   0.332  11.033  0.00  0.00     0.042 A 
ATOM     16  H   UNK d   0     -26.042  -0.644  11.478  0.00  0.00     0.166 HD
ATOM     17  C   UNK d   0     -28.276   1.126  12.154  0.00  0.00     0.062 C 
ATOM     18  C   UNK d   0     -28.844   0.330   9.935  0.00  0.00    -0.013 A 
ATOM     19  C   UNK d   0     -28.203   0.805  13.485  0.00  0.00     0.067 A 
ATOM     20  N   UNK d   0     -27.572  -0.329  13.800  0.00  0.00    -0.248 NA
ATOM     21  C   UNK d   0     -28.669   1.394  14.729  0.00  0.00    -0.011 A 
ATOM     22  C   UNK d   0     -27.592  -0.524  15.160  0.00  0.00     0.066 A 
ATOM     23  C   UNK d   0     -26.935  -1.652  15.630  0.00  0.00     0.062 C 
ATOM     24  C   UNK d   0     -28.312   0.610  15.705  0.00  0.00    -0.020 A 
ATOM     25  C   UNK d   0     -26.173  -2.573  14.896  0.00  0.00     0.041 A 
ATOM     26  N   UNK d   0     -26.356  -3.111  13.684  0.00  0.00    -0.355 N 
ATOM     27  C   UNK d   0     -24.971  -3.055  15.459  0.00  0.00    -0.022 A 
ATOM     28  C   UNK d   0     -25.309  -3.918  13.453  0.00  0.00     0.042 A 
ATOM     29  H   UNK d   0     -27.230  -2.943  13.008  0.00  0.00     0.166 HD
ATOM     30  C   UNK d   0     -24.988  -4.720  12.346  0.00  0.00     0.062 C 
ATOM     31  C   UNK d   0     -24.418  -3.907  14.552  0.00  0.00    -0.013 A 
ATOM     32  C   UNK d   0     -25.144  -4.423  11.002  0.00  0.00     0.066 A 
BRANCH   8  33
ATOM     33  C   UNK d   0     -25.040  -4.594   7.330  0.00  0.00     0.151 C 
BRANCH  33  34
ATOM     34  C   UNK d   0     -23.780  -4.069   6.773  0.00  0.00     0.143 C 
ATOM     35  O   UNK d   0     -22.976  -3.453   7.487  0.00  0.00    -0.650 OA
BRANCH  34  36
ATOM     36  O   UNK d   0     -23.497  -4.266   5.441  0.00  0.00    -0.776 OA
ATOM     37  H   UNK d   0     -23.131  -3.504   4.854  0.00  0.00     0.167 HD
ENDBRANCH  34  36
ENDBRANCH  33  34
ENDBRANCH   8  33
BRANCH  31  38
ATOM     38  C   UNK d   0     -23.115  -4.655  14.712  0.00  0.00     0.151 C 
BRANCH  38  39
ATOM     39  C   UNK d   0     -21.977  -3.916  14.208  0.00  0.00     0.143 C 
ATOM     40  O   UNK d   0     -21.861  -2.687  14.361  0.00  0.00    -0.650 OA
BRANCH  39  41
ATOM     41  O   UNK d   0     -20.968  -4.592  13.524  0.00  0.00    -0.776 OA
ATOM     42  H   UNK d   0     -20.754  -5.543  13.840  0.00  0.00     0.167 HD
ENDBRANCH  39  41
ENDBRANCH  38  39
ENDBRANCH  31  38
BRANCH  27  43
ATOM     43  C   UNK d   0     -24.347  -2.745  16.796  0.00  0.00     0.052 C 
BRANCH  43  44
ATOM     44  C   UNK d   0     -24.915  -1.524  17.444  0.00  0.00     0.115 C 
BRANCH  44  45
ATOM     45  C   UNK d   0     -25.142  -1.868  18.872  0.00  0.00     0.139 C 
ATOM     46  O   UNK d   0     -26.260  -2.339  19.197  0.00  0.00    -0.650 OA
BRANCH  45  47
ATOM     47  O   UNK d   0     -24.179  -1.697  19.844  0.00  0.00    -0.776 OA
ATOM     48  H   UNK d   0     -23.171  -1.642  19.630  0.00  0.00     0.167 HD
ENDBRANCH  45  47
ENDBRANCH  44  45
ENDBRANCH  43  44
ENDBRANCH  27  43
BRANCH  24  49
ATOM     49  C   UNK d   0     -28.548   0.846  17.140  0.00  0.00     0.052 C 
BRANCH  49  50
ATOM     50  C   UNK d   0     -29.509  -0.178  17.688  0.00  0.00     0.115 C 
BRANCH  50  51
ATOM     51  C   UNK d   0     -30.931   0.111  17.561  0.00  0.00     0.139 C 
ATOM     52  O   UNK d   0     -31.564   0.780  18.411  0.00  0.00    -0.650 OA
BRANCH  51  53
ATOM     53  O   UNK d   0     -31.633  -0.368  16.465  0.00  0.00    -0.776 OA
ATOM     54  H   UNK d   0     -32.329   0.226  16.051  0.00  0.00     0.167 HD
ENDBRANCH  51  53
ENDBRANCH  50  51
ENDBRANCH  49  50
ENDBRANCH  24  49
BRANCH  21  55
ATOM     55  C   UNK d   0     -29.419   2.682  14.813  0.00  0.00     0.151 C 
BRANCH  55  56
ATOM     56  C   UNK d   0     -30.875   2.472  14.843  0.00  0.00     0.143 C 
ATOM     57  O   UNK d   0     -31.460   1.688  14.070  0.00  0.00    -0.650 OA
BRANCH  56  58
ATOM     58  O   UNK d   0     -31.615   3.189  15.782  0.00  0.00    -0.776 OA
ATOM     59  H   UNK d   0     -32.642   3.148  15.652  0.00  0.00     0.167 HD
ENDBRANCH  56  58
ENDBRANCH  55  56
ENDBRANCH  21  55
BRANCH  18  60
ATOM     60  C   UNK d   0     -30.146   1.067   9.747  0.00  0.00     0.151 C 
BRANCH  60  61
ATOM     61  C   UNK d   0     -31.186   0.205  10.328  0.00  0.00     0.143 C 
ATOM     62  O   UNK d   0     -31.364  -0.994  10.110  0.00  0.00    -0.650 OA
BRANCH  61  63
ATOM     63  O   UNK d   0     -32.065   0.847  11.233  0.00  0.00    -0.776 OA
ATOM     64  H   UNK d   0     -32.030   1.841  11.372  0.00  0.00     0.167 HD
ENDBRANCH  61  63
ENDBRANCH  60  61
ENDBRANCH  18  60
BRANCH  14  65
ATOM     65  C   UNK d   0     -28.869  -0.710   7.645  0.00  0.00     0.052 C 
BRANCH  65  66
ATOM     66  C   UNK d   0     -28.386   0.289   6.654  0.00  0.00     0.115 C 
BRANCH  66  67
ATOM     67  C   UNK d   0     -27.174   0.040   5.926  0.00  0.00     0.139 C 
ATOM     68  O   UNK d   0     -26.064   0.468   6.416  0.00  0.00    -0.650 OA
BRANCH  67  69
ATOM     69  O   UNK d   0     -27.030  -0.629   4.710  0.00  0.00    -0.776 OA
ATOM     70  H   UNK d   0     -26.089  -0.995   4.509  0.00  0.00     0.167 HD
ENDBRANCH  67  69
ENDBRANCH  66  67
ENDBRANCH  65  66
ENDBRANCH  14  65
ENDBRANCH   6   7
ENDBRANCH   5   6
ENDBRANCH   2   5
TORSDOF 28
ENDMDL
MODEL 13
REMARK VINA RESULT:      -7.2      1.257      6.906
REMARK  28 active torsions:
REMARK  status: ('A' for Active; 'I' for Inactive)
REMARK    1  A    between atoms: C_2  and  O_3 
REMARK    2  A    between atoms: C_2  and  C_4 
REMARK    3  A    between atoms: C_4  and  C_5 
REMARK    4  A    between atoms: C_5  and  C_6 
REMARK    5  A    between atoms: C_7  and  C_8 
REMARK    6  A    between atoms: C_8  and  C_9 
REMARK    7  A    between atoms: C_9  and  O_11 
REMARK    8  A    between atoms: C_28  and  C_29 
REMARK    9  A    between atoms: C_29  and  C_30 
REMARK   10  A    between atoms: C_30  and  O_32 
REMARK   11  A    between atoms: C_33  and  C_34 
REMARK   12  A    between atoms: C_34  and  C_35 
REMARK   13  A    between atoms: C_35  and  C_36 
REMARK   14  A    between atoms: C_36  and  O_38 
REMARK   15  A    between atoms: C_39  and  C_40 
REMARK   16  A    between atoms: C_40  and  C_41 
REMARK   17  A    between atoms: C_41  and  C_42 
REMARK   18  A    between atoms: C_42  and  O_44 
REMARK   19  A    between atoms: C_45  and  C_46 
REMARK   20  A    between atoms: C_46  and  C_47 
REMARK   21  A    between atoms: C_47  and  O_49 
REMARK   22  A    between atoms: C_50  and  C_51 
REMARK   23  A    between atoms: C_51  and  C_52 
REMARK   24  A    between atoms: C_52  and  O_54 
REMARK   25  A    between atoms: C_55  and  C_56 
REMARK   26  A    between atoms: C_56  and  C_57 
REMARK   27  A    between atoms: C_57  and  C_58 
REMARK   28  A    between atoms: C_58  and  O_60 
ROOT
ATOM      1  O   UNK d   0     -32.677  -5.579  14.941  0.00  0.00    -0.650 OA
ATOM      2  C   UNK d   0     -31.979  -4.994  15.798  0.00  0.00     0.139 C 
ENDROOT
BRANCH   2   3
ATOM      3  O   UNK d   0     -32.594  -4.238  16.766  0.00  0.00    -0.776 OA
ATOM      4  H   UNK d   0     -32.473  -3.223  16.799  0.00  0.00     0.167 HD
ENDBRANCH   2   3
BRANCH   2   5
ATOM      5  C   UNK d   0     -30.494  -5.119  15.765  0.00  0.00     0.115 C 
BRANCH   5   6
ATOM      6  C   UNK d   0     -29.865  -3.767  15.567  0.00  0.00     0.052 C 
BRANCH   6   7
ATOM      7  C   UNK d   0     -29.889  -3.320  14.125  0.00  0.00    -0.020 A 
ATOM      8  C   UNK d   0     -30.821  -2.629  13.519  0.00  0.00    -0.011 A 
ATOM      9  C   UNK d   0     -30.412  -2.447  12.136  0.00  0.00     0.067 A 
ATOM     10  C   UNK d   0     -30.932  -1.803  11.003  0.00  0.00     0.062 C 
ATOM     11  N   UNK d   0     -29.221  -3.066  11.986  0.00  0.00    -0.248 NA
ATOM     12  C   UNK d   0     -30.255  -1.498   9.817  0.00  0.00     0.041 A 
ATOM     13  N   UNK d   0     -29.391  -2.220   9.078  0.00  0.00    -0.355 N 
ATOM     14  C   UNK d   0     -30.406  -0.216   9.258  0.00  0.00    -0.022 A 
ATOM     15  C   UNK d   0     -28.983  -1.426   8.070  0.00  0.00     0.042 A 
ATOM     16  H   UNK d   0     -29.090  -3.276   9.255  0.00  0.00     0.166 HD
ATOM     17  C   UNK d   0     -28.086  -1.680   7.013  0.00  0.00     0.062 C 
ATOM     18  C   UNK d   0     -29.597  -0.161   8.150  0.00  0.00    -0.013 A 
ATOM     19  C   UNK d   0     -26.860  -2.292   7.051  0.00  0.00     0.067 A 
ATOM     20  N   UNK d   0     -26.529  -2.914   8.185  0.00  0.00    -0.248 NA
ATOM     21  C   UNK d   0     -25.740  -2.447   6.137  0.00  0.00    -0.011 A 
ATOM     22  C   UNK d   0     -25.275  -3.464   8.080  0.00  0.00     0.066 A 
ATOM     23  C   UNK d   0     -24.819  -4.176   9.179  0.00  0.00     0.062 C 
ATOM     24  C   UNK d   0     -24.815  -3.130   6.746  0.00  0.00    -0.020 A 
ATOM     25  C   UNK d   0     -25.520  -4.482  10.357  0.00  0.00     0.041 A 
ATOM     26  N   UNK d   0     -26.367  -3.760  11.099  0.00  0.00    -0.355 N 
ATOM     27  C   UNK d   0     -25.372  -5.771  10.914  0.00  0.00    -0.022 A 
ATOM     28  C   UNK d   0     -26.769  -4.546  12.110  0.00  0.00     0.042 A 
ATOM     29  H   UNK d   0     -26.660  -2.695  10.926  0.00  0.00     0.166 HD
ATOM     30  C   UNK d   0     -27.653  -4.304  13.173  0.00  0.00     0.062 C 
ATOM     31  C   UNK d   0     -26.159  -5.821  12.023  0.00  0.00    -0.013 A 
ATOM     32  C   UNK d   0     -28.852  -3.610  13.146  0.00  0.00     0.066 A 
BRANCH   8  33
ATOM     33  C   UNK d   0     -32.072  -2.120  14.111  0.00  0.00     0.151 C 
BRANCH  33  34
ATOM     34  C   UNK d   0     -32.076  -0.654  14.262  0.00  0.00     0.143 C 
ATOM     35  O   UNK d   0     -31.471  -0.108  15.196  0.00  0.00    -0.650 OA
BRANCH  34  36
ATOM     36  O   UNK d   0     -32.764   0.117  13.354  0.00  0.00    -0.776 OA
ATOM     37  H   UNK d   0     -33.565  -0.262  12.829  0.00  0.00     0.167 HD
ENDBRANCH  34  36
ENDBRANCH  33  34
ENDBRANCH   8  33
BRANCH  31  38
ATOM     38  C   UNK d   0     -26.334  -7.009  12.940  0.00  0.00     0.151 C 
BRANCH  38  39
ATOM     39  C   UNK d   0     -25.075  -7.610  13.327  0.00  0.00     0.143 C 
ATOM     40  O   UNK d   0     -24.118  -6.936  13.747  0.00  0.00    -0.650 OA
BRANCH  39  41
ATOM     41  O   UNK d   0     -24.916  -8.992  13.231  0.00  0.00    -0.776 OA
ATOM     42  H   UNK d   0     -24.042  -9.383  13.596  0.00  0.00     0.167 HD
ENDBRANCH  39  41
ENDBRANCH  38  39
ENDBRANCH  31  38
BRANCH  27  43
ATOM     43  C   UNK d   0     -24.527  -6.928  10.442  0.00  0.00     0.052 C 
BRANCH  43  44
ATOM     44  C   UNK d   0     -24.860  -7.376   9.056  0.00  0.00     0.115 C 
BRANCH  44  45
ATOM     45  C   UNK d   0     -25.829  -8.495   9.193  0.00  0.00     0.139 C 
ATOM     46  O   UNK d   0     -25.798  -9.179  10.246  0.00  0.00    -0.650 OA
BRANCH  45  47
ATOM     47  O   UNK d   0     -26.756  -8.805   8.221  0.00  0.00    -0.776 OA
ATOM     48  H   UNK d   0     -27.227  -9.722   8.168  0.00  0.00     0.167 HD
ENDBRANCH  45  47
ENDBRANCH  44  45
ENDBRANCH  43  44
ENDBRANCH  27  43
BRANCH  24  49
ATOM     49  C   UNK d   0     -23.525  -3.548   6.172  0.00  0.00     0.052 C 
BRANCH  49  50
ATOM     50  C   UNK d   0     -23.409  -5.051   6.183  0.00  0.00     0.115 C 
BRANCH  50  51
ATOM     51  C   UNK d   0     -22.065  -5.614   6.188  0.00  0.00     0.139 C 
ATOM     52  O   UNK d   0     -21.176  -5.249   5.384  0.00  0.00    -0.650 OA
BRANCH  51  53
ATOM     53  O   UNK d   0     -21.736  -6.597   7.109  0.00  0.00    -0.776 OA
ATOM     54  H   UNK d   0     -22.041  -6.479   8.060  0.00  0.00     0.167 HD
ENDBRANCH  51  53
ENDBRANCH  50  51
ENDBRANCH  49  50
ENDBRANCH  24  49
BRANCH  21  55
ATOM     55  C   UNK d   0     -25.715  -1.900   4.748  0.00  0.00     0.151 C 
BRANCH  55  56
ATOM     56  C   UNK d   0     -25.510  -0.443   4.733  0.00  0.00     0.143 C 
ATOM     57  O   UNK d   0     -24.928   0.166   5.652  0.00  0.00    -0.650 OA
BRANCH  56  58
ATOM     58  O   UNK d   0     -25.993   0.269   3.636  0.00  0.00    -0.776 OA
ATOM     59  H   UNK d   0     -25.356   1.003   3.278  0.00  0.00     0.167 HD
ENDBRANCH  56  58
ENDBRANCH  55  56
ENDBRANCH  21  55
BRANCH  18  60
ATOM     60  C   UNK d   0     -29.445   1.040   7.250  0.00  0.00     0.151 C 
BRANCH  60  61
ATOM     61  C   UNK d   0     -28.216   1.719   7.688  0.00  0.00     0.143 C 
ATOM     62  O   UNK d   0     -27.056   1.356   7.489  0.00  0.00    -0.650 OA
BRANCH  61  63
ATOM     63  O   UNK d   0     -28.416   2.918   8.414  0.00  0.00    -0.776 OA
ATOM     64  H   UNK d   0     -27.645   3.519   8.644  0.00  0.00     0.167 HD
ENDBRANCH  61  63
ENDBRANCH  60  61
ENDBRANCH  18  60
BRANCH  14  65
ATOM     65  C   UNK d   0     -31.320   0.916   9.632  0.00  0.00     0.052 C 
BRANCH  65  66
ATOM     66  C   UNK d   0     -30.656   1.947  10.474  0.00  0.00     0.115 C 
BRANCH  66  67
ATOM     67  C   UNK d   0     -29.686   1.548  11.454  0.00  0.00     0.139 C 
ATOM     68  O   UNK d   0     -28.438   1.635  11.154  0.00  0.00    -0.650 OA
BRANCH  67  69
ATOM     69  O   UNK d   0     -29.922   1.060  12.739  0.00  0.00    -0.776 OA
ATOM     70  H   UNK d   0     -29.266   1.377  13.467  0.00  0.00     0.167 HD
ENDBRANCH  67  69
ENDBRANCH  66  67
ENDBRANCH  65  66
ENDBRANCH  14  65
ENDBRANCH   6   7
ENDBRANCH   5   6
ENDBRANCH   2   5
TORSDOF 28
ENDMDL
MODEL 14
REMARK VINA RESULT:      -7.1     33.584     38.353
REMARK  28 active torsions:
REMARK  status: ('A' for Active; 'I' for Inactive)
REMARK    1  A    between atoms: C_2  and  O_3 
REMARK    2  A    between atoms: C_2  and  C_4 
REMARK    3  A    between atoms: C_4  and  C_5 
REMARK    4  A    between atoms: C_5  and  C_6 
REMARK    5  A    between atoms: C_7  and  C_8 
REMARK    6  A    between atoms: C_8  and  C_9 
REMARK    7  A    between atoms: C_9  and  O_11 
REMARK    8  A    between atoms: C_28  and  C_29 
REMARK    9  A    between atoms: C_29  and  C_30 
REMARK   10  A    between atoms: C_30  and  O_32 
REMARK   11  A    between atoms: C_33  and  C_34 
REMARK   12  A    between atoms: C_34  and  C_35 
REMARK   13  A    between atoms: C_35  and  C_36 
REMARK   14  A    between atoms: C_36  and  O_38 
REMARK   15  A    between atoms: C_39  and  C_40 
REMARK   16  A    between atoms: C_40  and  C_41 
REMARK   17  A    between atoms: C_41  and  C_42 
REMARK   18  A    between atoms: C_42  and  O_44 
REMARK   19  A    between atoms: C_45  and  C_46 
REMARK   20  A    between atoms: C_46  and  C_47 
REMARK   21  A    between atoms: C_47  and  O_49 
REMARK   22  A    between atoms: C_50  and  C_51 
REMARK   23  A    between atoms: C_51  and  C_52 
REMARK   24  A    between atoms: C_52  and  O_54 
REMARK   25  A    between atoms: C_55  and  C_56 
REMARK   26  A    between atoms: C_56  and  C_57 
REMARK   27  A    between atoms: C_57  and  C_58 
REMARK   28  A    between atoms: C_58  and  O_60 
ROOT
ATOM      1  O   UNK d   0      13.063   7.638   3.511  0.00  0.00    -0.650 OA
ATOM      2  C   UNK d   0      12.018   8.058   2.965  0.00  0.00     0.139 C 
ENDROOT
BRANCH   2   3
ATOM      3  O   UNK d   0      11.205   8.931   3.648  0.00  0.00    -0.776 OA
ATOM      4  H   UNK d   0      11.550   9.842   3.956  0.00  0.00     0.167 HD
ENDBRANCH   2   3
BRANCH   2   5
ATOM      5  C   UNK d   0      11.662   7.614   1.588  0.00  0.00     0.115 C 
BRANCH   5   6
ATOM      6  C   UNK d   0      11.966   6.150   1.422  0.00  0.00     0.052 C 
BRANCH   6   7
ATOM      7  C   UNK d   0      10.792   5.268   1.775  0.00  0.00    -0.020 A 
ATOM      8  C   UNK d   0       9.776   4.949   1.014  0.00  0.00    -0.011 A 
ATOM      9  C   UNK d   0       8.895   4.089   1.785  0.00  0.00     0.067 A 
ATOM     10  C   UNK d   0       7.689   3.409   1.557  0.00  0.00     0.062 C 
ATOM     11  N   UNK d   0       9.448   3.942   3.008  0.00  0.00    -0.248 NA
ATOM     12  C   UNK d   0       7.127   2.394   2.339  0.00  0.00     0.041 A 
ATOM     13  N   UNK d   0       7.009   2.267   3.675  0.00  0.00    -0.355 N 
ATOM     14  C   UNK d   0       6.620   1.246   1.704  0.00  0.00    -0.022 A 
ATOM     15  C   UNK d   0       6.449   1.064   3.903  0.00  0.00     0.042 A 
ATOM     16  H   UNK d   0       7.299   3.020   4.440  0.00  0.00     0.166 HD
ATOM     17  C   UNK d   0       6.104   0.432   5.115  0.00  0.00     0.062 C 
ATOM     18  C   UNK d   0       6.191   0.394   2.691  0.00  0.00    -0.013 A 
ATOM     19  C   UNK d   0       6.832   0.333   6.273  0.00  0.00     0.067 A 
ATOM     20  N   UNK d   0       7.929   1.089   6.364  0.00  0.00    -0.248 NA
ATOM     21  C   UNK d   0       6.735  -0.431   7.505  0.00  0.00    -0.011 A 
ATOM     22  C   UNK d   0       8.558   0.873   7.566  0.00  0.00     0.066 A 
ATOM     23  C   UNK d   0       9.697   1.626   7.810  0.00  0.00     0.062 C 
ATOM     24  C   UNK d   0       7.751  -0.114   8.256  0.00  0.00    -0.020 A 
ATOM     25  C   UNK d   0      10.238   2.649   7.016  0.00  0.00     0.041 A 
ATOM     26  N   UNK d   0      10.369   2.769   5.690  0.00  0.00    -0.355 N 
ATOM     27  C   UNK d   0      10.742   3.803   7.655  0.00  0.00    -0.022 A 
ATOM     28  C   UNK d   0      10.935   3.964   5.460  0.00  0.00     0.042 A 
ATOM     29  H   UNK d   0      10.087   2.006   4.923  0.00  0.00     0.166 HD
ATOM     30  C   UNK d   0      11.292   4.601   4.261  0.00  0.00     0.062 C 
ATOM     31  C   UNK d   0      11.185   4.641   6.677  0.00  0.00    -0.013 A 
ATOM     32  C   UNK d   0      10.592   4.626   3.065  0.00  0.00     0.066 A 
BRANCH   8  33
ATOM     33  C   UNK d   0       9.544   5.378  -0.378  0.00  0.00     0.151 C 
BRANCH  33  34
ATOM     34  C   UNK d   0      10.425   4.692  -1.341  0.00  0.00     0.143 C 
ATOM     35  O   UNK d   0      10.421   3.457  -1.439  0.00  0.00    -0.650 OA
BRANCH  34  36
ATOM     36  O   UNK d   0      11.262   5.437  -2.139  0.00  0.00    -0.776 OA
ATOM     37  H   UNK d   0      11.093   5.531  -3.150  0.00  0.00     0.167 HD
ENDBRANCH  34  36
ENDBRANCH  33  34
ENDBRANCH   8  33
BRANCH  31  38
ATOM     38  C   UNK d   0      11.795   6.007   6.883  0.00  0.00     0.151 C 
BRANCH  38  39
ATOM     39  C   UNK d   0      10.805   7.062   6.942  0.00  0.00     0.143 C 
ATOM     40  O   UNK d   0      10.157   7.421   5.943  0.00  0.00    -0.650 OA
BRANCH  39  41
ATOM     41  O   UNK d   0      10.559   7.706   8.154  0.00  0.00    -0.776 OA
ATOM     42  H   UNK d   0      11.249   8.402   8.455  0.00  0.00     0.167 HD
ENDBRANCH  39  41
ENDBRANCH  38  39
ENDBRANCH  31  38
BRANCH  27  43
ATOM     43  C   UNK d   0      10.818   4.129   9.126  0.00  0.00     0.052 C 
BRANCH  43  44
ATOM     44  C   UNK d   0       9.483   4.142   9.797  0.00  0.00     0.115 C 
BRANCH  44  45
ATOM     45  C   UNK d   0       9.395   5.426  10.541  0.00  0.00     0.139 C 
ATOM     46  O   UNK d   0      10.394   6.187  10.528  0.00  0.00    -0.650 OA
BRANCH  45  47
ATOM     47  O   UNK d   0       8.268   5.812  11.233  0.00  0.00    -0.776 OA
ATOM     48  H   UNK d   0       7.355   5.342  11.125  0.00  0.00     0.167 HD
ENDBRANCH  45  47
ENDBRANCH  44  45
ENDBRANCH  43  44
ENDBRANCH  27  43
BRANCH  24  49
ATOM     49  C   UNK d   0       8.023  -0.626   9.610  0.00  0.00     0.052 C 
BRANCH  49  50
ATOM     50  C   UNK d   0       9.106  -1.674   9.566  0.00  0.00     0.115 C 
BRANCH  50  51
ATOM     51  C   UNK d   0       8.849  -2.862   8.765  0.00  0.00     0.139 C 
ATOM     52  O   UNK d   0       9.409  -3.068   7.662  0.00  0.00    -0.650 OA
BRANCH  51  53
ATOM     53  O   UNK d   0       7.952  -3.816   9.219  0.00  0.00    -0.776 OA
ATOM     54  H   UNK d   0       7.054  -3.876   8.771  0.00  0.00     0.167 HD
ENDBRANCH  51  53
ENDBRANCH  50  51
ENDBRANCH  49  50
ENDBRANCH  24  49
BRANCH  21  55
ATOM     55  C   UNK d   0       5.636  -1.396   7.806  0.00  0.00     0.151 C 
BRANCH  55  56
ATOM     56  C   UNK d   0       5.468  -2.391   6.735  0.00  0.00     0.143 C 
ATOM     57  O   UNK d   0       4.454  -2.438   6.011  0.00  0.00    -0.650 OA
BRANCH  56  58
ATOM     58  O   UNK d   0       6.496  -3.311   6.537  0.00  0.00    -0.776 OA
ATOM     59  H   UNK d   0       6.830  -3.783   7.396  0.00  0.00     0.167 HD
ENDBRANCH  56  58
ENDBRANCH  55  56
ENDBRANCH  21  55
BRANCH  18  60
ATOM     60  C   UNK d   0       5.581  -0.965   2.456  0.00  0.00     0.151 C 
BRANCH  60  61
ATOM     61  C   UNK d   0       6.646  -1.940   2.738  0.00  0.00     0.143 C 
ATOM     62  O   UNK d   0       7.818  -1.888   2.364  0.00  0.00    -0.650 OA
BRANCH  61  63
ATOM     63  O   UNK d   0       6.254  -3.048   3.527  0.00  0.00    -0.776 OA
ATOM     64  H   UNK d   0       6.933  -3.589   4.034  0.00  0.00     0.167 HD
ENDBRANCH  61  63
ENDBRANCH  60  61
ENDBRANCH  18  60
BRANCH  14  65
ATOM     65  C   UNK d   0       6.423   0.937   0.247  0.00  0.00     0.052 C 
BRANCH  65  66
ATOM     66  C   UNK d   0       5.203   1.571  -0.322  0.00  0.00     0.115 C 
BRANCH  66  67
ATOM     67  C   UNK d   0       4.038   1.737   0.500  0.00  0.00     0.139 C 
ATOM     68  O   UNK d   0       3.143   0.814   0.490  0.00  0.00    -0.650 OA
BRANCH  67  69
ATOM     69  O   UNK d   0       3.734   2.806   1.342  0.00  0.00    -0.776 OA
ATOM     70  H   UNK d   0       2.837   2.739   1.845  0.00  0.00     0.167 HD
ENDBRANCH  67  69
ENDBRANCH  66  67
ENDBRANCH  65  66
ENDBRANCH  14  65
ENDBRANCH   6   7
ENDBRANCH   5   6
ENDBRANCH   2   5
TORSDOF 28
ENDMDL
MODEL 15
REMARK VINA RESULT:      -7.1      3.222     10.516
REMARK  28 active torsions:
REMARK  status: ('A' for Active; 'I' for Inactive)
REMARK    1  A    between atoms: C_2  and  O_3 
REMARK    2  A    between atoms: C_2  and  C_4 
REMARK    3  A    between atoms: C_4  and  C_5 
REMARK    4  A    between atoms: C_5  and  C_6 
REMARK    5  A    between atoms: C_7  and  C_8 
REMARK    6  A    between atoms: C_8  and  C_9 
REMARK    7  A    between atoms: C_9  and  O_11 
REMARK    8  A    between atoms: C_28  and  C_29 
REMARK    9  A    between atoms: C_29  and  C_30 
REMARK   10  A    between atoms: C_30  and  O_32 
REMARK   11  A    between atoms: C_33  and  C_34 
REMARK   12  A    between atoms: C_34  and  C_35 
REMARK   13  A    between atoms: C_35  and  C_36 
REMARK   14  A    between atoms: C_36  and  O_38 
REMARK   15  A    between atoms: C_39  and  C_40 
REMARK   16  A    between atoms: C_40  and  C_41 
REMARK   17  A    between atoms: C_41  and  C_42 
REMARK   18  A    between atoms: C_42  and  O_44 
REMARK   19  A    between atoms: C_45  and  C_46 
REMARK   20  A    between atoms: C_46  and  C_47 
REMARK   21  A    between atoms: C_47  and  O_49 
REMARK   22  A    between atoms: C_50  and  C_51 
REMARK   23  A    between atoms: C_51  and  C_52 
REMARK   24  A    between atoms: C_52  and  O_54 
REMARK   25  A    between atoms: C_55  and  C_56 
REMARK   26  A    between atoms: C_56  and  C_57 
REMARK   27  A    between atoms: C_57  and  C_58 
REMARK   28  A    between atoms: C_58  and  O_60 
ROOT
ATOM      1  O   UNK d   0     -22.874  -3.945   6.622  0.00  0.00    -0.650 OA
ATOM      2  C   UNK d   0     -23.632  -4.763   6.055  0.00  0.00     0.139 C 
ENDROOT
BRANCH   2   3
ATOM      3  O   UNK d   0     -23.655  -4.819   4.682  0.00  0.00    -0.776 OA
ATOM      4  H   UNK d   0     -24.479  -4.522   4.155  0.00  0.00     0.167 HD
ENDBRANCH   2   3
BRANCH   2   5
ATOM      5  C   UNK d   0     -24.499  -5.665   6.864  0.00  0.00     0.115 C 
BRANCH   5   6
ATOM      6  C   UNK d   0     -25.927  -5.193   6.813  0.00  0.00     0.052 C 
BRANCH   6   7
ATOM      7  C   UNK d   0     -26.166  -3.973   7.669  0.00  0.00    -0.020 A 
ATOM      8  C   UNK d   0     -26.515  -2.775   7.273  0.00  0.00    -0.011 A 
ATOM      9  C   UNK d   0     -26.618  -1.930   8.451  0.00  0.00     0.067 A 
ATOM     10  C   UNK d   0     -26.960  -0.593   8.711  0.00  0.00     0.062 C 
ATOM     11  N   UNK d   0     -26.309  -2.693   9.520  0.00  0.00    -0.248 NA
ATOM     12  C   UNK d   0     -27.274  -0.025   9.950  0.00  0.00     0.041 A 
ATOM     13  N   UNK d   0     -26.708  -0.174  11.163  0.00  0.00    -0.355 N 
ATOM     14  C   UNK d   0     -28.394   0.820  10.047  0.00  0.00    -0.022 A 
ATOM     15  C   UNK d   0     -27.445   0.548  12.028  0.00  0.00     0.042 A 
ATOM     16  H   UNK d   0     -25.795  -0.763  11.400  0.00  0.00     0.166 HD
ATOM     17  C   UNK d   0     -27.296   0.741  13.416  0.00  0.00     0.062 C 
ATOM     18  C   UNK d   0     -28.512   1.186  11.365  0.00  0.00    -0.013 A 
ATOM     19  C   UNK d   0     -27.026  -0.184  14.391  0.00  0.00     0.067 A 
ATOM     20  N   UNK d   0     -26.657  -1.402  13.984  0.00  0.00    -0.248 NA
ATOM     21  C   UNK d   0     -27.046  -0.207  15.844  0.00  0.00    -0.011 A 
ATOM     22  C   UNK d   0     -26.436  -2.219  15.066  0.00  0.00     0.066 A 
ATOM     23  C   UNK d   0     -26.008  -3.509  14.786  0.00  0.00     0.062 C 
ATOM     24  C   UNK d   0     -26.704  -1.402  16.233  0.00  0.00    -0.020 A 
ATOM     25  C   UNK d   0     -25.686  -4.056  13.535  0.00  0.00     0.041 A 
ATOM     26  N   UNK d   0     -26.257  -3.920  12.332  0.00  0.00    -0.355 N 
ATOM     27  C   UNK d   0     -24.558  -4.901  13.438  0.00  0.00    -0.022 A 
ATOM     28  C   UNK d   0     -25.529  -4.646  11.470  0.00  0.00     0.042 A 
ATOM     29  H   UNK d   0     -27.181  -3.336  12.098  0.00  0.00     0.166 HD
ATOM     30  C   UNK d   0     -25.671  -4.854  10.089  0.00  0.00     0.062 C 
ATOM     31  C   UNK d   0     -24.451  -5.278  12.135  0.00  0.00    -0.013 A 
ATOM     32  C   UNK d   0     -26.028  -3.933   9.118  0.00  0.00     0.066 A 
BRANCH   8  33
ATOM     33  C   UNK d   0     -26.760  -2.338   5.886  0.00  0.00     0.151 C 
BRANCH  33  34
ATOM     34  C   UNK d   0     -25.578  -1.711   5.269  0.00  0.00     0.143 C 
ATOM     35  O   UNK d   0     -24.979  -2.263   4.335  0.00  0.00    -0.650 OA
BRANCH  34  36
ATOM     36  O   UNK d   0     -25.135  -0.496   5.739  0.00  0.00    -0.776 OA
ATOM     37  H   UNK d   0     -24.199  -0.140   5.501  0.00  0.00     0.167 HD
ENDBRANCH  34  36
ENDBRANCH  33  34
ENDBRANCH   8  33
BRANCH  31  38
ATOM     38  C   UNK d   0     -23.384  -6.173  11.551  0.00  0.00     0.151 C 
BRANCH  38  39
ATOM     39  C   UNK d   0     -22.339  -5.434  10.874  0.00  0.00     0.143 C 
ATOM     40  O   UNK d   0     -22.478  -4.992   9.720  0.00  0.00    -0.650 OA
BRANCH  39  41
ATOM     41  O   UNK d   0     -21.129  -5.202  11.527  0.00  0.00    -0.776 OA
ATOM     42  H   UNK d   0     -21.070  -5.496  12.507  0.00  0.00     0.167 HD
ENDBRANCH  39  41
ENDBRANCH  38  39
ENDBRANCH  31  38
BRANCH  27  43
ATOM     43  C   UNK d   0     -23.604  -5.352  14.515  0.00  0.00     0.052 C 
BRANCH  43  44
ATOM     44  C   UNK d   0     -22.459  -4.414  14.722  0.00  0.00     0.115 C 
BRANCH  44  45
ATOM     45  C   UNK d   0     -21.240  -5.254  14.847  0.00  0.00     0.139 C 
ATOM     46  O   UNK d   0     -21.138  -6.264  14.107  0.00  0.00    -0.650 OA
BRANCH  45  47
ATOM     47  O   UNK d   0     -20.222  -4.966  15.730  0.00  0.00    -0.776 OA
ATOM     48  H   UNK d   0     -19.577  -4.170  15.602  0.00  0.00     0.167 HD
ENDBRANCH  45  47
ENDBRANCH  44  45
ENDBRANCH  43  44
ENDBRANCH  27  43
BRANCH  24  49
ATOM     49  C   UNK d   0     -26.558  -1.853  17.627  0.00  0.00     0.052 C 
BRANCH  49  50
ATOM     50  C   UNK d   0     -25.102  -1.892  18.016  0.00  0.00     0.115 C 
BRANCH  50  51
ATOM     51  C   UNK d   0     -24.788  -2.305  19.377  0.00  0.00     0.139 C 
ATOM     52  O   UNK d   0     -23.939  -1.713  20.085  0.00  0.00    -0.650 OA
BRANCH  51  53
ATOM     53  O   UNK d   0     -25.441  -3.395  19.931  0.00  0.00    -0.776 OA
ATOM     54  H   UNK d   0     -26.446  -3.410  19.907  0.00  0.00     0.167 HD
ENDBRANCH  51  53
ENDBRANCH  50  51
ENDBRANCH  49  50
ENDBRANCH  24  49
BRANCH  21  55
ATOM     55  C   UNK d   0     -27.401   0.969  16.693  0.00  0.00     0.151 C 
BRANCH  55  56
ATOM     56  C   UNK d   0     -26.286   1.922  16.808  0.00  0.00     0.143 C 
ATOM     57  O   UNK d   0     -26.238   2.985  16.159  0.00  0.00    -0.650 OA
BRANCH  56  58
ATOM     58  O   UNK d   0     -25.251   1.606  17.686  0.00  0.00    -0.776 OA
ATOM     59  H   UNK d   0     -24.346   1.385  17.232  0.00  0.00     0.167 HD
ENDBRANCH  56  58
ENDBRANCH  55  56
ENDBRANCH  21  55
BRANCH  18  60
ATOM     60  C   UNK d   0     -29.588   2.085  11.920  0.00  0.00     0.151 C 
BRANCH  60  61
ATOM     61  C   UNK d   0     -30.628   1.191  12.450  0.00  0.00     0.143 C 
ATOM     62  O   UNK d   0     -30.569  -0.034  12.559  0.00  0.00    -0.650 OA
BRANCH  61  63
ATOM     63  O   UNK d   0     -31.816   1.833  12.876  0.00  0.00    -0.776 OA
ATOM     64  H   UNK d   0     -32.332   1.496  13.669  0.00  0.00     0.167 HD
ENDBRANCH  61  63
ENDBRANCH  60  61
ENDBRANCH  18  60
BRANCH  14  65
ATOM     65  C   UNK d   0     -29.294   1.381   8.983  0.00  0.00     0.052 C 
BRANCH  65  66
ATOM     66  C   UNK d   0     -30.118   0.342   8.310  0.00  0.00     0.115 C 
BRANCH  66  67
ATOM     67  C   UNK d   0     -30.705  -0.714   9.086  0.00  0.00     0.139 C 
ATOM     68  O   UNK d   0     -30.244  -1.907   8.947  0.00  0.00    -0.650 OA
BRANCH  67  69
ATOM     69  O   UNK d   0     -31.747  -0.618  10.007  0.00  0.00    -0.776 OA
ATOM     70  H   UNK d   0     -32.518  -1.290   9.882  0.00  0.00     0.167 HD
ENDBRANCH  67  69
ENDBRANCH  66  67
ENDBRANCH  65  66
ENDBRANCH  14  65
ENDBRANCH   6   7
ENDBRANCH   5   6
ENDBRANCH   2   5
TORSDOF 28
ENDMDL
MODEL 16
REMARK VINA RESULT:      -7.0      2.273     10.658
REMARK  28 active torsions:
REMARK  status: ('A' for Active; 'I' for Inactive)
REMARK    1  A    between atoms: C_2  and  O_3 
REMARK    2  A    between atoms: C_2  and  C_4 
REMARK    3  A    between atoms: C_4  and  C_5 
REMARK    4  A    between atoms: C_5  and  C_6 
REMARK    5  A    between atoms: C_7  and  C_8 
REMARK    6  A    between atoms: C_8  and  C_9 
REMARK    7  A    between atoms: C_9  and  O_11 
REMARK    8  A    between atoms: C_28  and  C_29 
REMARK    9  A    between atoms: C_29  and  C_30 
REMARK   10  A    between atoms: C_30  and  O_32 
REMARK   11  A    between atoms: C_33  and  C_34 
REMARK   12  A    between atoms: C_34  and  C_35 
REMARK   13  A    between atoms: C_35  and  C_36 
REMARK   14  A    between atoms: C_36  and  O_38 
REMARK   15  A    between atoms: C_39  and  C_40 
REMARK   16  A    between atoms: C_40  and  C_41 
REMARK   17  A    between atoms: C_41  and  C_42 
REMARK   18  A    between atoms: C_42  and  O_44 
REMARK   19  A    between atoms: C_45  and  C_46 
REMARK   20  A    between atoms: C_46  and  C_47 
REMARK   21  A    between atoms: C_47  and  O_49 
REMARK   22  A    between atoms: C_50  and  C_51 
REMARK   23  A    between atoms: C_51  and  C_52 
REMARK   24  A    between atoms: C_52  and  O_54 
REMARK   25  A    between atoms: C_55  and  C_56 
REMARK   26  A    between atoms: C_56  and  C_57 
REMARK   27  A    between atoms: C_57  and  C_58 
REMARK   28  A    between atoms: C_58  and  O_60 
ROOT
ATOM      1  O   UNK d   0     -24.216  -5.081   4.886  0.00  0.00    -0.650 OA
ATOM      2  C   UNK d   0     -25.374  -4.612   4.929  0.00  0.00     0.139 C 
ENDROOT
BRANCH   2   3
ATOM      3  O   UNK d   0     -26.409  -5.321   4.368  0.00  0.00    -0.776 OA
ATOM      4  H   UNK d   0     -26.599  -5.274   3.365  0.00  0.00     0.167 HD
ENDBRANCH   2   3
BRANCH   2   5
ATOM      5  C   UNK d   0     -25.625  -3.295   5.581  0.00  0.00     0.115 C 
BRANCH   5   6
ATOM      6  C   UNK d   0     -27.104  -3.067   5.734  0.00  0.00     0.052 C 
BRANCH   6   7
ATOM      7  C   UNK d   0     -27.437  -2.180   6.910  0.00  0.00    -0.020 A 
ATOM      8  C   UNK d   0     -27.548  -0.876   6.920  0.00  0.00    -0.011 A 
ATOM      9  C   UNK d   0     -27.871  -0.468   8.277  0.00  0.00     0.067 A 
ATOM     10  C   UNK d   0     -28.133   0.744   8.935  0.00  0.00     0.062 C 
ATOM     11  N   UNK d   0     -27.931  -1.587   9.029  0.00  0.00    -0.248 NA
ATOM     12  C   UNK d   0     -28.703   0.915  10.201  0.00  0.00     0.041 A 
ATOM     13  N   UNK d   0     -28.493   0.267  11.362  0.00  0.00    -0.355 N 
ATOM     14  C   UNK d   0     -29.719   1.874  10.366  0.00  0.00    -0.022 A 
ATOM     15  C   UNK d   0     -29.355   0.784  12.258  0.00  0.00     0.042 A 
ATOM     16  H   UNK d   0     -27.737  -0.527  11.550  0.00  0.00     0.166 HD
ATOM     17  C   UNK d   0     -29.557   0.472  13.617  0.00  0.00     0.062 C 
ATOM     18  C   UNK d   0     -30.141   1.794  11.670  0.00  0.00    -0.013 A 
ATOM     19  C   UNK d   0     -29.646  -0.759  14.215  0.00  0.00     0.067 A 
ATOM     20  N   UNK d   0     -29.307  -1.817  13.475  0.00  0.00    -0.248 NA
ATOM     21  C   UNK d   0     -30.050  -1.260  15.518  0.00  0.00    -0.011 A 
ATOM     22  C   UNK d   0     -29.461  -2.974  14.198  0.00  0.00     0.066 A 
ATOM     23  C   UNK d   0     -29.106  -4.153  13.559  0.00  0.00     0.062 C 
ATOM     24  C   UNK d   0     -29.943  -2.558  15.501  0.00  0.00    -0.020 A 
ATOM     25  C   UNK d   0     -28.523  -4.302  12.291  0.00  0.00     0.041 A 
ATOM     26  N   UNK d   0     -28.742  -3.668  11.133  0.00  0.00    -0.355 N 
ATOM     27  C   UNK d   0     -27.500  -5.262  12.127  0.00  0.00    -0.022 A 
ATOM     28  C   UNK d   0     -27.890  -4.188  10.236  0.00  0.00     0.042 A 
ATOM     29  H   UNK d   0     -29.509  -2.878  10.943  0.00  0.00     0.166 HD
ATOM     30  C   UNK d   0     -27.684  -3.894   8.879  0.00  0.00     0.062 C 
ATOM     31  C   UNK d   0     -27.093  -5.196  10.830  0.00  0.00    -0.013 A 
ATOM     32  C   UNK d   0     -27.680  -2.651   8.265  0.00  0.00     0.066 A 
BRANCH   8  33
ATOM     33  C   UNK d   0     -27.375   0.036   5.774  0.00  0.00     0.151 C 
BRANCH  33  34
ATOM     34  C   UNK d   0     -25.959   0.328   5.486  0.00  0.00     0.143 C 
ATOM     35  O   UNK d   0     -25.580   0.563   4.330  0.00  0.00    -0.650 OA
BRANCH  34  36
ATOM     36  O   UNK d   0     -25.047   0.337   6.516  0.00  0.00    -0.776 OA
ATOM     37  H   UNK d   0     -25.246   0.824   7.401  0.00  0.00     0.167 HD
ENDBRANCH  34  36
ENDBRANCH  33  34
ENDBRANCH   8  33
BRANCH  31  38
ATOM     38  C   UNK d   0     -26.005  -6.029  10.194  0.00  0.00     0.151 C 
BRANCH  38  39
ATOM     39  C   UNK d   0     -26.517  -6.984   9.235  0.00  0.00     0.143 C 
ATOM     40  O   UNK d   0     -25.890  -7.298   8.208  0.00  0.00    -0.650 OA
BRANCH  39  41
ATOM     41  O   UNK d   0     -27.757  -7.584   9.459  0.00  0.00    -0.776 OA
ATOM     42  H   UNK d   0     -27.817  -8.242  10.242  0.00  0.00     0.167 HD
ENDBRANCH  39  41
ENDBRANCH  38  39
ENDBRANCH  31  38
BRANCH  27  43
ATOM     43  C   UNK d   0     -26.912  -6.217  13.136  0.00  0.00     0.052 C 
BRANCH  43  44
ATOM     44  C   UNK d   0     -27.047  -7.651  12.739  0.00  0.00     0.115 C 
BRANCH  44  45
ATOM     45  C   UNK d   0     -25.739  -8.295  13.024  0.00  0.00     0.139 C 
ATOM     46  O   UNK d   0     -24.717  -7.566  13.068  0.00  0.00    -0.650 OA
BRANCH  45  47
ATOM     47  O   UNK d   0     -25.604  -9.649  13.244  0.00  0.00    -0.776 OA
ATOM     48  H   UNK d   0     -24.732 -10.165  13.045  0.00  0.00     0.167 HD
ENDBRANCH  45  47
ENDBRANCH  44  45
ENDBRANCH  43  44
ENDBRANCH  27  43
BRANCH  24  49
ATOM     49  C   UNK d   0     -30.214  -3.467  16.627  0.00  0.00     0.052 C 
BRANCH  49  50
ATOM     50  C   UNK d   0     -31.695  -3.547  16.892  0.00  0.00     0.115 C 
BRANCH  50  51
ATOM     51  C   UNK d   0     -32.546  -3.968  15.787  0.00  0.00     0.139 C 
ATOM     52  O   UNK d   0     -32.524  -5.132  15.322  0.00  0.00    -0.650 OA
BRANCH  51  53
ATOM     53  O   UNK d   0     -33.421  -3.060  15.210  0.00  0.00    -0.776 OA
ATOM     54  H   UNK d   0     -33.950  -2.459  15.816  0.00  0.00     0.167 HD
ENDBRANCH  51  53
ENDBRANCH  50  51
ENDBRANCH  49  50
ENDBRANCH  24  49
BRANCH  21  55
ATOM     55  C   UNK d   0     -30.495  -0.390  16.647  0.00  0.00     0.151 C 
BRANCH  55  56
ATOM     56  C   UNK d   0     -29.360   0.119  17.432  0.00  0.00     0.143 C 
ATOM     57  O   UNK d   0     -28.840   1.232  17.222  0.00  0.00    -0.650 OA
BRANCH  56  58
ATOM     58  O   UNK d   0     -28.859  -0.691  18.449  0.00  0.00    -0.776 OA
ATOM     59  H   UNK d   0     -29.107  -0.390  19.409  0.00  0.00     0.167 HD
ENDBRANCH  56  58
ENDBRANCH  55  56
ENDBRANCH  21  55
BRANCH  18  60
ATOM     60  C   UNK d   0     -31.230   2.643  12.279  0.00  0.00     0.151 C 
BRANCH  60  61
ATOM     61  C   UNK d   0     -32.364   1.736  12.515  0.00  0.00     0.143 C 
ATOM     62  O   UNK d   0     -32.898   1.481  13.594  0.00  0.00    -0.650 OA
BRANCH  61  63
ATOM     63  O   UNK d   0     -32.877   1.101  11.358  0.00  0.00    -0.776 OA
ATOM     64  H   UNK d   0     -32.868   0.100  11.269  0.00  0.00     0.167 HD
ENDBRANCH  61  63
ENDBRANCH  60  61
ENDBRANCH  18  60
BRANCH  14  65
ATOM     65  C   UNK d   0     -30.247   2.916   9.421  0.00  0.00     0.052 C 
BRANCH  65  66
ATOM     66  C   UNK d   0     -31.451   2.466   8.673  0.00  0.00     0.115 C 
BRANCH  66  67
ATOM     67  C   UNK d   0     -32.603   3.319   8.598  0.00  0.00     0.139 C 
ATOM     68  O   UNK d   0     -33.240   3.587   9.683  0.00  0.00    -0.650 OA
BRANCH  67  69
ATOM     69  O   UNK d   0     -33.148   3.921   7.464  0.00  0.00    -0.776 OA
ATOM     70  H   UNK d   0     -32.684   3.696   6.572  0.00  0.00     0.167 HD
ENDBRANCH  67  69
ENDBRANCH  66  67
ENDBRANCH  65  66
ENDBRANCH  14  65
ENDBRANCH   6   7
ENDBRANCH   5   6
ENDBRANCH   2   5
TORSDOF 28
ENDMDL
MODEL 17
REMARK VINA RESULT:      -7.0      3.295      8.249
REMARK  28 active torsions:
REMARK  status: ('A' for Active; 'I' for Inactive)
REMARK    1  A    between atoms: C_2  and  O_3 
REMARK    2  A    between atoms: C_2  and  C_4 
REMARK    3  A    between atoms: C_4  and  C_5 
REMARK    4  A    between atoms: C_5  and  C_6 
REMARK    5  A    between atoms: C_7  and  C_8 
REMARK    6  A    between atoms: C_8  and  C_9 
REMARK    7  A    between atoms: C_9  and  O_11 
REMARK    8  A    between atoms: C_28  and  C_29 
REMARK    9  A    between atoms: C_29  and  C_30 
REMARK   10  A    between atoms: C_30  and  O_32 
REMARK   11  A    between atoms: C_33  and  C_34 
REMARK   12  A    between atoms: C_34  and  C_35 
REMARK   13  A    between atoms: C_35  and  C_36 
REMARK   14  A    between atoms: C_36  and  O_38 
REMARK   15  A    between atoms: C_39  and  C_40 
REMARK   16  A    between atoms: C_40  and  C_41 
REMARK   17  A    between atoms: C_41  and  C_42 
REMARK   18  A    between atoms: C_42  and  O_44 
REMARK   19  A    between atoms: C_45  and  C_46 
REMARK   20  A    between atoms: C_46  and  C_47 
REMARK   21  A    between atoms: C_47  and  O_49 
REMARK   22  A    between atoms: C_50  and  C_51 
REMARK   23  A    between atoms: C_51  and  C_52 
REMARK   24  A    between atoms: C_52  and  O_54 
REMARK   25  A    between atoms: C_55  and  C_56 
REMARK   26  A    between atoms: C_56  and  C_57 
REMARK   27  A    between atoms: C_57  and  C_58 
REMARK   28  A    between atoms: C_58  and  O_60 
ROOT
ATOM      1  O   UNK d   0     -33.324   3.213   9.826  0.00  0.00    -0.650 OA
ATOM      2  C   UNK d   0     -32.582   3.141   8.822  0.00  0.00     0.139 C 
ENDROOT
BRANCH   2   3
ATOM      3  O   UNK d   0     -32.935   3.809   7.674  0.00  0.00    -0.776 OA
ATOM      4  H   UNK d   0     -33.018   4.827   7.661  0.00  0.00     0.167 HD
ENDBRANCH   2   3
BRANCH   2   5
ATOM      5  C   UNK d   0     -31.328   2.336   8.874  0.00  0.00     0.115 C 
BRANCH   5   6
ATOM      6  C   UNK d   0     -31.533   1.112   9.725  0.00  0.00     0.052 C 
BRANCH   6   7
ATOM      7  C   UNK d   0     -30.402   0.885  10.699  0.00  0.00    -0.020 A 
ATOM      8  C   UNK d   0     -30.052   1.644  11.706  0.00  0.00    -0.011 A 
ATOM      9  C   UNK d   0     -28.905   1.026  12.350  0.00  0.00     0.067 A 
ATOM     10  C   UNK d   0     -28.092   1.310  13.459  0.00  0.00     0.062 C 
ATOM     11  N   UNK d   0     -28.620  -0.101  11.666  0.00  0.00    -0.248 NA
ATOM     12  C   UNK d   0     -27.197   0.444  14.097  0.00  0.00     0.041 A 
ATOM     13  N   UNK d   0     -26.307  -0.435  13.599  0.00  0.00    -0.355 N 
ATOM     14  C   UNK d   0     -27.199   0.378  15.502  0.00  0.00    -0.022 A 
ATOM     15  C   UNK d   0     -25.749  -1.063  14.652  0.00  0.00     0.042 A 
ATOM     16  H   UNK d   0     -26.063  -0.595  12.525  0.00  0.00     0.166 HD
ATOM     17  C   UNK d   0     -24.763  -2.068  14.698  0.00  0.00     0.062 C 
ATOM     18  C   UNK d   0     -26.284  -0.580  15.862  0.00  0.00    -0.013 A 
ATOM     19  C   UNK d   0     -24.655  -3.206  13.939  0.00  0.00     0.067 A 
ATOM     20  N   UNK d   0     -25.461  -3.305  12.879  0.00  0.00    -0.248 NA
ATOM     21  C   UNK d   0     -23.858  -4.420  13.986  0.00  0.00    -0.011 A 
ATOM     22  C   UNK d   0     -25.250  -4.496  12.230  0.00  0.00     0.066 A 
ATOM     23  C   UNK d   0     -25.999  -4.714  11.083  0.00  0.00     0.062 C 
ATOM     24  C   UNK d   0     -24.214  -5.173  12.985  0.00  0.00    -0.020 A 
ATOM     25  C   UNK d   0     -26.883  -3.826  10.451  0.00  0.00     0.041 A 
ATOM     26  N   UNK d   0     -27.779  -2.963  10.946  0.00  0.00    -0.355 N 
ATOM     27  C   UNK d   0     -26.878  -3.757   9.041  0.00  0.00    -0.022 A 
ATOM     28  C   UNK d   0     -28.342  -2.342   9.897  0.00  0.00     0.042 A 
ATOM     29  H   UNK d   0     -28.030  -2.811  12.024  0.00  0.00     0.166 HD
ATOM     30  C   UNK d   0     -29.331  -1.347   9.836  0.00  0.00     0.062 C 
ATOM     31  C   UNK d   0     -27.797  -2.820   8.682  0.00  0.00    -0.013 A 
ATOM     32  C   UNK d   0     -29.485  -0.243  10.661  0.00  0.00     0.066 A 
BRANCH   8  33
ATOM     33  C   UNK d   0     -30.689   2.905  12.128  0.00  0.00     0.151 C 
BRANCH  33  34
ATOM     34  C   UNK d   0     -29.817   4.077  11.934  0.00  0.00     0.143 C 
ATOM     35  O   UNK d   0     -29.533   4.478  10.796  0.00  0.00    -0.650 OA
BRANCH  34  36
ATOM     36  O   UNK d   0     -29.311   4.732  13.033  0.00  0.00    -0.776 OA
ATOM     37  H   UNK d   0     -28.309   4.694  13.264  0.00  0.00     0.167 HD
ENDBRANCH  34  36
ENDBRANCH  33  34
ENDBRANCH   8  33
BRANCH  31  38
ATOM     38  C   UNK d   0     -28.131  -2.393   7.272  0.00  0.00     0.151 C 
BRANCH  38  39
ATOM     39  C   UNK d   0     -27.191  -1.429   6.740  0.00  0.00     0.143 C 
ATOM     40  O   UNK d   0     -26.687  -0.535   7.441  0.00  0.00    -0.650 OA
BRANCH  39  41
ATOM     41  O   UNK d   0     -26.828  -1.495   5.395  0.00  0.00    -0.776 OA
ATOM     42  H   UNK d   0     -26.278  -2.310   5.104  0.00  0.00     0.167 HD
ENDBRANCH  39  41
ENDBRANCH  38  39
ENDBRANCH  31  38
BRANCH  27  43
ATOM     43  C   UNK d   0     -26.051  -4.533   8.047  0.00  0.00     0.052 C 
BRANCH  43  44
ATOM     44  C   UNK d   0     -24.683  -3.965   7.845  0.00  0.00     0.115 C 
BRANCH  44  45
ATOM     45  C   UNK d   0     -24.342  -4.180   6.415  0.00  0.00     0.139 C 
ATOM     46  O   UNK d   0     -24.068  -5.347   6.040  0.00  0.00    -0.650 OA
BRANCH  45  47
ATOM     47  O   UNK d   0     -24.320  -3.158   5.490  0.00  0.00    -0.776 OA
ATOM     48  H   UNK d   0     -24.456  -3.314   4.479  0.00  0.00     0.167 HD
ENDBRANCH  45  47
ENDBRANCH  44  45
ENDBRANCH  43  44
ENDBRANCH  27  43
BRANCH  24  49
ATOM     49  C   UNK d   0     -23.634  -6.480  12.632  0.00  0.00     0.052 C 
BRANCH  49  50
ATOM     50  C   UNK d   0     -24.290  -7.578  13.430  0.00  0.00     0.115 C 
BRANCH  50  51
ATOM     51  C   UNK d   0     -25.240  -8.432  12.730  0.00  0.00     0.139 C 
ATOM     52  O   UNK d   0     -25.653  -8.178  11.573  0.00  0.00    -0.650 OA
BRANCH  51  53
ATOM     53  O   UNK d   0     -25.722  -9.574  13.349  0.00  0.00    -0.776 OA
ATOM     54  H   UNK d   0     -25.807 -10.412  12.801  0.00  0.00     0.167 HD
ENDBRANCH  51  53
ENDBRANCH  50  51
ENDBRANCH  49  50
ENDBRANCH  24  49
BRANCH  21  55
ATOM     55  C   UNK d   0     -22.820  -4.699  15.022  0.00  0.00     0.151 C 
BRANCH  55  56
ATOM     56  C   UNK d   0     -21.458  -4.636  14.470  0.00  0.00     0.143 C 
ATOM     57  O   UNK d   0     -20.575  -5.467  14.757  0.00  0.00    -0.650 OA
BRANCH  56  58
ATOM     58  O   UNK d   0     -21.162  -3.596  13.591  0.00  0.00    -0.776 OA
ATOM     59  H   UNK d   0     -20.875  -2.710  14.044  0.00  0.00     0.167 HD
ENDBRANCH  56  58
ENDBRANCH  55  56
ENDBRANCH  21  55
BRANCH  18  60
ATOM     60  C   UNK d   0     -25.968  -0.984  17.281  0.00  0.00     0.151 C 
BRANCH  60  61
ATOM     61  C   UNK d   0     -24.779  -0.210  17.666  0.00  0.00     0.143 C 
ATOM     62  O   UNK d   0     -24.368   0.828  17.146  0.00  0.00    -0.650 OA
BRANCH  61  63
ATOM     63  O   UNK d   0     -24.045  -0.735  18.757  0.00  0.00    -0.776 OA
ATOM     64  H   UNK d   0     -23.067  -0.536  18.868  0.00  0.00     0.167 HD
ENDBRANCH  61  63
ENDBRANCH  60  61
ENDBRANCH  18  60
BRANCH  14  65
ATOM     65  C   UNK d   0     -27.920   1.212  16.522  0.00  0.00     0.052 C 
BRANCH  65  66
ATOM     66  C   UNK d   0     -29.273   0.687  16.850  0.00  0.00     0.115 C 
BRANCH  66  67
ATOM     67  C   UNK d   0     -30.425   1.526  16.670  0.00  0.00     0.139 C 
ATOM     68  O   UNK d   0     -30.966   1.582  15.505  0.00  0.00    -0.650 OA
BRANCH  67  69
ATOM     69  O   UNK d   0     -31.061   2.319  17.624  0.00  0.00    -0.776 OA
ATOM     70  H   UNK d   0     -32.052   2.532  17.441  0.00  0.00     0.167 HD
ENDBRANCH  67  69
ENDBRANCH  66  67
ENDBRANCH  65  66
ENDBRANCH  14  65
ENDBRANCH   6   7
ENDBRANCH   5   6
ENDBRANCH   2   5
TORSDOF 28
ENDMDL
MODEL 18
REMARK VINA RESULT:      -7.0      3.445      8.223
REMARK  28 active torsions:
REMARK  status: ('A' for Active; 'I' for Inactive)
REMARK    1  A    between atoms: C_2  and  O_3 
REMARK    2  A    between atoms: C_2  and  C_4 
REMARK    3  A    between atoms: C_4  and  C_5 
REMARK    4  A    between atoms: C_5  and  C_6 
REMARK    5  A    between atoms: C_7  and  C_8 
REMARK    6  A    between atoms: C_8  and  C_9 
REMARK    7  A    between atoms: C_9  and  O_11 
REMARK    8  A    between atoms: C_28  and  C_29 
REMARK    9  A    between atoms: C_29  and  C_30 
REMARK   10  A    between atoms: C_30  and  O_32 
REMARK   11  A    between atoms: C_33  and  C_34 
REMARK   12  A    between atoms: C_34  and  C_35 
REMARK   13  A    between atoms: C_35  and  C_36 
REMARK   14  A    between atoms: C_36  and  O_38 
REMARK   15  A    between atoms: C_39  and  C_40 
REMARK   16  A    between atoms: C_40  and  C_41 
REMARK   17  A    between atoms: C_41  and  C_42 
REMARK   18  A    between atoms: C_42  and  O_44 
REMARK   19  A    between atoms: C_45  and  C_46 
REMARK   20  A    between atoms: C_46  and  C_47 
REMARK   21  A    between atoms: C_47  and  O_49 
REMARK   22  A    between atoms: C_50  and  C_51 
REMARK   23  A    between atoms: C_51  and  C_52 
REMARK   24  A    between atoms: C_52  and  O_54 
REMARK   25  A    between atoms: C_55  and  C_56 
REMARK   26  A    between atoms: C_56  and  C_57 
REMARK   27  A    between atoms: C_57  and  C_58 
REMARK   28  A    between atoms: C_58  and  O_60 
ROOT
ATOM      1  O   UNK d   0     -22.556  -4.646   5.959  0.00  0.00    -0.650 OA
ATOM      2  C   UNK d   0     -23.537  -5.036   6.632  0.00  0.00     0.139 C 
ENDROOT
BRANCH   2   3
ATOM      3  O   UNK d   0     -24.805  -4.879   6.127  0.00  0.00    -0.776 OA
ATOM      4  H   UNK d   0     -24.978  -4.295   5.307  0.00  0.00     0.167 HD
ENDBRANCH   2   3
BRANCH   2   5
ATOM      5  C   UNK d   0     -23.326  -5.664   7.967  0.00  0.00     0.115 C 
BRANCH   5   6
ATOM      6  C   UNK d   0     -24.634  -6.163   8.517  0.00  0.00     0.052 C 
BRANCH   6   7
ATOM      7  C   UNK d   0     -25.017  -5.483   9.810  0.00  0.00    -0.020 A 
ATOM      8  C   UNK d   0     -24.850  -5.932  11.028  0.00  0.00    -0.011 A 
ATOM      9  C   UNK d   0     -25.381  -4.938  11.946  0.00  0.00     0.067 A 
ATOM     10  C   UNK d   0     -25.487  -4.800  13.338  0.00  0.00     0.062 C 
ATOM     11  N   UNK d   0     -25.857  -3.919  11.200  0.00  0.00    -0.248 NA
ATOM     12  C   UNK d   0     -25.782  -3.635  14.054  0.00  0.00     0.041 A 
ATOM     13  N   UNK d   0     -26.688  -2.664  13.834  0.00  0.00    -0.355 N 
ATOM     14  C   UNK d   0     -25.008  -3.318  15.186  0.00  0.00    -0.022 A 
ATOM     15  C   UNK d   0     -26.505  -1.735  14.791  0.00  0.00     0.042 A 
ATOM     16  H   UNK d   0     -27.456  -2.645  13.029  0.00  0.00     0.166 HD
ATOM     17  C   UNK d   0     -27.181  -0.522  15.028  0.00  0.00     0.062 C 
ATOM     18  C   UNK d   0     -25.460  -2.110  15.657  0.00  0.00    -0.013 A 
ATOM     19  C   UNK d   0     -27.549   0.449  14.131  0.00  0.00     0.067 A 
ATOM     20  N   UNK d   0     -27.444   0.146  12.835  0.00  0.00    -0.248 NA
ATOM     21  C   UNK d   0     -28.043   1.813  14.213  0.00  0.00    -0.011 A 
ATOM     22  C   UNK d   0     -27.831   1.214  12.063  0.00  0.00     0.066 A 
ATOM     23  C   UNK d   0     -27.807   1.023  10.690  0.00  0.00     0.062 C 
ATOM     24  C   UNK d   0     -28.202   2.257  13.000  0.00  0.00    -0.020 A 
ATOM     25  C   UNK d   0     -27.521  -0.159   9.990  0.00  0.00     0.041 A 
ATOM     26  N   UNK d   0     -26.609  -1.117  10.201  0.00  0.00    -0.355 N 
ATOM     27  C   UNK d   0     -28.300  -0.479   8.857  0.00  0.00    -0.022 A 
ATOM     28  C   UNK d   0     -26.784  -2.040   9.242  0.00  0.00     0.042 A 
ATOM     29  H   UNK d   0     -25.832  -1.129  11.004  0.00  0.00     0.166 HD
ATOM     30  C   UNK d   0     -26.114  -3.247   8.990  0.00  0.00     0.062 C 
ATOM     31  C   UNK d   0     -27.842  -1.668   8.378  0.00  0.00    -0.013 A 
ATOM     32  C   UNK d   0     -25.668  -4.185   9.907  0.00  0.00     0.066 A 
BRANCH   8  33
ATOM     33  C   UNK d   0     -24.241  -7.216  11.422  0.00  0.00     0.151 C 
BRANCH  33  34
ATOM     34  C   UNK d   0     -25.223  -8.311  11.509  0.00  0.00     0.143 C 
ATOM     35  O   UNK d   0     -25.724  -8.800  10.487  0.00  0.00    -0.650 OA
BRANCH  34  36
ATOM     36  O   UNK d   0     -25.588  -8.794  12.745  0.00  0.00    -0.776 OA
ATOM     37  H   UNK d   0     -26.577  -8.912  13.002  0.00  0.00     0.167 HD
ENDBRANCH  34  36
ENDBRANCH  33  34
ENDBRANCH   8  33
BRANCH  31  38
ATOM     38  C   UNK d   0     -28.382  -2.414   7.181  0.00  0.00     0.151 C 
BRANCH  38  39
ATOM     39  C   UNK d   0     -27.507  -2.337   6.030  0.00  0.00     0.143 C 
ATOM     40  O   UNK d   0     -26.974  -1.273   5.670  0.00  0.00    -0.650 OA
BRANCH  39  41
ATOM     41  O   UNK d   0     -27.244  -3.489   5.290  0.00  0.00    -0.776 OA
ATOM     42  H   UNK d   0     -28.037  -3.915   4.801  0.00  0.00     0.167 HD
ENDBRANCH  39  41
ENDBRANCH  38  39
ENDBRANCH  31  38
BRANCH  27  43
ATOM     43  C   UNK d   0     -29.437   0.288   8.228  0.00  0.00     0.052 C 
BRANCH  43  44
ATOM     44  C   UNK d   0     -30.710   0.201   9.006  0.00  0.00     0.115 C 
BRANCH  44  45
ATOM     45  C   UNK d   0     -31.173   1.597   9.218  0.00  0.00     0.139 C 
ATOM     46  O   UNK d   0     -32.255   1.775   9.831  0.00  0.00    -0.650 OA
BRANCH  45  47
ATOM     47  O   UNK d   0     -30.466   2.694   8.776  0.00  0.00    -0.776 OA
ATOM     48  H   UNK d   0     -29.969   3.335   9.416  0.00  0.00     0.167 HD
ENDBRANCH  45  47
ENDBRANCH  44  45
ENDBRANCH  43  44
ENDBRANCH  27  43
BRANCH  24  49
ATOM     49  C   UNK d   0     -28.722   3.582  12.621  0.00  0.00     0.052 C 
BRANCH  49  50
ATOM     50  C   UNK d   0     -30.167   3.479  12.206  0.00  0.00     0.115 C 
BRANCH  50  51
ATOM     51  C   UNK d   0     -30.810   4.696  11.729  0.00  0.00     0.139 C 
ATOM     52  O   UNK d   0     -30.993   5.697  12.462  0.00  0.00    -0.650 OA
BRANCH  51  53
ATOM     53  O   UNK d   0     -31.248   4.772  10.416  0.00  0.00    -0.776 OA
ATOM     54  H   UNK d   0     -32.202   5.036  10.247  0.00  0.00     0.167 HD
ENDBRANCH  51  53
ENDBRANCH  50  51
ENDBRANCH  49  50
ENDBRANCH  24  49
BRANCH  21  55
ATOM     55  C   UNK d   0     -28.308   2.530  15.496  0.00  0.00     0.151 C 
BRANCH  55  56
ATOM     56  C   UNK d   0     -27.071   3.035  16.112  0.00  0.00     0.143 C 
ATOM     57  O   UNK d   0     -26.456   4.027  15.675  0.00  0.00    -0.650 OA
BRANCH  56  58
ATOM     58  O   UNK d   0     -26.582   2.362  17.230  0.00  0.00    -0.776 OA
ATOM     59  H   UNK d   0     -26.048   1.499  17.022  0.00  0.00     0.167 HD
ENDBRANCH  56  58
ENDBRANCH  55  56
ENDBRANCH  21  55
BRANCH  18  60
ATOM     60  C   UNK d   0     -24.903  -1.389  16.860  0.00  0.00     0.151 C 
BRANCH  60  61
ATOM     61  C   UNK d   0     -24.026  -0.335  16.327  0.00  0.00     0.143 C 
ATOM     62  O   UNK d   0     -23.294  -0.407  15.340  0.00  0.00    -0.650 OA
BRANCH  61  63
ATOM     63  O   UNK d   0     -24.045   0.885  17.046  0.00  0.00    -0.776 OA
ATOM     64  H   UNK d   0     -23.266   1.518  17.013  0.00  0.00     0.167 HD
ENDBRANCH  61  63
ENDBRANCH  60  61
ENDBRANCH  18  60
BRANCH  14  65
ATOM     65  C   UNK d   0     -23.952  -4.108  15.905  0.00  0.00     0.052 C 
BRANCH  65  66
ATOM     66  C   UNK d   0     -23.020  -4.809  14.982  0.00  0.00     0.115 C 
BRANCH  66  67
ATOM     67  C   UNK d   0     -22.044  -4.053  14.248  0.00  0.00     0.139 C 
ATOM     68  O   UNK d   0     -21.283  -4.676  13.419  0.00  0.00    -0.650 OA
BRANCH  67  69
ATOM     69  O   UNK d   0     -21.798  -2.682  14.315  0.00  0.00    -0.776 OA
ATOM     70  H   UNK d   0     -22.239  -2.187  15.104  0.00  0.00     0.167 HD
ENDBRANCH  67  69
ENDBRANCH  66  67
ENDBRANCH  65  66
ENDBRANCH  14  65
ENDBRANCH   6   7
ENDBRANCH   5   6
ENDBRANCH   2   5
TORSDOF 28
ENDMDL
MODEL 19
REMARK VINA RESULT:      -7.0      2.337     11.038
REMARK  28 active torsions:
REMARK  status: ('A' for Active; 'I' for Inactive)
REMARK    1  A    between atoms: C_2  and  O_3 
REMARK    2  A    between atoms: C_2  and  C_4 
REMARK    3  A    between atoms: C_4  and  C_5 
REMARK    4  A    between atoms: C_5  and  C_6 
REMARK    5  A    between atoms: C_7  and  C_8 
REMARK    6  A    between atoms: C_8  and  C_9 
REMARK    7  A    between atoms: C_9  and  O_11 
REMARK    8  A    between atoms: C_28  and  C_29 
REMARK    9  A    between atoms: C_29  and  C_30 
REMARK   10  A    between atoms: C_30  and  O_32 
REMARK   11  A    between atoms: C_33  and  C_34 
REMARK   12  A    between atoms: C_34  and  C_35 
REMARK   13  A    between atoms: C_35  and  C_36 
REMARK   14  A    between atoms: C_36  and  O_38 
REMARK   15  A    between atoms: C_39  and  C_40 
REMARK   16  A    between atoms: C_40  and  C_41 
REMARK   17  A    between atoms: C_41  and  C_42 
REMARK   18  A    between atoms: C_42  and  O_44 
REMARK   19  A    between atoms: C_45  and  C_46 
REMARK   20  A    between atoms: C_46  and  C_47 
REMARK   21  A    between atoms: C_47  and  O_49 
REMARK   22  A    between atoms: C_50  and  C_51 
REMARK   23  A    between atoms: C_51  and  C_52 
REMARK   24  A    between atoms: C_52  and  O_54 
REMARK   25  A    between atoms: C_55  and  C_56 
REMARK   26  A    between atoms: C_56  and  C_57 
REMARK   27  A    between atoms: C_57  and  C_58 
REMARK   28  A    between atoms: C_58  and  O_60 
ROOT
ATOM      1  O   UNK d   0     -21.327  -3.843   1.417  0.00  0.00    -0.650 OA
ATOM      2  C   UNK d   0     -22.189  -4.750   1.439  0.00  0.00     0.139 C 
ENDROOT
BRANCH   2   3
ATOM      3  O   UNK d   0     -22.772  -5.154   0.262  0.00  0.00    -0.776 OA
ATOM      4  H   UNK d   0     -23.495  -5.876   0.252  0.00  0.00     0.167 HD
ENDBRANCH   2   3
BRANCH   2   5
ATOM      5  C   UNK d   0     -22.576  -5.383   2.731  0.00  0.00     0.115 C 
BRANCH   5   6
ATOM      6  C   UNK d   0     -24.075  -5.421   2.860  0.00  0.00     0.052 C 
BRANCH   6   7
ATOM      7  C   UNK d   0     -24.605  -4.362   3.796  0.00  0.00    -0.020 A 
ATOM      8  C   UNK d   0     -24.766  -3.087   3.550  0.00  0.00    -0.011 A 
ATOM      9  C   UNK d   0     -25.294  -2.465   4.753  0.00  0.00     0.067 A 
ATOM     10  C   UNK d   0     -25.694  -1.174   5.133  0.00  0.00     0.062 C 
ATOM     11  N   UNK d   0     -25.418  -3.434   5.684  0.00  0.00    -0.248 NA
ATOM     12  C   UNK d   0     -26.444  -0.817   6.259  0.00  0.00     0.041 A 
ATOM     13  N   UNK d   0     -26.377  -1.233   7.538  0.00  0.00    -0.355 N 
ATOM     14  C   UNK d   0     -27.510   0.089   6.107  0.00  0.00    -0.022 A 
ATOM     15  C   UNK d   0     -27.377  -0.620   8.199  0.00  0.00     0.042 A 
ATOM     16  H   UNK d   0     -25.625  -1.931   7.968  0.00  0.00     0.166 HD
ATOM     17  C   UNK d   0     -27.757  -0.697   9.554  0.00  0.00     0.062 C 
ATOM     18  C   UNK d   0     -28.109   0.217   7.335  0.00  0.00    -0.013 A 
ATOM     19  C   UNK d   0     -27.883  -1.805  10.353  0.00  0.00     0.067 A 
ATOM     20  N   UNK d   0     -27.402  -2.954   9.873  0.00  0.00    -0.248 NA
ATOM     21  C   UNK d   0     -28.448  -2.090  11.661  0.00  0.00    -0.011 A 
ATOM     22  C   UNK d   0     -27.612  -3.971  10.772  0.00  0.00     0.066 A 
ATOM     23  C   UNK d   0     -27.125  -5.220  10.415  0.00  0.00     0.062 C 
ATOM     24  C   UNK d   0     -28.290  -3.361  11.899  0.00  0.00    -0.020 A 
ATOM     25  C   UNK d   0     -26.362  -5.555   9.285  0.00  0.00     0.041 A 
ATOM     26  N   UNK d   0     -26.439  -5.153   8.011  0.00  0.00    -0.355 N 
ATOM     27  C   UNK d   0     -25.290  -6.461   9.440  0.00  0.00    -0.022 A 
ATOM     28  C   UNK d   0     -25.448  -5.770   7.347  0.00  0.00     0.042 A 
ATOM     29  H   UNK d   0     -27.201  -4.460   7.578  0.00  0.00     0.166 HD
ATOM     30  C   UNK d   0     -25.064  -5.709   5.999  0.00  0.00     0.062 C 
ATOM     31  C   UNK d   0     -24.706  -6.602   8.219  0.00  0.00    -0.013 A 
ATOM     32  C   UNK d   0     -25.020  -4.599   5.171  0.00  0.00     0.066 A 
BRANCH   8  33
ATOM     33  C   UNK d   0     -24.468  -2.385   2.288  0.00  0.00     0.151 C 
BRANCH  33  34
ATOM     34  C   UNK d   0     -25.480  -2.630   1.245  0.00  0.00     0.143 C 
ATOM     35  O   UNK d   0     -25.190  -3.240   0.207  0.00  0.00    -0.650 OA
BRANCH  34  36
ATOM     36  O   UNK d   0     -26.764  -2.172   1.430  0.00  0.00    -0.776 OA
ATOM     37  H   UNK d   0     -27.189  -1.496   0.780  0.00  0.00     0.167 HD
ENDBRANCH  34  36
ENDBRANCH  33  34
ENDBRANCH   8  33
BRANCH  31  38
ATOM     38  C   UNK d   0     -23.507  -7.464   7.898  0.00  0.00     0.151 C 
BRANCH  38  39
ATOM     39  C   UNK d   0     -22.272  -6.711   7.846  0.00  0.00     0.143 C 
ATOM     40  O   UNK d   0     -21.416  -6.897   6.963  0.00  0.00    -0.650 OA
BRANCH  39  41
ATOM     41  O   UNK d   0     -22.020  -5.738   8.812  0.00  0.00    -0.776 OA
ATOM     42  H   UNK d   0     -22.610  -5.757   9.650  0.00  0.00     0.167 HD
ENDBRANCH  39  41
ENDBRANCH  38  39
ENDBRANCH  31  38
BRANCH  27  43
ATOM     43  C   UNK d   0     -24.815  -7.182  10.676  0.00  0.00     0.052 C 
BRANCH  43  44
ATOM     44  C   UNK d   0     -23.891  -6.364  11.519  0.00  0.00     0.115 C 
BRANCH  44  45
ATOM     45  C   UNK d   0     -24.220  -6.674  12.934  0.00  0.00     0.139 C 
ATOM     46  O   UNK d   0     -24.300  -5.719  13.746  0.00  0.00    -0.650 OA
BRANCH  45  47
ATOM     47  O   UNK d   0     -24.445  -7.956  13.386  0.00  0.00    -0.776 OA
ATOM     48  H   UNK d   0     -25.285  -8.221  13.925  0.00  0.00     0.167 HD
ENDBRANCH  45  47
ENDBRANCH  44  45
ENDBRANCH  43  44
ENDBRANCH  27  43
BRANCH  24  49
ATOM     49  C   UNK d   0     -28.683  -4.070  13.128  0.00  0.00     0.052 C 
BRANCH  49  50
ATOM     50  C   UNK d   0     -30.141  -4.445  13.074  0.00  0.00     0.115 C 
BRANCH  50  51
ATOM     51  C   UNK d   0     -30.940  -4.182  14.263  0.00  0.00     0.139 C 
ATOM     52  O   UNK d   0     -31.300  -5.088  15.051  0.00  0.00    -0.650 OA
BRANCH  51  53
ATOM     53  O   UNK d   0     -31.332  -2.884  14.553  0.00  0.00    -0.776 OA
ATOM     54  H   UNK d   0     -30.736  -2.327  15.140  0.00  0.00     0.167 HD
ENDBRANCH  51  53
ENDBRANCH  50  51
ENDBRANCH  49  50
ENDBRANCH  24  49
BRANCH  21  55
ATOM     55  C   UNK d   0     -29.082  -1.063  12.539  0.00  0.00     0.151 C 
BRANCH  55  56
ATOM     56  C   UNK d   0     -30.339  -0.552  11.971  0.00  0.00     0.143 C 
ATOM     57  O   UNK d   0     -30.439   0.585  11.469  0.00  0.00    -0.650 OA
BRANCH  56  58
ATOM     58  O   UNK d   0     -31.453  -1.388  12.002  0.00  0.00    -0.776 OA
ATOM     59  H   UNK d   0     -32.350  -0.912  12.209  0.00  0.00     0.167 HD
ENDBRANCH  56  58
ENDBRANCH  55  56
ENDBRANCH  21  55
BRANCH  18  60
ATOM     60  C   UNK d   0     -29.305   1.089   7.627  0.00  0.00     0.151 C 
BRANCH  60  61
ATOM     61  C   UNK d   0     -28.810   2.180   8.480  0.00  0.00     0.143 C 
ATOM     62  O   UNK d   0     -27.697   2.705   8.443  0.00  0.00    -0.650 OA
BRANCH  61  63
ATOM     63  O   UNK d   0     -29.734   2.660   9.440  0.00  0.00    -0.776 OA
ATOM     64  H   UNK d   0     -29.805   2.238  10.348  0.00  0.00     0.167 HD
ENDBRANCH  61  63
ENDBRANCH  60  61
ENDBRANCH  18  60
BRANCH  14  65
ATOM     65  C   UNK d   0     -27.938   0.910   4.924  0.00  0.00     0.052 C 
BRANCH  65  66
ATOM     66  C   UNK d   0     -26.819   1.217   3.993  0.00  0.00     0.115 C 
BRANCH  66  67
ATOM     67  C   UNK d   0     -27.005   1.054   2.579  0.00  0.00     0.139 C 
ATOM     68  O   UNK d   0     -26.063   1.432   1.788  0.00  0.00    -0.650 OA
BRANCH  67  69
ATOM     69  O   UNK d   0     -28.112   0.522   1.919  0.00  0.00    -0.776 OA
ATOM     70  H   UNK d   0     -28.932   0.322   2.510  0.00  0.00     0.167 HD
ENDBRANCH  67  69
ENDBRANCH  66  67
ENDBRANCH  65  66
ENDBRANCH  14  65
ENDBRANCH   6   7
ENDBRANCH   5   6
ENDBRANCH   2   5
TORSDOF 28
ENDMDL
MODEL 20
REMARK VINA RESULT:      -7.0      2.155      7.378
REMARK  28 active torsions:
REMARK  status: ('A' for Active; 'I' for Inactive)
REMARK    1  A    between atoms: C_2  and  O_3 
REMARK    2  A    between atoms: C_2  and  C_4 
REMARK    3  A    between atoms: C_4  and  C_5 
REMARK    4  A    between atoms: C_5  and  C_6 
REMARK    5  A    between atoms: C_7  and  C_8 
REMARK    6  A    between atoms: C_8  and  C_9 
REMARK    7  A    between atoms: C_9  and  O_11 
REMARK    8  A    between atoms: C_28  and  C_29 
REMARK    9  A    between atoms: C_29  and  C_30 
REMARK   10  A    between atoms: C_30  and  O_32 
REMARK   11  A    between atoms: C_33  and  C_34 
REMARK   12  A    between atoms: C_34  and  C_35 
REMARK   13  A    between atoms: C_35  and  C_36 
REMARK   14  A    between atoms: C_36  and  O_38 
REMARK   15  A    between atoms: C_39  and  C_40 
REMARK   16  A    between atoms: C_40  and  C_41 
REMARK   17  A    between atoms: C_41  and  C_42 
REMARK   18  A    between atoms: C_42  and  O_44 
REMARK   19  A    between atoms: C_45  and  C_46 
REMARK   20  A    between atoms: C_46  and  C_47 
REMARK   21  A    between atoms: C_47  and  O_49 
REMARK   22  A    between atoms: C_50  and  C_51 
REMARK   23  A    between atoms: C_51  and  C_52 
REMARK   24  A    between atoms: C_52  and  O_54 
REMARK   25  A    between atoms: C_55  and  C_56 
REMARK   26  A    between atoms: C_56  and  C_57 
REMARK   27  A    between atoms: C_57  and  C_58 
REMARK   28  A    between atoms: C_58  and  O_60 
ROOT
ATOM      1  O   UNK d   0     -22.707  -5.144  13.540  0.00  0.00    -0.650 OA
ATOM      2  C   UNK d   0     -23.731  -5.860  13.476  0.00  0.00     0.139 C 
ENDROOT
BRANCH   2   3
ATOM      3  O   UNK d   0     -23.618  -7.160  13.044  0.00  0.00    -0.776 OA
ATOM      4  H   UNK d   0     -23.745  -7.943  13.689  0.00  0.00     0.167 HD
ENDBRANCH   2   3
BRANCH   2   5
ATOM      5  C   UNK d   0     -25.058  -5.305  13.865  0.00  0.00     0.115 C 
BRANCH   5   6
ATOM      6  C   UNK d   0     -26.155  -6.013  13.118  0.00  0.00     0.052 C 
BRANCH   6   7
ATOM      7  C   UNK d   0     -26.851  -5.118  12.120  0.00  0.00    -0.020 A 
ATOM      8  C   UNK d   0     -28.038  -4.579  12.223  0.00  0.00    -0.011 A 
ATOM      9  C   UNK d   0     -28.283  -3.808  11.016  0.00  0.00     0.067 A 
ATOM     10  C   UNK d   0     -29.319  -2.999  10.524  0.00  0.00     0.062 C 
ATOM     11  N   UNK d   0     -27.194  -3.937  10.230  0.00  0.00    -0.248 NA
ATOM     12  C   UNK d   0     -29.259  -2.105   9.450  0.00  0.00     0.041 A 
ATOM     13  N   UNK d   0     -28.695  -2.219   8.232  0.00  0.00    -0.355 N 
ATOM     14  C   UNK d   0     -29.811  -0.820   9.601  0.00  0.00    -0.022 A 
ATOM     15  C   UNK d   0     -28.869  -1.038   7.610  0.00  0.00     0.042 A 
ATOM     16  H   UNK d   0     -28.201  -3.124   7.813  0.00  0.00     0.166 HD
ATOM     17  C   UNK d   0     -28.477  -0.616   6.324  0.00  0.00     0.062 C 
ATOM     18  C   UNK d   0     -29.564  -0.135   8.438  0.00  0.00    -0.013 A 
ATOM     19  C   UNK d   0     -27.277  -0.796   5.686  0.00  0.00     0.067 A 
ATOM     20  N   UNK d   0     -26.413  -1.644   6.250  0.00  0.00    -0.248 NA
ATOM     21  C   UNK d   0     -26.640  -0.269   4.490  0.00  0.00    -0.011 A 
ATOM     22  C   UNK d   0     -25.257  -1.709   5.510  0.00  0.00     0.066 A 
ATOM     23  C   UNK d   0     -24.284  -2.586   5.965  0.00  0.00     0.062 C 
ATOM     24  C   UNK d   0     -25.457  -0.804   4.396  0.00  0.00    -0.020 A 
ATOM     25  C   UNK d   0     -24.369  -3.485   7.039  0.00  0.00     0.041 A 
ATOM     26  N   UNK d   0     -24.916  -3.366   8.255  0.00  0.00    -0.355 N 
ATOM     27  C   UNK d   0     -23.818  -4.776   6.884  0.00  0.00    -0.022 A 
ATOM     28  C   UNK d   0     -24.736  -4.540   8.880  0.00  0.00     0.042 A 
ATOM     29  H   UNK d   0     -25.402  -2.453   8.678  0.00  0.00     0.166 HD
ATOM     30  C   UNK d   0     -25.112  -4.970  10.163  0.00  0.00     0.062 C 
ATOM     31  C   UNK d   0     -24.047  -5.450   8.044  0.00  0.00    -0.013 A 
ATOM     32  C   UNK d   0     -26.295  -4.714  10.837  0.00  0.00     0.066 A 
BRANCH   8  33
ATOM     33  C   UNK d   0     -28.979  -4.720  13.350  0.00  0.00     0.151 C 
BRANCH  33  34
ATOM     34  C   UNK d   0     -28.894  -3.603  14.308  0.00  0.00     0.143 C 
ATOM     35  O   UNK d   0     -27.924  -3.493  15.071  0.00  0.00    -0.650 OA
BRANCH  34  36
ATOM     36  O   UNK d   0     -29.907  -2.674  14.354  0.00  0.00    -0.776 OA
ATOM     37  H   UNK d   0     -29.804  -1.750  13.912  0.00  0.00     0.167 HD
ENDBRANCH  34  36
ENDBRANCH  33  34
ENDBRANCH   8  33
BRANCH  31  38
ATOM     38  C   UNK d   0     -23.647  -6.877   8.339  0.00  0.00     0.151 C 
BRANCH  38  39
ATOM     39  C   UNK d   0     -24.758  -7.801   8.253  0.00  0.00     0.143 C 
ATOM     40  O   UNK d   0     -25.105  -8.517   9.209  0.00  0.00    -0.650 OA
BRANCH  39  41
ATOM     41  O   UNK d   0     -25.476  -7.901   7.061  0.00  0.00    -0.776 OA
ATOM     42  H   UNK d   0     -26.450  -8.213   7.133  0.00  0.00     0.167 HD
ENDBRANCH  39  41
ENDBRANCH  38  39
ENDBRANCH  31  38
BRANCH  27  43
ATOM     43  C   UNK d   0     -23.098  -5.375   5.702  0.00  0.00     0.052 C 
BRANCH  43  44
ATOM     44  C   UNK d   0     -21.622  -5.490   5.906  0.00  0.00     0.115 C 
BRANCH  44  45
ATOM     45  C   UNK d   0     -21.018  -5.647   4.557  0.00  0.00     0.139 C 
ATOM     46  O   UNK d   0     -19.771  -5.765   4.478  0.00  0.00    -0.650 OA
BRANCH  45  47
ATOM     47  O   UNK d   0     -21.768  -5.674   3.402  0.00  0.00    -0.776 OA
ATOM     48  H   UNK d   0     -21.958  -6.544   2.877  0.00  0.00     0.167 HD
ENDBRANCH  45  47
ENDBRANCH  44  45
ENDBRANCH  43  44
ENDBRANCH  27  43
BRANCH  24  49
ATOM     49  C   UNK d   0     -24.486  -0.578   3.312  0.00  0.00     0.052 C 
BRANCH  49  50
ATOM     50  C   UNK d   0     -24.763  -1.506   2.157  0.00  0.00     0.115 C 
BRANCH  50  51
ATOM     51  C   UNK d   0     -24.880  -2.926   2.458  0.00  0.00     0.139 C 
ATOM     52  O   UNK d   0     -25.986  -3.512   2.536  0.00  0.00    -0.650 OA
BRANCH  51  53
ATOM     53  O   UNK d   0     -23.736  -3.678   2.673  0.00  0.00    -0.776 OA
ATOM     54  H   UNK d   0     -23.293  -3.624   3.574  0.00  0.00     0.167 HD
ENDBRANCH  51  53
ENDBRANCH  50  51
ENDBRANCH  49  50
ENDBRANCH  24  49
BRANCH  21  55
ATOM     55  C   UNK d   0     -27.282   0.711   3.565  0.00  0.00     0.151 C 
BRANCH  55  56
ATOM     56  C   UNK d   0     -27.371   0.194   2.190  0.00  0.00     0.143 C 
ATOM     57  O   UNK d   0     -27.983  -0.853   1.901  0.00  0.00    -0.650 OA
BRANCH  56  58
ATOM     58  O   UNK d   0     -26.740   0.921   1.182  0.00  0.00    -0.776 OA
ATOM     59  H   UNK d   0     -25.745   1.146   1.364  0.00  0.00     0.167 HD
ENDBRANCH  56  58
ENDBRANCH  55  56
ENDBRANCH  21  55
BRANCH  18  60
ATOM     60  C   UNK d   0     -29.978   1.291   8.169  0.00  0.00     0.151 C 
BRANCH  60  61
ATOM     61  C   UNK d   0     -28.904   2.133   8.716  0.00  0.00     0.143 C 
ATOM     62  O   UNK d   0     -27.695   1.901   8.694  0.00  0.00    -0.650 OA
BRANCH  61  63
ATOM     63  O   UNK d   0     -29.333   3.336   9.328  0.00  0.00    -0.776 OA
ATOM     64  H   UNK d   0     -29.509   3.380  10.316  0.00  0.00     0.167 HD
ENDBRANCH  61  63
ENDBRANCH  60  61
ENDBRANCH  18  60
BRANCH  14  65
ATOM     65  C   UNK d   0     -30.632  -0.230  10.713  0.00  0.00     0.052 C 
BRANCH  65  66
ATOM     66  C   UNK d   0     -29.828   0.595  11.654  0.00  0.00     0.115 C 
BRANCH  66  67
ATOM     67  C   UNK d   0     -28.504   0.174  12.018  0.00  0.00     0.139 C 
ATOM     68  O   UNK d   0     -28.355  -0.524  13.087  0.00  0.00    -0.650 OA
BRANCH  67  69
ATOM     69  O   UNK d   0     -27.312   0.431  11.342  0.00  0.00    -0.776 OA
ATOM     70  H   UNK d   0     -26.491   0.614  11.937  0.00  0.00     0.167 HD
ENDBRANCH  67  69
ENDBRANCH  66  67
ENDBRANCH  65  66
ENDBRANCH  14  65
ENDBRANCH   6   7
ENDBRANCH   5   6
ENDBRANCH   2   5
TORSDOF 28
ENDMDL
