MODEL 1
REMARK VINA RESULT:      -9.4      0.000      0.000
REMARK  28 active torsions:
REMARK  status: ('A' for Active; 'I' for Inactive)
REMARK    1  A    between atoms: C_2  and  O_3 
REMARK    2  A    between atoms: C_2  and  C_4 
REMARK    3  A    between atoms: C_4  and  C_5 
REMARK    4  A    between atoms: C_5  and  C_6 
REMARK    5  A    between atoms: C_7  and  C_8 
REMARK    6  A    between atoms: C_8  and  C_9 
REMARK    7  A    between atoms: C_9  and  O_11 
REMARK    8  A    between atoms: C_28  and  C_29 
REMARK    9  A    between atoms: C_29  and  C_30 
REMARK   10  A    between atoms: C_30  and  O_32 
REMARK   11  A    between atoms: C_33  and  C_34 
REMARK   12  A    between atoms: C_34  and  C_35 
REMARK   13  A    between atoms: C_35  and  C_36 
REMARK   14  A    between atoms: C_36  and  O_38 
REMARK   15  A    between atoms: C_39  and  C_40 
REMARK   16  A    between atoms: C_40  and  C_41 
REMARK   17  A    between atoms: C_41  and  C_42 
REMARK   18  A    between atoms: C_42  and  O_44 
REMARK   19  A    between atoms: C_45  and  C_46 
REMARK   20  A    between atoms: C_46  and  C_47 
REMARK   21  A    between atoms: C_47  and  O_49 
REMARK   22  A    between atoms: C_50  and  C_51 
REMARK   23  A    between atoms: C_51  and  C_52 
REMARK   24  A    between atoms: C_52  and  O_54 
REMARK   25  A    between atoms: C_55  and  C_56 
REMARK   26  A    between atoms: C_56  and  C_57 
REMARK   27  A    between atoms: C_57  and  C_58 
REMARK   28  A    between atoms: C_58  and  O_60 
ROOT
ATOM      1  O   UNK d   0     -14.523  -6.285  16.871  0.00  0.00    -0.650 OA
ATOM      2  C   UNK d   0     -14.568  -5.071  17.169  0.00  0.00     0.139 C 
ENDROOT
BRANCH   2   3
ATOM      3  O   UNK d   0     -15.636  -4.314  16.751  0.00  0.00    -0.776 OA
ATOM      4  H   UNK d   0     -16.558  -4.421  17.179  0.00  0.00     0.167 HD
ENDBRANCH   2   3
BRANCH   2   5
ATOM      5  C   UNK d   0     -13.471  -4.456  17.969  0.00  0.00     0.115 C 
BRANCH   5   6
ATOM      6  C   UNK d   0     -12.337  -4.052  17.067  0.00  0.00     0.052 C 
BRANCH   6   7
ATOM      7  C   UNK d   0     -10.983  -4.341  17.670  0.00  0.00    -0.020 A 
ATOM      8  C   UNK d   0     -10.153  -3.488  18.214  0.00  0.00    -0.011 A 
ATOM      9  C   UNK d   0      -8.977  -4.226  18.645  0.00  0.00     0.067 A 
ATOM     10  C   UNK d   0      -7.772  -3.919  19.296  0.00  0.00     0.062 C 
ATOM     11  N   UNK d   0      -9.174  -5.520  18.319  0.00  0.00    -0.248 NA
ATOM     12  C   UNK d   0      -6.872  -4.817  19.880  0.00  0.00     0.041 A 
ATOM     13  N   UNK d   0      -6.404  -6.006  19.455  0.00  0.00    -0.355 N 
ATOM     14  C   UNK d   0      -6.360  -4.531  21.159  0.00  0.00    -0.022 A 
ATOM     15  C   UNK d   0      -5.614  -6.486  20.434  0.00  0.00     0.042 A 
ATOM     16  H   UNK d   0      -6.613  -6.487  18.474  0.00  0.00     0.166 HD
ATOM     17  C   UNK d   0      -4.878  -7.685  20.509  0.00  0.00     0.062 C 
ATOM     18  C   UNK d   0      -5.562  -5.589  21.519  0.00  0.00    -0.013 A 
ATOM     19  C   UNK d   0      -5.265  -8.957  20.173  0.00  0.00     0.067 A 
ATOM     20  N   UNK d   0      -6.413  -9.082  19.502  0.00  0.00    -0.248 NA
ATOM     21  C   UNK d   0      -4.738 -10.296  20.373  0.00  0.00    -0.011 A 
ATOM     22  C   UNK d   0      -6.676 -10.407  19.251  0.00  0.00     0.066 A 
ATOM     23  C   UNK d   0      -7.825 -10.680  18.525  0.00  0.00     0.062 C 
ATOM     24  C   UNK d   0      -5.570 -11.140  19.835  0.00  0.00    -0.020 A 
ATOM     25  C   UNK d   0      -8.709  -9.763  17.935  0.00  0.00     0.041 A 
ATOM     26  N   UNK d   0      -9.186  -8.588  18.364  0.00  0.00    -0.355 N 
ATOM     27  C   UNK d   0      -9.219 -10.048  16.650  0.00  0.00    -0.022 A 
ATOM     28  C   UNK d   0      -9.981  -8.112  17.393  0.00  0.00     0.042 A 
ATOM     29  H   UNK d   0      -8.984  -8.111  19.354  0.00  0.00     0.166 HD
ATOM     30  C   UNK d   0     -10.727  -6.926  17.310  0.00  0.00     0.062 C 
ATOM     31  C   UNK d   0     -10.024  -9.008  16.299  0.00  0.00    -0.013 A 
ATOM     32  C   UNK d   0     -10.363  -5.656  17.729  0.00  0.00     0.066 A 
BRANCH   8  33
ATOM     33  C   UNK d   0     -10.351  -2.035  18.367  0.00  0.00     0.151 C 
BRANCH  33  34
ATOM     34  C   UNK d   0      -9.431  -1.242  17.533  0.00  0.00     0.143 C 
ATOM     35  O   UNK d   0      -9.361  -1.427  16.310  0.00  0.00    -0.650 OA
BRANCH  34  36
ATOM     36  O   UNK d   0      -8.637  -0.286  18.124  0.00  0.00    -0.776 OA
ATOM     37  H   UNK d   0      -7.624  -0.427  18.235  0.00  0.00     0.167 HD
ENDBRANCH  34  36
ENDBRANCH  33  34
ENDBRANCH   8  33
BRANCH  31  38
ATOM     38  C   UNK d   0     -10.780  -8.866  14.998  0.00  0.00     0.151 C 
BRANCH  38  39
ATOM     39  C   UNK d   0     -12.158  -9.298  15.099  0.00  0.00     0.143 C 
ATOM     40  O   UNK d   0     -12.477 -10.499  15.139  0.00  0.00    -0.650 OA
BRANCH  39  41
ATOM     41  O   UNK d   0     -13.174  -8.344  15.155  0.00  0.00    -0.776 OA
ATOM     42  H   UNK d   0     -13.340  -7.900  16.064  0.00  0.00     0.167 HD
ENDBRANCH  39  41
ENDBRANCH  38  39
ENDBRANCH  31  38
BRANCH  27  43
ATOM     43  C   UNK d   0      -8.976 -11.246  15.766  0.00  0.00     0.052 C 
BRANCH  43  44
ATOM     44  C   UNK d   0      -7.871 -11.040  14.782  0.00  0.00     0.115 C 
BRANCH  44  45
ATOM     45  C   UNK d   0      -6.775 -11.963  15.174  0.00  0.00     0.139 C 
ATOM     46  O   UNK d   0      -5.847 -11.510  15.889  0.00  0.00    -0.650 OA
BRANCH  45  47
ATOM     47  O   UNK d   0      -6.740 -13.286  14.792  0.00  0.00    -0.776 OA
ATOM     48  H   UNK d   0      -6.823 -13.588  13.808  0.00  0.00     0.167 HD
ENDBRANCH  45  47
ENDBRANCH  44  45
ENDBRANCH  43  44
ENDBRANCH  27  43
BRANCH  24  49
ATOM     49  C   UNK d   0      -5.406 -12.603  19.775  0.00  0.00     0.052 C 
BRANCH  49  50
ATOM     50  C   UNK d   0      -6.540 -13.288  20.494  0.00  0.00     0.115 C 
BRANCH  50  51
ATOM     51  C   UNK d   0      -6.856 -12.819  21.836  0.00  0.00     0.139 C 
ATOM     52  O   UNK d   0      -7.841 -12.083  22.081  0.00  0.00    -0.650 OA
BRANCH  51  53
ATOM     53  O   UNK d   0      -6.046 -13.188  22.900  0.00  0.00    -0.776 OA
ATOM     54  H   UNK d   0      -5.589 -12.462  23.423  0.00  0.00     0.167 HD
ENDBRANCH  51  53
ENDBRANCH  50  51
ENDBRANCH  49  50
ENDBRANCH  24  49
BRANCH  21  55
ATOM     55  C   UNK d   0      -3.455 -10.592  21.077  0.00  0.00     0.151 C 
BRANCH  55  56
ATOM     56  C   UNK d   0      -3.559 -10.372  22.528  0.00  0.00     0.143 C 
ATOM     57  O   UNK d   0      -4.063 -11.208  23.303  0.00  0.00    -0.650 OA
BRANCH  56  58
ATOM     58  O   UNK d   0      -3.067  -9.172  23.039  0.00  0.00    -0.776 OA
ATOM     59  H   UNK d   0      -2.154  -8.874  22.650  0.00  0.00     0.167 HD
ENDBRANCH  56  58
ENDBRANCH  55  56
ENDBRANCH  21  55
BRANCH  18  60
ATOM     60  C   UNK d   0      -4.816  -5.703  22.825  0.00  0.00     0.151 C 
BRANCH  60  61
ATOM     61  C   UNK d   0      -3.478  -5.146  22.576  0.00  0.00     0.143 C 
ATOM     62  O   UNK d   0      -2.792  -5.288  21.563  0.00  0.00    -0.650 OA
BRANCH  61  63
ATOM     63  O   UNK d   0      -2.944  -4.366  23.630  0.00  0.00    -0.776 OA
ATOM     64  H   UNK d   0      -3.544  -3.853  24.250  0.00  0.00     0.167 HD
ENDBRANCH  61  63
ENDBRANCH  60  61
ENDBRANCH  18  60
BRANCH  14  65
ATOM     65  C   UNK d   0      -6.487  -3.303  22.015  0.00  0.00     0.052 C 
BRANCH  65  66
ATOM     66  C   UNK d   0      -5.563  -2.211  21.606  0.00  0.00     0.115 C 
BRANCH  66  67
ATOM     67  C   UNK d   0      -4.724  -1.585  22.589  0.00  0.00     0.139 C 
ATOM     68  O   UNK d   0      -4.743  -2.039  23.792  0.00  0.00    -0.650 OA
BRANCH  67  69
ATOM     69  O   UNK d   0      -3.857  -0.508  22.408  0.00  0.00    -0.776 OA
ATOM     70  H   UNK d   0      -3.896  -0.051  21.485  0.00  0.00     0.167 HD
ENDBRANCH  67  69
ENDBRANCH  66  67
ENDBRANCH  65  66
ENDBRANCH  14  65
ENDBRANCH   6   7
ENDBRANCH   5   6
ENDBRANCH   2   5
TORSDOF 28
ENDMDL
MODEL 2
REMARK VINA RESULT:      -9.4      1.691      7.889
REMARK  28 active torsions:
REMARK  status: ('A' for Active; 'I' for Inactive)
REMARK    1  A    between atoms: C_2  and  O_3 
REMARK    2  A    between atoms: C_2  and  C_4 
REMARK    3  A    between atoms: C_4  and  C_5 
REMARK    4  A    between atoms: C_5  and  C_6 
REMARK    5  A    between atoms: C_7  and  C_8 
REMARK    6  A    between atoms: C_8  and  C_9 
REMARK    7  A    between atoms: C_9  and  O_11 
REMARK    8  A    between atoms: C_28  and  C_29 
REMARK    9  A    between atoms: C_29  and  C_30 
REMARK   10  A    between atoms: C_30  and  O_32 
REMARK   11  A    between atoms: C_33  and  C_34 
REMARK   12  A    between atoms: C_34  and  C_35 
REMARK   13  A    between atoms: C_35  and  C_36 
REMARK   14  A    between atoms: C_36  and  O_38 
REMARK   15  A    between atoms: C_39  and  C_40 
REMARK   16  A    between atoms: C_40  and  C_41 
REMARK   17  A    between atoms: C_41  and  C_42 
REMARK   18  A    between atoms: C_42  and  O_44 
REMARK   19  A    between atoms: C_45  and  C_46 
REMARK   20  A    between atoms: C_46  and  C_47 
REMARK   21  A    between atoms: C_47  and  O_49 
REMARK   22  A    between atoms: C_50  and  C_51 
REMARK   23  A    between atoms: C_51  and  C_52 
REMARK   24  A    between atoms: C_52  and  O_54 
REMARK   25  A    between atoms: C_55  and  C_56 
REMARK   26  A    between atoms: C_56  and  C_57 
REMARK   27  A    between atoms: C_57  and  C_58 
REMARK   28  A    between atoms: C_58  and  O_60 
ROOT
ATOM      1  O   UNK d   0     -10.495  -0.081  18.381  0.00  0.00    -0.650 OA
ATOM      2  C   UNK d   0      -9.835  -1.143  18.347  0.00  0.00     0.139 C 
ENDROOT
BRANCH   2   3
ATOM      3  O   UNK d   0      -8.472  -1.094  18.511  0.00  0.00    -0.776 OA
ATOM      4  H   UNK d   0      -7.898  -1.934  18.413  0.00  0.00     0.167 HD
ENDBRANCH   2   3
BRANCH   2   5
ATOM      5  C   UNK d   0     -10.525  -2.447  18.130  0.00  0.00     0.115 C 
BRANCH   5   6
ATOM      6  C   UNK d   0      -9.815  -3.237  17.065  0.00  0.00     0.052 C 
BRANCH   6   7
ATOM      7  C   UNK d   0      -9.551  -4.665  17.480  0.00  0.00    -0.020 A 
ATOM      8  C   UNK d   0     -10.182  -5.741  17.083  0.00  0.00    -0.011 A 
ATOM      9  C   UNK d   0      -9.584  -6.881  17.757  0.00  0.00     0.067 A 
ATOM     10  C   UNK d   0      -9.775  -8.272  17.756  0.00  0.00     0.062 C 
ATOM     11  N   UNK d   0      -8.600  -6.407  18.550  0.00  0.00    -0.248 NA
ATOM     12  C   UNK d   0      -8.910  -9.246  18.267  0.00  0.00     0.041 A 
ATOM     13  N   UNK d   0      -8.199  -9.288  19.410  0.00  0.00    -0.355 N 
ATOM     14  C   UNK d   0      -8.638 -10.388  17.493  0.00  0.00    -0.022 A 
ATOM     15  C   UNK d   0      -7.477 -10.424  19.377  0.00  0.00     0.042 A 
ATOM     16  H   UNK d   0      -8.221  -8.539  20.232  0.00  0.00     0.166 HD
ATOM     17  C   UNK d   0      -6.570 -10.957  20.314  0.00  0.00     0.062 C 
ATOM     18  C   UNK d   0      -7.725 -11.140  18.190  0.00  0.00    -0.013 A 
ATOM     19  C   UNK d   0      -5.571 -10.321  21.006  0.00  0.00     0.067 A 
ATOM     20  N   UNK d   0      -5.555  -8.987  20.956  0.00  0.00    -0.248 NA
ATOM     21  C   UNK d   0      -4.441 -10.731  21.823  0.00  0.00    -0.011 A 
ATOM     22  C   UNK d   0      -4.496  -8.495  21.679  0.00  0.00     0.066 A 
ATOM     23  C   UNK d   0      -4.382  -7.114  21.743  0.00  0.00     0.062 C 
ATOM     24  C   UNK d   0      -3.813  -9.658  22.210  0.00  0.00    -0.020 A 
ATOM     25  C   UNK d   0      -5.269  -6.153  21.233  0.00  0.00     0.041 A 
ATOM     26  N   UNK d   0      -5.964  -6.103  20.091  0.00  0.00    -0.355 N 
ATOM     27  C   UNK d   0      -5.545  -5.008  22.013  0.00  0.00    -0.022 A 
ATOM     28  C   UNK d   0      -6.679  -4.967  20.118  0.00  0.00     0.042 A 
ATOM     29  H   UNK d   0      -5.932  -6.851  19.261  0.00  0.00     0.166 HD
ATOM     30  C   UNK d   0      -7.577  -4.420  19.188  0.00  0.00     0.062 C 
ATOM     31  C   UNK d   0      -6.436  -4.253  21.315  0.00  0.00    -0.013 A 
ATOM     32  C   UNK d   0      -8.529  -5.081  18.428  0.00  0.00     0.066 A 
BRANCH   8  33
ATOM     33  C   UNK d   0     -11.304  -5.807  16.129  0.00  0.00     0.151 C 
BRANCH  33  34
ATOM     34  C   UNK d   0     -12.607  -5.999  16.792  0.00  0.00     0.143 C 
ATOM     35  O   UNK d   0     -12.872  -5.416  17.853  0.00  0.00    -0.650 OA
BRANCH  34  36
ATOM     36  O   UNK d   0     -13.537  -6.838  16.223  0.00  0.00    -0.776 OA
ATOM     37  H   UNK d   0     -14.487  -6.510  16.002  0.00  0.00     0.167 HD
ENDBRANCH  34  36
ENDBRANCH  33  34
ENDBRANCH   8  33
BRANCH  31  38
ATOM     38  C   UNK d   0      -7.034  -2.939  21.762  0.00  0.00     0.151 C 
BRANCH  38  39
ATOM     39  C   UNK d   0      -6.221  -1.799  21.394  0.00  0.00     0.143 C 
ATOM     40  O   UNK d   0      -4.996  -1.760  21.601  0.00  0.00    -0.650 OA
BRANCH  39  41
ATOM     41  O   UNK d   0      -6.821  -0.698  20.783  0.00  0.00    -0.776 OA
ATOM     42  H   UNK d   0      -6.954  -0.749  19.768  0.00  0.00     0.167 HD
ENDBRANCH  39  41
ENDBRANCH  38  39
ENDBRANCH  31  38
BRANCH  27  43
ATOM     43  C   UNK d   0      -5.002  -4.616  23.365  0.00  0.00     0.052 C 
BRANCH  43  44
ATOM     44  C   UNK d   0      -3.548  -4.272  23.340  0.00  0.00     0.115 C 
BRANCH  44  45
ATOM     45  C   UNK d   0      -3.285  -3.455  24.553  0.00  0.00     0.139 C 
ATOM     46  O   UNK d   0      -3.838  -2.331  24.641  0.00  0.00    -0.650 OA
BRANCH  45  47
ATOM     47  O   UNK d   0      -2.469  -3.881  25.579  0.00  0.00    -0.776 OA
ATOM     48  H   UNK d   0      -1.442  -3.947  25.487  0.00  0.00     0.167 HD
ENDBRANCH  45  47
ENDBRANCH  44  45
ENDBRANCH  43  44
ENDBRANCH  27  43
BRANCH  24  49
ATOM     49  C   UNK d   0      -2.631  -9.612  23.087  0.00  0.00     0.052 C 
BRANCH  49  50
ATOM     50  C   UNK d   0      -2.009  -8.240  23.056  0.00  0.00     0.115 C 
BRANCH  50  51
ATOM     51  C   UNK d   0      -1.314  -7.797  24.258  0.00  0.00     0.139 C 
ATOM     52  O   UNK d   0      -0.831  -8.598  25.093  0.00  0.00    -0.650 OA
BRANCH  51  53
ATOM     53  O   UNK d   0      -1.172  -6.441  24.509  0.00  0.00    -0.776 OA
ATOM     54  H   UNK d   0      -0.666  -6.160  25.330  0.00  0.00     0.167 HD
ENDBRANCH  51  53
ENDBRANCH  50  51
ENDBRANCH  49  50
ENDBRANCH  24  49
BRANCH  21  55
ATOM     55  C   UNK d   0      -4.108 -12.153  22.134  0.00  0.00     0.151 C 
BRANCH  55  56
ATOM     56  C   UNK d   0      -4.734 -12.604  23.386  0.00  0.00     0.143 C 
ATOM     57  O   UNK d   0      -4.190 -12.469  24.500  0.00  0.00    -0.650 OA
BRANCH  56  58
ATOM     58  O   UNK d   0      -5.989 -13.205  23.304  0.00  0.00    -0.776 OA
ATOM     59  H   UNK d   0      -6.484 -13.306  24.209  0.00  0.00     0.167 HD
ENDBRANCH  56  58
ENDBRANCH  55  56
ENDBRANCH  21  55
BRANCH  18  60
ATOM     60  C   UNK d   0      -7.147 -12.452  17.720  0.00  0.00     0.151 C 
BRANCH  60  61
ATOM     61  C   UNK d   0      -5.731 -12.187  17.427  0.00  0.00     0.143 C 
ATOM     62  O   UNK d   0      -4.752 -12.655  18.010  0.00  0.00    -0.650 OA
BRANCH  61  63
ATOM     63  O   UNK d   0      -5.494 -11.295  16.354  0.00  0.00    -0.776 OA
ATOM     64  H   UNK d   0      -6.164 -11.186  15.613  0.00  0.00     0.167 HD
ENDBRANCH  61  63
ENDBRANCH  60  61
ENDBRANCH  18  60
BRANCH  14  65
ATOM     65  C   UNK d   0      -9.244 -10.866  16.204  0.00  0.00     0.052 C 
BRANCH  65  66
ATOM     66  C   UNK d   0      -8.309 -10.766  15.050  0.00  0.00     0.115 C 
BRANCH  66  67
ATOM     67  C   UNK d   0      -8.227 -11.845  14.106  0.00  0.00     0.139 C 
ATOM     68  O   UNK d   0      -7.347 -12.763  14.298  0.00  0.00    -0.650 OA
BRANCH  67  69
ATOM     69  O   UNK d   0      -9.001 -12.039  12.963  0.00  0.00    -0.776 OA
ATOM     70  H   UNK d   0      -9.128 -13.018  12.668  0.00  0.00     0.167 HD
ENDBRANCH  67  69
ENDBRANCH  66  67
ENDBRANCH  65  66
ENDBRANCH  14  65
ENDBRANCH   6   7
ENDBRANCH   5   6
ENDBRANCH   2   5
TORSDOF 28
ENDMDL
MODEL 3
REMARK VINA RESULT:      -9.3      2.445      8.250
REMARK  28 active torsions:
REMARK  status: ('A' for Active; 'I' for Inactive)
REMARK    1  A    between atoms: C_2  and  O_3 
REMARK    2  A    between atoms: C_2  and  C_4 
REMARK    3  A    between atoms: C_4  and  C_5 
REMARK    4  A    between atoms: C_5  and  C_6 
REMARK    5  A    between atoms: C_7  and  C_8 
REMARK    6  A    between atoms: C_8  and  C_9 
REMARK    7  A    between atoms: C_9  and  O_11 
REMARK    8  A    between atoms: C_28  and  C_29 
REMARK    9  A    between atoms: C_29  and  C_30 
REMARK   10  A    between atoms: C_30  and  O_32 
REMARK   11  A    between atoms: C_33  and  C_34 
REMARK   12  A    between atoms: C_34  and  C_35 
REMARK   13  A    between atoms: C_35  and  C_36 
REMARK   14  A    between atoms: C_36  and  O_38 
REMARK   15  A    between atoms: C_39  and  C_40 
REMARK   16  A    between atoms: C_40  and  C_41 
REMARK   17  A    between atoms: C_41  and  C_42 
REMARK   18  A    between atoms: C_42  and  O_44 
REMARK   19  A    between atoms: C_45  and  C_46 
REMARK   20  A    between atoms: C_46  and  C_47 
REMARK   21  A    between atoms: C_47  and  O_49 
REMARK   22  A    between atoms: C_50  and  C_51 
REMARK   23  A    between atoms: C_51  and  C_52 
REMARK   24  A    between atoms: C_52  and  O_54 
REMARK   25  A    between atoms: C_55  and  C_56 
REMARK   26  A    between atoms: C_56  and  C_57 
REMARK   27  A    between atoms: C_57  and  C_58 
REMARK   28  A    between atoms: C_58  and  O_60 
ROOT
ATOM      1  O   UNK d   0      -9.412  -2.674  15.905  0.00  0.00    -0.650 OA
ATOM      2  C   UNK d   0      -9.428  -3.570  16.778  0.00  0.00     0.139 C 
ENDROOT
BRANCH   2   3
ATOM      3  O   UNK d   0      -9.713  -3.237  18.080  0.00  0.00    -0.776 OA
ATOM      4  H   UNK d   0     -10.650  -2.937  18.355  0.00  0.00     0.167 HD
ENDBRANCH   2   3
BRANCH   2   5
ATOM      5  C   UNK d   0      -9.140  -4.984  16.404  0.00  0.00     0.115 C 
BRANCH   5   6
ATOM      6  C   UNK d   0     -10.013  -5.917  17.197  0.00  0.00     0.052 C 
BRANCH   6   7
ATOM      7  C   UNK d   0      -9.222  -6.989  17.909  0.00  0.00    -0.020 A 
ATOM      8  C   UNK d   0      -9.407  -8.283  17.861  0.00  0.00    -0.011 A 
ATOM      9  C   UNK d   0      -8.410  -8.907  18.714  0.00  0.00     0.067 A 
ATOM     10  C   UNK d   0      -8.061 -10.219  19.071  0.00  0.00     0.062 C 
ATOM     11  N   UNK d   0      -7.663  -7.918  19.248  0.00  0.00    -0.248 NA
ATOM     12  C   UNK d   0      -6.883 -10.643  19.696  0.00  0.00     0.041 A 
ATOM     13  N   UNK d   0      -6.187 -10.119  20.723  0.00  0.00    -0.355 N 
ATOM     14  C   UNK d   0      -6.214 -11.773  19.193  0.00  0.00    -0.022 A 
ATOM     15  C   UNK d   0      -5.090 -10.884  20.880  0.00  0.00     0.042 A 
ATOM     16  H   UNK d   0      -6.475  -9.238  21.338  0.00  0.00     0.166 HD
ATOM     17  C   UNK d   0      -4.031 -10.784  21.804  0.00  0.00     0.062 C 
ATOM     18  C   UNK d   0      -5.072 -11.931  19.938  0.00  0.00    -0.013 A 
ATOM     19  C   UNK d   0      -3.334  -9.671  22.200  0.00  0.00     0.067 A 
ATOM     20  N   UNK d   0      -3.825  -8.486  21.829  0.00  0.00    -0.248 NA
ATOM     21  C   UNK d   0      -2.118  -9.413  22.952  0.00  0.00    -0.011 A 
ATOM     22  C   UNK d   0      -3.017  -7.472  22.282  0.00  0.00     0.066 A 
ATOM     23  C   UNK d   0      -3.432  -6.180  21.997  0.00  0.00     0.062 C 
ATOM     24  C   UNK d   0      -1.935  -8.125  22.993  0.00  0.00    -0.020 A 
ATOM     25  C   UNK d   0      -4.625  -5.775  21.380  0.00  0.00     0.041 A 
ATOM     26  N   UNK d   0      -5.309  -6.287  20.349  0.00  0.00    -0.355 N 
ATOM     27  C   UNK d   0      -5.298  -4.643  21.888  0.00  0.00    -0.022 A 
ATOM     28  C   UNK d   0      -6.399  -5.521  20.185  0.00  0.00     0.042 A 
ATOM     29  H   UNK d   0      -5.013  -7.166  19.726  0.00  0.00     0.166 HD
ATOM     30  C   UNK d   0      -7.455  -5.603  19.264  0.00  0.00     0.062 C 
ATOM     31  C   UNK d   0      -6.422  -4.475  21.139  0.00  0.00    -0.013 A 
ATOM     32  C   UNK d   0      -8.101  -6.739  18.803  0.00  0.00     0.066 A 
BRANCH   8  33
ATOM     33  C   UNK d   0     -10.438  -9.001  17.089  0.00  0.00     0.151 C 
BRANCH  33  34
ATOM     34  C   UNK d   0      -9.867  -9.915  16.085  0.00  0.00     0.143 C 
ATOM     35  O   UNK d   0      -8.752  -9.699  15.588  0.00  0.00    -0.650 OA
BRANCH  34  36
ATOM     36  O   UNK d   0     -10.583 -11.023  15.694  0.00  0.00    -0.776 OA
ATOM     37  H   UNK d   0     -11.231 -11.495  16.339  0.00  0.00     0.167 HD
ENDBRANCH  34  36
ENDBRANCH  33  34
ENDBRANCH   8  33
BRANCH  31  38
ATOM     38  C   UNK d   0      -7.463  -3.396  21.323  0.00  0.00     0.151 C 
BRANCH  38  39
ATOM     39  C   UNK d   0      -7.114  -2.159  20.657  0.00  0.00     0.143 C 
ATOM     40  O   UNK d   0      -6.750  -1.147  21.282  0.00  0.00    -0.650 OA
BRANCH  39  41
ATOM     41  O   UNK d   0      -7.181  -2.085  19.266  0.00  0.00    -0.776 OA
ATOM     42  H   UNK d   0      -8.104  -1.909  18.858  0.00  0.00     0.167 HD
ENDBRANCH  39  41
ENDBRANCH  38  39
ENDBRANCH  31  38
BRANCH  27  43
ATOM     43  C   UNK d   0      -4.919  -3.736  23.032  0.00  0.00     0.052 C 
BRANCH  43  44
ATOM     44  C   UNK d   0      -5.615  -4.073  24.310  0.00  0.00     0.115 C 
BRANCH  44  45
ATOM     45  C   UNK d   0      -6.537  -2.945  24.602  0.00  0.00     0.139 C 
ATOM     46  O   UNK d   0      -7.611  -3.198  25.201  0.00  0.00    -0.650 OA
BRANCH  45  47
ATOM     47  O   UNK d   0      -6.259  -1.642  24.248  0.00  0.00    -0.776 OA
ATOM     48  H   UNK d   0      -6.056  -1.356  23.276  0.00  0.00     0.167 HD
ENDBRANCH  45  47
ENDBRANCH  44  45
ENDBRANCH  43  44
ENDBRANCH  27  43
BRANCH  24  49
ATOM     49  C   UNK d   0      -0.842  -7.424  23.688  0.00  0.00     0.052 C 
BRANCH  49  50
ATOM     50  C   UNK d   0       0.220  -7.003  22.704  0.00  0.00     0.115 C 
BRANCH  50  51
ATOM     51  C   UNK d   0       0.446  -5.573  22.541  0.00  0.00     0.139 C 
ATOM     52  O   UNK d   0      -0.353  -4.709  22.973  0.00  0.00    -0.650 OA
BRANCH  51  53
ATOM     53  O   UNK d   0       1.582  -5.129  21.884  0.00  0.00    -0.776 OA
ATOM     54  H   UNK d   0       2.309  -4.698  22.428  0.00  0.00     0.167 HD
ENDBRANCH  51  53
ENDBRANCH  50  51
ENDBRANCH  49  50
ENDBRANCH  24  49
BRANCH  21  55
ATOM     55  C   UNK d   0      -1.267 -10.481  23.556  0.00  0.00     0.151 C 
BRANCH  55  56
ATOM     56  C   UNK d   0      -1.672 -10.796  24.934  0.00  0.00     0.143 C 
ATOM     57  O   UNK d   0      -2.686 -11.471  25.202  0.00  0.00    -0.650 OA
BRANCH  56  58
ATOM     58  O   UNK d   0      -0.877 -10.311  25.972  0.00  0.00    -0.776 OA
ATOM     59  H   UNK d   0       0.143 -10.425  25.829  0.00  0.00     0.167 HD
ENDBRANCH  56  58
ENDBRANCH  55  56
ENDBRANCH  21  55
BRANCH  18  60
ATOM     60  C   UNK d   0      -4.050 -13.022  19.733  0.00  0.00     0.151 C 
BRANCH  60  61
ATOM     61  C   UNK d   0      -3.053 -12.471  18.803  0.00  0.00     0.143 C 
ATOM     62  O   UNK d   0      -3.097 -11.385  18.225  0.00  0.00    -0.650 OA
BRANCH  61  63
ATOM     63  O   UNK d   0      -1.931 -13.300  18.563  0.00  0.00    -0.776 OA
ATOM     64  H   UNK d   0      -1.001 -12.992  18.786  0.00  0.00     0.167 HD
ENDBRANCH  61  63
ENDBRANCH  60  61
ENDBRANCH  18  60
BRANCH  14  65
ATOM     65  C   UNK d   0      -6.618 -12.763  18.137  0.00  0.00     0.052 C 
BRANCH  65  66
ATOM     66  C   UNK d   0      -6.332 -12.290  16.756  0.00  0.00     0.115 C 
BRANCH  66  67
ATOM     67  C   UNK d   0      -6.966 -12.930  15.639  0.00  0.00     0.139 C 
ATOM     68  O   UNK d   0      -6.325 -13.855  15.017  0.00  0.00    -0.650 OA
BRANCH  67  69
ATOM     69  O   UNK d   0      -8.233 -12.675  15.115  0.00  0.00    -0.776 OA
ATOM     70  H   UNK d   0      -8.563 -11.702  15.195  0.00  0.00     0.167 HD
ENDBRANCH  67  69
ENDBRANCH  66  67
ENDBRANCH  65  66
ENDBRANCH  14  65
ENDBRANCH   6   7
ENDBRANCH   5   6
ENDBRANCH   2   5
TORSDOF 28
ENDMDL
MODEL 4
REMARK VINA RESULT:      -9.3      1.934      7.120
REMARK  28 active torsions:
REMARK  status: ('A' for Active; 'I' for Inactive)
REMARK    1  A    between atoms: C_2  and  O_3 
REMARK    2  A    between atoms: C_2  and  C_4 
REMARK    3  A    between atoms: C_4  and  C_5 
REMARK    4  A    between atoms: C_5  and  C_6 
REMARK    5  A    between atoms: C_7  and  C_8 
REMARK    6  A    between atoms: C_8  and  C_9 
REMARK    7  A    between atoms: C_9  and  O_11 
REMARK    8  A    between atoms: C_28  and  C_29 
REMARK    9  A    between atoms: C_29  and  C_30 
REMARK   10  A    between atoms: C_30  and  O_32 
REMARK   11  A    between atoms: C_33  and  C_34 
REMARK   12  A    between atoms: C_34  and  C_35 
REMARK   13  A    between atoms: C_35  and  C_36 
REMARK   14  A    between atoms: C_36  and  O_38 
REMARK   15  A    between atoms: C_39  and  C_40 
REMARK   16  A    between atoms: C_40  and  C_41 
REMARK   17  A    between atoms: C_41  and  C_42 
REMARK   18  A    between atoms: C_42  and  O_44 
REMARK   19  A    between atoms: C_45  and  C_46 
REMARK   20  A    between atoms: C_46  and  C_47 
REMARK   21  A    between atoms: C_47  and  O_49 
REMARK   22  A    between atoms: C_50  and  C_51 
REMARK   23  A    between atoms: C_51  and  C_52 
REMARK   24  A    between atoms: C_52  and  O_54 
REMARK   25  A    between atoms: C_55  and  C_56 
REMARK   26  A    between atoms: C_56  and  C_57 
REMARK   27  A    between atoms: C_57  and  C_58 
REMARK   28  A    between atoms: C_58  and  O_60 
ROOT
ATOM      1  O   UNK d   0      -6.608  -4.049  25.426  0.00  0.00    -0.650 OA
ATOM      2  C   UNK d   0      -7.007  -3.080  24.743  0.00  0.00     0.139 C 
ENDROOT
BRANCH   2   3
ATOM      3  O   UNK d   0      -8.353  -2.928  24.513  0.00  0.00    -0.776 OA
ATOM      4  H   UNK d   0      -8.875  -3.610  23.960  0.00  0.00     0.167 HD
ENDBRANCH   2   3
BRANCH   2   5
ATOM      5  C   UNK d   0      -6.029  -2.104  24.185  0.00  0.00     0.115 C 
BRANCH   5   6
ATOM      6  C   UNK d   0      -6.051  -2.150  22.682  0.00  0.00     0.052 C 
BRANCH   6   7
ATOM      7  C   UNK d   0      -5.615  -3.488  22.135  0.00  0.00    -0.020 A 
ATOM      8  C   UNK d   0      -4.505  -4.132  22.391  0.00  0.00    -0.011 A 
ATOM      9  C   UNK d   0      -4.522  -5.370  21.630  0.00  0.00     0.067 A 
ATOM     10  C   UNK d   0      -3.674  -6.478  21.480  0.00  0.00     0.062 C 
ATOM     11  N   UNK d   0      -5.678  -5.395  20.933  0.00  0.00    -0.248 NA
ATOM     12  C   UNK d   0      -3.990  -7.716  20.909  0.00  0.00     0.041 A 
ATOM     13  N   UNK d   0      -4.687  -8.029  19.800  0.00  0.00    -0.355 N 
ATOM     14  C   UNK d   0      -3.596  -8.892  21.574  0.00  0.00    -0.022 A 
ATOM     15  C   UNK d   0      -4.752  -9.373  19.748  0.00  0.00     0.042 A 
ATOM     16  H   UNK d   0      -5.108  -7.314  19.059  0.00  0.00     0.166 HD
ATOM     17  C   UNK d   0      -5.359 -10.221  18.801  0.00  0.00     0.062 C 
ATOM     18  C   UNK d   0      -4.080  -9.949  20.843  0.00  0.00    -0.013 A 
ATOM     19  C   UNK d   0      -6.598 -10.121  18.222  0.00  0.00     0.067 A 
ATOM     20  N   UNK d   0      -7.262  -8.978  18.409  0.00  0.00    -0.248 NA
ATOM     21  C   UNK d   0      -7.448 -10.983  17.417  0.00  0.00    -0.011 A 
ATOM     22  C   UNK d   0      -8.485  -9.030  17.787  0.00  0.00     0.066 A 
ATOM     23  C   UNK d   0      -9.268  -7.888  17.870  0.00  0.00     0.062 C 
ATOM     24  C   UNK d   0      -8.553 -10.340  17.170  0.00  0.00    -0.020 A 
ATOM     25  C   UNK d   0      -8.927  -6.650  18.437  0.00  0.00     0.041 A 
ATOM     26  N   UNK d   0      -8.248  -6.339  19.547  0.00  0.00    -0.355 N 
ATOM     27  C   UNK d   0      -9.319  -5.470  17.767  0.00  0.00    -0.022 A 
ATOM     28  C   UNK d   0      -8.189  -4.999  19.606  0.00  0.00     0.042 A 
ATOM     29  H   UNK d   0      -7.835  -7.058  20.297  0.00  0.00     0.166 HD
ATOM     30  C   UNK d   0      -7.597  -4.142  20.547  0.00  0.00     0.062 C 
ATOM     31  C   UNK d   0      -8.856  -4.421  18.500  0.00  0.00    -0.013 A 
ATOM     32  C   UNK d   0      -6.380  -4.292  21.194  0.00  0.00     0.066 A 
BRANCH   8  33
ATOM     33  C   UNK d   0      -3.416  -3.696  23.284  0.00  0.00     0.151 C 
BRANCH  33  34
ATOM     34  C   UNK d   0      -2.187  -3.338  22.553  0.00  0.00     0.143 C 
ATOM     35  O   UNK d   0      -2.080  -2.241  21.986  0.00  0.00    -0.650 OA
BRANCH  34  36
ATOM     36  O   UNK d   0      -1.147  -4.237  22.500  0.00  0.00    -0.776 OA
ATOM     37  H   UNK d   0      -1.314  -5.239  22.338  0.00  0.00     0.167 HD
ENDBRANCH  34  36
ENDBRANCH  33  34
ENDBRANCH   8  33
BRANCH  31  38
ATOM     38  C   UNK d   0      -9.023  -2.957  18.165  0.00  0.00     0.151 C 
BRANCH  38  39
ATOM     39  C   UNK d   0     -10.258  -2.402  18.675  0.00  0.00     0.143 C 
ATOM     40  O   UNK d   0     -10.665  -1.273  18.350  0.00  0.00    -0.650 OA
BRANCH  39  41
ATOM     41  O   UNK d   0     -11.032  -3.150  19.562  0.00  0.00    -0.776 OA
ATOM     42  H   UNK d   0     -11.968  -3.420  19.244  0.00  0.00     0.167 HD
ENDBRANCH  39  41
ENDBRANCH  38  39
ENDBRANCH  31  38
BRANCH  27  43
ATOM     43  C   UNK d   0     -10.101  -5.309  16.488  0.00  0.00     0.052 C 
BRANCH  43  44
ATOM     44  C   UNK d   0     -11.479  -5.884  16.561  0.00  0.00     0.115 C 
BRANCH  44  45
ATOM     45  C   UNK d   0     -12.422  -4.743  16.426  0.00  0.00     0.139 C 
ATOM     46  O   UNK d   0     -12.810  -4.169  17.474  0.00  0.00    -0.650 OA
BRANCH  45  47
ATOM     47  O   UNK d   0     -12.878  -4.291  15.207  0.00  0.00    -0.776 OA
ATOM     48  H   UNK d   0     -12.878  -4.877  14.356  0.00  0.00     0.167 HD
ENDBRANCH  45  47
ENDBRANCH  44  45
ENDBRANCH  43  44
ENDBRANCH  27  43
BRANCH  24  49
ATOM     49  C   UNK d   0      -9.677 -10.828  16.354  0.00  0.00     0.052 C 
BRANCH  49  50
ATOM     50  C   UNK d   0      -9.392 -10.619  14.889  0.00  0.00     0.115 C 
BRANCH  50  51
ATOM     51  C   UNK d   0      -9.559 -11.768  14.008  0.00  0.00     0.139 C 
ATOM     52  O   UNK d   0      -9.702 -11.654  12.768  0.00  0.00    -0.650 OA
BRANCH  51  53
ATOM     53  O   UNK d   0      -9.565 -13.047  14.543  0.00  0.00    -0.776 OA
ATOM     54  H   UNK d   0     -10.279 -13.686  14.239  0.00  0.00     0.167 HD
ENDBRANCH  51  53
ENDBRANCH  50  51
ENDBRANCH  49  50
ENDBRANCH  24  49
BRANCH  21  55
ATOM     55  C   UNK d   0      -7.065 -12.356  16.976  0.00  0.00     0.151 C 
BRANCH  55  56
ATOM     56  C   UNK d   0      -6.441 -12.354  15.644  0.00  0.00     0.143 C 
ATOM     57  O   UNK d   0      -5.869 -11.353  15.168  0.00  0.00    -0.650 OA
BRANCH  56  58
ATOM     58  O   UNK d   0      -6.501 -13.530  14.897  0.00  0.00    -0.776 OA
ATOM     59  H   UNK d   0      -7.413 -13.710  14.441  0.00  0.00     0.167 HD
ENDBRANCH  56  58
ENDBRANCH  55  56
ENDBRANCH  21  55
BRANCH  18  60
ATOM     60  C   UNK d   0      -3.895 -11.403  21.200  0.00  0.00     0.151 C 
BRANCH  60  61
ATOM     61  C   UNK d   0      -4.968 -11.724  22.153  0.00  0.00     0.143 C 
ATOM     62  O   UNK d   0      -4.880 -11.775  23.380  0.00  0.00    -0.650 OA
BRANCH  61  63
ATOM     63  O   UNK d   0      -6.228 -12.000  21.571  0.00  0.00    -0.776 OA
ATOM     64  H   UNK d   0      -7.071 -11.960  22.116  0.00  0.00     0.167 HD
ENDBRANCH  61  63
ENDBRANCH  60  61
ENDBRANCH  18  60
BRANCH  14  65
ATOM     65  C   UNK d   0      -2.723  -9.091  22.780  0.00  0.00     0.052 C 
BRANCH  65  66
ATOM     66  C   UNK d   0      -1.621  -8.096  22.871  0.00  0.00     0.115 C 
BRANCH  66  67
ATOM     67  C   UNK d   0      -1.254  -7.556  24.149  0.00  0.00     0.139 C 
ATOM     68  O   UNK d   0      -0.737  -8.345  25.024  0.00  0.00    -0.650 OA
BRANCH  67  69
ATOM     69  O   UNK d   0      -1.387  -6.240  24.590  0.00  0.00    -0.776 OA
ATOM     70  H   UNK d   0      -2.351  -5.922  24.766  0.00  0.00     0.167 HD
ENDBRANCH  67  69
ENDBRANCH  66  67
ENDBRANCH  65  66
ENDBRANCH  14  65
ENDBRANCH   6   7
ENDBRANCH   5   6
ENDBRANCH   2   5
TORSDOF 28
ENDMDL
MODEL 5
REMARK VINA RESULT:      -9.1      2.386      7.875
REMARK  28 active torsions:
REMARK  status: ('A' for Active; 'I' for Inactive)
REMARK    1  A    between atoms: C_2  and  O_3 
REMARK    2  A    between atoms: C_2  and  C_4 
REMARK    3  A    between atoms: C_4  and  C_5 
REMARK    4  A    between atoms: C_5  and  C_6 
REMARK    5  A    between atoms: C_7  and  C_8 
REMARK    6  A    between atoms: C_8  and  C_9 
REMARK    7  A    between atoms: C_9  and  O_11 
REMARK    8  A    between atoms: C_28  and  C_29 
REMARK    9  A    between atoms: C_29  and  C_30 
REMARK   10  A    between atoms: C_30  and  O_32 
REMARK   11  A    between atoms: C_33  and  C_34 
REMARK   12  A    between atoms: C_34  and  C_35 
REMARK   13  A    between atoms: C_35  and  C_36 
REMARK   14  A    between atoms: C_36  and  O_38 
REMARK   15  A    between atoms: C_39  and  C_40 
REMARK   16  A    between atoms: C_40  and  C_41 
REMARK   17  A    between atoms: C_41  and  C_42 
REMARK   18  A    between atoms: C_42  and  O_44 
REMARK   19  A    between atoms: C_45  and  C_46 
REMARK   20  A    between atoms: C_46  and  C_47 
REMARK   21  A    between atoms: C_47  and  O_49 
REMARK   22  A    between atoms: C_50  and  C_51 
REMARK   23  A    between atoms: C_51  and  C_52 
REMARK   24  A    between atoms: C_52  and  O_54 
REMARK   25  A    between atoms: C_55  and  C_56 
REMARK   26  A    between atoms: C_56  and  C_57 
REMARK   27  A    between atoms: C_57  and  C_58 
REMARK   28  A    between atoms: C_58  and  O_60 
ROOT
ATOM      1  O   UNK d   0     -12.827  -4.426  17.793  0.00  0.00    -0.650 OA
ATOM      2  C   UNK d   0     -11.942  -4.973  17.098  0.00  0.00     0.139 C 
ENDROOT
BRANCH   2   3
ATOM      3  O   UNK d   0     -12.279  -5.506  15.877  0.00  0.00    -0.776 OA
ATOM      4  H   UNK d   0     -12.805  -6.379  15.810  0.00  0.00     0.167 HD
ENDBRANCH   2   3
BRANCH   2   5
ATOM      5  C   UNK d   0     -10.538  -5.043  17.594  0.00  0.00     0.115 C 
BRANCH   5   6
ATOM      6  C   UNK d   0      -9.708  -5.901  16.678  0.00  0.00     0.052 C 
BRANCH   6   7
ATOM      7  C   UNK d   0      -9.015  -7.028  17.406  0.00  0.00    -0.020 A 
ATOM      8  C   UNK d   0      -9.241  -8.311  17.289  0.00  0.00    -0.011 A 
ATOM      9  C   UNK d   0      -8.339  -9.005  18.193  0.00  0.00     0.067 A 
ATOM     10  C   UNK d   0      -8.066 -10.342  18.523  0.00  0.00     0.062 C 
ATOM     11  N   UNK d   0      -7.604  -8.066  18.825  0.00  0.00    -0.248 NA
ATOM     12  C   UNK d   0      -6.958 -10.833  19.222  0.00  0.00     0.041 A 
ATOM     13  N   UNK d   0      -6.330 -10.376  20.322  0.00  0.00    -0.355 N 
ATOM     14  C   UNK d   0      -6.290 -11.968  18.728  0.00  0.00    -0.022 A 
ATOM     15  C   UNK d   0      -5.277 -11.187  20.534  0.00  0.00     0.042 A 
ATOM     16  H   UNK d   0      -6.637  -9.509  20.948  0.00  0.00     0.166 HD
ATOM     17  C   UNK d   0      -4.294 -11.163  21.544  0.00  0.00     0.062 C 
ATOM     18  C   UNK d   0      -5.218 -12.198  19.555  0.00  0.00    -0.013 A 
ATOM     19  C   UNK d   0      -3.593 -10.093  22.040  0.00  0.00     0.067 A 
ATOM     20  N   UNK d   0      -4.011  -8.877  21.679  0.00  0.00    -0.248 NA
ATOM     21  C   UNK d   0      -2.433  -9.911  22.897  0.00  0.00    -0.011 A 
ATOM     22  C   UNK d   0      -3.207  -7.913  22.237  0.00  0.00     0.066 A 
ATOM     23  C   UNK d   0      -3.553  -6.595  21.973  0.00  0.00     0.062 C 
ATOM     24  C   UNK d   0      -2.210  -8.633  23.004  0.00  0.00    -0.020 A 
ATOM     25  C   UNK d   0      -4.677  -6.123  21.279  0.00  0.00     0.041 A 
ATOM     26  N   UNK d   0      -5.292  -6.568  20.177  0.00  0.00    -0.355 N 
ATOM     27  C   UNK d   0      -5.350  -4.986  21.778  0.00  0.00    -0.022 A 
ATOM     28  C   UNK d   0      -6.338  -5.756  19.959  0.00  0.00     0.042 A 
ATOM     29  H   UNK d   0      -4.977  -7.433  19.544  0.00  0.00     0.166 HD
ATOM     30  C   UNK d   0      -7.318  -5.763  18.953  0.00  0.00     0.062 C 
ATOM     31  C   UNK d   0      -6.402  -4.747  20.949  0.00  0.00    -0.013 A 
ATOM     32  C   UNK d   0      -7.963  -6.855  18.396  0.00  0.00     0.066 A 
BRANCH   8  33
ATOM     33  C   UNK d   0     -10.230  -8.960  16.409  0.00  0.00     0.151 C 
BRANCH  33  34
ATOM     34  C   UNK d   0     -11.564  -9.061  17.028  0.00  0.00     0.143 C 
ATOM     35  O   UNK d   0     -12.460  -8.253  16.746  0.00  0.00    -0.650 OA
BRANCH  34  36
ATOM     36  O   UNK d   0     -11.815 -10.067  17.933  0.00  0.00    -0.776 OA
ATOM     37  H   UNK d   0     -11.653 -11.055  17.691  0.00  0.00     0.167 HD
ENDBRANCH  34  36
ENDBRANCH  33  34
ENDBRANCH   8  33
BRANCH  31  38
ATOM     38  C   UNK d   0      -7.417  -3.637  21.094  0.00  0.00     0.151 C 
BRANCH  38  39
ATOM     39  C   UNK d   0      -6.995  -2.405  20.462  0.00  0.00     0.143 C 
ATOM     40  O   UNK d   0      -6.758  -1.371  21.111  0.00  0.00    -0.650 OA
BRANCH  39  41
ATOM     41  O   UNK d   0      -6.845  -2.361  19.076  0.00  0.00    -0.776 OA
ATOM     42  H   UNK d   0      -6.954  -1.445  18.629  0.00  0.00     0.167 HD
ENDBRANCH  39  41
ENDBRANCH  38  39
ENDBRANCH  31  38
BRANCH  27  43
ATOM     43  C   UNK d   0      -5.033  -4.138  22.985  0.00  0.00     0.052 C 
BRANCH  43  44
ATOM     44  C   UNK d   0      -4.001  -3.091  22.717  0.00  0.00     0.115 C 
BRANCH  44  45
ATOM     45  C   UNK d   0      -2.768  -3.520  23.427  0.00  0.00     0.139 C 
ATOM     46  O   UNK d   0      -1.659  -3.164  22.956  0.00  0.00    -0.650 OA
BRANCH  45  47
ATOM     47  O   UNK d   0      -2.793  -4.282  24.575  0.00  0.00    -0.776 OA
ATOM     48  H   UNK d   0      -3.510  -5.003  24.753  0.00  0.00     0.167 HD
ENDBRANCH  45  47
ENDBRANCH  44  45
ENDBRANCH  43  44
ENDBRANCH  27  43
BRANCH  24  49
ATOM     49  C   UNK d   0      -1.153  -8.001  23.812  0.00  0.00     0.052 C 
BRANCH  49  50
ATOM     50  C   UNK d   0      -0.192  -7.252  22.925  0.00  0.00     0.115 C 
BRANCH  50  51
ATOM     51  C   UNK d   0       1.170  -7.762  22.841  0.00  0.00     0.139 C 
ATOM     52  O   UNK d   0       1.617  -8.629  23.628  0.00  0.00    -0.650 OA
BRANCH  51  53
ATOM     53  O   UNK d   0       2.023  -7.281  21.860  0.00  0.00    -0.776 OA
ATOM     54  H   UNK d   0       2.706  -6.591  22.120  0.00  0.00     0.167 HD
ENDBRANCH  51  53
ENDBRANCH  50  51
ENDBRANCH  49  50
ENDBRANCH  24  49
BRANCH  21  55
ATOM     55  C   UNK d   0      -1.672 -11.032  23.522  0.00  0.00     0.151 C 
BRANCH  55  56
ATOM     56  C   UNK d   0      -0.675 -11.602  22.602  0.00  0.00     0.143 C 
ATOM     57  O   UNK d   0      -0.962 -12.457  21.741  0.00  0.00    -0.650 OA
BRANCH  56  58
ATOM     58  O   UNK d   0       0.640 -11.155  22.712  0.00  0.00    -0.776 OA
ATOM     59  H   UNK d   0       0.746 -10.129  22.807  0.00  0.00     0.167 HD
ENDBRANCH  56  58
ENDBRANCH  55  56
ENDBRANCH  21  55
BRANCH  18  60
ATOM     60  C   UNK d   0      -4.222 -13.318  19.388  0.00  0.00     0.151 C 
BRANCH  60  61
ATOM     61  C   UNK d   0      -3.000 -12.695  18.854  0.00  0.00     0.143 C 
ATOM     62  O   UNK d   0      -2.921 -11.646  18.215  0.00  0.00    -0.650 OA
BRANCH  61  63
ATOM     63  O   UNK d   0      -1.801 -13.399  19.118  0.00  0.00    -0.776 OA
ATOM     64  H   UNK d   0      -1.170 -13.644  18.376  0.00  0.00     0.167 HD
ENDBRANCH  61  63
ENDBRANCH  60  61
ENDBRANCH  18  60
BRANCH  14  65
ATOM     65  C   UNK d   0      -6.641 -12.901  17.604  0.00  0.00     0.052 C 
BRANCH  65  66
ATOM     66  C   UNK d   0      -6.157 -12.424  16.280  0.00  0.00     0.115 C 
BRANCH  66  67
ATOM     67  C   UNK d   0      -7.076 -11.807  15.366  0.00  0.00     0.139 C 
ATOM     68  O   UNK d   0      -8.323 -12.109  15.453  0.00  0.00    -0.650 OA
BRANCH  67  69
ATOM     69  O   UNK d   0      -6.789 -10.889  14.357  0.00  0.00    -0.776 OA
ATOM     70  H   UNK d   0      -5.881 -11.012  13.885  0.00  0.00     0.167 HD
ENDBRANCH  67  69
ENDBRANCH  66  67
ENDBRANCH  65  66
ENDBRANCH  14  65
ENDBRANCH   6   7
ENDBRANCH   5   6
ENDBRANCH   2   5
TORSDOF 28
ENDMDL
MODEL 6
REMARK VINA RESULT:      -9.1      1.387      7.602
REMARK  28 active torsions:
REMARK  status: ('A' for Active; 'I' for Inactive)
REMARK    1  A    between atoms: C_2  and  O_3 
REMARK    2  A    between atoms: C_2  and  C_4 
REMARK    3  A    between atoms: C_4  and  C_5 
REMARK    4  A    between atoms: C_5  and  C_6 
REMARK    5  A    between atoms: C_7  and  C_8 
REMARK    6  A    between atoms: C_8  and  C_9 
REMARK    7  A    between atoms: C_9  and  O_11 
REMARK    8  A    between atoms: C_28  and  C_29 
REMARK    9  A    between atoms: C_29  and  C_30 
REMARK   10  A    between atoms: C_30  and  O_32 
REMARK   11  A    between atoms: C_33  and  C_34 
REMARK   12  A    between atoms: C_34  and  C_35 
REMARK   13  A    between atoms: C_35  and  C_36 
REMARK   14  A    between atoms: C_36  and  O_38 
REMARK   15  A    between atoms: C_39  and  C_40 
REMARK   16  A    between atoms: C_40  and  C_41 
REMARK   17  A    between atoms: C_41  and  C_42 
REMARK   18  A    between atoms: C_42  and  O_44 
REMARK   19  A    between atoms: C_45  and  C_46 
REMARK   20  A    between atoms: C_46  and  C_47 
REMARK   21  A    between atoms: C_47  and  O_49 
REMARK   22  A    between atoms: C_50  and  C_51 
REMARK   23  A    between atoms: C_51  and  C_52 
REMARK   24  A    between atoms: C_52  and  O_54 
REMARK   25  A    between atoms: C_55  and  C_56 
REMARK   26  A    between atoms: C_56  and  C_57 
REMARK   27  A    between atoms: C_57  and  C_58 
REMARK   28  A    between atoms: C_58  and  O_60 
ROOT
ATOM      1  O   UNK d   0     -10.778   0.674  18.672  0.00  0.00    -0.650 OA
ATOM      2  C   UNK d   0      -9.926  -0.202  18.404  0.00  0.00     0.139 C 
ENDROOT
BRANCH   2   3
ATOM      3  O   UNK d   0      -8.631   0.176  18.142  0.00  0.00    -0.776 OA
ATOM      4  H   UNK d   0      -8.367   0.561  17.232  0.00  0.00     0.167 HD
ENDBRANCH   2   3
BRANCH   2   5
ATOM      5  C   UNK d   0     -10.317  -1.640  18.368  0.00  0.00     0.115 C 
BRANCH   5   6
ATOM      6  C   UNK d   0      -9.661  -2.326  17.200  0.00  0.00     0.052 C 
BRANCH   6   7
ATOM      7  C   UNK d   0      -9.627  -3.827  17.353  0.00  0.00    -0.020 A 
ATOM      8  C   UNK d   0     -10.472  -4.699  16.865  0.00  0.00    -0.011 A 
ATOM      9  C   UNK d   0     -10.037  -6.022  17.280  0.00  0.00     0.067 A 
ATOM     10  C   UNK d   0     -10.475  -7.341  17.082  0.00  0.00     0.062 C 
ATOM     11  N   UNK d   0      -8.921  -5.862  18.022  0.00  0.00    -0.248 NA
ATOM     12  C   UNK d   0      -9.761  -8.517  17.334  0.00  0.00     0.041 A 
ATOM     13  N   UNK d   0      -8.977  -8.874  18.369  0.00  0.00    -0.355 N 
ATOM     14  C   UNK d   0      -9.765  -9.536  16.364  0.00  0.00    -0.022 A 
ATOM     15  C   UNK d   0      -8.477 -10.090  18.077  0.00  0.00     0.042 A 
ATOM     16  H   UNK d   0      -8.796  -8.287  19.296  0.00  0.00     0.166 HD
ATOM     17  C   UNK d   0      -7.607 -10.920  18.811  0.00  0.00     0.062 C 
ATOM     18  C   UNK d   0      -8.949 -10.538  16.827  0.00  0.00    -0.013 A 
ATOM     19  C   UNK d   0      -6.456 -10.588  19.478  0.00  0.00     0.067 A 
ATOM     20  N   UNK d   0      -6.204  -9.286  19.637  0.00  0.00    -0.248 NA
ATOM     21  C   UNK d   0      -5.355 -11.314  20.088  0.00  0.00    -0.011 A 
ATOM     22  C   UNK d   0      -5.017  -9.108  20.305  0.00  0.00     0.066 A 
ATOM     23  C   UNK d   0      -4.650  -7.797  20.572  0.00  0.00     0.062 C 
ATOM     24  C   UNK d   0      -4.514 -10.442  20.566  0.00  0.00    -0.020 A 
ATOM     25  C   UNK d   0      -5.388  -6.630  20.322  0.00  0.00     0.041 A 
ATOM     26  N   UNK d   0      -6.155  -6.268  19.287  0.00  0.00    -0.355 N 
ATOM     27  C   UNK d   0      -5.386  -5.609  21.298  0.00  0.00    -0.022 A 
ATOM     28  C   UNK d   0      -6.647  -5.053  19.572  0.00  0.00     0.042 A 
ATOM     29  H   UNK d   0      -6.328  -6.855  18.351  0.00  0.00     0.166 HD
ATOM     30  C   UNK d   0      -7.506  -4.212  18.847  0.00  0.00     0.062 C 
ATOM     31  C   UNK d   0      -6.182  -4.608  20.832  0.00  0.00    -0.013 A 
ATOM     32  C   UNK d   0      -8.621  -4.565  18.103  0.00  0.00     0.066 A 
BRANCH   8  33
ATOM     33  C   UNK d   0     -11.663  -4.413  16.044  0.00  0.00     0.151 C 
BRANCH  33  34
ATOM     34  C   UNK d   0     -12.925  -4.652  16.767  0.00  0.00     0.143 C 
ATOM     35  O   UNK d   0     -13.026  -4.396  17.975  0.00  0.00    -0.650 OA
BRANCH  34  36
ATOM     36  O   UNK d   0     -14.005  -5.169  16.088  0.00  0.00    -0.776 OA
ATOM     37  H   UNK d   0     -14.965  -5.043  16.436  0.00  0.00     0.167 HD
ENDBRANCH  34  36
ENDBRANCH  33  34
ENDBRANCH   8  33
BRANCH  31  38
ATOM     38  C   UNK d   0      -6.493  -3.312  21.544  0.00  0.00     0.151 C 
BRANCH  38  39
ATOM     39  C   UNK d   0      -7.627  -3.420  22.437  0.00  0.00     0.143 C 
ATOM     40  O   UNK d   0      -7.538  -3.191  23.656  0.00  0.00    -0.650 OA
BRANCH  39  41
ATOM     41  O   UNK d   0      -8.870  -3.793  21.926  0.00  0.00    -0.776 OA
ATOM     42  H   UNK d   0      -9.308  -4.622  22.338  0.00  0.00     0.167 HD
ENDBRANCH  39  41
ENDBRANCH  38  39
ENDBRANCH  31  38
BRANCH  27  43
ATOM     43  C   UNK d   0      -4.672  -5.553  22.625  0.00  0.00     0.052 C 
BRANCH  43  44
ATOM     44  C   UNK d   0      -3.309  -4.947  22.537  0.00  0.00     0.115 C 
BRANCH  44  45
ATOM     45  C   UNK d   0      -2.410  -5.800  23.358  0.00  0.00     0.139 C 
ATOM     46  O   UNK d   0      -2.144  -6.954  22.938  0.00  0.00    -0.650 OA
BRANCH  45  47
ATOM     47  O   UNK d   0      -1.859  -5.377  24.547  0.00  0.00    -0.776 OA
ATOM     48  H   UNK d   0      -1.369  -4.473  24.648  0.00  0.00     0.167 HD
ENDBRANCH  45  47
ENDBRANCH  44  45
ENDBRANCH  43  44
ENDBRANCH  27  43
BRANCH  24  49
ATOM     49  C   UNK d   0      -3.274 -10.745  21.302  0.00  0.00     0.052 C 
BRANCH  49  50
ATOM     50  C   UNK d   0      -3.446 -10.439  22.767  0.00  0.00     0.115 C 
BRANCH  50  51
ATOM     51  C   UNK d   0      -3.641 -11.570  23.664  0.00  0.00     0.139 C 
ATOM     52  O   UNK d   0      -3.668 -12.756  23.261  0.00  0.00    -0.650 OA
BRANCH  51  53
ATOM     53  O   UNK d   0      -3.809 -11.347  25.022  0.00  0.00    -0.776 OA
ATOM     54  H   UNK d   0      -3.507 -12.061  25.662  0.00  0.00     0.167 HD
ENDBRANCH  51  53
ENDBRANCH  50  51
ENDBRANCH  49  50
ENDBRANCH  24  49
BRANCH  21  55
ATOM     55  C   UNK d   0      -5.260 -12.803  20.133  0.00  0.00     0.151 C 
BRANCH  55  56
ATOM     56  C   UNK d   0      -6.335 -13.400  20.939  0.00  0.00     0.143 C 
ATOM     57  O   UNK d   0      -7.262 -14.067  20.439  0.00  0.00    -0.650 OA
BRANCH  56  58
ATOM     58  O   UNK d   0      -6.300 -13.201  22.318  0.00  0.00    -0.776 OA
ATOM     59  H   UNK d   0      -5.591 -12.519  22.642  0.00  0.00     0.167 HD
ENDBRANCH  56  58
ENDBRANCH  55  56
ENDBRANCH  21  55
BRANCH  18  60
ATOM     60  C   UNK d   0      -8.658 -11.824  16.095  0.00  0.00     0.151 C 
BRANCH  60  61
ATOM     61  C   UNK d   0      -7.822 -11.454  14.944  0.00  0.00     0.143 C 
ATOM     62  O   UNK d   0      -7.992 -11.778  13.768  0.00  0.00    -0.650 OA
BRANCH  61  63
ATOM     63  O   UNK d   0      -6.707 -10.636  15.247  0.00  0.00    -0.776 OA
ATOM     64  H   UNK d   0      -6.242 -10.108  14.530  0.00  0.00     0.167 HD
ENDBRANCH  61  63
ENDBRANCH  60  61
ENDBRANCH  18  60
BRANCH  14  65
ATOM     65  C   UNK d   0     -10.552  -9.676  15.091  0.00  0.00     0.052 C 
BRANCH  65  66
ATOM     66  C   UNK d   0     -11.978 -10.030  15.325  0.00  0.00     0.115 C 
BRANCH  66  67
ATOM     67  C   UNK d   0     -12.480 -11.296  14.869  0.00  0.00     0.139 C 
ATOM     68  O   UNK d   0     -11.673 -12.296  14.821  0.00  0.00    -0.650 OA
BRANCH  67  69
ATOM     69  O   UNK d   0     -13.776 -11.599  14.454  0.00  0.00    -0.776 OA
ATOM     70  H   UNK d   0     -14.526 -11.036  14.879  0.00  0.00     0.167 HD
ENDBRANCH  67  69
ENDBRANCH  66  67
ENDBRANCH  65  66
ENDBRANCH  14  65
ENDBRANCH   6   7
ENDBRANCH   5   6
ENDBRANCH   2   5
TORSDOF 28
ENDMDL
MODEL 7
REMARK VINA RESULT:      -9.0      1.904      2.828
REMARK  28 active torsions:
REMARK  status: ('A' for Active; 'I' for Inactive)
REMARK    1  A    between atoms: C_2  and  O_3 
REMARK    2  A    between atoms: C_2  and  C_4 
REMARK    3  A    between atoms: C_4  and  C_5 
REMARK    4  A    between atoms: C_5  and  C_6 
REMARK    5  A    between atoms: C_7  and  C_8 
REMARK    6  A    between atoms: C_8  and  C_9 
REMARK    7  A    between atoms: C_9  and  O_11 
REMARK    8  A    between atoms: C_28  and  C_29 
REMARK    9  A    between atoms: C_29  and  C_30 
REMARK   10  A    between atoms: C_30  and  O_32 
REMARK   11  A    between atoms: C_33  and  C_34 
REMARK   12  A    between atoms: C_34  and  C_35 
REMARK   13  A    between atoms: C_35  and  C_36 
REMARK   14  A    between atoms: C_36  and  O_38 
REMARK   15  A    between atoms: C_39  and  C_40 
REMARK   16  A    between atoms: C_40  and  C_41 
REMARK   17  A    between atoms: C_41  and  C_42 
REMARK   18  A    between atoms: C_42  and  O_44 
REMARK   19  A    between atoms: C_45  and  C_46 
REMARK   20  A    between atoms: C_46  and  C_47 
REMARK   21  A    between atoms: C_47  and  O_49 
REMARK   22  A    between atoms: C_50  and  C_51 
REMARK   23  A    between atoms: C_51  and  C_52 
REMARK   24  A    between atoms: C_52  and  O_54 
REMARK   25  A    between atoms: C_55  and  C_56 
REMARK   26  A    between atoms: C_56  and  C_57 
REMARK   27  A    between atoms: C_57  and  C_58 
REMARK   28  A    between atoms: C_58  and  O_60 
ROOT
ATOM      1  O   UNK d   0     -13.190  -6.726  17.153  0.00  0.00    -0.650 OA
ATOM      2  C   UNK d   0     -12.149  -6.584  16.475  0.00  0.00     0.139 C 
ENDROOT
BRANCH   2   3
ATOM      3  O   UNK d   0     -11.805  -7.549  15.559  0.00  0.00    -0.776 OA
ATOM      4  H   UNK d   0     -11.594  -7.305  14.589  0.00  0.00     0.167 HD
ENDBRANCH   2   3
BRANCH   2   5
ATOM      5  C   UNK d   0     -11.293  -5.378  16.661  0.00  0.00     0.115 C 
BRANCH   5   6
ATOM      6  C   UNK d   0     -11.323  -4.940  18.100  0.00  0.00     0.052 C 
BRANCH   6   7
ATOM      7  C   UNK d   0      -9.949  -4.896  18.723  0.00  0.00    -0.020 A 
ATOM      8  C   UNK d   0      -9.253  -3.836  19.049  0.00  0.00    -0.011 A 
ATOM      9  C   UNK d   0      -7.990  -4.287  19.607  0.00  0.00     0.067 A 
ATOM     10  C   UNK d   0      -6.847  -3.678  20.149  0.00  0.00     0.062 C 
ATOM     11  N   UNK d   0      -7.998  -5.636  19.578  0.00  0.00    -0.248 NA
ATOM     12  C   UNK d   0      -5.835  -4.289  20.897  0.00  0.00     0.041 A 
ATOM     13  N   UNK d   0      -5.199  -5.465  20.735  0.00  0.00    -0.355 N 
ATOM     14  C   UNK d   0      -5.382  -3.659  22.071  0.00  0.00    -0.022 A 
ATOM     15  C   UNK d   0      -4.360  -5.600  21.779  0.00  0.00     0.042 A 
ATOM     16  H   UNK d   0      -5.327  -6.175  19.889  0.00  0.00     0.166 HD
ATOM     17  C   UNK d   0      -3.461  -6.638  22.100  0.00  0.00     0.062 C 
ATOM     18  C   UNK d   0      -4.447  -4.488  22.638  0.00  0.00    -0.013 A 
ATOM     19  C   UNK d   0      -3.661  -7.994  22.061  0.00  0.00     0.067 A 
ATOM     20  N   UNK d   0      -4.773  -8.425  21.459  0.00  0.00    -0.248 NA
ATOM     21  C   UNK d   0      -2.952  -9.169  22.540  0.00  0.00    -0.011 A 
ATOM     22  C   UNK d   0      -4.842  -9.795  21.511  0.00  0.00     0.066 A 
ATOM     23  C   UNK d   0      -5.934 -10.381  20.887  0.00  0.00     0.062 C 
ATOM     24  C   UNK d   0      -3.650 -10.219  22.219  0.00  0.00    -0.020 A 
ATOM     25  C   UNK d   0      -6.932  -9.750  20.128  0.00  0.00     0.041 A 
ATOM     26  N   UNK d   0      -7.575  -8.589  20.298  0.00  0.00    -0.355 N 
ATOM     27  C   UNK d   0      -7.383 -10.381  18.949  0.00  0.00    -0.022 A 
ATOM     28  C   UNK d   0      -8.419  -8.455  19.263  0.00  0.00     0.042 A 
ATOM     29  H   UNK d   0      -7.454  -7.881  21.154  0.00  0.00     0.166 HD
ATOM     30  C   UNK d   0      -9.325  -7.434  18.936  0.00  0.00     0.062 C 
ATOM     31  C   UNK d   0      -8.324  -9.569  18.394  0.00  0.00    -0.013 A 
ATOM     32  C   UNK d   0      -9.149  -6.064  19.058  0.00  0.00     0.066 A 
BRANCH   8  33
ATOM     33  C   UNK d   0      -9.657  -2.427  18.883  0.00  0.00     0.151 C 
BRANCH  33  34
ATOM     34  C   UNK d   0      -9.344  -1.898  17.543  0.00  0.00     0.143 C 
ATOM     35  O   UNK d   0      -9.043  -2.659  16.612  0.00  0.00    -0.650 OA
BRANCH  34  36
ATOM     36  O   UNK d   0      -9.387  -0.540  17.326  0.00  0.00    -0.776 OA
ATOM     37  H   UNK d   0      -8.551   0.047  17.449  0.00  0.00     0.167 HD
ENDBRANCH  34  36
ENDBRANCH  33  34
ENDBRANCH   8  33
BRANCH  31  38
ATOM     38  C   UNK d   0      -9.078  -9.824  17.111  0.00  0.00     0.151 C 
BRANCH  38  39
ATOM     39  C   UNK d   0     -10.461 -10.191  17.335  0.00  0.00     0.143 C 
ATOM     40  O   UNK d   0     -10.949 -10.278  18.475  0.00  0.00    -0.650 OA
BRANCH  39  41
ATOM     41  O   UNK d   0     -11.286 -10.458  16.243  0.00  0.00    -0.776 OA
ATOM     42  H   UNK d   0     -12.101  -9.848  16.120  0.00  0.00     0.167 HD
ENDBRANCH  39  41
ENDBRANCH  38  39
ENDBRANCH  31  38
BRANCH  27  43
ATOM     43  C   UNK d   0      -6.964 -11.699  18.346  0.00  0.00     0.052 C 
BRANCH  43  44
ATOM     44  C   UNK d   0      -5.860 -11.567  17.347  0.00  0.00     0.115 C 
BRANCH  44  45
ATOM     45  C   UNK d   0      -6.418 -11.995  16.038  0.00  0.00     0.139 C 
ATOM     46  O   UNK d   0      -7.232 -12.951  16.027  0.00  0.00    -0.650 OA
BRANCH  45  47
ATOM     47  O   UNK d   0      -6.084 -11.386  14.848  0.00  0.00    -0.776 OA
ATOM     48  H   UNK d   0      -5.358 -10.655  14.777  0.00  0.00     0.167 HD
ENDBRANCH  45  47
ENDBRANCH  44  45
ENDBRANCH  43  44
ENDBRANCH  27  43
BRANCH  24  49
ATOM     49  C   UNK d   0      -3.280 -11.621  22.478  0.00  0.00     0.052 C 
BRANCH  49  50
ATOM     50  C   UNK d   0      -4.248 -12.248  23.448  0.00  0.00     0.115 C 
BRANCH  50  51
ATOM     51  C   UNK d   0      -4.024 -12.000  24.866  0.00  0.00     0.139 C 
ATOM     52  O   UNK d   0      -2.955 -11.515  25.307  0.00  0.00    -0.650 OA
BRANCH  51  53
ATOM     53  O   UNK d   0      -5.018 -12.307  25.782  0.00  0.00    -0.776 OA
ATOM     54  H   UNK d   0      -4.947 -11.923  26.708  0.00  0.00     0.167 HD
ENDBRANCH  51  53
ENDBRANCH  50  51
ENDBRANCH  49  50
ENDBRANCH  24  49
BRANCH  21  55
ATOM     55  C   UNK d   0      -1.648  -9.119  23.265  0.00  0.00     0.151 C 
BRANCH  55  56
ATOM     56  C   UNK d   0      -1.208  -7.737  23.514  0.00  0.00     0.143 C 
ATOM     57  O   UNK d   0      -0.565  -7.072  22.678  0.00  0.00    -0.650 OA
BRANCH  56  58
ATOM     58  O   UNK d   0      -1.533  -7.164  24.742  0.00  0.00    -0.776 OA
ATOM     59  H   UNK d   0      -2.100  -6.299  24.684  0.00  0.00     0.167 HD
ENDBRANCH  56  58
ENDBRANCH  55  56
ENDBRANCH  21  55
BRANCH  18  60
ATOM     60  C   UNK d   0      -3.705  -4.205  23.921  0.00  0.00     0.151 C 
BRANCH  60  61
ATOM     61  C   UNK d   0      -2.365  -3.751  23.521  0.00  0.00     0.143 C 
ATOM     62  O   UNK d   0      -2.090  -2.918  22.657  0.00  0.00    -0.650 OA
BRANCH  61  63
ATOM     63  O   UNK d   0      -1.291  -4.352  24.222  0.00  0.00    -0.776 OA
ATOM     64  H   UNK d   0      -1.372  -4.580  25.197  0.00  0.00     0.167 HD
ENDBRANCH  61  63
ENDBRANCH  60  61
ENDBRANCH  18  60
BRANCH  14  65
ATOM     65  C   UNK d   0      -5.691  -2.302  22.638  0.00  0.00     0.052 C 
BRANCH  65  66
ATOM     66  C   UNK d   0      -7.100  -2.170  23.095  0.00  0.00     0.115 C 
BRANCH  66  67
ATOM     67  C   UNK d   0      -7.441  -2.496  24.451  0.00  0.00     0.139 C 
ATOM     68  O   UNK d   0      -6.938  -3.558  24.973  0.00  0.00    -0.650 OA
BRANCH  67  69
ATOM     69  O   UNK d   0      -8.278  -1.788  25.314  0.00  0.00    -0.776 OA
ATOM     70  H   UNK d   0      -9.020  -2.339  25.770  0.00  0.00     0.167 HD
ENDBRANCH  67  69
ENDBRANCH  66  67
ENDBRANCH  65  66
ENDBRANCH  14  65
ENDBRANCH   6   7
ENDBRANCH   5   6
ENDBRANCH   2   5
TORSDOF 28
ENDMDL
MODEL 8
REMARK VINA RESULT:      -9.0      1.579     10.948
REMARK  28 active torsions:
REMARK  status: ('A' for Active; 'I' for Inactive)
REMARK    1  A    between atoms: C_2  and  O_3 
REMARK    2  A    between atoms: C_2  and  C_4 
REMARK    3  A    between atoms: C_4  and  C_5 
REMARK    4  A    between atoms: C_5  and  C_6 
REMARK    5  A    between atoms: C_7  and  C_8 
REMARK    6  A    between atoms: C_8  and  C_9 
REMARK    7  A    between atoms: C_9  and  O_11 
REMARK    8  A    between atoms: C_28  and  C_29 
REMARK    9  A    between atoms: C_29  and  C_30 
REMARK   10  A    between atoms: C_30  and  O_32 
REMARK   11  A    between atoms: C_33  and  C_34 
REMARK   12  A    between atoms: C_34  and  C_35 
REMARK   13  A    between atoms: C_35  and  C_36 
REMARK   14  A    between atoms: C_36  and  O_38 
REMARK   15  A    between atoms: C_39  and  C_40 
REMARK   16  A    between atoms: C_40  and  C_41 
REMARK   17  A    between atoms: C_41  and  C_42 
REMARK   18  A    between atoms: C_42  and  O_44 
REMARK   19  A    between atoms: C_45  and  C_46 
REMARK   20  A    between atoms: C_46  and  C_47 
REMARK   21  A    between atoms: C_47  and  O_49 
REMARK   22  A    between atoms: C_50  and  C_51 
REMARK   23  A    between atoms: C_51  and  C_52 
REMARK   24  A    between atoms: C_52  and  O_54 
REMARK   25  A    between atoms: C_55  and  C_56 
REMARK   26  A    between atoms: C_56  and  C_57 
REMARK   27  A    between atoms: C_57  and  C_58 
REMARK   28  A    between atoms: C_58  and  O_60 
ROOT
ATOM      1  O   UNK d   0      -1.515 -11.379  23.568  0.00  0.00    -0.650 OA
ATOM      2  C   UNK d   0      -2.700 -11.220  23.937  0.00  0.00     0.139 C 
ENDROOT
BRANCH   2   3
ATOM      3  O   UNK d   0      -3.031 -11.444  25.252  0.00  0.00    -0.776 OA
ATOM      4  H   UNK d   0      -3.142 -12.393  25.614  0.00  0.00     0.167 HD
ENDBRANCH   2   3
BRANCH   2   5
ATOM      5  C   UNK d   0      -3.738 -10.792  22.957  0.00  0.00     0.115 C 
BRANCH   5   6
ATOM      6  C   UNK d   0      -3.121  -9.924  21.895  0.00  0.00     0.052 C 
BRANCH   6   7
ATOM      7  C   UNK d   0      -4.075  -9.623  20.763  0.00  0.00    -0.020 A 
ATOM      8  C   UNK d   0      -4.328 -10.365  19.715  0.00  0.00    -0.011 A 
ATOM      9  C   UNK d   0      -5.304  -9.662  18.899  0.00  0.00     0.067 A 
ATOM     10  C   UNK d   0      -5.987  -9.911  17.699  0.00  0.00     0.062 C 
ATOM     11  N   UNK d   0      -5.584  -8.498  19.523  0.00  0.00    -0.248 NA
ATOM     12  C   UNK d   0      -7.108  -9.233  17.205  0.00  0.00     0.041 A 
ATOM     13  N   UNK d   0      -7.403  -7.920  17.165  0.00  0.00    -0.355 N 
ATOM     14  C   UNK d   0      -8.183  -9.981  16.692  0.00  0.00    -0.022 A 
ATOM     15  C   UNK d   0      -8.641  -7.816  16.647  0.00  0.00     0.042 A 
ATOM     16  H   UNK d   0      -6.741  -7.083  17.478  0.00  0.00     0.166 HD
ATOM     17  C   UNK d   0      -9.428  -6.677  16.385  0.00  0.00     0.062 C 
ATOM     18  C   UNK d   0      -9.163  -9.087  16.338  0.00  0.00    -0.013 A 
ATOM     19  C   UNK d   0      -9.648  -5.579  17.178  0.00  0.00     0.067 A 
ATOM     20  N   UNK d   0      -8.876  -5.451  18.260  0.00  0.00    -0.248 NA
ATOM     21  C   UNK d   0     -10.562  -4.449  17.168  0.00  0.00    -0.011 A 
ATOM     22  C   UNK d   0      -9.220  -4.320  18.960  0.00  0.00     0.066 A 
ATOM     23  C   UNK d   0      -8.469  -4.044  20.092  0.00  0.00     0.062 C 
ATOM     24  C   UNK d   0     -10.309  -3.718  18.216  0.00  0.00    -0.020 A 
ATOM     25  C   UNK d   0      -7.339  -4.730  20.564  0.00  0.00     0.041 A 
ATOM     26  N   UNK d   0      -7.052  -6.036  20.618  0.00  0.00    -0.355 N 
ATOM     27  C   UNK d   0      -6.258  -3.979  21.075  0.00  0.00    -0.022 A 
ATOM     28  C   UNK d   0      -5.820  -6.143  21.142  0.00  0.00     0.042 A 
ATOM     29  H   UNK d   0      -7.722  -6.877  20.312  0.00  0.00     0.166 HD
ATOM     30  C   UNK d   0      -5.029  -7.270  21.417  0.00  0.00     0.062 C 
ATOM     31  C   UNK d   0      -5.293  -4.865  21.442  0.00  0.00    -0.013 A 
ATOM     32  C   UNK d   0      -4.878  -8.415  20.651  0.00  0.00     0.066 A 
BRANCH   8  33
ATOM     33  C   UNK d   0      -3.738 -11.678  19.396  0.00  0.00     0.151 C 
BRANCH  33  34
ATOM     34  C   UNK d   0      -4.566 -12.804  19.863  0.00  0.00     0.143 C 
ATOM     35  O   UNK d   0      -5.570 -12.609  20.563  0.00  0.00    -0.650 OA
BRANCH  34  36
ATOM     36  O   UNK d   0      -4.215 -14.089  19.518  0.00  0.00    -0.776 OA
ATOM     37  H   UNK d   0      -4.713 -14.901  19.906  0.00  0.00     0.167 HD
ENDBRANCH  34  36
ENDBRANCH  33  34
ENDBRANCH   8  33
BRANCH  31  38
ATOM     38  C   UNK d   0      -3.944  -4.522  22.031  0.00  0.00     0.151 C 
BRANCH  38  39
ATOM     39  C   UNK d   0      -3.923  -4.607  23.476  0.00  0.00     0.143 C 
ATOM     40  O   UNK d   0      -2.863  -4.655  24.124  0.00  0.00    -0.650 OA
BRANCH  39  41
ATOM     41  O   UNK d   0      -5.128  -4.638  24.178  0.00  0.00    -0.776 OA
ATOM     42  H   UNK d   0      -5.502  -3.737  24.492  0.00  0.00     0.167 HD
ENDBRANCH  39  41
ENDBRANCH  38  39
ENDBRANCH  31  38
BRANCH  27  43
ATOM     43  C   UNK d   0      -6.115  -2.485  21.225  0.00  0.00     0.052 C 
BRANCH  43  44
ATOM     44  C   UNK d   0      -6.669  -1.964  22.510  0.00  0.00     0.115 C 
BRANCH  44  45
ATOM     45  C   UNK d   0      -5.568  -1.223  23.179  0.00  0.00     0.139 C 
ATOM     46  O   UNK d   0      -5.299  -1.511  24.371  0.00  0.00    -0.650 OA
BRANCH  45  47
ATOM     47  O   UNK d   0      -4.833  -0.244  22.545  0.00  0.00    -0.776 OA
ATOM     48  H   UNK d   0      -3.831  -0.354  22.320  0.00  0.00     0.167 HD
ENDBRANCH  45  47
ENDBRANCH  44  45
ENDBRANCH  43  44
ENDBRANCH  27  43
BRANCH  24  49
ATOM     49  C   UNK d   0     -10.976  -2.455  18.575  0.00  0.00     0.052 C 
BRANCH  49  50
ATOM     50  C   UNK d   0     -10.368  -1.306  17.813  0.00  0.00     0.115 C 
BRANCH  50  51
ATOM     51  C   UNK d   0      -9.488  -0.410  18.551  0.00  0.00     0.139 C 
ATOM     52  O   UNK d   0      -9.845   0.733  18.924  0.00  0.00    -0.650 OA
BRANCH  51  53
ATOM     53  O   UNK d   0      -8.200  -0.816  18.863  0.00  0.00    -0.776 OA
ATOM     54  H   UNK d   0      -7.681  -1.324  18.169  0.00  0.00     0.167 HD
ENDBRANCH  51  53
ENDBRANCH  50  51
ENDBRANCH  49  50
ENDBRANCH  24  49
BRANCH  21  55
ATOM     55  C   UNK d   0     -11.589  -4.215  16.111  0.00  0.00     0.151 C 
BRANCH  55  56
ATOM     56  C   UNK d   0     -12.922  -4.680  16.525  0.00  0.00     0.143 C 
ATOM     57  O   UNK d   0     -13.680  -4.001  17.246  0.00  0.00    -0.650 OA
BRANCH  56  58
ATOM     58  O   UNK d   0     -13.339  -5.934  16.082  0.00  0.00    -0.776 OA
ATOM     59  H   UNK d   0     -13.611  -6.594  16.833  0.00  0.00     0.167 HD
ENDBRANCH  56  58
ENDBRANCH  55  56
ENDBRANCH  21  55
BRANCH  18  60
ATOM     60  C   UNK d   0     -10.501  -9.459  15.749  0.00  0.00     0.151 C 
BRANCH  60  61
ATOM     61  C   UNK d   0     -11.458  -9.422  16.865  0.00  0.00     0.143 C 
ATOM     62  O   UNK d   0     -11.608 -10.273  17.743  0.00  0.00    -0.650 OA
BRANCH  61  63
ATOM     63  O   UNK d   0     -12.285  -8.274  16.913  0.00  0.00    -0.776 OA
ATOM     64  H   UNK d   0     -13.160  -8.285  17.406  0.00  0.00     0.167 HD
ENDBRANCH  61  63
ENDBRANCH  60  61
ENDBRANCH  18  60
BRANCH  14  65
ATOM     65  C   UNK d   0      -8.315 -11.453  16.422  0.00  0.00     0.052 C 
BRANCH  65  66
ATOM     66  C   UNK d   0      -7.671 -11.870  15.147  0.00  0.00     0.115 C 
BRANCH  66  67
ATOM     67  C   UNK d   0      -8.347 -12.790  14.276  0.00  0.00     0.139 C 
ATOM     68  O   UNK d   0      -8.339 -14.040  14.578  0.00  0.00    -0.650 OA
BRANCH  67  69
ATOM     69  O   UNK d   0      -9.038 -12.500  13.100  0.00  0.00    -0.776 OA
ATOM     70  H   UNK d   0      -8.527 -12.683  12.224  0.00  0.00     0.167 HD
ENDBRANCH  67  69
ENDBRANCH  66  67
ENDBRANCH  65  66
ENDBRANCH  14  65
ENDBRANCH   6   7
ENDBRANCH   5   6
ENDBRANCH   2   5
TORSDOF 28
ENDMDL
MODEL 9
REMARK VINA RESULT:      -8.9      1.969     10.698
REMARK  28 active torsions:
REMARK  status: ('A' for Active; 'I' for Inactive)
REMARK    1  A    between atoms: C_2  and  O_3 
REMARK    2  A    between atoms: C_2  and  C_4 
REMARK    3  A    between atoms: C_4  and  C_5 
REMARK    4  A    between atoms: C_5  and  C_6 
REMARK    5  A    between atoms: C_7  and  C_8 
REMARK    6  A    between atoms: C_8  and  C_9 
REMARK    7  A    between atoms: C_9  and  O_11 
REMARK    8  A    between atoms: C_28  and  C_29 
REMARK    9  A    between atoms: C_29  and  C_30 
REMARK   10  A    between atoms: C_30  and  O_32 
REMARK   11  A    between atoms: C_33  and  C_34 
REMARK   12  A    between atoms: C_34  and  C_35 
REMARK   13  A    between atoms: C_35  and  C_36 
REMARK   14  A    between atoms: C_36  and  O_38 
REMARK   15  A    between atoms: C_39  and  C_40 
REMARK   16  A    between atoms: C_40  and  C_41 
REMARK   17  A    between atoms: C_41  and  C_42 
REMARK   18  A    between atoms: C_42  and  O_44 
REMARK   19  A    between atoms: C_45  and  C_46 
REMARK   20  A    between atoms: C_46  and  C_47 
REMARK   21  A    between atoms: C_47  and  O_49 
REMARK   22  A    between atoms: C_50  and  C_51 
REMARK   23  A    between atoms: C_51  and  C_52 
REMARK   24  A    between atoms: C_52  and  O_54 
REMARK   25  A    between atoms: C_55  and  C_56 
REMARK   26  A    between atoms: C_56  and  C_57 
REMARK   27  A    between atoms: C_57  and  C_58 
REMARK   28  A    between atoms: C_58  and  O_60 
ROOT
ATOM      1  O   UNK d   0      -0.523  -8.321  25.233  0.00  0.00    -0.650 OA
ATOM      2  C   UNK d   0      -1.135  -7.716  24.326  0.00  0.00     0.139 C 
ENDROOT
BRANCH   2   3
ATOM      3  O   UNK d   0      -1.569  -6.431  24.547  0.00  0.00    -0.776 OA
ATOM      4  H   UNK d   0      -1.940  -6.149  25.457  0.00  0.00     0.167 HD
ENDBRANCH   2   3
BRANCH   2   5
ATOM      5  C   UNK d   0      -1.389  -8.385  23.018  0.00  0.00     0.115 C 
BRANCH   5   6
ATOM      6  C   UNK d   0      -2.504  -9.385  23.157  0.00  0.00     0.052 C 
BRANCH   6   7
ATOM      7  C   UNK d   0      -3.449  -9.369  21.979  0.00  0.00    -0.020 A 
ATOM      8  C   UNK d   0      -3.635 -10.312  21.092  0.00  0.00    -0.011 A 
ATOM      9  C   UNK d   0      -4.633  -9.842  20.145  0.00  0.00     0.067 A 
ATOM     10  C   UNK d   0      -5.274 -10.360  19.009  0.00  0.00     0.062 C 
ATOM     11  N   UNK d   0      -4.996  -8.600  20.529  0.00  0.00    -0.248 NA
ATOM     12  C   UNK d   0      -6.421  -9.862  18.382  0.00  0.00     0.041 A 
ATOM     13  N   UNK d   0      -6.793  -8.602  18.086  0.00  0.00    -0.355 N 
ATOM     14  C   UNK d   0      -7.439 -10.760  18.013  0.00  0.00    -0.022 A 
ATOM     15  C   UNK d   0      -8.024  -8.677  17.545  0.00  0.00     0.042 A 
ATOM     16  H   UNK d   0      -6.190  -7.681  18.238  0.00  0.00     0.166 HD
ATOM     17  C   UNK d   0      -8.871  -7.662  17.060  0.00  0.00     0.062 C 
ATOM     18  C   UNK d   0      -8.462 -10.014  17.483  0.00  0.00    -0.013 A 
ATOM     19  C   UNK d   0      -9.173  -6.448  17.623  0.00  0.00     0.067 A 
ATOM     20  N   UNK d   0      -8.434  -6.066  18.668  0.00  0.00    -0.248 NA
ATOM     21  C   UNK d   0     -10.152  -5.400  17.385  0.00  0.00    -0.011 A 
ATOM     22  C   UNK d   0      -8.860  -4.845  19.131  0.00  0.00     0.066 A 
ATOM     23  C   UNK d   0      -8.152  -4.309  20.197  0.00  0.00     0.062 C 
ATOM     24  C   UNK d   0      -9.966  -4.467  18.274  0.00  0.00    -0.020 A 
ATOM     25  C   UNK d   0      -6.994  -4.819  20.803  0.00  0.00     0.041 A 
ATOM     26  N   UNK d   0      -6.630  -6.070  21.112  0.00  0.00    -0.355 N 
ATOM     27  C   UNK d   0      -5.971  -3.918  21.170  0.00  0.00    -0.022 A 
ATOM     28  C   UNK d   0      -5.407  -5.997  21.659  0.00  0.00     0.042 A 
ATOM     29  H   UNK d   0      -7.242  -6.994  20.968  0.00  0.00     0.166 HD
ATOM     30  C   UNK d   0      -4.556  -6.998  22.155  0.00  0.00     0.062 C 
ATOM     31  C   UNK d   0      -4.963  -4.655  21.712  0.00  0.00    -0.013 A 
ATOM     32  C   UNK d   0      -4.320  -8.257  21.626  0.00  0.00     0.066 A 
BRANCH   8  33
ATOM     33  C   UNK d   0      -2.961 -11.623  21.039  0.00  0.00     0.151 C 
BRANCH  33  34
ATOM     34  C   UNK d   0      -3.908 -12.752  21.048  0.00  0.00     0.143 C 
ATOM     35  O   UNK d   0      -3.875 -13.617  20.161  0.00  0.00    -0.650 OA
BRANCH  34  36
ATOM     36  O   UNK d   0      -4.840 -12.844  22.055  0.00  0.00    -0.776 OA
ATOM     37  H   UNK d   0      -5.206 -13.755  22.364  0.00  0.00     0.167 HD
ENDBRANCH  34  36
ENDBRANCH  33  34
ENDBRANCH   8  33
BRANCH  31  38
ATOM     38  C   UNK d   0      -3.650  -4.120  22.236  0.00  0.00     0.151 C 
BRANCH  38  39
ATOM     39  C   UNK d   0      -3.703  -3.783  23.643  0.00  0.00     0.143 C 
ATOM     40  O   UNK d   0      -2.803  -3.135  24.206  0.00  0.00    -0.650 OA
BRANCH  39  41
ATOM     41  O   UNK d   0      -4.796  -4.192  24.406  0.00  0.00    -0.776 OA
ATOM     42  H   UNK d   0      -4.747  -4.015  25.414  0.00  0.00     0.167 HD
ENDBRANCH  39  41
ENDBRANCH  38  39
ENDBRANCH  31  38
BRANCH  27  43
ATOM     43  C   UNK d   0      -5.920  -2.417  21.029  0.00  0.00     0.052 C 
BRANCH  43  44
ATOM     44  C   UNK d   0      -6.696  -1.698  22.084  0.00  0.00     0.115 C 
BRANCH  44  45
ATOM     45  C   UNK d   0      -5.704  -0.973  22.920  0.00  0.00     0.139 C 
ATOM     46  O   UNK d   0      -5.679  -1.216  24.152  0.00  0.00    -0.650 OA
BRANCH  45  47
ATOM     47  O   UNK d   0      -4.815  -0.057  22.401  0.00  0.00    -0.776 OA
ATOM     48  H   UNK d   0      -4.004  -0.330  21.823  0.00  0.00     0.167 HD
ENDBRANCH  45  47
ENDBRANCH  44  45
ENDBRANCH  43  44
ENDBRANCH  27  43
BRANCH  24  49
ATOM     49  C   UNK d   0     -10.715  -3.203  18.375  0.00  0.00     0.052 C 
BRANCH  49  50
ATOM     50  C   UNK d   0      -9.793  -2.077  18.765  0.00  0.00     0.115 C 
BRANCH  50  51
ATOM     51  C   UNK d   0      -9.952  -0.812  18.060  0.00  0.00     0.139 C 
ATOM     52  O   UNK d   0     -10.677   0.115  18.490  0.00  0.00    -0.650 OA
BRANCH  51  53
ATOM     53  O   UNK d   0      -9.287  -0.606  16.861  0.00  0.00    -0.776 OA
ATOM     54  H   UNK d   0      -8.768  -1.372  16.468  0.00  0.00     0.167 HD
ENDBRANCH  51  53
ENDBRANCH  50  51
ENDBRANCH  49  50
ENDBRANCH  24  49
BRANCH  21  55
ATOM     55  C   UNK d   0     -11.168  -5.440  16.292  0.00  0.00     0.151 C 
BRANCH  55  56
ATOM     56  C   UNK d   0     -12.285  -6.343  16.609  0.00  0.00     0.143 C 
ATOM     57  O   UNK d   0     -13.112  -6.103  17.510  0.00  0.00    -0.650 OA
BRANCH  56  58
ATOM     58  O   UNK d   0     -12.407  -7.512  15.860  0.00  0.00    -0.776 OA
ATOM     59  H   UNK d   0     -11.509  -7.962  15.604  0.00  0.00     0.167 HD
ENDBRANCH  56  58
ENDBRANCH  55  56
ENDBRANCH  21  55
BRANCH  18  60
ATOM     60  C   UNK d   0      -9.762 -10.576  16.963  0.00  0.00     0.151 C 
BRANCH  60  61
ATOM     61  C   UNK d   0     -10.793 -10.171  17.932  0.00  0.00     0.143 C 
ATOM     62  O   UNK d   0     -11.979  -9.937  17.698  0.00  0.00    -0.650 OA
BRANCH  61  63
ATOM     63  O   UNK d   0     -10.346 -10.043  19.269  0.00  0.00    -0.776 OA
ATOM     64  H   UNK d   0      -9.667 -10.677  19.651  0.00  0.00     0.167 HD
ENDBRANCH  61  63
ENDBRANCH  60  61
ENDBRANCH  18  60
BRANCH  14  65
ATOM     65  C   UNK d   0      -7.477 -12.262  18.032  0.00  0.00     0.052 C 
BRANCH  65  66
ATOM     66  C   UNK d   0      -7.321 -12.831  19.397  0.00  0.00     0.115 C 
BRANCH  66  67
ATOM     67  C   UNK d   0      -8.119 -12.320  20.476  0.00  0.00     0.139 C 
ATOM     68  O   UNK d   0      -7.540 -11.630  21.395  0.00  0.00    -0.650 OA
BRANCH  67  69
ATOM     69  O   UNK d   0      -9.491 -12.476  20.671  0.00  0.00    -0.776 OA
ATOM     70  H   UNK d   0      -9.878 -13.395  20.412  0.00  0.00     0.167 HD
ENDBRANCH  67  69
ENDBRANCH  66  67
ENDBRANCH  65  66
ENDBRANCH  14  65
ENDBRANCH   6   7
ENDBRANCH   5   6
ENDBRANCH   2   5
TORSDOF 28
ENDMDL
MODEL 10
REMARK VINA RESULT:      -8.9      2.379     10.964
REMARK  28 active torsions:
REMARK  status: ('A' for Active; 'I' for Inactive)
REMARK    1  A    between atoms: C_2  and  O_3 
REMARK    2  A    between atoms: C_2  and  C_4 
REMARK    3  A    between atoms: C_4  and  C_5 
REMARK    4  A    between atoms: C_5  and  C_6 
REMARK    5  A    between atoms: C_7  and  C_8 
REMARK    6  A    between atoms: C_8  and  C_9 
REMARK    7  A    between atoms: C_9  and  O_11 
REMARK    8  A    between atoms: C_28  and  C_29 
REMARK    9  A    between atoms: C_29  and  C_30 
REMARK   10  A    between atoms: C_30  and  O_32 
REMARK   11  A    between atoms: C_33  and  C_34 
REMARK   12  A    between atoms: C_34  and  C_35 
REMARK   13  A    between atoms: C_35  and  C_36 
REMARK   14  A    between atoms: C_36  and  O_38 
REMARK   15  A    between atoms: C_39  and  C_40 
REMARK   16  A    between atoms: C_40  and  C_41 
REMARK   17  A    between atoms: C_41  and  C_42 
REMARK   18  A    between atoms: C_42  and  O_44 
REMARK   19  A    between atoms: C_45  and  C_46 
REMARK   20  A    between atoms: C_46  and  C_47 
REMARK   21  A    between atoms: C_47  and  O_49 
REMARK   22  A    between atoms: C_50  and  C_51 
REMARK   23  A    between atoms: C_51  and  C_52 
REMARK   24  A    between atoms: C_52  and  O_54 
REMARK   25  A    between atoms: C_55  and  C_56 
REMARK   26  A    between atoms: C_56  and  C_57 
REMARK   27  A    between atoms: C_57  and  C_58 
REMARK   28  A    between atoms: C_58  and  O_60 
ROOT
ATOM      1  O   UNK d   0      -1.510 -10.395  25.100  0.00  0.00    -0.650 OA
ATOM      2  C   UNK d   0      -0.801 -10.250  24.079  0.00  0.00     0.139 C 
ENDROOT
BRANCH   2   3
ATOM      3  O   UNK d   0       0.153  -9.261  24.057  0.00  0.00    -0.776 OA
ATOM      4  H   UNK d   0       0.437  -8.783  24.914  0.00  0.00     0.167 HD
ENDBRANCH   2   3
BRANCH   2   5
ATOM      5  C   UNK d   0      -0.993 -11.143  22.902  0.00  0.00     0.115 C 
BRANCH   5   6
ATOM      6  C   UNK d   0      -2.387 -11.710  22.904  0.00  0.00     0.052 C 
BRANCH   6   7
ATOM      7  C   UNK d   0      -3.175 -11.319  21.676  0.00  0.00    -0.020 A 
ATOM      8  C   UNK d   0      -3.375 -12.030  20.596  0.00  0.00    -0.011 A 
ATOM      9  C   UNK d   0      -4.184 -11.237  19.686  0.00  0.00     0.067 A 
ATOM     10  C   UNK d   0      -4.747 -11.418  18.412  0.00  0.00     0.062 C 
ATOM     11  N   UNK d   0      -4.425 -10.055  20.290  0.00  0.00    -0.248 NA
ATOM     12  C   UNK d   0      -5.737 -10.638  17.806  0.00  0.00     0.041 A 
ATOM     13  N   UNK d   0      -5.905  -9.303  17.751  0.00  0.00    -0.355 N 
ATOM     14  C   UNK d   0      -6.812 -11.281  17.165  0.00  0.00    -0.022 A 
ATOM     15  C   UNK d   0      -7.062  -9.083  17.098  0.00  0.00     0.042 A 
ATOM     16  H   UNK d   0      -5.209  -8.531  18.148  0.00  0.00     0.166 HD
ATOM     17  C   UNK d   0      -7.707  -7.875  16.766  0.00  0.00     0.062 C 
ATOM     18  C   UNK d   0      -7.660 -10.299  16.716  0.00  0.00    -0.013 A 
ATOM     19  C   UNK d   0      -7.913  -6.764  17.544  0.00  0.00     0.067 A 
ATOM     20  N   UNK d   0      -7.260  -6.712  18.708  0.00  0.00    -0.248 NA
ATOM     21  C   UNK d   0      -8.713  -5.555  17.447  0.00  0.00    -0.011 A 
ATOM     22  C   UNK d   0      -7.576  -5.556  19.380  0.00  0.00     0.066 A 
ATOM     23  C   UNK d   0      -6.936  -5.354  20.593  0.00  0.00     0.062 C 
ATOM     24  C   UNK d   0      -8.515  -4.854  18.526  0.00  0.00    -0.020 A 
ATOM     25  C   UNK d   0      -5.934  -6.144  21.179  0.00  0.00     0.041 A 
ATOM     26  N   UNK d   0      -5.775  -7.471  21.247  0.00  0.00    -0.355 N 
ATOM     27  C   UNK d   0      -4.853  -5.497  21.819  0.00  0.00    -0.022 A 
ATOM     28  C   UNK d   0      -4.626  -7.693  21.905  0.00  0.00     0.042 A 
ATOM     29  H   UNK d   0      -6.481  -8.245  20.857  0.00  0.00     0.166 HD
ATOM     30  C   UNK d   0      -3.978  -8.889  22.251  0.00  0.00     0.062 C 
ATOM     31  C   UNK d   0      -4.021  -6.471  22.280  0.00  0.00    -0.013 A 
ATOM     32  C   UNK d   0      -3.846 -10.041  21.491  0.00  0.00     0.066 A 
BRANCH   8  33
ATOM     33  C   UNK d   0      -2.875 -13.391  20.328  0.00  0.00     0.151 C 
BRANCH  33  34
ATOM     34  C   UNK d   0      -1.587 -13.394  19.610  0.00  0.00     0.143 C 
ATOM     35  O   UNK d   0      -0.523 -13.597  20.213  0.00  0.00    -0.650 OA
BRANCH  34  36
ATOM     36  O   UNK d   0      -1.569 -13.167  18.254  0.00  0.00    -0.776 OA
ATOM     37  H   UNK d   0      -1.082 -12.352  17.855  0.00  0.00     0.167 HD
ENDBRANCH  34  36
ENDBRANCH  33  34
ENDBRANCH   8  33
BRANCH  31  38
ATOM     38  C   UNK d   0      -2.722  -6.255  23.021  0.00  0.00     0.151 C 
BRANCH  38  39
ATOM     39  C   UNK d   0      -1.565  -6.309  22.153  0.00  0.00     0.143 C 
ATOM     40  O   UNK d   0      -0.652  -7.138  22.312  0.00  0.00    -0.650 OA
BRANCH  39  41
ATOM     41  O   UNK d   0      -1.457  -5.406  21.096  0.00  0.00    -0.776 OA
ATOM     42  H   UNK d   0      -0.548  -4.951  20.968  0.00  0.00     0.167 HD
ENDBRANCH  39  41
ENDBRANCH  38  39
ENDBRANCH  31  38
BRANCH  27  43
ATOM     43  C   UNK d   0      -4.592  -4.024  22.004  0.00  0.00     0.052 C 
BRANCH  43  44
ATOM     44  C   UNK d   0      -5.145  -3.481  23.282  0.00  0.00     0.115 C 
BRANCH  44  45
ATOM     45  C   UNK d   0      -6.319  -2.646  22.915  0.00  0.00     0.139 C 
ATOM     46  O   UNK d   0      -6.108  -1.543  22.353  0.00  0.00    -0.650 OA
BRANCH  45  47
ATOM     47  O   UNK d   0      -7.618  -3.034  23.161  0.00  0.00    -0.776 OA
ATOM     48  H   UNK d   0      -8.179  -3.574  22.483  0.00  0.00     0.167 HD
ENDBRANCH  45  47
ENDBRANCH  44  45
ENDBRANCH  43  44
ENDBRANCH  27  43
BRANCH  24  49
ATOM     49  C   UNK d   0      -9.100  -3.536  18.826  0.00  0.00     0.052 C 
BRANCH  49  50
ATOM     50  C   UNK d   0     -10.051  -3.637  19.990  0.00  0.00     0.115 C 
BRANCH  50  51
ATOM     51  C   UNK d   0     -11.440  -3.271  19.747  0.00  0.00     0.139 C 
ATOM     52  O   UNK d   0     -11.879  -3.002  18.604  0.00  0.00    -0.650 OA
BRANCH  51  53
ATOM     53  O   UNK d   0     -12.329  -3.208  20.809  0.00  0.00    -0.776 OA
ATOM     54  H   UNK d   0     -13.047  -2.505  20.787  0.00  0.00     0.167 HD
ENDBRANCH  51  53
ENDBRANCH  50  51
ENDBRANCH  49  50
ENDBRANCH  24  49
BRANCH  21  55
ATOM     55  C   UNK d   0      -9.589  -5.223  16.284  0.00  0.00     0.151 C 
BRANCH  55  56
ATOM     56  C   UNK d   0     -11.004  -5.516  16.559  0.00  0.00     0.143 C 
ATOM     57  O   UNK d   0     -11.376  -6.542  17.161  0.00  0.00    -0.650 OA
BRANCH  56  58
ATOM     58  O   UNK d   0     -11.954  -4.596  16.119  0.00  0.00    -0.776 OA
ATOM     59  H   UNK d   0     -11.605  -3.626  16.011  0.00  0.00     0.167 HD
ENDBRANCH  56  58
ENDBRANCH  55  56
ENDBRANCH  21  55
BRANCH  18  60
ATOM     60  C   UNK d   0      -8.951 -10.544  15.975  0.00  0.00     0.151 C 
BRANCH  60  61
ATOM     61  C   UNK d   0     -10.025 -10.118  16.884  0.00  0.00     0.143 C 
ATOM     62  O   UNK d   0     -10.112 -10.348  18.091  0.00  0.00    -0.650 OA
BRANCH  61  63
ATOM     63  O   UNK d   0     -11.060  -9.361  16.282  0.00  0.00    -0.776 OA
ATOM     64  H   UNK d   0     -10.979  -9.035  15.336  0.00  0.00     0.167 HD
ENDBRANCH  61  63
ENDBRANCH  60  61
ENDBRANCH  18  60
BRANCH  14  65
ATOM     65  C   UNK d   0      -7.046 -12.734  16.861  0.00  0.00     0.052 C 
BRANCH  65  66
ATOM     66  C   UNK d   0      -6.722 -13.094  15.455  0.00  0.00     0.115 C 
BRANCH  66  67
ATOM     67  C   UNK d   0      -7.720 -13.716  14.632  0.00  0.00     0.139 C 
ATOM     68  O   UNK d   0      -8.261 -14.809  15.042  0.00  0.00    -0.650 OA
BRANCH  67  69
ATOM     69  O   UNK d   0      -8.202 -13.280  13.398  0.00  0.00    -0.776 OA
ATOM     70  H   UNK d   0      -9.224 -13.170  13.330  0.00  0.00     0.167 HD
ENDBRANCH  67  69
ENDBRANCH  66  67
ENDBRANCH  65  66
ENDBRANCH  14  65
ENDBRANCH   6   7
ENDBRANCH   5   6
ENDBRANCH   2   5
TORSDOF 28
ENDMDL
MODEL 11
REMARK VINA RESULT:      -8.8      2.081      8.046
REMARK  28 active torsions:
REMARK  status: ('A' for Active; 'I' for Inactive)
REMARK    1  A    between atoms: C_2  and  O_3 
REMARK    2  A    between atoms: C_2  and  C_4 
REMARK    3  A    between atoms: C_4  and  C_5 
REMARK    4  A    between atoms: C_5  and  C_6 
REMARK    5  A    between atoms: C_7  and  C_8 
REMARK    6  A    between atoms: C_8  and  C_9 
REMARK    7  A    between atoms: C_9  and  O_11 
REMARK    8  A    between atoms: C_28  and  C_29 
REMARK    9  A    between atoms: C_29  and  C_30 
REMARK   10  A    between atoms: C_30  and  O_32 
REMARK   11  A    between atoms: C_33  and  C_34 
REMARK   12  A    between atoms: C_34  and  C_35 
REMARK   13  A    between atoms: C_35  and  C_36 
REMARK   14  A    between atoms: C_36  and  O_38 
REMARK   15  A    between atoms: C_39  and  C_40 
REMARK   16  A    between atoms: C_40  and  C_41 
REMARK   17  A    between atoms: C_41  and  C_42 
REMARK   18  A    between atoms: C_42  and  O_44 
REMARK   19  A    between atoms: C_45  and  C_46 
REMARK   20  A    between atoms: C_46  and  C_47 
REMARK   21  A    between atoms: C_47  and  O_49 
REMARK   22  A    between atoms: C_50  and  C_51 
REMARK   23  A    between atoms: C_51  and  C_52 
REMARK   24  A    between atoms: C_52  and  O_54 
REMARK   25  A    between atoms: C_55  and  C_56 
REMARK   26  A    between atoms: C_56  and  C_57 
REMARK   27  A    between atoms: C_57  and  C_58 
REMARK   28  A    between atoms: C_58  and  O_60 
ROOT
ATOM      1  O   UNK d   0      -7.930 -13.135  13.896  0.00  0.00    -0.650 OA
ATOM      2  C   UNK d   0      -8.549 -12.527  14.798  0.00  0.00     0.139 C 
ENDROOT
BRANCH   2   3
ATOM      3  O   UNK d   0      -9.920 -12.465  14.750  0.00  0.00    -0.776 OA
ATOM      4  H   UNK d   0     -10.445 -11.871  15.396  0.00  0.00     0.167 HD
ENDBRANCH   2   3
BRANCH   2   5
ATOM      5  C   UNK d   0      -7.800 -11.878  15.912  0.00  0.00     0.115 C 
BRANCH   5   6
ATOM      6  C   UNK d   0      -8.762 -11.282  16.904  0.00  0.00     0.052 C 
BRANCH   6   7
ATOM      7  C   UNK d   0      -8.573  -9.794  17.074  0.00  0.00    -0.020 A 
ATOM      8  C   UNK d   0      -9.087  -8.836  16.347  0.00  0.00    -0.011 A 
ATOM      9  C   UNK d   0      -8.618  -7.569  16.884  0.00  0.00     0.067 A 
ATOM     10  C   UNK d   0      -8.809  -6.210  16.587  0.00  0.00     0.062 C 
ATOM     11  N   UNK d   0      -7.818  -7.851  17.934  0.00  0.00    -0.248 NA
ATOM     12  C   UNK d   0      -8.491  -5.114  17.396  0.00  0.00     0.041 A 
ATOM     13  N   UNK d   0      -7.406  -4.854  18.150  0.00  0.00    -0.355 N 
ATOM     14  C   UNK d   0      -9.436  -4.083  17.546  0.00  0.00    -0.022 A 
ATOM     15  C   UNK d   0      -7.642  -3.688  18.781  0.00  0.00     0.042 A 
ATOM     16  H   UNK d   0      -6.484  -5.472  18.220  0.00  0.00     0.166 HD
ATOM     17  C   UNK d   0      -6.841  -2.960  19.684  0.00  0.00     0.062 C 
ATOM     18  C   UNK d   0      -8.905  -3.174  18.428  0.00  0.00    -0.013 A 
ATOM     19  C   UNK d   0      -6.119  -3.415  20.757  0.00  0.00     0.067 A 
ATOM     20  N   UNK d   0      -5.977  -4.738  20.872  0.00  0.00    -0.248 NA
ATOM     21  C   UNK d   0      -5.432  -2.811  21.886  0.00  0.00    -0.011 A 
ATOM     22  C   UNK d   0      -5.248  -5.043  21.996  0.00  0.00     0.066 A 
ATOM     23  C   UNK d   0      -4.991  -6.388  22.218  0.00  0.00     0.062 C 
ATOM     24  C   UNK d   0      -4.928  -3.769  22.609  0.00  0.00    -0.020 A 
ATOM     25  C   UNK d   0      -5.308  -7.473  21.386  0.00  0.00     0.041 A 
ATOM     26  N   UNK d   0      -6.393  -7.739  20.649  0.00  0.00    -0.355 N 
ATOM     27  C   UNK d   0      -4.357  -8.505  21.233  0.00  0.00    -0.022 A 
ATOM     28  C   UNK d   0      -6.164  -8.906  20.025  0.00  0.00     0.042 A 
ATOM     29  H   UNK d   0      -7.323  -7.122  20.588  0.00  0.00     0.166 HD
ATOM     30  C   UNK d   0      -6.955  -9.646  19.132  0.00  0.00     0.062 C 
ATOM     31  C   UNK d   0      -4.890  -9.416  20.373  0.00  0.00    -0.013 A 
ATOM     32  C   UNK d   0      -7.751  -9.172  18.101  0.00  0.00     0.066 A 
BRANCH   8  33
ATOM     33  C   UNK d   0      -9.980  -8.989  15.183  0.00  0.00     0.151 C 
BRANCH  33  34
ATOM     34  C   UNK d   0     -11.390  -9.177  15.567  0.00  0.00     0.143 C 
ATOM     35  O   UNK d   0     -12.011  -8.287  16.165  0.00  0.00    -0.650 OA
BRANCH  34  36
ATOM     36  O   UNK d   0     -12.023 -10.359  15.256  0.00  0.00    -0.776 OA
ATOM     37  H   UNK d   0     -12.037 -10.720  14.293  0.00  0.00     0.167 HD
ENDBRANCH  34  36
ENDBRANCH  33  34
ENDBRANCH   8  33
BRANCH  31  38
ATOM     38  C   UNK d   0      -4.227 -10.687  19.897  0.00  0.00     0.151 C 
BRANCH  38  39
ATOM     39  C   UNK d   0      -3.928 -10.669  18.481  0.00  0.00     0.143 C 
ATOM     40  O   UNK d   0      -3.537  -9.644  17.896  0.00  0.00    -0.650 OA
BRANCH  39  41
ATOM     41  O   UNK d   0      -4.080 -11.836  17.733  0.00  0.00    -0.776 OA
ATOM     42  H   UNK d   0      -3.264 -12.453  17.669  0.00  0.00     0.167 HD
ENDBRANCH  39  41
ENDBRANCH  38  39
ENDBRANCH  31  38
BRANCH  27  43
ATOM     43  C   UNK d   0      -2.994  -8.654  21.861  0.00  0.00     0.052 C 
BRANCH  43  44
ATOM     44  C   UNK d   0      -2.925  -9.756  22.868  0.00  0.00     0.115 C 
BRANCH  44  45
ATOM     45  C   UNK d   0      -1.536  -9.763  23.395  0.00  0.00     0.139 C 
ATOM     46  O   UNK d   0      -1.203  -8.856  24.197  0.00  0.00    -0.650 OA
BRANCH  45  47
ATOM     47  O   UNK d   0      -0.608 -10.721  23.045  0.00  0.00    -0.776 OA
ATOM     48  H   UNK d   0      -0.449 -11.016  22.069  0.00  0.00     0.167 HD
ENDBRANCH  45  47
ENDBRANCH  44  45
ENDBRANCH  43  44
ENDBRANCH  27  43
BRANCH  24  49
ATOM     49  C   UNK d   0      -4.118  -3.602  23.828  0.00  0.00     0.052 C 
BRANCH  49  50
ATOM     50  C   UNK d   0      -4.966  -3.064  24.952  0.00  0.00     0.115 C 
BRANCH  50  51
ATOM     51  C   UNK d   0      -6.247  -3.715  25.189  0.00  0.00     0.139 C 
ATOM     52  O   UNK d   0      -6.341  -4.896  25.599  0.00  0.00    -0.650 OA
BRANCH  51  53
ATOM     53  O   UNK d   0      -7.424  -3.019  24.954  0.00  0.00    -0.776 OA
ATOM     54  H   UNK d   0      -7.543  -2.574  24.062  0.00  0.00     0.167 HD
ENDBRANCH  51  53
ENDBRANCH  50  51
ENDBRANCH  49  50
ENDBRANCH  24  49
BRANCH  21  55
ATOM     55  C   UNK d   0      -5.348  -1.339  22.122  0.00  0.00     0.151 C 
BRANCH  55  56
ATOM     56  C   UNK d   0      -6.677  -0.726  22.261  0.00  0.00     0.143 C 
ATOM     57  O   UNK d   0      -7.383  -0.869  23.279  0.00  0.00    -0.650 OA
BRANCH  56  58
ATOM     58  O   UNK d   0      -7.151   0.045  21.200  0.00  0.00    -0.776 OA
ATOM     59  H   UNK d   0      -7.580  -0.495  20.427  0.00  0.00     0.167 HD
ENDBRANCH  56  58
ENDBRANCH  55  56
ENDBRANCH  21  55
BRANCH  18  60
ATOM     60  C   UNK d   0      -9.590  -1.909  18.883  0.00  0.00     0.151 C 
BRANCH  60  61
ATOM     61  C   UNK d   0      -9.131  -0.851  17.971  0.00  0.00     0.143 C 
ATOM     62  O   UNK d   0      -9.372  -0.752  16.767  0.00  0.00    -0.650 OA
BRANCH  61  63
ATOM     63  O   UNK d   0      -8.327   0.151  18.566  0.00  0.00    -0.776 OA
ATOM     64  H   UNK d   0      -8.726   0.840  19.178  0.00  0.00     0.167 HD
ENDBRANCH  61  63
ENDBRANCH  60  61
ENDBRANCH  18  60
BRANCH  14  65
ATOM     65  C   UNK d   0     -10.747  -3.844  16.852  0.00  0.00     0.052 C 
BRANCH  65  66
ATOM     66  C   UNK d   0     -11.769  -4.877  17.168  0.00  0.00     0.115 C 
BRANCH  66  67
ATOM     67  C   UNK d   0     -12.883  -4.542  18.010  0.00  0.00     0.139 C 
ATOM     68  O   UNK d   0     -12.679  -3.774  19.021  0.00  0.00    -0.650 OA
BRANCH  67  69
ATOM     69  O   UNK d   0     -14.209  -4.953  17.875  0.00  0.00    -0.776 OA
ATOM     70  H   UNK d   0     -14.349  -5.950  17.658  0.00  0.00     0.167 HD
ENDBRANCH  67  69
ENDBRANCH  66  67
ENDBRANCH  65  66
ENDBRANCH  14  65
ENDBRANCH   6   7
ENDBRANCH   5   6
ENDBRANCH   2   5
TORSDOF 28
ENDMDL
MODEL 12
REMARK VINA RESULT:      -8.8      1.923      8.289
REMARK  28 active torsions:
REMARK  status: ('A' for Active; 'I' for Inactive)
REMARK    1  A    between atoms: C_2  and  O_3 
REMARK    2  A    between atoms: C_2  and  C_4 
REMARK    3  A    between atoms: C_4  and  C_5 
REMARK    4  A    between atoms: C_5  and  C_6 
REMARK    5  A    between atoms: C_7  and  C_8 
REMARK    6  A    between atoms: C_8  and  C_9 
REMARK    7  A    between atoms: C_9  and  O_11 
REMARK    8  A    between atoms: C_28  and  C_29 
REMARK    9  A    between atoms: C_29  and  C_30 
REMARK   10  A    between atoms: C_30  and  O_32 
REMARK   11  A    between atoms: C_33  and  C_34 
REMARK   12  A    between atoms: C_34  and  C_35 
REMARK   13  A    between atoms: C_35  and  C_36 
REMARK   14  A    between atoms: C_36  and  O_38 
REMARK   15  A    between atoms: C_39  and  C_40 
REMARK   16  A    between atoms: C_40  and  C_41 
REMARK   17  A    between atoms: C_41  and  C_42 
REMARK   18  A    between atoms: C_42  and  O_44 
REMARK   19  A    between atoms: C_45  and  C_46 
REMARK   20  A    between atoms: C_46  and  C_47 
REMARK   21  A    between atoms: C_47  and  O_49 
REMARK   22  A    between atoms: C_50  and  C_51 
REMARK   23  A    between atoms: C_51  and  C_52 
REMARK   24  A    between atoms: C_52  and  O_54 
REMARK   25  A    between atoms: C_55  and  C_56 
REMARK   26  A    between atoms: C_56  and  C_57 
REMARK   27  A    between atoms: C_57  and  C_58 
REMARK   28  A    between atoms: C_58  and  O_60 
ROOT
ATOM      1  O   UNK d   0       0.631  -7.192  24.063  0.00  0.00    -0.650 OA
ATOM      2  C   UNK d   0      -0.613  -7.236  24.189  0.00  0.00     0.139 C 
ENDROOT
BRANCH   2   3
ATOM      3  O   UNK d   0      -1.155  -7.633  25.388  0.00  0.00    -0.776 OA
ATOM      4  H   UNK d   0      -1.959  -7.147  25.791  0.00  0.00     0.167 HD
ENDBRANCH   2   3
BRANCH   2   5
ATOM      5  C   UNK d   0      -1.495  -6.860  23.048  0.00  0.00     0.115 C 
BRANCH   5   6
ATOM      6  C   UNK d   0      -2.388  -5.714  23.439  0.00  0.00     0.052 C 
BRANCH   6   7
ATOM      7  C   UNK d   0      -3.637  -5.636  22.593  0.00  0.00    -0.020 A 
ATOM      8  C   UNK d   0      -4.425  -4.605  22.426  0.00  0.00    -0.011 A 
ATOM      9  C   UNK d   0      -5.500  -5.006  21.535  0.00  0.00     0.067 A 
ATOM     10  C   UNK d   0      -6.621  -4.388  20.959  0.00  0.00     0.062 C 
ATOM     11  N   UNK d   0      -5.291  -6.299  21.212  0.00  0.00    -0.248 NA
ATOM     12  C   UNK d   0      -7.396  -4.862  19.894  0.00  0.00     0.041 A 
ATOM     13  N   UNK d   0      -7.864  -6.094  19.618  0.00  0.00    -0.355 N 
ATOM     14  C   UNK d   0      -7.748  -3.974  18.861  0.00  0.00    -0.022 A 
ATOM     15  C   UNK d   0      -8.496  -6.013  18.432  0.00  0.00     0.042 A 
ATOM     16  H   UNK d   0      -7.765  -6.999  20.257  0.00  0.00     0.166 HD
ATOM     17  C   UNK d   0      -9.163  -7.003  17.683  0.00  0.00     0.062 C 
ATOM     18  C   UNK d   0      -8.444  -4.700  17.926  0.00  0.00    -0.013 A 
ATOM     19  C   UNK d   0      -8.769  -8.287  17.405  0.00  0.00     0.067 A 
ATOM     20  N   UNK d   0      -7.714  -8.754  18.079  0.00  0.00    -0.248 NA
ATOM     21  C   UNK d   0      -9.206  -9.343  16.508  0.00  0.00    -0.011 A 
ATOM     22  C   UNK d   0      -7.429 -10.039  17.686  0.00  0.00     0.066 A 
ATOM     23  C   UNK d   0      -6.375 -10.663  18.336  0.00  0.00     0.062 C 
ATOM     24  C   UNK d   0      -8.415 -10.364  16.674  0.00  0.00    -0.020 A 
ATOM     25  C   UNK d   0      -5.617 -10.174  19.411  0.00  0.00     0.041 A 
ATOM     26  N   UNK d   0      -5.140  -8.953  19.679  0.00  0.00    -0.355 N 
ATOM     27  C   UNK d   0      -5.269 -11.065  20.450  0.00  0.00    -0.022 A 
ATOM     28  C   UNK d   0      -4.501  -9.033  20.857  0.00  0.00     0.042 A 
ATOM     29  H   UNK d   0      -5.230  -8.048  19.030  0.00  0.00     0.166 HD
ATOM     30  C   UNK d   0      -3.825  -8.059  21.609  0.00  0.00     0.062 C 
ATOM     31  C   UNK d   0      -4.563 -10.351  21.370  0.00  0.00    -0.013 A 
ATOM     32  C   UNK d   0      -4.186  -6.737  21.816  0.00  0.00     0.066 A 
BRANCH   8  33
ATOM     33  C   UNK d   0      -4.271  -3.268  23.029  0.00  0.00     0.151 C 
BRANCH  33  34
ATOM     34  C   UNK d   0      -5.234  -3.019  24.118  0.00  0.00     0.143 C 
ATOM     35  O   UNK d   0      -5.946  -2.005  24.118  0.00  0.00    -0.650 OA
BRANCH  34  36
ATOM     36  O   UNK d   0      -5.339  -3.926  25.146  0.00  0.00    -0.776 OA
ATOM     37  H   UNK d   0      -5.769  -3.668  26.045  0.00  0.00     0.167 HD
ENDBRANCH  34  36
ENDBRANCH  33  34
ENDBRANCH   8  33
BRANCH  31  38
ATOM     38  C   UNK d   0      -3.992 -10.882  22.664  0.00  0.00     0.151 C 
BRANCH  38  39
ATOM     39  C   UNK d   0      -2.600 -11.261  22.550  0.00  0.00     0.143 C 
ATOM     40  O   UNK d   0      -2.194 -12.049  21.677  0.00  0.00    -0.650 OA
BRANCH  39  41
ATOM     41  O   UNK d   0      -1.669 -10.731  23.443  0.00  0.00    -0.776 OA
ATOM     42  H   UNK d   0      -2.041 -10.300  24.295  0.00  0.00     0.167 HD
ENDBRANCH  39  41
ENDBRANCH  38  39
ENDBRANCH  31  38
BRANCH  27  43
ATOM     43  C   UNK d   0      -5.574 -12.535  20.595  0.00  0.00     0.052 C 
BRANCH  43  44
ATOM     44  C   UNK d   0      -6.743 -12.811  21.483  0.00  0.00     0.115 C 
BRANCH  44  45
ATOM     45  C   UNK d   0      -7.917 -13.000  20.592  0.00  0.00     0.139 C 
ATOM     46  O   UNK d   0      -7.755 -13.651  19.530  0.00  0.00    -0.650 OA
BRANCH  45  47
ATOM     47  O   UNK d   0      -9.167 -12.499  20.885  0.00  0.00    -0.776 OA
ATOM     48  H   UNK d   0      -9.462 -11.544  20.625  0.00  0.00     0.167 HD
ENDBRANCH  45  47
ENDBRANCH  44  45
ENDBRANCH  43  44
ENDBRANCH  27  43
BRANCH  24  49
ATOM     49  C   UNK d   0      -8.522 -11.665  15.991  0.00  0.00     0.052 C 
BRANCH  49  50
ATOM     50  C   UNK d   0      -7.987 -11.564  14.585  0.00  0.00     0.115 C 
BRANCH  50  51
ATOM     51  C   UNK d   0      -8.626 -12.390  13.570  0.00  0.00     0.139 C 
ATOM     52  O   UNK d   0      -8.255 -13.561  13.318  0.00  0.00    -0.650 OA
BRANCH  51  53
ATOM     53  O   UNK d   0      -9.688 -11.880  12.838  0.00  0.00    -0.776 OA
ATOM     54  H   UNK d   0     -10.621 -12.071  13.159  0.00  0.00     0.167 HD
ENDBRANCH  51  53
ENDBRANCH  50  51
ENDBRANCH  49  50
ENDBRANCH  24  49
BRANCH  21  55
ATOM     55  C   UNK d   0     -10.370  -9.223  15.581  0.00  0.00     0.151 C 
BRANCH  55  56
ATOM     56  C   UNK d   0     -11.612  -8.890  16.296  0.00  0.00     0.143 C 
ATOM     57  O   UNK d   0     -12.028  -9.549  17.270  0.00  0.00    -0.650 OA
BRANCH  56  58
ATOM     58  O   UNK d   0     -12.340  -7.787  15.853  0.00  0.00    -0.776 OA
ATOM     59  H   UNK d   0     -11.793  -7.090  15.316  0.00  0.00     0.167 HD
ENDBRANCH  56  58
ENDBRANCH  55  56
ENDBRANCH  21  55
BRANCH  18  60
ATOM     60  C   UNK d   0      -9.006  -4.141  16.642  0.00  0.00     0.151 C 
BRANCH  60  61
ATOM     61  C   UNK d   0     -10.467  -4.263  16.754  0.00  0.00     0.143 C 
ATOM     62  O   UNK d   0     -11.198  -5.034  16.130  0.00  0.00    -0.650 OA
BRANCH  61  63
ATOM     63  O   UNK d   0     -11.075  -3.390  17.688  0.00  0.00    -0.776 OA
ATOM     64  H   UNK d   0     -10.751  -2.446  17.802  0.00  0.00     0.167 HD
ENDBRANCH  61  63
ENDBRANCH  60  61
ENDBRANCH  18  60
BRANCH  14  65
ATOM     65  C   UNK d   0      -7.563  -2.489  18.739  0.00  0.00     0.052 C 
BRANCH  65  66
ATOM     66  C   UNK d   0      -8.762  -1.716  19.160  0.00  0.00     0.115 C 
BRANCH  66  67
ATOM     67  C   UNK d   0      -9.230  -0.629  18.347  0.00  0.00     0.139 C 
ATOM     68  O   UNK d   0      -9.484  -0.855  17.107  0.00  0.00    -0.650 OA
BRANCH  67  69
ATOM     69  O   UNK d   0      -9.456   0.691  18.735  0.00  0.00    -0.776 OA
ATOM     70  H   UNK d   0      -9.210   0.919  19.709  0.00  0.00     0.167 HD
ENDBRANCH  67  69
ENDBRANCH  66  67
ENDBRANCH  65  66
ENDBRANCH  14  65
ENDBRANCH   6   7
ENDBRANCH   5   6
ENDBRANCH   2   5
TORSDOF 28
ENDMDL
MODEL 13
REMARK VINA RESULT:      -8.7      1.688      5.047
REMARK  28 active torsions:
REMARK  status: ('A' for Active; 'I' for Inactive)
REMARK    1  A    between atoms: C_2  and  O_3 
REMARK    2  A    between atoms: C_2  and  C_4 
REMARK    3  A    between atoms: C_4  and  C_5 
REMARK    4  A    between atoms: C_5  and  C_6 
REMARK    5  A    between atoms: C_7  and  C_8 
REMARK    6  A    between atoms: C_8  and  C_9 
REMARK    7  A    between atoms: C_9  and  O_11 
REMARK    8  A    between atoms: C_28  and  C_29 
REMARK    9  A    between atoms: C_29  and  C_30 
REMARK   10  A    between atoms: C_30  and  O_32 
REMARK   11  A    between atoms: C_33  and  C_34 
REMARK   12  A    between atoms: C_34  and  C_35 
REMARK   13  A    between atoms: C_35  and  C_36 
REMARK   14  A    between atoms: C_36  and  O_38 
REMARK   15  A    between atoms: C_39  and  C_40 
REMARK   16  A    between atoms: C_40  and  C_41 
REMARK   17  A    between atoms: C_41  and  C_42 
REMARK   18  A    between atoms: C_42  and  O_44 
REMARK   19  A    between atoms: C_45  and  C_46 
REMARK   20  A    between atoms: C_46  and  C_47 
REMARK   21  A    between atoms: C_47  and  O_49 
REMARK   22  A    between atoms: C_50  and  C_51 
REMARK   23  A    between atoms: C_51  and  C_52 
REMARK   24  A    between atoms: C_52  and  O_54 
REMARK   25  A    between atoms: C_55  and  C_56 
REMARK   26  A    between atoms: C_56  and  C_57 
REMARK   27  A    between atoms: C_57  and  C_58 
REMARK   28  A    between atoms: C_58  and  O_60 
ROOT
ATOM      1  O   UNK d   0     -12.348 -12.332  15.122  0.00  0.00    -0.650 OA
ATOM      2  C   UNK d   0     -11.216 -11.839  14.922  0.00  0.00     0.139 C 
ENDROOT
BRANCH   2   3
ATOM      3  O   UNK d   0     -10.128 -12.672  14.810  0.00  0.00    -0.776 OA
ATOM      4  H   UNK d   0     -10.236 -13.643  14.510  0.00  0.00     0.167 HD
ENDBRANCH   2   3
BRANCH   2   5
ATOM      5  C   UNK d   0     -11.053 -10.362  14.808  0.00  0.00     0.115 C 
BRANCH   5   6
ATOM      6  C   UNK d   0     -11.687  -9.678  15.989  0.00  0.00     0.052 C 
BRANCH   6   7
ATOM      7  C   UNK d   0     -10.756  -8.700  16.664  0.00  0.00    -0.020 A 
ATOM      8  C   UNK d   0     -10.857  -7.396  16.699  0.00  0.00    -0.011 A 
ATOM      9  C   UNK d   0      -9.727  -6.883  17.456  0.00  0.00     0.067 A 
ATOM     10  C   UNK d   0      -9.273  -5.619  17.864  0.00  0.00     0.062 C 
ATOM     11  N   UNK d   0      -8.987  -7.944  17.839  0.00  0.00    -0.248 NA
ATOM     12  C   UNK d   0      -8.303  -5.340  18.834  0.00  0.00     0.041 A 
ATOM     13  N   UNK d   0      -7.109  -5.912  19.083  0.00  0.00    -0.355 N 
ATOM     14  C   UNK d   0      -8.562  -4.339  19.787  0.00  0.00    -0.022 A 
ATOM     15  C   UNK d   0      -6.608  -5.304  20.175  0.00  0.00     0.042 A 
ATOM     16  H   UNK d   0      -6.622  -6.715  18.488  0.00  0.00     0.166 HD
ATOM     17  C   UNK d   0      -5.394  -5.513  20.860  0.00  0.00     0.062 C 
ATOM     18  C   UNK d   0      -7.490  -4.313  20.645  0.00  0.00    -0.013 A 
ATOM     19  C   UNK d   0      -4.801  -6.695  21.223  0.00  0.00     0.067 A 
ATOM     20  N   UNK d   0      -5.314  -7.813  20.704  0.00  0.00    -0.248 NA
ATOM     21  C   UNK d   0      -3.700  -7.089  22.087  0.00  0.00    -0.011 A 
ATOM     22  C   UNK d   0      -4.630  -8.911  21.168  0.00  0.00     0.066 A 
ATOM     23  C   UNK d   0      -5.037 -10.143  20.677  0.00  0.00     0.062 C 
ATOM     24  C   UNK d   0      -3.609  -8.388  22.053  0.00  0.00    -0.020 A 
ATOM     25  C   UNK d   0      -6.005 -10.400  19.694  0.00  0.00     0.041 A 
ATOM     26  N   UNK d   0      -7.198  -9.843  19.455  0.00  0.00    -0.355 N 
ATOM     27  C   UNK d   0      -5.742 -11.402  18.734  0.00  0.00    -0.022 A 
ATOM     28  C   UNK d   0      -7.704 -10.453  18.371  0.00  0.00     0.042 A 
ATOM     29  H   UNK d   0      -7.691  -9.043  20.060  0.00  0.00     0.166 HD
ATOM     30  C   UNK d   0      -8.914 -10.262  17.685  0.00  0.00     0.062 C 
ATOM     31  C   UNK d   0      -6.812 -11.442  17.893  0.00  0.00    -0.013 A 
ATOM     32  C   UNK d   0      -9.552  -9.067  17.395  0.00  0.00     0.066 A 
BRANCH   8  33
ATOM     33  C   UNK d   0     -11.914  -6.573  16.082  0.00  0.00     0.151 C 
BRANCH  33  34
ATOM     34  C   UNK d   0     -12.818  -5.967  17.077  0.00  0.00     0.143 C 
ATOM     35  O   UNK d   0     -12.714  -4.771  17.385  0.00  0.00    -0.650 OA
BRANCH  34  36
ATOM     36  O   UNK d   0     -13.787  -6.742  17.669  0.00  0.00    -0.776 OA
ATOM     37  H   UNK d   0     -13.684  -7.081  18.636  0.00  0.00     0.167 HD
ENDBRANCH  34  36
ENDBRANCH  33  34
ENDBRANCH   8  33
BRANCH  31  38
ATOM     38  C   UNK d   0      -6.974 -12.353  16.699  0.00  0.00     0.151 C 
BRANCH  38  39
ATOM     39  C   UNK d   0      -6.696 -11.688  15.444  0.00  0.00     0.143 C 
ATOM     40  O   UNK d   0      -7.450 -11.783  14.459  0.00  0.00    -0.650 OA
BRANCH  39  41
ATOM     41  O   UNK d   0      -5.546 -10.909  15.319  0.00  0.00    -0.776 OA
ATOM     42  H   UNK d   0      -5.606 -10.093  14.704  0.00  0.00     0.167 HD
ENDBRANCH  39  41
ENDBRANCH  38  39
ENDBRANCH  31  38
BRANCH  27  43
ATOM     43  C   UNK d   0      -4.541 -12.303  18.594  0.00  0.00     0.052 C 
BRANCH  43  44
ATOM     44  C   UNK d   0      -4.538 -13.440  19.564  0.00  0.00     0.115 C 
BRANCH  44  45
ATOM     45  C   UNK d   0      -3.139 -13.938  19.629  0.00  0.00     0.139 C 
ATOM     46  O   UNK d   0      -2.420 -13.559  20.587  0.00  0.00    -0.650 OA
BRANCH  45  47
ATOM     47  O   UNK d   0      -2.606 -14.796  18.692  0.00  0.00    -0.776 OA
ATOM     48  H   UNK d   0      -1.750 -15.348  18.861  0.00  0.00     0.167 HD
ENDBRANCH  45  47
ENDBRANCH  44  45
ENDBRANCH  43  44
ENDBRANCH  27  43
BRANCH  24  49
ATOM     49  C   UNK d   0      -2.604  -9.205  22.754  0.00  0.00     0.052 C 
BRANCH  49  50
ATOM     50  C   UNK d   0      -2.955 -10.668  22.653  0.00  0.00     0.115 C 
BRANCH  50  51
ATOM     51  C   UNK d   0      -3.480 -11.309  23.851  0.00  0.00     0.139 C 
ATOM     52  O   UNK d   0      -4.586 -11.899  23.874  0.00  0.00    -0.650 OA
BRANCH  51  53
ATOM     53  O   UNK d   0      -2.743 -11.277  25.026  0.00  0.00    -0.776 OA
ATOM     54  H   UNK d   0      -3.027 -11.875  25.782  0.00  0.00     0.167 HD
ENDBRANCH  51  53
ENDBRANCH  50  51
ENDBRANCH  49  50
ENDBRANCH  24  49
BRANCH  21  55
ATOM     55  C   UNK d   0      -2.853  -6.128  22.852  0.00  0.00     0.151 C 
BRANCH  55  56
ATOM     56  C   UNK d   0      -2.066  -5.258  21.963  0.00  0.00     0.143 C 
ATOM     57  O   UNK d   0      -1.456  -5.688  20.965  0.00  0.00    -0.650 OA
BRANCH  56  58
ATOM     58  O   UNK d   0      -2.013  -3.899  22.267  0.00  0.00    -0.776 OA
ATOM     59  H   UNK d   0      -2.374  -3.646  23.204  0.00  0.00     0.167 HD
ENDBRANCH  56  58
ENDBRANCH  55  56
ENDBRANCH  21  55
BRANCH  18  60
ATOM     60  C   UNK d   0      -7.354  -3.388  21.830  0.00  0.00     0.151 C 
BRANCH  60  61
ATOM     61  C   UNK d   0      -6.329  -2.402  21.456  0.00  0.00     0.143 C 
ATOM     62  O   UNK d   0      -5.194  -2.299  21.921  0.00  0.00    -0.650 OA
BRANCH  61  63
ATOM     63  O   UNK d   0      -6.715  -1.483  20.450  0.00  0.00    -0.776 OA
ATOM     64  H   UNK d   0      -6.102  -1.265  19.685  0.00  0.00     0.167 HD
ENDBRANCH  61  63
ENDBRANCH  60  61
ENDBRANCH  18  60
BRANCH  14  65
ATOM     65  C   UNK d   0      -9.687  -3.350  19.889  0.00  0.00     0.052 C 
BRANCH  65  66
ATOM     66  C   UNK d   0     -10.109  -2.809  18.569  0.00  0.00     0.115 C 
BRANCH  66  67
ATOM     67  C   UNK d   0      -9.333  -1.776  17.942  0.00  0.00     0.139 C 
ATOM     68  O   UNK d   0      -9.313  -1.717  16.658  0.00  0.00    -0.650 OA
BRANCH  67  69
ATOM     69  O   UNK d   0      -8.568  -0.789  18.562  0.00  0.00    -0.776 OA
ATOM     70  H   UNK d   0      -9.096  -0.068  19.074  0.00  0.00     0.167 HD
ENDBRANCH  67  69
ENDBRANCH  66  67
ENDBRANCH  65  66
ENDBRANCH  14  65
ENDBRANCH   6   7
ENDBRANCH   5   6
ENDBRANCH   2   5
TORSDOF 28
ENDMDL
MODEL 14
REMARK VINA RESULT:      -8.7      1.599      9.593
REMARK  28 active torsions:
REMARK  status: ('A' for Active; 'I' for Inactive)
REMARK    1  A    between atoms: C_2  and  O_3 
REMARK    2  A    between atoms: C_2  and  C_4 
REMARK    3  A    between atoms: C_4  and  C_5 
REMARK    4  A    between atoms: C_5  and  C_6 
REMARK    5  A    between atoms: C_7  and  C_8 
REMARK    6  A    between atoms: C_8  and  C_9 
REMARK    7  A    between atoms: C_9  and  O_11 
REMARK    8  A    between atoms: C_28  and  C_29 
REMARK    9  A    between atoms: C_29  and  C_30 
REMARK   10  A    between atoms: C_30  and  O_32 
REMARK   11  A    between atoms: C_33  and  C_34 
REMARK   12  A    between atoms: C_34  and  C_35 
REMARK   13  A    between atoms: C_35  and  C_36 
REMARK   14  A    between atoms: C_36  and  O_38 
REMARK   15  A    between atoms: C_39  and  C_40 
REMARK   16  A    between atoms: C_40  and  C_41 
REMARK   17  A    between atoms: C_41  and  C_42 
REMARK   18  A    between atoms: C_42  and  O_44 
REMARK   19  A    between atoms: C_45  and  C_46 
REMARK   20  A    between atoms: C_46  and  C_47 
REMARK   21  A    between atoms: C_47  and  O_49 
REMARK   22  A    between atoms: C_50  and  C_51 
REMARK   23  A    between atoms: C_51  and  C_52 
REMARK   24  A    between atoms: C_52  and  O_54 
REMARK   25  A    between atoms: C_55  and  C_56 
REMARK   26  A    between atoms: C_56  and  C_57 
REMARK   27  A    between atoms: C_57  and  C_58 
REMARK   28  A    between atoms: C_58  and  O_60 
ROOT
ATOM      1  O   UNK d   0      -6.542 -13.188  22.069  0.00  0.00    -0.650 OA
ATOM      2  C   UNK d   0      -7.394 -12.892  21.201  0.00  0.00     0.139 C 
ENDROOT
BRANCH   2   3
ATOM      3  O   UNK d   0      -8.449 -12.081  21.542  0.00  0.00    -0.776 OA
ATOM      4  H   UNK d   0      -8.793 -11.365  20.899  0.00  0.00     0.167 HD
ENDBRANCH   2   3
BRANCH   2   5
ATOM      5  C   UNK d   0      -7.262 -13.419  19.813  0.00  0.00     0.115 C 
BRANCH   5   6
ATOM      6  C   UNK d   0      -6.156 -12.699  19.090  0.00  0.00     0.052 C 
BRANCH   6   7
ATOM      7  C   UNK d   0      -6.584 -11.347  18.573  0.00  0.00    -0.020 A 
ATOM      8  C   UNK d   0      -7.236 -11.084  17.469  0.00  0.00    -0.011 A 
ATOM      9  C   UNK d   0      -7.414  -9.643  17.390  0.00  0.00     0.067 A 
ATOM     10  C   UNK d   0      -8.026  -8.746  16.500  0.00  0.00     0.062 C 
ATOM     11  N   UNK d   0      -6.834  -9.107  18.484  0.00  0.00    -0.248 NA
ATOM     12  C   UNK d   0      -8.339  -7.403  16.734  0.00  0.00     0.041 A 
ATOM     13  N   UNK d   0      -7.638  -6.420  17.330  0.00  0.00    -0.355 N 
ATOM     14  C   UNK d   0      -9.609  -6.925  16.361  0.00  0.00    -0.022 A 
ATOM     15  C   UNK d   0      -8.432  -5.333  17.352  0.00  0.00     0.042 A 
ATOM     16  H   UNK d   0      -6.595  -6.487  17.710  0.00  0.00     0.166 HD
ATOM     17  C   UNK d   0      -8.196  -4.039  17.856  0.00  0.00     0.062 C 
ATOM     18  C   UNK d   0      -9.677  -5.611  16.754  0.00  0.00    -0.013 A 
ATOM     19  C   UNK d   0      -7.626  -3.668  19.047  0.00  0.00     0.067 A 
ATOM     20  N   UNK d   0      -7.029  -4.629  19.757  0.00  0.00    -0.248 NA
ATOM     21  C   UNK d   0      -7.497  -2.434  19.805  0.00  0.00    -0.011 A 
ATOM     22  C   UNK d   0      -6.521  -4.114  20.924  0.00  0.00     0.066 A 
ATOM     23  C   UNK d   0      -5.838  -5.000  21.744  0.00  0.00     0.062 C 
ATOM     24  C   UNK d   0      -6.853  -2.703  20.904  0.00  0.00    -0.020 A 
ATOM     25  C   UNK d   0      -5.523  -6.343  21.485  0.00  0.00     0.041 A 
ATOM     26  N   UNK d   0      -6.225  -7.324  20.906  0.00  0.00    -0.355 N 
ATOM     27  C   UNK d   0      -4.247  -6.820  21.855  0.00  0.00    -0.022 A 
ATOM     28  C   UNK d   0      -5.438  -8.411  20.891  0.00  0.00     0.042 A 
ATOM     29  H   UNK d   0      -7.277  -7.258  20.534  0.00  0.00     0.166 HD
ATOM     30  C   UNK d   0      -5.664  -9.707  20.401  0.00  0.00     0.062 C 
ATOM     31  C   UNK d   0      -4.185  -8.128  21.483  0.00  0.00    -0.013 A 
ATOM     32  C   UNK d   0      -6.317 -10.079  19.237  0.00  0.00     0.066 A 
BRANCH   8  33
ATOM     33  C   UNK d   0      -7.709 -12.057  16.468  0.00  0.00     0.151 C 
BRANCH  33  34
ATOM     34  C   UNK d   0      -6.736 -12.281  15.384  0.00  0.00     0.143 C 
ATOM     35  O   UNK d   0      -6.597 -13.402  14.874  0.00  0.00    -0.650 OA
BRANCH  34  36
ATOM     36  O   UNK d   0      -5.970 -11.229  14.936  0.00  0.00    -0.776 OA
ATOM     37  H   UNK d   0      -4.984 -11.130  15.214  0.00  0.00     0.167 HD
ENDBRANCH  34  36
ENDBRANCH  33  34
ENDBRANCH   8  33
BRANCH  31  38
ATOM     38  C   UNK d   0      -3.002  -9.051  21.664  0.00  0.00     0.151 C 
BRANCH  38  39
ATOM     39  C   UNK d   0      -2.965  -9.665  22.974  0.00  0.00     0.143 C 
ATOM     40  O   UNK d   0      -3.852 -10.442  23.371  0.00  0.00    -0.650 OA
BRANCH  39  41
ATOM     41  O   UNK d   0      -1.903  -9.385  23.833  0.00  0.00    -0.776 OA
ATOM     42  H   UNK d   0      -1.213 -10.130  23.972  0.00  0.00     0.167 HD
ENDBRANCH  39  41
ENDBRANCH  38  39
ENDBRANCH  31  38
BRANCH  27  43
ATOM     43  C   UNK d   0      -3.113  -6.096  22.537  0.00  0.00     0.052 C 
BRANCH  43  44
ATOM     44  C   UNK d   0      -2.217  -5.373  21.584  0.00  0.00     0.115 C 
BRANCH  44  45
ATOM     45  C   UNK d   0      -1.722  -4.167  22.299  0.00  0.00     0.139 C 
ATOM     46  O   UNK d   0      -0.486  -4.062  22.497  0.00  0.00    -0.650 OA
BRANCH  45  47
ATOM     47  O   UNK d   0      -2.559  -3.166  22.742  0.00  0.00    -0.776 OA
ATOM     48  H   UNK d   0      -3.586  -3.211  22.647  0.00  0.00     0.167 HD
ENDBRANCH  45  47
ENDBRANCH  44  45
ENDBRANCH  43  44
ENDBRANCH  27  43
BRANCH  24  49
ATOM     49  C   UNK d   0      -6.471  -1.733  21.945  0.00  0.00     0.052 C 
BRANCH  49  50
ATOM     50  C   UNK d   0      -7.060  -2.132  23.274  0.00  0.00     0.115 C 
BRANCH  50  51
ATOM     51  C   UNK d   0      -6.153  -2.704  24.259  0.00  0.00     0.139 C 
ATOM     52  O   UNK d   0      -4.969  -2.314  24.396  0.00  0.00    -0.650 OA
BRANCH  51  53
ATOM     53  O   UNK d   0      -6.594  -3.725  25.087  0.00  0.00    -0.776 OA
ATOM     54  H   UNK d   0      -6.555  -4.668  24.741  0.00  0.00     0.167 HD
ENDBRANCH  51  53
ENDBRANCH  50  51
ENDBRANCH  49  50
ENDBRANCH  24  49
BRANCH  21  55
ATOM     55  C   UNK d   0      -8.028  -1.115  19.349  0.00  0.00     0.151 C 
BRANCH  55  56
ATOM     56  C   UNK d   0      -9.300  -1.253  18.625  0.00  0.00     0.143 C 
ATOM     57  O   UNK d   0     -10.334  -1.706  19.156  0.00  0.00    -0.650 OA
BRANCH  56  58
ATOM     58  O   UNK d   0      -9.334  -0.856  17.289  0.00  0.00    -0.776 OA
ATOM     59  H   UNK d   0      -9.156   0.152  17.129  0.00  0.00     0.167 HD
ENDBRANCH  56  58
ENDBRANCH  55  56
ENDBRANCH  21  55
BRANCH  18  60
ATOM     60  C   UNK d   0     -10.871  -4.711  16.557  0.00  0.00     0.151 C 
BRANCH  60  61
ATOM     61  C   UNK d   0     -11.728  -4.914  17.734  0.00  0.00     0.143 C 
ATOM     62  O   UNK d   0     -12.752  -5.595  17.798  0.00  0.00    -0.650 OA
BRANCH  61  63
ATOM     63  O   UNK d   0     -11.309  -4.242  18.908  0.00  0.00    -0.776 OA
ATOM     64  H   UNK d   0     -10.384  -3.856  18.981  0.00  0.00     0.167 HD
ENDBRANCH  61  63
ENDBRANCH  60  61
ENDBRANCH  18  60
BRANCH  14  65
ATOM     65  C   UNK d   0     -10.713  -7.581  15.583  0.00  0.00     0.052 C 
BRANCH  65  66
ATOM     66  C   UNK d   0     -11.626  -8.389  16.435  0.00  0.00     0.115 C 
BRANCH  66  67
ATOM     67  C   UNK d   0     -11.249  -9.720  16.818  0.00  0.00     0.139 C 
ATOM     68  O   UNK d   0     -11.075  -9.974  18.067  0.00  0.00    -0.650 OA
BRANCH  67  69
ATOM     69  O   UNK d   0     -11.037 -10.820  15.987  0.00  0.00    -0.776 OA
ATOM     70  H   UNK d   0     -11.877 -11.206  15.532  0.00  0.00     0.167 HD
ENDBRANCH  67  69
ENDBRANCH  66  67
ENDBRANCH  65  66
ENDBRANCH  14  65
ENDBRANCH   6   7
ENDBRANCH   5   6
ENDBRANCH   2   5
TORSDOF 28
ENDMDL
MODEL 15
REMARK VINA RESULT:      -8.7      1.738      8.500
REMARK  28 active torsions:
REMARK  status: ('A' for Active; 'I' for Inactive)
REMARK    1  A    between atoms: C_2  and  O_3 
REMARK    2  A    between atoms: C_2  and  C_4 
REMARK    3  A    between atoms: C_4  and  C_5 
REMARK    4  A    between atoms: C_5  and  C_6 
REMARK    5  A    between atoms: C_7  and  C_8 
REMARK    6  A    between atoms: C_8  and  C_9 
REMARK    7  A    between atoms: C_9  and  O_11 
REMARK    8  A    between atoms: C_28  and  C_29 
REMARK    9  A    between atoms: C_29  and  C_30 
REMARK   10  A    between atoms: C_30  and  O_32 
REMARK   11  A    between atoms: C_33  and  C_34 
REMARK   12  A    between atoms: C_34  and  C_35 
REMARK   13  A    between atoms: C_35  and  C_36 
REMARK   14  A    between atoms: C_36  and  O_38 
REMARK   15  A    between atoms: C_39  and  C_40 
REMARK   16  A    between atoms: C_40  and  C_41 
REMARK   17  A    between atoms: C_41  and  C_42 
REMARK   18  A    between atoms: C_42  and  O_44 
REMARK   19  A    between atoms: C_45  and  C_46 
REMARK   20  A    between atoms: C_46  and  C_47 
REMARK   21  A    between atoms: C_47  and  O_49 
REMARK   22  A    between atoms: C_50  and  C_51 
REMARK   23  A    between atoms: C_51  and  C_52 
REMARK   24  A    between atoms: C_52  and  O_54 
REMARK   25  A    between atoms: C_55  and  C_56 
REMARK   26  A    between atoms: C_56  and  C_57 
REMARK   27  A    between atoms: C_57  and  C_58 
REMARK   28  A    between atoms: C_58  and  O_60 
ROOT
ATOM      1  O   UNK d   0      -3.294  -2.748  23.796  0.00  0.00    -0.650 OA
ATOM      2  C   UNK d   0      -3.535  -2.552  22.584  0.00  0.00     0.139 C 
ENDROOT
BRANCH   2   3
ATOM      3  O   UNK d   0      -2.870  -1.549  21.919  0.00  0.00    -0.776 OA
ATOM      4  H   UNK d   0      -1.891  -1.656  21.646  0.00  0.00     0.167 HD
ENDBRANCH   2   3
BRANCH   2   5
ATOM      5  C   UNK d   0      -4.533  -3.399  21.873  0.00  0.00     0.115 C 
BRANCH   5   6
ATOM      6  C   UNK d   0      -4.868  -4.610  22.702  0.00  0.00     0.052 C 
BRANCH   6   7
ATOM      7  C   UNK d   0      -4.926  -5.877  21.882  0.00  0.00    -0.020 A 
ATOM      8  C   UNK d   0      -4.118  -6.905  21.944  0.00  0.00    -0.011 A 
ATOM      9  C   UNK d   0      -4.563  -7.879  20.961  0.00  0.00     0.067 A 
ATOM     10  C   UNK d   0      -4.159  -9.159  20.550  0.00  0.00     0.062 C 
ATOM     11  N   UNK d   0      -5.644  -7.360  20.342  0.00  0.00    -0.248 NA
ATOM     12  C   UNK d   0      -4.885 -10.067  19.772  0.00  0.00     0.041 A 
ATOM     13  N   UNK d   0      -5.633  -9.888  18.667  0.00  0.00    -0.355 N 
ATOM     14  C   UNK d   0      -4.940 -11.415  20.173  0.00  0.00    -0.022 A 
ATOM     15  C   UNK d   0      -6.168 -11.085  18.361  0.00  0.00     0.042 A 
ATOM     16  H   UNK d   0      -5.765  -8.938  18.103  0.00  0.00     0.166 HD
ATOM     17  C   UNK d   0      -7.024 -11.460  17.306  0.00  0.00     0.062 C 
ATOM     18  C   UNK d   0      -5.757 -12.067  19.283  0.00  0.00    -0.013 A 
ATOM     19  C   UNK d   0      -8.140 -10.820  16.832  0.00  0.00     0.067 A 
ATOM     20  N   UNK d   0      -8.360  -9.579  17.275  0.00  0.00    -0.248 NA
ATOM     21  C   UNK d   0      -9.230 -11.150  15.928  0.00  0.00    -0.011 A 
ATOM     22  C   UNK d   0      -9.515  -9.076  16.728  0.00  0.00     0.066 A 
ATOM     23  C   UNK d   0      -9.844  -7.774  17.076  0.00  0.00     0.062 C 
ATOM     24  C   UNK d   0     -10.033 -10.127  15.875  0.00  0.00    -0.020 A 
ATOM     25  C   UNK d   0      -9.095  -6.874  17.849  0.00  0.00     0.041 A 
ATOM     26  N   UNK d   0      -8.363  -7.049  18.956  0.00  0.00    -0.355 N 
ATOM     27  C   UNK d   0      -9.036  -5.522  17.443  0.00  0.00    -0.022 A 
ATOM     28  C   UNK d   0      -7.836  -5.855  19.268  0.00  0.00     0.042 A 
ATOM     29  H   UNK d   0      -8.241  -8.002  19.527  0.00  0.00     0.166 HD
ATOM     30  C   UNK d   0      -6.991  -5.465  20.319  0.00  0.00     0.062 C 
ATOM     31  C   UNK d   0      -8.241  -4.871  18.335  0.00  0.00    -0.013 A 
ATOM     32  C   UNK d   0      -5.914  -6.157  20.851  0.00  0.00     0.066 A 
BRANCH   8  33
ATOM     33  C   UNK d   0      -2.956  -7.065  22.838  0.00  0.00     0.151 C 
BRANCH  33  34
ATOM     34  C   UNK d   0      -1.710  -6.537  22.254  0.00  0.00     0.143 C 
ATOM     35  O   UNK d   0      -1.740  -5.695  21.345  0.00  0.00    -0.650 OA
BRANCH  34  36
ATOM     36  O   UNK d   0      -0.499  -6.987  22.726  0.00  0.00    -0.776 OA
ATOM     37  H   UNK d   0       0.297  -6.347  22.850  0.00  0.00     0.167 HD
ENDBRANCH  34  36
ENDBRANCH  33  34
ENDBRANCH   8  33
BRANCH  31  38
ATOM     38  C   UNK d   0      -7.876  -3.405  18.299  0.00  0.00     0.151 C 
BRANCH  38  39
ATOM     39  C   UNK d   0      -8.484  -2.648  19.373  0.00  0.00     0.143 C 
ATOM     40  O   UNK d   0      -9.642  -2.867  19.769  0.00  0.00    -0.650 OA
BRANCH  39  41
ATOM     41  O   UNK d   0      -7.755  -1.635  19.996  0.00  0.00    -0.776 OA
ATOM     42  H   UNK d   0      -8.277  -0.801  20.282  0.00  0.00     0.167 HD
ENDBRANCH  39  41
ENDBRANCH  38  39
ENDBRANCH  31  38
BRANCH  27  43
ATOM     43  C   UNK d   0      -9.695  -4.845  16.268  0.00  0.00     0.052 C 
BRANCH  43  44
ATOM     44  C   UNK d   0     -10.830  -3.955  16.659  0.00  0.00     0.115 C 
BRANCH  44  45
ATOM     45  C   UNK d   0     -12.079  -4.676  16.295  0.00  0.00     0.139 C 
ATOM     46  O   UNK d   0     -12.446  -5.629  17.026  0.00  0.00    -0.650 OA
BRANCH  45  47
ATOM     47  O   UNK d   0     -12.845  -4.338  15.201  0.00  0.00    -0.776 OA
ATOM     48  H   UNK d   0     -13.592  -4.947  14.831  0.00  0.00     0.167 HD
ENDBRANCH  45  47
ENDBRANCH  44  45
ENDBRANCH  43  44
ENDBRANCH  27  43
BRANCH  24  49
ATOM     49  C   UNK d   0     -11.247 -10.018  15.049  0.00  0.00     0.052 C 
BRANCH  49  50
ATOM     50  C   UNK d   0     -12.387 -10.767  15.691  0.00  0.00     0.115 C 
BRANCH  50  51
ATOM     51  C   UNK d   0     -13.045 -11.791  14.891  0.00  0.00     0.139 C 
ATOM     52  O   UNK d   0     -12.729 -12.025  13.700  0.00  0.00    -0.650 OA
BRANCH  51  53
ATOM     53  O   UNK d   0     -14.065 -12.547  15.447  0.00  0.00    -0.776 OA
ATOM     54  H   UNK d   0     -15.001 -12.402  15.112  0.00  0.00     0.167 HD
ENDBRANCH  51  53
ENDBRANCH  50  51
ENDBRANCH  49  50
ENDBRANCH  24  49
BRANCH  21  55
ATOM     55  C   UNK d   0      -9.352 -12.453  15.209  0.00  0.00     0.151 C 
BRANCH  55  56
ATOM     56  C   UNK d   0      -8.575 -12.468  13.960  0.00  0.00     0.143 C 
ATOM     57  O   UNK d   0      -9.005 -11.991  12.892  0.00  0.00    -0.650 OA
BRANCH  56  58
ATOM     58  O   UNK d   0      -7.306 -13.044  13.992  0.00  0.00    -0.776 OA
ATOM     59  H   UNK d   0      -6.643 -12.680  13.284  0.00  0.00     0.167 HD
ENDBRANCH  56  58
ENDBRANCH  55  56
ENDBRANCH  21  55
BRANCH  18  60
ATOM     60  C   UNK d   0      -6.102 -13.534  19.342  0.00  0.00     0.151 C 
BRANCH  60  61
ATOM     61  C   UNK d   0      -7.311 -13.631  20.173  0.00  0.00     0.143 C 
ATOM     62  O   UNK d   0      -7.993 -12.701  20.603  0.00  0.00    -0.650 OA
BRANCH  61  63
ATOM     63  O   UNK d   0      -7.714 -14.949  20.499  0.00  0.00    -0.776 OA
ATOM     64  H   UNK d   0      -7.766 -15.253  21.455  0.00  0.00     0.167 HD
ENDBRANCH  61  63
ENDBRANCH  60  61
ENDBRANCH  18  60
BRANCH  14  65
ATOM     65  C   UNK d   0      -4.209 -12.144  21.264  0.00  0.00     0.052 C 
BRANCH  65  66
ATOM     66  C   UNK d   0      -5.000 -12.257  22.519  0.00  0.00     0.115 C 
BRANCH  66  67
ATOM     67  C   UNK d   0      -4.355 -12.057  23.786  0.00  0.00     0.139 C 
ATOM     68  O   UNK d   0      -3.252 -11.397  23.816  0.00  0.00    -0.650 OA
BRANCH  67  69
ATOM     69  O   UNK d   0      -4.780 -12.499  25.038  0.00  0.00    -0.776 OA
ATOM     70  H   UNK d   0      -4.045 -12.880  25.652  0.00  0.00     0.167 HD
ENDBRANCH  67  69
ENDBRANCH  66  67
ENDBRANCH  65  66
ENDBRANCH  14  65
ENDBRANCH   6   7
ENDBRANCH   5   6
ENDBRANCH   2   5
TORSDOF 28
ENDMDL
MODEL 16
REMARK VINA RESULT:      -8.5      1.653      7.987
REMARK  28 active torsions:
REMARK  status: ('A' for Active; 'I' for Inactive)
REMARK    1  A    between atoms: C_2  and  O_3 
REMARK    2  A    between atoms: C_2  and  C_4 
REMARK    3  A    between atoms: C_4  and  C_5 
REMARK    4  A    between atoms: C_5  and  C_6 
REMARK    5  A    between atoms: C_7  and  C_8 
REMARK    6  A    between atoms: C_8  and  C_9 
REMARK    7  A    between atoms: C_9  and  O_11 
REMARK    8  A    between atoms: C_28  and  C_29 
REMARK    9  A    between atoms: C_29  and  C_30 
REMARK   10  A    between atoms: C_30  and  O_32 
REMARK   11  A    between atoms: C_33  and  C_34 
REMARK   12  A    between atoms: C_34  and  C_35 
REMARK   13  A    between atoms: C_35  and  C_36 
REMARK   14  A    between atoms: C_36  and  O_38 
REMARK   15  A    between atoms: C_39  and  C_40 
REMARK   16  A    between atoms: C_40  and  C_41 
REMARK   17  A    between atoms: C_41  and  C_42 
REMARK   18  A    between atoms: C_42  and  O_44 
REMARK   19  A    between atoms: C_45  and  C_46 
REMARK   20  A    between atoms: C_46  and  C_47 
REMARK   21  A    between atoms: C_47  and  O_49 
REMARK   22  A    between atoms: C_50  and  C_51 
REMARK   23  A    between atoms: C_51  and  C_52 
REMARK   24  A    between atoms: C_52  and  O_54 
REMARK   25  A    between atoms: C_55  and  C_56 
REMARK   26  A    between atoms: C_56  and  C_57 
REMARK   27  A    between atoms: C_57  and  C_58 
REMARK   28  A    between atoms: C_58  and  O_60 
ROOT
ATOM      1  O   UNK d   0      -6.715 -12.573  14.789  0.00  0.00    -0.650 OA
ATOM      2  C   UNK d   0      -7.849 -13.103  14.790  0.00  0.00     0.139 C 
ENDROOT
BRANCH   2   3
ATOM      3  O   UNK d   0      -7.969 -14.436  15.101  0.00  0.00    -0.776 OA
ATOM      4  H   UNK d   0      -7.455 -15.148  14.577  0.00  0.00     0.167 HD
ENDBRANCH   2   3
BRANCH   2   5
ATOM      5  C   UNK d   0      -9.054 -12.292  14.456  0.00  0.00     0.115 C 
BRANCH   5   6
ATOM      6  C   UNK d   0      -9.768 -11.883  15.716  0.00  0.00     0.052 C 
BRANCH   6   7
ATOM      7  C   UNK d   0      -9.571 -10.423  16.048  0.00  0.00    -0.020 A 
ATOM      8  C   UNK d   0     -10.144  -9.392  15.482  0.00  0.00    -0.011 A 
ATOM      9  C   UNK d   0      -9.638  -8.192  16.128  0.00  0.00     0.067 A 
ATOM     10  C   UNK d   0      -9.856  -6.810  16.012  0.00  0.00     0.062 C 
ATOM     11  N   UNK d   0      -8.757  -8.587  17.072  0.00  0.00    -0.248 NA
ATOM     12  C   UNK d   0      -9.479  -5.814  16.919  0.00  0.00     0.041 A 
ATOM     13  N   UNK d   0      -8.339  -5.631  17.612  0.00  0.00    -0.355 N 
ATOM     14  C   UNK d   0     -10.412  -4.820  17.264  0.00  0.00    -0.022 A 
ATOM     15  C   UNK d   0      -8.527  -4.552  18.394  0.00  0.00     0.042 A 
ATOM     16  H   UNK d   0      -7.412  -6.242  17.535  0.00  0.00     0.166 HD
ATOM     17  C   UNK d   0      -7.660  -3.926  19.312  0.00  0.00     0.062 C 
ATOM     18  C   UNK d   0      -9.816  -4.016  18.204  0.00  0.00    -0.013 A 
ATOM     19  C   UNK d   0      -6.854  -4.497  20.264  0.00  0.00     0.067 A 
ATOM     20  N   UNK d   0      -6.699  -5.823  20.209  0.00  0.00    -0.248 NA
ATOM     21  C   UNK d   0      -6.082  -4.023  21.400  0.00  0.00    -0.011 A 
ATOM     22  C   UNK d   0      -5.883  -6.249  21.227  0.00  0.00     0.066 A 
ATOM     23  C   UNK d   0      -5.606  -7.608  21.267  0.00  0.00     0.062 C 
ATOM     24  C   UNK d   0      -5.520  -5.054  21.962  0.00  0.00    -0.020 A 
ATOM     25  C   UNK d   0      -5.984  -8.591  20.339  0.00  0.00     0.041 A 
ATOM     26  N   UNK d   0      -7.122  -8.781  19.661  0.00  0.00    -0.355 N 
ATOM     27  C   UNK d   0      -5.045  -9.585  19.989  0.00  0.00    -0.022 A 
ATOM     28  C   UNK d   0      -6.939  -9.862  18.887  0.00  0.00     0.042 A 
ATOM     29  H   UNK d   0      -8.056  -8.172  19.747  0.00  0.00     0.166 HD
ATOM     30  C   UNK d   0      -7.796 -10.500  17.976  0.00  0.00     0.062 C 
ATOM     31  C   UNK d   0      -5.641 -10.394  19.071  0.00  0.00    -0.013 A 
ATOM     32  C   UNK d   0      -8.672  -9.918  17.075  0.00  0.00     0.066 A 
BRANCH   8  33
ATOM     33  C   UNK d   0     -11.125  -9.417  14.381  0.00  0.00     0.151 C 
BRANCH  33  34
ATOM     34  C   UNK d   0     -12.518  -9.463  14.860  0.00  0.00     0.143 C 
ATOM     35  O   UNK d   0     -13.063  -8.454  15.330  0.00  0.00    -0.650 OA
BRANCH  34  36
ATOM     36  O   UNK d   0     -13.220 -10.644  14.784  0.00  0.00    -0.776 OA
ATOM     37  H   UNK d   0     -14.064 -10.728  14.202  0.00  0.00     0.167 HD
ENDBRANCH  34  36
ENDBRANCH  33  34
ENDBRANCH   8  33
BRANCH  31  38
ATOM     38  C   UNK d   0      -5.014 -11.591  18.396  0.00  0.00     0.151 C 
BRANCH  38  39
ATOM     39  C   UNK d   0      -5.098 -12.795  19.197  0.00  0.00     0.143 C 
ATOM     40  O   UNK d   0      -4.119 -13.537  19.388  0.00  0.00    -0.650 OA
BRANCH  39  41
ATOM     41  O   UNK d   0      -6.315 -13.146  19.781  0.00  0.00    -0.776 OA
ATOM     42  H   UNK d   0      -6.443 -14.133  20.023  0.00  0.00     0.167 HD
ENDBRANCH  39  41
ENDBRANCH  38  39
ENDBRANCH  31  38
BRANCH  27  43
ATOM     43  C   UNK d   0      -3.636  -9.791  20.487  0.00  0.00     0.052 C 
BRANCH  43  44
ATOM     44  C   UNK d   0      -3.545 -10.762  21.619  0.00  0.00     0.115 C 
BRANCH  44  45
ATOM     45  C   UNK d   0      -3.138  -9.982  22.816  0.00  0.00     0.139 C 
ATOM     46  O   UNK d   0      -3.081 -10.579  23.920  0.00  0.00    -0.650 OA
BRANCH  45  47
ATOM     47  O   UNK d   0      -2.817  -8.643  22.762  0.00  0.00    -0.776 OA
ATOM     48  H   UNK d   0      -3.029  -8.049  21.944  0.00  0.00     0.167 HD
ENDBRANCH  45  47
ENDBRANCH  44  45
ENDBRANCH  43  44
ENDBRANCH  27  43
BRANCH  24  49
ATOM     49  C   UNK d   0      -4.617  -5.023  23.125  0.00  0.00     0.052 C 
BRANCH  49  50
ATOM     50  C   UNK d   0      -3.216  -4.672  22.693  0.00  0.00     0.115 C 
BRANCH  50  51
ATOM     51  C   UNK d   0      -2.188  -4.651  23.724  0.00  0.00     0.139 C 
ATOM     52  O   UNK d   0      -1.901  -5.657  24.415  0.00  0.00    -0.650 OA
BRANCH  51  53
ATOM     53  O   UNK d   0      -1.487  -3.480  23.970  0.00  0.00    -0.776 OA
ATOM     54  H   UNK d   0      -0.482  -3.515  23.957  0.00  0.00     0.167 HD
ENDBRANCH  51  53
ENDBRANCH  50  51
ENDBRANCH  49  50
ENDBRANCH  24  49
BRANCH  21  55
ATOM     55  C   UNK d   0      -5.984  -2.589  21.803  0.00  0.00     0.151 C 
BRANCH  55  56
ATOM     56  C   UNK d   0      -6.925  -2.253  22.882  0.00  0.00     0.143 C 
ATOM     57  O   UNK d   0      -6.764  -1.275  23.638  0.00  0.00    -0.650 OA
BRANCH  56  58
ATOM     58  O   UNK d   0      -8.038  -3.075  23.051  0.00  0.00    -0.776 OA
ATOM     59  H   UNK d   0      -7.879  -3.909  23.645  0.00  0.00     0.167 HD
ENDBRANCH  56  58
ENDBRANCH  55  56
ENDBRANCH  21  55
BRANCH  18  60
ATOM     60  C   UNK d   0     -10.466  -2.823  18.859  0.00  0.00     0.151 C 
BRANCH  60  61
ATOM     61  C   UNK d   0     -11.213  -3.352  20.011  0.00  0.00     0.143 C 
ATOM     62  O   UNK d   0     -12.435  -3.438  20.127  0.00  0.00    -0.650 OA
BRANCH  61  63
ATOM     63  O   UNK d   0     -10.415  -3.804  21.089  0.00  0.00    -0.776 OA
ATOM     64  H   UNK d   0      -9.463  -4.092  20.945  0.00  0.00     0.167 HD
ENDBRANCH  61  63
ENDBRANCH  60  61
ENDBRANCH  18  60
BRANCH  14  65
ATOM     65  C   UNK d   0     -11.774  -4.517  16.707  0.00  0.00     0.052 C 
BRANCH  65  66
ATOM     66  C   UNK d   0     -12.848  -5.352  17.310  0.00  0.00     0.115 C 
BRANCH  66  67
ATOM     67  C   UNK d   0     -14.218  -5.118  16.950  0.00  0.00     0.139 C 
ATOM     68  O   UNK d   0     -14.478  -4.192  16.097  0.00  0.00    -0.650 OA
BRANCH  67  69
ATOM     69  O   UNK d   0     -15.349  -5.785  17.418  0.00  0.00    -0.776 OA
ATOM     70  H   UNK d   0     -16.006  -6.114  16.696  0.00  0.00     0.167 HD
ENDBRANCH  67  69
ENDBRANCH  66  67
ENDBRANCH  65  66
ENDBRANCH  14  65
ENDBRANCH   6   7
ENDBRANCH   5   6
ENDBRANCH   2   5
TORSDOF 28
ENDMDL
MODEL 17
REMARK VINA RESULT:      -8.5      2.564      4.937
REMARK  28 active torsions:
REMARK  status: ('A' for Active; 'I' for Inactive)
REMARK    1  A    between atoms: C_2  and  O_3 
REMARK    2  A    between atoms: C_2  and  C_4 
REMARK    3  A    between atoms: C_4  and  C_5 
REMARK    4  A    between atoms: C_5  and  C_6 
REMARK    5  A    between atoms: C_7  and  C_8 
REMARK    6  A    between atoms: C_8  and  C_9 
REMARK    7  A    between atoms: C_9  and  O_11 
REMARK    8  A    between atoms: C_28  and  C_29 
REMARK    9  A    between atoms: C_29  and  C_30 
REMARK   10  A    between atoms: C_30  and  O_32 
REMARK   11  A    between atoms: C_33  and  C_34 
REMARK   12  A    between atoms: C_34  and  C_35 
REMARK   13  A    between atoms: C_35  and  C_36 
REMARK   14  A    between atoms: C_36  and  O_38 
REMARK   15  A    between atoms: C_39  and  C_40 
REMARK   16  A    between atoms: C_40  and  C_41 
REMARK   17  A    between atoms: C_41  and  C_42 
REMARK   18  A    between atoms: C_42  and  O_44 
REMARK   19  A    between atoms: C_45  and  C_46 
REMARK   20  A    between atoms: C_46  and  C_47 
REMARK   21  A    between atoms: C_47  and  O_49 
REMARK   22  A    between atoms: C_50  and  C_51 
REMARK   23  A    between atoms: C_51  and  C_52 
REMARK   24  A    between atoms: C_52  and  O_54 
REMARK   25  A    between atoms: C_55  and  C_56 
REMARK   26  A    between atoms: C_56  and  C_57 
REMARK   27  A    between atoms: C_57  and  C_58 
REMARK   28  A    between atoms: C_58  and  O_60 
ROOT
ATOM      1  O   UNK d   0     -10.177 -10.909  16.916  0.00  0.00    -0.650 OA
ATOM      2  C   UNK d   0      -9.684 -10.118  16.082  0.00  0.00     0.139 C 
ENDROOT
BRANCH   2   3
ATOM      3  O   UNK d   0      -8.947 -10.617  15.035  0.00  0.00    -0.776 OA
ATOM      4  H   UNK d   0      -8.866 -11.624  14.879  0.00  0.00     0.167 HD
ENDBRANCH   2   3
BRANCH   2   5
ATOM      5  C   UNK d   0      -9.895  -8.649  16.226  0.00  0.00     0.115 C 
BRANCH   5   6
ATOM      6  C   UNK d   0     -10.208  -8.310  17.658  0.00  0.00     0.052 C 
BRANCH   6   7
ATOM      7  C   UNK d   0      -9.032  -7.700  18.382  0.00  0.00    -0.020 A 
ATOM      8  C   UNK d   0      -8.796  -6.430  18.593  0.00  0.00    -0.011 A 
ATOM      9  C   UNK d   0      -7.542  -6.326  19.321  0.00  0.00     0.067 A 
ATOM     10  C   UNK d   0      -6.765  -5.286  19.854  0.00  0.00     0.062 C 
ATOM     11  N   UNK d   0      -7.081  -7.580  19.506  0.00  0.00    -0.248 NA
ATOM     12  C   UNK d   0      -5.717  -5.398  20.774  0.00  0.00     0.041 A 
ATOM     13  N   UNK d   0      -4.698  -6.275  20.855  0.00  0.00    -0.355 N 
ATOM     14  C   UNK d   0      -5.673  -4.513  21.867  0.00  0.00    -0.022 A 
ATOM     15  C   UNK d   0      -4.014  -5.975  21.975  0.00  0.00     0.042 A 
ATOM     16  H   UNK d   0      -4.457  -7.079  20.125  0.00  0.00     0.166 HD
ATOM     17  C   UNK d   0      -2.866  -6.572  22.532  0.00  0.00     0.062 C 
ATOM     18  C   UNK d   0      -4.595  -4.875  22.637  0.00  0.00    -0.013 A 
ATOM     19  C   UNK d   0      -2.578  -7.904  22.692  0.00  0.00     0.067 A 
ATOM     20  N   UNK d   0      -3.380  -8.774  22.074  0.00  0.00    -0.248 NA
ATOM     21  C   UNK d   0      -1.580  -8.678  23.411  0.00  0.00    -0.011 A 
ATOM     22  C   UNK d   0      -2.980 -10.061  22.337  0.00  0.00     0.066 A 
ATOM     23  C   UNK d   0      -3.706 -11.071  21.723  0.00  0.00     0.062 C 
ATOM     24  C   UNK d   0      -1.823  -9.940  23.202  0.00  0.00    -0.020 A 
ATOM     25  C   UNK d   0      -4.748 -10.937  20.792  0.00  0.00     0.041 A 
ATOM     26  N   UNK d   0      -5.769 -10.074  20.719  0.00  0.00    -0.355 N 
ATOM     27  C   UNK d   0      -4.789 -11.823  19.693  0.00  0.00    -0.022 A 
ATOM     28  C   UNK d   0      -6.458 -10.378  19.608  0.00  0.00     0.042 A 
ATOM     29  H   UNK d   0      -6.016  -9.274  21.460  0.00  0.00     0.166 HD
ATOM     30  C   UNK d   0      -7.606  -9.798  19.047  0.00  0.00     0.062 C 
ATOM     31  C   UNK d   0      -5.867 -11.476  18.939  0.00  0.00    -0.013 A 
ATOM     32  C   UNK d   0      -7.932  -8.453  18.965  0.00  0.00     0.066 A 
BRANCH   8  33
ATOM     33  C   UNK d   0      -9.634  -5.292  18.171  0.00  0.00     0.151 C 
BRANCH  33  34
ATOM     34  C   UNK d   0      -9.193  -4.701  16.895  0.00  0.00     0.143 C 
ATOM     35  O   UNK d   0      -8.224  -3.930  16.851  0.00  0.00    -0.650 OA
BRANCH  34  36
ATOM     36  O   UNK d   0      -9.871  -5.010  15.738  0.00  0.00    -0.776 OA
ATOM     37  H   UNK d   0      -9.975  -4.323  14.980  0.00  0.00     0.167 HD
ENDBRANCH  34  36
ENDBRANCH  33  34
ENDBRANCH   8  33
BRANCH  31  38
ATOM     38  C   UNK d   0      -6.305 -12.136  17.652  0.00  0.00     0.151 C 
BRANCH  38  39
ATOM     39  C   UNK d   0      -5.778 -11.478  16.475  0.00  0.00     0.143 C 
ATOM     40  O   UNK d   0      -4.917 -10.583  16.543  0.00  0.00    -0.650 OA
BRANCH  39  41
ATOM     41  O   UNK d   0      -6.242 -11.852  15.215  0.00  0.00    -0.776 OA
ATOM     42  H   UNK d   0      -6.973 -11.267  14.799  0.00  0.00     0.167 HD
ENDBRANCH  39  41
ENDBRANCH  38  39
ENDBRANCH  31  38
BRANCH  27  43
ATOM     43  C   UNK d   0      -3.863 -12.962  19.345  0.00  0.00     0.052 C 
BRANCH  43  44
ATOM     44  C   UNK d   0      -2.626 -12.520  18.632  0.00  0.00     0.115 C 
BRANCH  44  45
ATOM     45  C   UNK d   0      -1.621 -13.600  18.817  0.00  0.00     0.139 C 
ATOM     46  O   UNK d   0      -1.562 -14.168  19.936  0.00  0.00    -0.650 OA
BRANCH  45  47
ATOM     47  O   UNK d   0      -0.763 -14.002  17.816  0.00  0.00    -0.776 OA
ATOM     48  H   UNK d   0      -0.204 -13.338  17.258  0.00  0.00     0.167 HD
ENDBRANCH  45  47
ENDBRANCH  44  45
ENDBRANCH  43  44
ENDBRANCH  27  43
BRANCH  24  49
ATOM     49  C   UNK d   0      -1.031 -11.072  23.712  0.00  0.00     0.052 C 
BRANCH  49  50
ATOM     50  C   UNK d   0      -0.821 -10.939  25.198  0.00  0.00     0.115 C 
BRANCH  50  51
ATOM     51  C   UNK d   0      -1.991 -11.100  26.052  0.00  0.00     0.139 C 
ATOM     52  O   UNK d   0      -3.000 -11.756  25.699  0.00  0.00    -0.650 OA
BRANCH  51  53
ATOM     53  O   UNK d   0      -2.011 -10.512  27.307  0.00  0.00    -0.776 OA
ATOM     54  H   UNK d   0      -2.836 -10.622  27.870  0.00  0.00     0.167 HD
ENDBRANCH  51  53
ENDBRANCH  50  51
ENDBRANCH  49  50
ENDBRANCH  24  49
BRANCH  21  55
ATOM     55  C   UNK d   0      -0.485  -8.076  24.227  0.00  0.00     0.151 C 
BRANCH  55  56
ATOM     56  C   UNK d   0       0.725  -7.825  23.428  0.00  0.00     0.143 C 
ATOM     57  O   UNK d   0       0.850  -6.831  22.687  0.00  0.00    -0.650 OA
BRANCH  56  58
ATOM     58  O   UNK d   0       1.764  -8.750  23.517  0.00  0.00    -0.776 OA
ATOM     59  H   UNK d   0       1.512  -9.718  23.247  0.00  0.00     0.167 HD
ENDBRANCH  56  58
ENDBRANCH  55  56
ENDBRANCH  21  55
BRANCH  18  60
ATOM     60  C   UNK d   0      -4.179  -4.195  23.917  0.00  0.00     0.151 C 
BRANCH  60  61
ATOM     61  C   UNK d   0      -2.956  -3.443  23.596  0.00  0.00     0.143 C 
ATOM     62  O   UNK d   0      -1.848  -3.572  24.117  0.00  0.00    -0.650 OA
BRANCH  61  63
ATOM     63  O   UNK d   0      -3.095  -2.474  22.573  0.00  0.00    -0.776 OA
ATOM     64  H   UNK d   0      -2.356  -2.307  21.914  0.00  0.00     0.167 HD
ENDBRANCH  61  63
ENDBRANCH  60  61
ENDBRANCH  18  60
BRANCH  14  65
ATOM     65  C   UNK d   0      -6.504  -3.302  22.183  0.00  0.00     0.052 C 
BRANCH  65  66
ATOM     66  C   UNK d   0      -6.212  -2.147  21.292  0.00  0.00     0.115 C 
BRANCH  66  67
ATOM     67  C   UNK d   0      -6.094  -0.830  21.850  0.00  0.00     0.139 C 
ATOM     68  O   UNK d   0      -5.503  -0.695  22.985  0.00  0.00    -0.650 OA
BRANCH  67  69
ATOM     69  O   UNK d   0      -6.551   0.371  21.309  0.00  0.00    -0.776 OA
ATOM     70  H   UNK d   0      -7.422   0.742  21.714  0.00  0.00     0.167 HD
ENDBRANCH  67  69
ENDBRANCH  66  67
ENDBRANCH  65  66
ENDBRANCH  14  65
ENDBRANCH   6   7
ENDBRANCH   5   6
ENDBRANCH   2   5
TORSDOF 28
ENDMDL
MODEL 18
REMARK VINA RESULT:      -8.4     27.906     32.021
REMARK  28 active torsions:
REMARK  status: ('A' for Active; 'I' for Inactive)
REMARK    1  A    between atoms: C_2  and  O_3 
REMARK    2  A    between atoms: C_2  and  C_4 
REMARK    3  A    between atoms: C_4  and  C_5 
REMARK    4  A    between atoms: C_5  and  C_6 
REMARK    5  A    between atoms: C_7  and  C_8 
REMARK    6  A    between atoms: C_8  and  C_9 
REMARK    7  A    between atoms: C_9  and  O_11 
REMARK    8  A    between atoms: C_28  and  C_29 
REMARK    9  A    between atoms: C_29  and  C_30 
REMARK   10  A    between atoms: C_30  and  O_32 
REMARK   11  A    between atoms: C_33  and  C_34 
REMARK   12  A    between atoms: C_34  and  C_35 
REMARK   13  A    between atoms: C_35  and  C_36 
REMARK   14  A    between atoms: C_36  and  O_38 
REMARK   15  A    between atoms: C_39  and  C_40 
REMARK   16  A    between atoms: C_40  and  C_41 
REMARK   17  A    between atoms: C_41  and  C_42 
REMARK   18  A    between atoms: C_42  and  O_44 
REMARK   19  A    between atoms: C_45  and  C_46 
REMARK   20  A    between atoms: C_46  and  C_47 
REMARK   21  A    between atoms: C_47  and  O_49 
REMARK   22  A    between atoms: C_50  and  C_51 
REMARK   23  A    between atoms: C_51  and  C_52 
REMARK   24  A    between atoms: C_52  and  O_54 
REMARK   25  A    between atoms: C_55  and  C_56 
REMARK   26  A    between atoms: C_56  and  C_57 
REMARK   27  A    between atoms: C_57  and  C_58 
REMARK   28  A    between atoms: C_58  and  O_60 
ROOT
ATOM      1  O   UNK d   0      16.554   7.674   1.283  0.00  0.00    -0.650 OA
ATOM      2  C   UNK d   0      16.015   6.586   1.584  0.00  0.00     0.139 C 
ENDROOT
BRANCH   2   3
ATOM      3  O   UNK d   0      15.252   5.930   0.649  0.00  0.00    -0.776 OA
ATOM      4  H   UNK d   0      14.235   6.027   0.636  0.00  0.00     0.167 HD
ENDBRANCH   2   3
BRANCH   2   5
ATOM      5  C   UNK d   0      16.202   6.011   2.947  0.00  0.00     0.115 C 
BRANCH   5   6
ATOM      6  C   UNK d   0      14.871   5.623   3.531  0.00  0.00     0.052 C 
BRANCH   6   7
ATOM      7  C   UNK d   0      14.471   6.496   4.696  0.00  0.00    -0.020 A 
ATOM      8  C   UNK d   0      14.275   6.131   5.937  0.00  0.00    -0.011 A 
ATOM      9  C   UNK d   0      13.897   7.313   6.694  0.00  0.00     0.067 A 
ATOM     10  C   UNK d   0      13.581   7.600   8.031  0.00  0.00     0.062 C 
ATOM     11  N   UNK d   0      13.882   8.352   5.834  0.00  0.00    -0.248 NA
ATOM     12  C   UNK d   0      13.511   8.862   8.633  0.00  0.00     0.041 A 
ATOM     13  N   UNK d   0      12.982  10.022   8.200  0.00  0.00    -0.355 N 
ATOM     14  C   UNK d   0      14.122   9.053   9.885  0.00  0.00    -0.022 A 
ATOM     15  C   UNK d   0      13.248  10.946   9.143  0.00  0.00     0.042 A 
ATOM     16  H   UNK d   0      12.414  10.180   7.257  0.00  0.00     0.166 HD
ATOM     17  C   UNK d   0      12.922  12.316   9.196  0.00  0.00     0.062 C 
ATOM     18  C   UNK d   0      13.962  10.376  10.214  0.00  0.00    -0.013 A 
ATOM     19  C   UNK d   0      13.022  13.265   8.211  0.00  0.00     0.067 A 
ATOM     20  N   UNK d   0      13.271  12.829   6.974  0.00  0.00    -0.248 NA
ATOM     21  C   UNK d   0      12.939  14.715   8.145  0.00  0.00    -0.011 A 
ATOM     22  C   UNK d   0      13.358  13.888   6.103  0.00  0.00     0.066 A 
ATOM     23  C   UNK d   0      13.577  13.573   4.770  0.00  0.00     0.062 C 
ATOM     24  C   UNK d   0      13.140  15.073   6.909  0.00  0.00    -0.020 A 
ATOM     25  C   UNK d   0      13.631  12.299   4.184  0.00  0.00     0.041 A 
ATOM     26  N   UNK d   0      14.171  11.150   4.607  0.00  0.00    -0.355 N 
ATOM     27  C   UNK d   0      13.014  12.107   2.929  0.00  0.00    -0.022 A 
ATOM     28  C   UNK d   0      13.914  10.228   3.665  0.00  0.00     0.042 A 
ATOM     29  H   UNK d   0      14.750  10.995   5.551  0.00  0.00     0.166 HD
ATOM     30  C   UNK d   0      14.240   8.865   3.595  0.00  0.00     0.062 C 
ATOM     31  C   UNK d   0      13.188  10.799   2.594  0.00  0.00    -0.013 A 
ATOM     32  C   UNK d   0      14.219   7.927   4.615  0.00  0.00     0.066 A 
BRANCH   8  33
ATOM     33  C   UNK d   0      14.403   4.770   6.490  0.00  0.00     0.151 C 
BRANCH  33  34
ATOM     34  C   UNK d   0      15.713   4.531   7.122  0.00  0.00     0.143 C 
ATOM     35  O   UNK d   0      15.792   4.119   8.288  0.00  0.00    -0.650 OA
BRANCH  34  36
ATOM     36  O   UNK d   0      16.862   4.772   6.405  0.00  0.00    -0.776 OA
ATOM     37  H   UNK d   0      17.546   5.476   6.713  0.00  0.00     0.167 HD
ENDBRANCH  34  36
ENDBRANCH  33  34
ENDBRANCH   8  33
BRANCH  31  38
ATOM     38  C   UNK d   0      12.684  10.127   1.338  0.00  0.00     0.151 C 
BRANCH  38  39
ATOM     39  C   UNK d   0      13.741   9.839   0.392  0.00  0.00     0.143 C 
ATOM     40  O   UNK d   0      14.579  10.691   0.052  0.00  0.00    -0.650 OA
BRANCH  39  41
ATOM     41  O   UNK d   0      13.835   8.563  -0.165  0.00  0.00    -0.776 OA
ATOM     42  H   UNK d   0      14.052   8.511  -1.165  0.00  0.00     0.167 HD
ENDBRANCH  39  41
ENDBRANCH  38  39
ENDBRANCH  31  38
BRANCH  27  43
ATOM     43  C   UNK d   0      12.284  13.099   2.058  0.00  0.00     0.052 C 
BRANCH  43  44
ATOM     44  C   UNK d   0      13.199  14.022   1.321  0.00  0.00     0.115 C 
BRANCH  44  45
ATOM     45  C   UNK d   0      12.423  15.261   1.050  0.00  0.00     0.139 C 
ATOM     46  O   UNK d   0      11.193  15.255   1.301  0.00  0.00    -0.650 OA
BRANCH  45  47
ATOM     47  O   UNK d   0      12.997  16.406   0.543  0.00  0.00    -0.776 OA
ATOM     48  H   UNK d   0      12.913  16.684  -0.448  0.00  0.00     0.167 HD
ENDBRANCH  45  47
ENDBRANCH  44  45
ENDBRANCH  43  44
ENDBRANCH  27  43
BRANCH  24  49
ATOM     49  C   UNK d   0      13.106  16.450   6.388  0.00  0.00     0.052 C 
BRANCH  49  50
ATOM     50  C   UNK d   0      11.696  16.836   6.019  0.00  0.00     0.115 C 
BRANCH  50  51
ATOM     51  C   UNK d   0      11.318  16.714   4.618  0.00  0.00     0.139 C 
ATOM     52  O   UNK d   0      11.534  17.619   3.778  0.00  0.00    -0.650 OA
BRANCH  51  53
ATOM     53  O   UNK d   0      10.691  15.559   4.174  0.00  0.00    -0.776 OA
ATOM     54  H   UNK d   0       9.786  15.337   4.549  0.00  0.00     0.167 HD
ENDBRANCH  51  53
ENDBRANCH  50  51
ENDBRANCH  49  50
ENDBRANCH  24  49
BRANCH  21  55
ATOM     55  C   UNK d   0      12.662  15.590   9.322  0.00  0.00     0.151 C 
BRANCH  55  56
ATOM     56  C   UNK d   0      13.900  16.048   9.972  0.00  0.00     0.143 C 
ATOM     57  O   UNK d   0      14.319  17.218   9.877  0.00  0.00    -0.650 OA
BRANCH  56  58
ATOM     58  O   UNK d   0      14.621  15.120  10.721  0.00  0.00    -0.776 OA
ATOM     59  H   UNK d   0      14.076  14.297  11.038  0.00  0.00     0.167 HD
ENDBRANCH  56  58
ENDBRANCH  55  56
ENDBRANCH  21  55
BRANCH  18  60
ATOM     60  C   UNK d   0      14.474  11.021  11.479  0.00  0.00     0.151 C 
BRANCH  60  61
ATOM     61  C   UNK d   0      13.283  11.340  12.280  0.00  0.00     0.143 C 
ATOM     62  O   UNK d   0      12.327  10.601  12.516  0.00  0.00    -0.650 OA
BRANCH  61  63
ATOM     63  O   UNK d   0      13.258  12.645  12.828  0.00  0.00    -0.776 OA
ATOM     64  H   UNK d   0      13.027  12.798  13.794  0.00  0.00     0.167 HD
ENDBRANCH  61  63
ENDBRANCH  60  61
ENDBRANCH  18  60
BRANCH  14  65
ATOM     65  C   UNK d   0      14.753   8.070  10.830  0.00  0.00     0.052 C 
BRANCH  65  66
ATOM     66  C   UNK d   0      13.773   7.440  11.755  0.00  0.00     0.115 C 
BRANCH  66  67
ATOM     67  C   UNK d   0      13.899   7.642  13.171  0.00  0.00     0.139 C 
ATOM     68  O   UNK d   0      15.026   7.376  13.730  0.00  0.00    -0.650 OA
BRANCH  67  69
ATOM     69  O   UNK d   0      12.927   8.104  14.057  0.00  0.00    -0.776 OA
ATOM     70  H   UNK d   0      13.255   8.763  14.778  0.00  0.00     0.167 HD
ENDBRANCH  67  69
ENDBRANCH  66  67
ENDBRANCH  65  66
ENDBRANCH  14  65
ENDBRANCH   6   7
ENDBRANCH   5   6
ENDBRANCH   2   5
TORSDOF 28
ENDMDL
MODEL 19
REMARK VINA RESULT:      -8.4      1.986      8.242
REMARK  28 active torsions:
REMARK  status: ('A' for Active; 'I' for Inactive)
REMARK    1  A    between atoms: C_2  and  O_3 
REMARK    2  A    between atoms: C_2  and  C_4 
REMARK    3  A    between atoms: C_4  and  C_5 
REMARK    4  A    between atoms: C_5  and  C_6 
REMARK    5  A    between atoms: C_7  and  C_8 
REMARK    6  A    between atoms: C_8  and  C_9 
REMARK    7  A    between atoms: C_9  and  O_11 
REMARK    8  A    between atoms: C_28  and  C_29 
REMARK    9  A    between atoms: C_29  and  C_30 
REMARK   10  A    between atoms: C_30  and  O_32 
REMARK   11  A    between atoms: C_33  and  C_34 
REMARK   12  A    between atoms: C_34  and  C_35 
REMARK   13  A    between atoms: C_35  and  C_36 
REMARK   14  A    between atoms: C_36  and  O_38 
REMARK   15  A    between atoms: C_39  and  C_40 
REMARK   16  A    between atoms: C_40  and  C_41 
REMARK   17  A    between atoms: C_41  and  C_42 
REMARK   18  A    between atoms: C_42  and  O_44 
REMARK   19  A    between atoms: C_45  and  C_46 
REMARK   20  A    between atoms: C_46  and  C_47 
REMARK   21  A    between atoms: C_47  and  O_49 
REMARK   22  A    between atoms: C_50  and  C_51 
REMARK   23  A    between atoms: C_51  and  C_52 
REMARK   24  A    between atoms: C_52  and  O_54 
REMARK   25  A    between atoms: C_55  and  C_56 
REMARK   26  A    between atoms: C_56  and  C_57 
REMARK   27  A    between atoms: C_57  and  C_58 
REMARK   28  A    between atoms: C_58  and  O_60 
ROOT
ATOM      1  O   UNK d   0       0.820  -8.989  24.652  0.00  0.00    -0.650 OA
ATOM      2  C   UNK d   0      -0.369  -8.668  24.875  0.00  0.00     0.139 C 
ENDROOT
BRANCH   2   3
ATOM      3  O   UNK d   0      -0.756  -8.370  26.159  0.00  0.00    -0.776 OA
ATOM      4  H   UNK d   0      -0.221  -7.714  26.733  0.00  0.00     0.167 HD
ENDBRANCH   2   3
BRANCH   2   5
ATOM      5  C   UNK d   0      -1.352  -8.612  23.756  0.00  0.00     0.115 C 
BRANCH   5   6
ATOM      6  C   UNK d   0      -1.297  -7.266  23.086  0.00  0.00     0.052 C 
BRANCH   6   7
ATOM      7  C   UNK d   0      -2.624  -6.858  22.491  0.00  0.00    -0.020 A 
ATOM      8  C   UNK d   0      -3.264  -5.731  22.666  0.00  0.00    -0.011 A 
ATOM      9  C   UNK d   0      -4.499  -5.798  21.903  0.00  0.00     0.067 A 
ATOM     10  C   UNK d   0      -5.584  -4.942  21.655  0.00  0.00     0.062 C 
ATOM     11  N   UNK d   0      -4.532  -7.004  21.298  0.00  0.00    -0.248 NA
ATOM     12  C   UNK d   0      -6.559  -5.076  20.660  0.00  0.00     0.041 A 
ATOM     13  N   UNK d   0      -7.238  -6.154  20.224  0.00  0.00    -0.355 N 
ATOM     14  C   UNK d   0      -6.912  -3.948  19.897  0.00  0.00    -0.022 A 
ATOM     15  C   UNK d   0      -8.007  -5.741  19.199  0.00  0.00     0.042 A 
ATOM     16  H   UNK d   0      -7.189  -7.182  20.645  0.00  0.00     0.166 HD
ATOM     17  C   UNK d   0      -8.910  -6.457  18.389  0.00  0.00     0.062 C 
ATOM     18  C   UNK d   0      -7.830  -4.363  18.965  0.00  0.00    -0.013 A 
ATOM     19  C   UNK d   0      -8.753  -7.685  17.799  0.00  0.00     0.067 A 
ATOM     20  N   UNK d   0      -7.698  -8.409  18.182  0.00  0.00    -0.248 NA
ATOM     21  C   UNK d   0      -9.461  -8.459  16.793  0.00  0.00    -0.011 A 
ATOM     22  C   UNK d   0      -7.664  -9.600  17.498  0.00  0.00     0.066 A 
ATOM     23  C   UNK d   0      -6.635 -10.470  17.827  0.00  0.00     0.062 C 
ATOM     24  C   UNK d   0      -8.816  -9.577  16.619  0.00  0.00    -0.020 A 
ATOM     25  C   UNK d   0      -5.674 -10.322  18.839  0.00  0.00     0.041 A 
ATOM     26  N   UNK d   0      -4.988  -9.254  19.262  0.00  0.00    -0.355 N 
ATOM     27  C   UNK d   0      -5.323 -11.454  19.607  0.00  0.00    -0.022 A 
ATOM     28  C   UNK d   0      -4.213  -9.665  20.279  0.00  0.00     0.042 A 
ATOM     29  H   UNK d   0      -5.030  -8.223  18.832  0.00  0.00     0.166 HD
ATOM     30  C   UNK d   0      -3.304  -8.966  21.088  0.00  0.00     0.062 C 
ATOM     31  C   UNK d   0      -4.400 -11.047  20.521  0.00  0.00    -0.013 A 
ATOM     32  C   UNK d   0      -3.432  -7.690  21.612  0.00  0.00     0.066 A 
BRANCH   8  33
ATOM     33  C   UNK d   0      -2.833  -4.586  23.490  0.00  0.00     0.151 C 
BRANCH  33  34
ATOM     34  C   UNK d   0      -2.337  -3.457  22.683  0.00  0.00     0.143 C 
ATOM     35  O   UNK d   0      -2.939  -2.375  22.665  0.00  0.00    -0.650 OA
BRANCH  34  36
ATOM     36  O   UNK d   0      -1.189  -3.611  21.940  0.00  0.00    -0.776 OA
ATOM     37  H   UNK d   0      -0.459  -4.281  22.217  0.00  0.00     0.167 HD
ENDBRANCH  34  36
ENDBRANCH  33  34
ENDBRANCH   8  33
BRANCH  31  38
ATOM     38  C   UNK d   0      -3.743 -11.913  21.570  0.00  0.00     0.151 C 
BRANCH  38  39
ATOM     39  C   UNK d   0      -2.423 -12.363  21.182  0.00  0.00     0.143 C 
ATOM     40  O   UNK d   0      -1.427 -12.212  21.911  0.00  0.00    -0.650 OA
BRANCH  39  41
ATOM     41  O   UNK d   0      -2.247 -12.989  19.948  0.00  0.00    -0.776 OA
ATOM     42  H   UNK d   0      -2.835 -12.661  19.176  0.00  0.00     0.167 HD
ENDBRANCH  39  41
ENDBRANCH  38  39
ENDBRANCH  31  38
BRANCH  27  43
ATOM     43  C   UNK d   0      -5.821 -12.874  19.504  0.00  0.00     0.052 C 
BRANCH  43  44
ATOM     44  C   UNK d   0      -7.297 -12.998  19.699  0.00  0.00     0.115 C 
BRANCH  44  45
ATOM     45  C   UNK d   0      -7.554 -12.770  21.145  0.00  0.00     0.139 C 
ATOM     46  O   UNK d   0      -8.559 -12.090  21.467  0.00  0.00    -0.650 OA
BRANCH  45  47
ATOM     47  O   UNK d   0      -6.742 -13.276  22.138  0.00  0.00    -0.776 OA
ATOM     48  H   UNK d   0      -6.605 -14.288  22.287  0.00  0.00     0.167 HD
ENDBRANCH  45  47
ENDBRANCH  44  45
ENDBRANCH  43  44
ENDBRANCH  27  43
BRANCH  24  49
ATOM     49  C   UNK d   0      -9.208 -10.673  15.717  0.00  0.00     0.052 C 
BRANCH  49  50
ATOM     50  C   UNK d   0      -8.047 -11.074  14.843  0.00  0.00     0.115 C 
BRANCH  50  51
ATOM     51  C   UNK d   0      -8.244 -12.211  13.955  0.00  0.00     0.139 C 
ATOM     52  O   UNK d   0      -7.594 -13.277  14.067  0.00  0.00    -0.650 OA
BRANCH  51  53
ATOM     53  O   UNK d   0      -9.182 -12.132  12.937  0.00  0.00    -0.776 OA
ATOM     54  H   UNK d   0      -9.377 -11.230  12.539  0.00  0.00     0.167 HD
ENDBRANCH  51  53
ENDBRANCH  50  51
ENDBRANCH  49  50
ENDBRANCH  24  49
BRANCH  21  55
ATOM     55  C   UNK d   0     -10.710  -8.003  16.115  0.00  0.00     0.151 C 
BRANCH  55  56
ATOM     56  C   UNK d   0     -11.823  -8.943  16.319  0.00  0.00     0.143 C 
ATOM     57  O   UNK d   0     -12.172  -9.341  17.448  0.00  0.00    -0.650 OA
BRANCH  56  58
ATOM     58  O   UNK d   0     -12.505  -9.397  15.191  0.00  0.00    -0.776 OA
ATOM     59  H   UNK d   0     -13.359  -9.949  15.390  0.00  0.00     0.167 HD
ENDBRANCH  56  58
ENDBRANCH  55  56
ENDBRANCH  21  55
BRANCH  18  60
ATOM     60  C   UNK d   0      -8.472  -3.474  17.929  0.00  0.00     0.151 C 
BRANCH  60  61
ATOM     61  C   UNK d   0      -9.596  -2.811  18.608  0.00  0.00     0.143 C 
ATOM     62  O   UNK d   0     -10.468  -3.345  19.294  0.00  0.00    -0.650 OA
BRANCH  61  63
ATOM     63  O   UNK d   0      -9.659  -1.407  18.438  0.00  0.00    -0.776 OA
ATOM     64  H   UNK d   0     -10.046  -1.003  17.604  0.00  0.00     0.167 HD
ENDBRANCH  61  63
ENDBRANCH  60  61
ENDBRANCH  18  60
BRANCH  14  65
ATOM     65  C   UNK d   0      -6.526  -2.504  20.046  0.00  0.00     0.052 C 
BRANCH  65  66
ATOM     66  C   UNK d   0      -7.178  -1.844  21.209  0.00  0.00     0.115 C 
BRANCH  66  67
ATOM     67  C   UNK d   0      -6.370  -1.309  22.268  0.00  0.00     0.139 C 
ATOM     68  O   UNK d   0      -6.784  -1.433  23.479  0.00  0.00    -0.650 OA
BRANCH  67  69
ATOM     69  O   UNK d   0      -5.148  -0.646  22.157  0.00  0.00    -0.776 OA
ATOM     70  H   UNK d   0      -4.318  -1.185  22.444  0.00  0.00     0.167 HD
ENDBRANCH  67  69
ENDBRANCH  66  67
ENDBRANCH  65  66
ENDBRANCH  14  65
ENDBRANCH   6   7
ENDBRANCH   5   6
ENDBRANCH   2   5
TORSDOF 28
ENDMDL
MODEL 20
REMARK VINA RESULT:      -8.4     27.723     32.256
REMARK  28 active torsions:
REMARK  status: ('A' for Active; 'I' for Inactive)
REMARK    1  A    between atoms: C_2  and  O_3 
REMARK    2  A    between atoms: C_2  and  C_4 
REMARK    3  A    between atoms: C_4  and  C_5 
REMARK    4  A    between atoms: C_5  and  C_6 
REMARK    5  A    between atoms: C_7  and  C_8 
REMARK    6  A    between atoms: C_8  and  C_9 
REMARK    7  A    between atoms: C_9  and  O_11 
REMARK    8  A    between atoms: C_28  and  C_29 
REMARK    9  A    between atoms: C_29  and  C_30 
REMARK   10  A    between atoms: C_30  and  O_32 
REMARK   11  A    between atoms: C_33  and  C_34 
REMARK   12  A    between atoms: C_34  and  C_35 
REMARK   13  A    between atoms: C_35  and  C_36 
REMARK   14  A    between atoms: C_36  and  O_38 
REMARK   15  A    between atoms: C_39  and  C_40 
REMARK   16  A    between atoms: C_40  and  C_41 
REMARK   17  A    between atoms: C_41  and  C_42 
REMARK   18  A    between atoms: C_42  and  O_44 
REMARK   19  A    between atoms: C_45  and  C_46 
REMARK   20  A    between atoms: C_46  and  C_47 
REMARK   21  A    between atoms: C_47  and  O_49 
REMARK   22  A    between atoms: C_50  and  C_51 
REMARK   23  A    between atoms: C_51  and  C_52 
REMARK   24  A    between atoms: C_52  and  O_54 
REMARK   25  A    between atoms: C_55  and  C_56 
REMARK   26  A    between atoms: C_56  and  C_57 
REMARK   27  A    between atoms: C_57  and  C_58 
REMARK   28  A    between atoms: C_58  and  O_60 
ROOT
ATOM      1  O   UNK d   0      11.597  12.467  14.727  0.00  0.00    -0.650 OA
ATOM      2  C   UNK d   0      12.036  12.359  13.560  0.00  0.00     0.139 C 
ENDROOT
BRANCH   2   3
ATOM      3  O   UNK d   0      11.975  13.441  12.715  0.00  0.00    -0.776 OA
ATOM      4  H   UNK d   0      11.457  13.395  11.835  0.00  0.00     0.167 HD
ENDBRANCH   2   3
BRANCH   2   5
ATOM      5  C   UNK d   0      12.617  11.068  13.095  0.00  0.00     0.115 C 
BRANCH   5   6
ATOM      6  C   UNK d   0      11.667  10.383  12.150  0.00  0.00     0.052 C 
BRANCH   6   7
ATOM      7  C   UNK d   0      12.315  10.022  10.835  0.00  0.00    -0.020 A 
ATOM      8  C   UNK d   0      12.869   8.884  10.504  0.00  0.00    -0.011 A 
ATOM      9  C   UNK d   0      13.364   9.009   9.143  0.00  0.00     0.067 A 
ATOM     10  C   UNK d   0      14.016   8.175   8.222  0.00  0.00     0.062 C 
ATOM     11  N   UNK d   0      13.073  10.259   8.724  0.00  0.00    -0.248 NA
ATOM     12  C   UNK d   0      14.167   8.386   6.847  0.00  0.00     0.041 A 
ATOM     13  N   UNK d   0      14.480   9.494   6.149  0.00  0.00    -0.355 N 
ATOM     14  C   UNK d   0      13.914   7.320   5.963  0.00  0.00    -0.022 A 
ATOM     15  C   UNK d   0      14.424   9.161   4.845  0.00  0.00     0.042 A 
ATOM     16  H   UNK d   0      14.754  10.486   6.569  0.00  0.00     0.166 HD
ATOM     17  C   UNK d   0      14.662   9.937   3.693  0.00  0.00     0.062 C 
ATOM     18  C   UNK d   0      14.072   7.806   4.689  0.00  0.00    -0.013 A 
ATOM     19  C   UNK d   0      14.233  11.208   3.406  0.00  0.00     0.067 A 
ATOM     20  N   UNK d   0      13.682  11.901   4.406  0.00  0.00    -0.248 NA
ATOM     21  C   UNK d   0      14.200  12.058   2.228  0.00  0.00    -0.011 A 
ATOM     22  C   UNK d   0      13.289  13.141   3.966  0.00  0.00     0.066 A 
ATOM     23  C   UNK d   0      12.732  13.984   4.917  0.00  0.00     0.062 C 
ATOM     24  C   UNK d   0      13.643  13.186   2.561  0.00  0.00    -0.020 A 
ATOM     25  C   UNK d   0      12.601  13.758   6.296  0.00  0.00     0.041 A 
ATOM     26  N   UNK d   0      12.275  12.661   6.989  0.00  0.00    -0.355 N 
ATOM     27  C   UNK d   0      12.860  14.827   7.182  0.00  0.00    -0.022 A 
ATOM     28  C   UNK d   0      12.321  12.992   8.289  0.00  0.00     0.042 A 
ATOM     29  H   UNK d   0      11.990  11.667   6.564  0.00  0.00     0.166 HD
ATOM     30  C   UNK d   0      12.078  12.233   9.444  0.00  0.00     0.062 C 
ATOM     31  C   UNK d   0      12.686  14.351   8.445  0.00  0.00    -0.013 A 
ATOM     32  C   UNK d   0      12.441  10.919   9.696  0.00  0.00     0.066 A 
BRANCH   8  33
ATOM     33  C   UNK d   0      12.988   7.679  11.346  0.00  0.00     0.151 C 
BRANCH  33  34
ATOM     34  C   UNK d   0      14.321   7.540  11.959  0.00  0.00     0.143 C 
ATOM     35  O   UNK d   0      15.230   6.934  11.374  0.00  0.00    -0.650 OA
BRANCH  34  36
ATOM     36  O   UNK d   0      14.556   8.091  13.197  0.00  0.00    -0.776 OA
ATOM     37  H   UNK d   0      14.031   7.782  14.027  0.00  0.00     0.167 HD
ENDBRANCH  34  36
ENDBRANCH  33  34
ENDBRANCH   8  33
BRANCH  31  38
ATOM     38  C   UNK d   0      12.867  15.133   9.725  0.00  0.00     0.151 C 
BRANCH  38  39
ATOM     39  C   UNK d   0      14.217  15.061  10.241  0.00  0.00     0.143 C 
ATOM     40  O   UNK d   0      14.671  15.902  11.037  0.00  0.00    -0.650 OA
BRANCH  39  41
ATOM     41  O   UNK d   0      15.050  14.017   9.840  0.00  0.00    -0.776 OA
ATOM     42  H   UNK d   0      14.659  13.344   9.174  0.00  0.00     0.167 HD
ENDBRANCH  39  41
ENDBRANCH  38  39
ENDBRANCH  31  38
BRANCH  27  43
ATOM     43  C   UNK d   0      13.254  16.250   6.877  0.00  0.00     0.052 C 
BRANCH  43  44
ATOM     44  C   UNK d   0      12.135  17.224   7.053  0.00  0.00     0.115 C 
BRANCH  44  45
ATOM     45  C   UNK d   0      11.343  17.192   5.796  0.00  0.00     0.139 C 
ATOM     46  O   UNK d   0      11.876  17.636   4.749  0.00  0.00    -0.650 OA
BRANCH  45  47
ATOM     47  O   UNK d   0      10.060  16.693   5.734  0.00  0.00    -0.776 OA
ATOM     48  H   UNK d   0       9.757  15.858   6.261  0.00  0.00     0.167 HD
ENDBRANCH  45  47
ENDBRANCH  44  45
ENDBRANCH  43  44
ENDBRANCH  27  43
BRANCH  24  49
ATOM     49  C   UNK d   0      13.442  14.350   1.680  0.00  0.00     0.052 C 
BRANCH  49  50
ATOM     50  C   UNK d   0      11.979  14.519   1.360  0.00  0.00     0.115 C 
BRANCH  50  51
ATOM     51  C   UNK d   0      11.300  15.670   1.940  0.00  0.00     0.139 C 
ATOM     52  O   UNK d   0      10.275  15.562   2.653  0.00  0.00    -0.650 OA
BRANCH  51  53
ATOM     53  O   UNK d   0      11.790  16.946   1.704  0.00  0.00    -0.776 OA
ATOM     54  H   UNK d   0      11.310  17.724   2.121  0.00  0.00     0.167 HD
ENDBRANCH  51  53
ENDBRANCH  50  51
ENDBRANCH  49  50
ENDBRANCH  24  49
BRANCH  21  55
ATOM     55  C   UNK d   0      14.733  11.655   0.892  0.00  0.00     0.151 C 
BRANCH  55  56
ATOM     56  C   UNK d   0      14.033  10.481   0.350  0.00  0.00     0.143 C 
ATOM     57  O   UNK d   0      12.852  10.205   0.642  0.00  0.00    -0.650 OA
BRANCH  56  58
ATOM     58  O   UNK d   0      14.735   9.653  -0.524  0.00  0.00    -0.776 OA
ATOM     59  H   UNK d   0      15.761   9.794  -0.529  0.00  0.00     0.167 HD
ENDBRANCH  56  58
ENDBRANCH  55  56
ENDBRANCH  21  55
BRANCH  18  60
ATOM     60  C   UNK d   0      13.888   7.000   3.428  0.00  0.00     0.151 C 
BRANCH  60  61
ATOM     61  C   UNK d   0      15.213   6.933   2.794  0.00  0.00     0.143 C 
ATOM     62  O   UNK d   0      16.252   6.495   3.290  0.00  0.00    -0.650 OA
BRANCH  61  63
ATOM     63  O   UNK d   0      15.275   7.432   1.471  0.00  0.00    -0.776 OA
ATOM     64  H   UNK d   0      15.855   8.219   1.239  0.00  0.00     0.167 HD
ENDBRANCH  61  63
ENDBRANCH  60  61
ENDBRANCH  18  60
BRANCH  14  65
ATOM     65  C   UNK d   0      13.634   5.869   6.232  0.00  0.00     0.052 C 
BRANCH  65  66
ATOM     66  C   UNK d   0      14.811   5.140   6.775  0.00  0.00     0.115 C 
BRANCH  66  67
ATOM     67  C   UNK d   0      15.873   4.747   5.893  0.00  0.00     0.139 C 
ATOM     68  O   UNK d   0      15.654   3.799   5.052  0.00  0.00    -0.650 OA
BRANCH  67  69
ATOM     69  O   UNK d   0      17.163   5.273   5.822  0.00  0.00    -0.776 OA
ATOM     70  H   UNK d   0      17.434   5.672   4.912  0.00  0.00     0.167 HD
ENDBRANCH  67  69
ENDBRANCH  66  67
ENDBRANCH  65  66
ENDBRANCH  14  65
ENDBRANCH   6   7
ENDBRANCH   5   6
ENDBRANCH   2   5
TORSDOF 28
ENDMDL
