MODEL 1
REMARK VINA RESULT:     -10.0      0.000      0.000
REMARK  28 active torsions:
REMARK  status: ('A' for Active; 'I' for Inactive)
REMARK    1  A    between atoms: C_2  and  O_3 
REMARK    2  A    between atoms: C_2  and  C_4 
REMARK    3  A    between atoms: C_4  and  C_5 
REMARK    4  A    between atoms: C_5  and  C_6 
REMARK    5  A    between atoms: C_7  and  C_8 
REMARK    6  A    between atoms: C_8  and  C_9 
REMARK    7  A    between atoms: C_9  and  O_11 
REMARK    8  A    between atoms: C_28  and  C_29 
REMARK    9  A    between atoms: C_29  and  C_30 
REMARK   10  A    between atoms: C_30  and  O_32 
REMARK   11  A    between atoms: C_33  and  C_34 
REMARK   12  A    between atoms: C_34  and  C_35 
REMARK   13  A    between atoms: C_35  and  C_36 
REMARK   14  A    between atoms: C_36  and  O_38 
REMARK   15  A    between atoms: C_39  and  C_40 
REMARK   16  A    between atoms: C_40  and  C_41 
REMARK   17  A    between atoms: C_41  and  C_42 
REMARK   18  A    between atoms: C_42  and  O_44 
REMARK   19  A    between atoms: C_45  and  C_46 
REMARK   20  A    between atoms: C_46  and  C_47 
REMARK   21  A    between atoms: C_47  and  O_49 
REMARK   22  A    between atoms: C_50  and  C_51 
REMARK   23  A    between atoms: C_51  and  C_52 
REMARK   24  A    between atoms: C_52  and  O_54 
REMARK   25  A    between atoms: C_55  and  C_56 
REMARK   26  A    between atoms: C_56  and  C_57 
REMARK   27  A    between atoms: C_57  and  C_58 
REMARK   28  A    between atoms: C_58  and  O_60 
ROOT
ATOM      1  O   UNK d   0     -22.923  -3.147 -22.843  0.00  0.00    -0.650 OA
ATOM      2  C   UNK d   0     -23.052  -3.835 -21.806  0.00  0.00     0.139 C 
ENDROOT
BRANCH   2   3
ATOM      3  O   UNK d   0     -24.311  -4.084 -21.315  0.00  0.00    -0.776 OA
ATOM      4  H   UNK d   0     -24.638  -3.643 -20.453  0.00  0.00     0.167 HD
ENDBRANCH   2   3
BRANCH   2   5
ATOM      5  C   UNK d   0     -21.849  -4.376 -21.112  0.00  0.00     0.115 C 
BRANCH   5   6
ATOM      6  C   UNK d   0     -21.979  -5.865 -20.937  0.00  0.00     0.052 C 
BRANCH   6   7
ATOM      7  C   UNK d   0     -22.336  -6.573 -22.222  0.00  0.00    -0.020 A 
ATOM      8  C   UNK d   0     -23.256  -7.485 -22.401  0.00  0.00    -0.011 A 
ATOM      9  C   UNK d   0     -23.227  -7.878 -23.801  0.00  0.00     0.067 A 
ATOM     10  C   UNK d   0     -23.944  -8.764 -24.619  0.00  0.00     0.062 C 
ATOM     11  N   UNK d   0     -22.254  -7.158 -24.398  0.00  0.00    -0.248 NA
ATOM     12  C   UNK d   0     -23.956  -8.804 -26.017  0.00  0.00     0.041 A 
ATOM     13  N   UNK d   0     -22.960  -8.695 -26.916  0.00  0.00    -0.355 N 
ATOM     14  C   UNK d   0     -25.189  -8.925 -26.684  0.00  0.00    -0.022 A 
ATOM     15  C   UNK d   0     -23.529  -8.734 -28.136  0.00  0.00     0.042 A 
ATOM     16  H   UNK d   0     -21.873  -8.610 -26.693  0.00  0.00     0.166 HD
ATOM     17  C   UNK d   0     -22.949  -8.662 -29.417  0.00  0.00     0.062 C 
ATOM     18  C   UNK d   0     -24.926  -8.878 -28.030  0.00  0.00    -0.013 A 
ATOM     19  C   UNK d   0     -21.979  -7.808 -29.878  0.00  0.00     0.067 A 
ATOM     20  N   UNK d   0     -21.343  -7.068 -28.967  0.00  0.00    -0.248 NA
ATOM     21  C   UNK d   0     -21.428  -7.456 -31.176  0.00  0.00    -0.011 A 
ATOM     22  C   UNK d   0     -20.417  -6.256 -29.575  0.00  0.00     0.066 A 
ATOM     23  C   UNK d   0     -19.653  -5.456 -28.737  0.00  0.00     0.062 C 
ATOM     24  C   UNK d   0     -20.518  -6.544 -30.992  0.00  0.00    -0.020 A 
ATOM     25  C   UNK d   0     -19.647  -5.440 -27.334  0.00  0.00     0.041 A 
ATOM     26  N   UNK d   0     -20.640  -5.534 -26.441  0.00  0.00    -0.355 N 
ATOM     27  C   UNK d   0     -18.409  -5.323 -26.665  0.00  0.00    -0.022 A 
ATOM     28  C   UNK d   0     -20.075  -5.486 -25.224  0.00  0.00     0.042 A 
ATOM     29  H   UNK d   0     -21.732  -5.608 -26.666  0.00  0.00     0.166 HD
ATOM     30  C   UNK d   0     -20.641  -5.547 -23.941  0.00  0.00     0.062 C 
ATOM     31  C   UNK d   0     -18.670  -5.352 -25.330  0.00  0.00    -0.013 A 
ATOM     32  C   UNK d   0     -21.680  -6.354 -23.502  0.00  0.00     0.066 A 
BRANCH   8  33
ATOM     33  C   UNK d   0     -24.168  -8.036 -21.381  0.00  0.00     0.151 C 
BRANCH  33  34
ATOM     34  C   UNK d   0     -25.127  -7.038 -20.876  0.00  0.00     0.143 C 
ATOM     35  O   UNK d   0     -25.079  -6.646 -19.701  0.00  0.00    -0.650 OA
BRANCH  34  36
ATOM     36  O   UNK d   0     -26.090  -6.537 -21.721  0.00  0.00    -0.776 OA
ATOM     37  H   UNK d   0     -26.057  -5.563 -22.051  0.00  0.00     0.167 HD
ENDBRANCH  34  36
ENDBRANCH  33  34
ENDBRANCH   8  33
BRANCH  31  38
ATOM     38  C   UNK d   0     -17.649  -5.272 -24.220  0.00  0.00     0.151 C 
BRANCH  38  39
ATOM     39  C   UNK d   0     -17.058  -3.956 -24.095  0.00  0.00     0.143 C 
ATOM     40  O   UNK d   0     -17.733  -2.947 -23.824  0.00  0.00    -0.650 OA
BRANCH  39  41
ATOM     41  O   UNK d   0     -15.685  -3.800 -24.280  0.00  0.00    -0.776 OA
ATOM     42  H   UNK d   0     -15.232  -4.443 -24.937  0.00  0.00     0.167 HD
ENDBRANCH  39  41
ENDBRANCH  38  39
ENDBRANCH  31  38
BRANCH  27  43
ATOM     43  C   UNK d   0     -17.020  -5.187 -27.238  0.00  0.00     0.052 C 
BRANCH  43  44
ATOM     44  C   UNK d   0     -16.247  -6.466 -27.225  0.00  0.00     0.115 C 
BRANCH  44  45
ATOM     45  C   UNK d   0     -14.809  -6.092 -27.254  0.00  0.00     0.139 C 
ATOM     46  O   UNK d   0     -14.317  -5.551 -26.233  0.00  0.00    -0.650 OA
BRANCH  45  47
ATOM     47  O   UNK d   0     -14.000  -6.321 -28.346  0.00  0.00    -0.776 OA
ATOM     48  H   UNK d   0     -13.314  -5.629 -28.689  0.00  0.00     0.167 HD
ENDBRANCH  45  47
ENDBRANCH  44  45
ENDBRANCH  43  44
ENDBRANCH  27  43
BRANCH  24  49
ATOM     49  C   UNK d   0     -19.680  -5.930 -32.037  0.00  0.00     0.052 C 
BRANCH  49  50
ATOM     50  C   UNK d   0     -18.295  -6.524 -32.014  0.00  0.00     0.115 C 
BRANCH  50  51
ATOM     51  C   UNK d   0     -17.814  -7.139 -33.244  0.00  0.00     0.139 C 
ATOM     52  O   UNK d   0     -16.603  -7.393 -33.446  0.00  0.00    -0.650 OA
BRANCH  51  53
ATOM     53  O   UNK d   0     -18.716  -7.461 -34.248  0.00  0.00    -0.776 OA
ATOM     54  H   UNK d   0     -18.666  -8.379 -34.654  0.00  0.00     0.167 HD
ENDBRANCH  51  53
ENDBRANCH  50  51
ENDBRANCH  49  50
ENDBRANCH  24  49
BRANCH  21  55
ATOM     55  C   UNK d   0     -21.867  -8.070 -32.464  0.00  0.00     0.151 C 
BRANCH  55  56
ATOM     56  C   UNK d   0     -21.344  -9.435 -32.630  0.00  0.00     0.143 C 
ATOM     57  O   UNK d   0     -20.151  -9.672 -32.906  0.00  0.00    -0.650 OA
BRANCH  56  58
ATOM     58  O   UNK d   0     -22.234 -10.495 -32.469  0.00  0.00    -0.776 OA
ATOM     59  H   UNK d   0     -21.841 -11.325 -31.989  0.00  0.00     0.167 HD
ENDBRANCH  56  58
ENDBRANCH  55  56
ENDBRANCH  21  55
BRANCH  18  60
ATOM     60  C   UNK d   0     -25.968  -8.964 -29.118  0.00  0.00     0.151 C 
BRANCH  60  61
ATOM     61  C   UNK d   0     -26.310  -7.575 -29.461  0.00  0.00     0.143 C 
ATOM     62  O   UNK d   0     -26.889  -6.756 -28.747  0.00  0.00    -0.650 OA
BRANCH  61  63
ATOM     63  O   UNK d   0     -25.919  -7.160 -30.757  0.00  0.00    -0.776 OA
ATOM     64  H   UNK d   0     -26.376  -7.520 -31.576  0.00  0.00     0.167 HD
ENDBRANCH  61  63
ENDBRANCH  60  61
ENDBRANCH  18  60
BRANCH  14  65
ATOM     65  C   UNK d   0     -26.571  -9.178 -26.152  0.00  0.00     0.052 C 
BRANCH  65  66
ATOM     66  C   UNK d   0     -27.089  -8.057 -25.323  0.00  0.00     0.115 C 
BRANCH  66  67
ATOM     67  C   UNK d   0     -27.485  -8.300 -23.964  0.00  0.00     0.139 C 
ATOM     68  O   UNK d   0     -26.748  -9.065 -23.238  0.00  0.00    -0.650 OA
BRANCH  67  69
ATOM     69  O   UNK d   0     -28.603  -7.801 -23.298  0.00  0.00    -0.776 OA
ATOM     70  H   UNK d   0     -29.378  -7.485 -23.899  0.00  0.00     0.167 HD
ENDBRANCH  67  69
ENDBRANCH  66  67
ENDBRANCH  65  66
ENDBRANCH  14  65
ENDBRANCH   6   7
ENDBRANCH   5   6
ENDBRANCH   2   5
TORSDOF 28
ENDMDL
MODEL 2
REMARK VINA RESULT:      -9.6      1.511      7.385
REMARK  28 active torsions:
REMARK  status: ('A' for Active; 'I' for Inactive)
REMARK    1  A    between atoms: C_2  and  O_3 
REMARK    2  A    between atoms: C_2  and  C_4 
REMARK    3  A    between atoms: C_4  and  C_5 
REMARK    4  A    between atoms: C_5  and  C_6 
REMARK    5  A    between atoms: C_7  and  C_8 
REMARK    6  A    between atoms: C_8  and  C_9 
REMARK    7  A    between atoms: C_9  and  O_11 
REMARK    8  A    between atoms: C_28  and  C_29 
REMARK    9  A    between atoms: C_29  and  C_30 
REMARK   10  A    between atoms: C_30  and  O_32 
REMARK   11  A    between atoms: C_33  and  C_34 
REMARK   12  A    between atoms: C_34  and  C_35 
REMARK   13  A    between atoms: C_35  and  C_36 
REMARK   14  A    between atoms: C_36  and  O_38 
REMARK   15  A    between atoms: C_39  and  C_40 
REMARK   16  A    between atoms: C_40  and  C_41 
REMARK   17  A    between atoms: C_41  and  C_42 
REMARK   18  A    between atoms: C_42  and  O_44 
REMARK   19  A    between atoms: C_45  and  C_46 
REMARK   20  A    between atoms: C_46  and  C_47 
REMARK   21  A    between atoms: C_47  and  O_49 
REMARK   22  A    between atoms: C_50  and  C_51 
REMARK   23  A    between atoms: C_51  and  C_52 
REMARK   24  A    between atoms: C_52  and  O_54 
REMARK   25  A    between atoms: C_55  and  C_56 
REMARK   26  A    between atoms: C_56  and  C_57 
REMARK   27  A    between atoms: C_57  and  C_58 
REMARK   28  A    between atoms: C_58  and  O_60 
ROOT
ATOM      1  O   UNK d   0     -26.192  -9.505 -22.172  0.00  0.00    -0.650 OA
ATOM      2  C   UNK d   0     -26.336  -8.264 -22.239  0.00  0.00     0.139 C 
ENDROOT
BRANCH   2   3
ATOM      3  O   UNK d   0     -27.359  -7.745 -22.996  0.00  0.00    -0.776 OA
ATOM      4  H   UNK d   0     -28.247  -7.473 -22.568  0.00  0.00     0.167 HD
ENDBRANCH   2   3
BRANCH   2   5
ATOM      5  C   UNK d   0     -25.405  -7.361 -21.505  0.00  0.00     0.115 C 
BRANCH   5   6
ATOM      6  C   UNK d   0     -24.030  -7.970 -21.449  0.00  0.00     0.052 C 
BRANCH   6   7
ATOM      7  C   UNK d   0     -23.080  -7.352 -22.446  0.00  0.00    -0.020 A 
ATOM      8  C   UNK d   0     -22.206  -6.402 -22.232  0.00  0.00    -0.011 A 
ATOM      9  C   UNK d   0     -21.527  -6.131 -23.488  0.00  0.00     0.067 A 
ATOM     10  C   UNK d   0     -20.504  -5.273 -23.922  0.00  0.00     0.062 C 
ATOM     11  N   UNK d   0     -22.054  -6.958 -24.415  0.00  0.00    -0.248 NA
ATOM     12  C   UNK d   0     -19.785  -5.349 -25.120  0.00  0.00     0.041 A 
ATOM     13  N   UNK d   0     -20.188  -5.597 -26.381  0.00  0.00    -0.355 N 
ATOM     14  C   UNK d   0     -18.386  -5.208 -25.084  0.00  0.00    -0.022 A 
ATOM     15  C   UNK d   0     -19.079  -5.624 -27.145  0.00  0.00     0.042 A 
ATOM     16  H   UNK d   0     -21.236  -5.730 -26.727  0.00  0.00     0.166 HD
ATOM     17  C   UNK d   0     -18.929  -5.840 -28.529  0.00  0.00     0.062 C 
ATOM     18  C   UNK d   0     -17.930  -5.385 -26.367  0.00  0.00    -0.013 A 
ATOM     19  C   UNK d   0     -19.522  -6.789 -29.323  0.00  0.00     0.067 A 
ATOM     20  N   UNK d   0     -20.523  -7.489 -28.784  0.00  0.00    -0.248 NA
ATOM     21  C   UNK d   0     -19.334  -7.283 -30.677  0.00  0.00    -0.011 A 
ATOM     22  C   UNK d   0     -21.004  -8.406 -29.687  0.00  0.00     0.066 A 
ATOM     23  C   UNK d   0     -22.077  -9.178 -29.269  0.00  0.00     0.062 C 
ATOM     24  C   UNK d   0     -20.202  -8.232 -30.882  0.00  0.00    -0.020 A 
ATOM     25  C   UNK d   0     -22.793  -9.077 -28.066  0.00  0.00     0.041 A 
ATOM     26  N   UNK d   0     -22.391  -8.846 -26.810  0.00  0.00    -0.355 N 
ATOM     27  C   UNK d   0     -24.198  -9.215 -28.103  0.00  0.00    -0.022 A 
ATOM     28  C   UNK d   0     -23.494  -8.827 -26.045  0.00  0.00     0.042 A 
ATOM     29  H   UNK d   0     -21.336  -8.723 -26.462  0.00  0.00     0.166 HD
ATOM     30  C   UNK d   0     -23.657  -8.622 -24.666  0.00  0.00     0.062 C 
ATOM     31  C   UNK d   0     -24.650  -9.057 -26.829  0.00  0.00    -0.013 A 
ATOM     32  C   UNK d   0     -22.993  -7.719 -23.851  0.00  0.00     0.066 A 
BRANCH   8  33
ATOM     33  C   UNK d   0     -21.944  -5.711 -20.956  0.00  0.00     0.151 C 
BRANCH  33  34
ATOM     34  C   UNK d   0     -22.896  -4.617 -20.693  0.00  0.00     0.143 C 
ATOM     35  O   UNK d   0     -23.338  -3.922 -21.619  0.00  0.00    -0.650 OA
BRANCH  34  36
ATOM     36  O   UNK d   0     -23.295  -4.365 -19.401  0.00  0.00    -0.776 OA
ATOM     37  H   UNK d   0     -23.364  -3.404 -19.040  0.00  0.00     0.167 HD
ENDBRANCH  34  36
ENDBRANCH  33  34
ENDBRANCH   8  33
BRANCH  31  38
ATOM     38  C   UNK d   0     -26.092  -9.109 -26.382  0.00  0.00     0.151 C 
BRANCH  38  39
ATOM     39  C   UNK d   0     -26.780  -7.847 -26.558  0.00  0.00     0.143 C 
ATOM     40  O   UNK d   0     -26.507  -7.065 -27.486  0.00  0.00    -0.650 OA
BRANCH  39  41
ATOM     41  O   UNK d   0     -27.787  -7.484 -25.665  0.00  0.00    -0.776 OA
ATOM     42  H   UNK d   0     -27.983  -8.137 -24.900  0.00  0.00     0.167 HD
ENDBRANCH  39  41
ENDBRANCH  38  39
ENDBRANCH  31  38
BRANCH  27  43
ATOM     43  C   UNK d   0     -25.103  -9.486 -29.278  0.00  0.00     0.052 C 
BRANCH  43  44
ATOM     44  C   UNK d   0     -25.893 -10.747 -29.137  0.00  0.00     0.115 C 
BRANCH  44  45
ATOM     45  C   UNK d   0     -24.938 -11.869 -29.323  0.00  0.00     0.139 C 
ATOM     46  O   UNK d   0     -25.002 -12.839 -28.527  0.00  0.00    -0.650 OA
BRANCH  45  47
ATOM     47  O   UNK d   0     -23.996 -11.890 -30.328  0.00  0.00    -0.776 OA
ATOM     48  H   UNK d   0     -23.496 -12.749 -30.610  0.00  0.00     0.167 HD
ENDBRANCH  45  47
ENDBRANCH  44  45
ENDBRANCH  43  44
ENDBRANCH  27  43
BRANCH  24  49
ATOM     49  C   UNK d   0     -20.388  -8.983 -32.136  0.00  0.00     0.052 C 
BRANCH  49  50
ATOM     50  C   UNK d   0     -21.652  -8.542 -32.828  0.00  0.00     0.115 C 
BRANCH  50  51
ATOM     51  C   UNK d   0     -22.726  -9.520 -32.937  0.00  0.00     0.139 C 
ATOM     52  O   UNK d   0     -22.636 -10.679 -32.466  0.00  0.00    -0.650 OA
BRANCH  51  53
ATOM     53  O   UNK d   0     -23.902  -9.179 -33.586  0.00  0.00    -0.776 OA
ATOM     54  H   UNK d   0     -24.081  -9.581 -34.490  0.00  0.00     0.167 HD
ENDBRANCH  51  53
ENDBRANCH  50  51
ENDBRANCH  49  50
ENDBRANCH  24  49
BRANCH  21  55
ATOM     55  C   UNK d   0     -18.311  -6.753 -31.626  0.00  0.00     0.151 C 
BRANCH  55  56
ATOM     56  C   UNK d   0     -17.147  -7.645 -31.737  0.00  0.00     0.143 C 
ATOM     57  O   UNK d   0     -16.623  -7.938 -32.829  0.00  0.00    -0.650 OA
BRANCH  56  58
ATOM     58  O   UNK d   0     -16.622  -8.177 -30.560  0.00  0.00    -0.776 OA
ATOM     59  H   UNK d   0     -16.435  -7.484 -29.814  0.00  0.00     0.167 HD
ENDBRANCH  56  58
ENDBRANCH  55  56
ENDBRANCH  21  55
BRANCH  18  60
ATOM     60  C   UNK d   0     -16.482  -5.325 -26.786  0.00  0.00     0.151 C 
BRANCH  60  61
ATOM     61  C   UNK d   0     -15.960  -6.691 -26.630  0.00  0.00     0.143 C 
ATOM     62  O   UNK d   0     -15.473  -7.189 -25.614  0.00  0.00    -0.650 OA
BRANCH  61  63
ATOM     63  O   UNK d   0     -16.037  -7.501 -27.789  0.00  0.00    -0.776 OA
ATOM     64  H   UNK d   0     -16.643  -8.301 -27.822  0.00  0.00     0.167 HD
ENDBRANCH  61  63
ENDBRANCH  60  61
ENDBRANCH  18  60
BRANCH  14  65
ATOM     65  C   UNK d   0     -17.467  -4.825 -23.959  0.00  0.00     0.052 C 
BRANCH  65  66
ATOM     66  C   UNK d   0     -17.225  -3.359 -23.879  0.00  0.00     0.115 C 
BRANCH  66  67
ATOM     67  C   UNK d   0     -16.052  -2.867 -23.213  0.00  0.00     0.139 C 
ATOM     68  O   UNK d   0     -15.893  -1.595 -23.110  0.00  0.00    -0.650 OA
BRANCH  67  69
ATOM     69  O   UNK d   0     -15.020  -3.611 -22.641  0.00  0.00    -0.776 OA
ATOM     70  H   UNK d   0     -15.261  -4.574 -22.367  0.00  0.00     0.167 HD
ENDBRANCH  67  69
ENDBRANCH  66  67
ENDBRANCH  65  66
ENDBRANCH  14  65
ENDBRANCH   6   7
ENDBRANCH   5   6
ENDBRANCH   2   5
TORSDOF 28
ENDMDL
MODEL 3
REMARK VINA RESULT:      -9.2      1.700      7.259
REMARK  28 active torsions:
REMARK  status: ('A' for Active; 'I' for Inactive)
REMARK    1  A    between atoms: C_2  and  O_3 
REMARK    2  A    between atoms: C_2  and  C_4 
REMARK    3  A    between atoms: C_4  and  C_5 
REMARK    4  A    between atoms: C_5  and  C_6 
REMARK    5  A    between atoms: C_7  and  C_8 
REMARK    6  A    between atoms: C_8  and  C_9 
REMARK    7  A    between atoms: C_9  and  O_11 
REMARK    8  A    between atoms: C_28  and  C_29 
REMARK    9  A    between atoms: C_29  and  C_30 
REMARK   10  A    between atoms: C_30  and  O_32 
REMARK   11  A    between atoms: C_33  and  C_34 
REMARK   12  A    between atoms: C_34  and  C_35 
REMARK   13  A    between atoms: C_35  and  C_36 
REMARK   14  A    between atoms: C_36  and  O_38 
REMARK   15  A    between atoms: C_39  and  C_40 
REMARK   16  A    between atoms: C_40  and  C_41 
REMARK   17  A    between atoms: C_41  and  C_42 
REMARK   18  A    between atoms: C_42  and  O_44 
REMARK   19  A    between atoms: C_45  and  C_46 
REMARK   20  A    between atoms: C_46  and  C_47 
REMARK   21  A    between atoms: C_47  and  O_49 
REMARK   22  A    between atoms: C_50  and  C_51 
REMARK   23  A    between atoms: C_51  and  C_52 
REMARK   24  A    between atoms: C_52  and  O_54 
REMARK   25  A    between atoms: C_55  and  C_56 
REMARK   26  A    between atoms: C_56  and  C_57 
REMARK   27  A    between atoms: C_57  and  C_58 
REMARK   28  A    between atoms: C_58  and  O_60 
ROOT
ATOM      1  O   UNK d   0     -25.519  -8.302 -19.544  0.00  0.00    -0.650 OA
ATOM      2  C   UNK d   0     -24.371  -8.798 -19.499  0.00  0.00     0.139 C 
ENDROOT
BRANCH   2   3
ATOM      3  O   UNK d   0     -24.021  -9.589 -18.432  0.00  0.00    -0.776 OA
ATOM      4  H   UNK d   0     -24.223 -10.591 -18.429  0.00  0.00     0.167 HD
ENDBRANCH   2   3
BRANCH   2   5
ATOM      5  C   UNK d   0     -23.397  -8.529 -20.594  0.00  0.00     0.115 C 
BRANCH   5   6
ATOM      6  C   UNK d   0     -24.007  -7.610 -21.617  0.00  0.00     0.052 C 
BRANCH   6   7
ATOM      7  C   UNK d   0     -22.991  -7.074 -22.597  0.00  0.00    -0.020 A 
ATOM      8  C   UNK d   0     -22.116  -6.122 -22.399  0.00  0.00    -0.011 A 
ATOM      9  C   UNK d   0     -21.362  -5.947 -23.630  0.00  0.00     0.067 A 
ATOM     10  C   UNK d   0     -20.303  -5.134 -24.061  0.00  0.00     0.062 C 
ATOM     11  N   UNK d   0     -21.849  -6.831 -24.526  0.00  0.00    -0.248 NA
ATOM     12  C   UNK d   0     -19.518  -5.303 -25.207  0.00  0.00     0.041 A 
ATOM     13  N   UNK d   0     -19.851  -5.634 -26.469  0.00  0.00    -0.355 N 
ATOM     14  C   UNK d   0     -18.121  -5.176 -25.100  0.00  0.00    -0.022 A 
ATOM     15  C   UNK d   0     -18.702  -5.728 -27.164  0.00  0.00     0.042 A 
ATOM     16  H   UNK d   0     -20.880  -5.779 -26.866  0.00  0.00     0.166 HD
ATOM     17  C   UNK d   0     -18.476  -6.042 -28.519  0.00  0.00     0.062 C 
ATOM     18  C   UNK d   0     -17.595  -5.448 -26.339  0.00  0.00    -0.013 A 
ATOM     19  C   UNK d   0     -19.037  -7.037 -29.278  0.00  0.00     0.067 A 
ATOM     20  N   UNK d   0     -20.079  -7.685 -28.751  0.00  0.00    -0.248 NA
ATOM     21  C   UNK d   0     -18.780  -7.627 -30.581  0.00  0.00    -0.011 A 
ATOM     22  C   UNK d   0     -20.521  -8.657 -29.615  0.00  0.00     0.066 A 
ATOM     23  C   UNK d   0     -21.629  -9.386 -29.207  0.00  0.00     0.062 C 
ATOM     24  C   UNK d   0     -19.650  -8.577 -30.770  0.00  0.00    -0.020 A 
ATOM     25  C   UNK d   0     -22.411  -9.192 -28.058  0.00  0.00     0.041 A 
ATOM     26  N   UNK d   0     -22.078  -8.878 -26.800  0.00  0.00    -0.355 N 
ATOM     27  C   UNK d   0     -23.813  -9.315 -28.167  0.00  0.00    -0.022 A 
ATOM     28  C   UNK d   0     -23.223  -8.793 -26.103  0.00  0.00     0.042 A 
ATOM     29  H   UNK d   0     -21.043  -8.744 -26.400  0.00  0.00     0.166 HD
ATOM     30  C   UNK d   0     -23.461  -8.490 -24.754  0.00  0.00     0.062 C 
ATOM     31  C   UNK d   0     -24.335  -9.064 -26.935  0.00  0.00    -0.013 A 
ATOM     32  C   UNK d   0     -22.831  -7.539 -23.967  0.00  0.00     0.066 A 
BRANCH   8  33
ATOM     33  C   UNK d   0     -21.917  -5.346 -21.161  0.00  0.00     0.151 C 
BRANCH  33  34
ATOM     34  C   UNK d   0     -22.884  -4.244 -21.016  0.00  0.00     0.143 C 
ATOM     35  O   UNK d   0     -23.283  -3.612 -22.005  0.00  0.00    -0.650 OA
BRANCH  34  36
ATOM     36  O   UNK d   0     -23.348  -3.912 -19.763  0.00  0.00    -0.776 OA
ATOM     37  H   UNK d   0     -23.832  -4.602 -19.173  0.00  0.00     0.167 HD
ENDBRANCH  34  36
ENDBRANCH  33  34
ENDBRANCH   8  33
BRANCH  31  38
ATOM     38  C   UNK d   0     -25.801  -9.066 -26.571  0.00  0.00     0.151 C 
BRANCH  38  39
ATOM     39  C   UNK d   0     -26.475  -7.841 -26.944  0.00  0.00     0.143 C 
ATOM     40  O   UNK d   0     -26.164  -7.194 -27.960  0.00  0.00    -0.650 OA
BRANCH  39  41
ATOM     41  O   UNK d   0     -27.512  -7.358 -26.147  0.00  0.00    -0.776 OA
ATOM     42  H   UNK d   0     -28.443  -7.754 -26.310  0.00  0.00     0.167 HD
ENDBRANCH  39  41
ENDBRANCH  38  39
ENDBRANCH  31  38
BRANCH  27  43
ATOM     43  C   UNK d   0     -24.654  -9.658 -29.372  0.00  0.00     0.052 C 
BRANCH  43  44
ATOM     44  C   UNK d   0     -23.905  -9.564 -30.661  0.00  0.00     0.115 C 
BRANCH  44  45
ATOM     45  C   UNK d   0     -24.235  -8.239 -31.248  0.00  0.00     0.139 C 
ATOM     46  O   UNK d   0     -23.419  -7.731 -32.057  0.00  0.00    -0.650 OA
BRANCH  45  47
ATOM     47  O   UNK d   0     -25.392  -7.555 -30.947  0.00  0.00    -0.776 OA
ATOM     48  H   UNK d   0     -25.812  -7.553 -30.003  0.00  0.00     0.167 HD
ENDBRANCH  45  47
ENDBRANCH  44  45
ENDBRANCH  43  44
ENDBRANCH  27  43
BRANCH  24  49
ATOM     49  C   UNK d   0     -19.775  -9.412 -31.978  0.00  0.00     0.052 C 
BRANCH  49  50
ATOM     50  C   UNK d   0     -18.498 -10.173 -32.224  0.00  0.00     0.115 C 
BRANCH  50  51
ATOM     51  C   UNK d   0     -18.420 -11.528 -31.695  0.00  0.00     0.139 C 
ATOM     52  O   UNK d   0     -18.897 -11.848 -30.581  0.00  0.00    -0.650 OA
BRANCH  51  53
ATOM     53  O   UNK d   0     -17.793 -12.519 -32.436  0.00  0.00    -0.776 OA
ATOM     54  H   UNK d   0     -17.638 -13.412 -32.001  0.00  0.00     0.167 HD
ENDBRANCH  51  53
ENDBRANCH  50  51
ENDBRANCH  49  50
ENDBRANCH  24  49
BRANCH  21  55
ATOM     55  C   UNK d   0     -17.696  -7.177 -31.503  0.00  0.00     0.151 C 
BRANCH  55  56
ATOM     56  C   UNK d   0     -18.232  -6.606 -32.748  0.00  0.00     0.143 C 
ATOM     57  O   UNK d   0     -19.201  -5.821 -32.768  0.00  0.00    -0.650 OA
BRANCH  56  58
ATOM     58  O   UNK d   0     -17.618  -6.968 -33.946  0.00  0.00    -0.776 OA
ATOM     59  H   UNK d   0     -16.753  -6.443 -34.168  0.00  0.00     0.167 HD
ENDBRANCH  56  58
ENDBRANCH  55  56
ENDBRANCH  21  55
BRANCH  18  60
ATOM     60  C   UNK d   0     -16.124  -5.435 -26.675  0.00  0.00     0.151 C 
BRANCH  60  61
ATOM     61  C   UNK d   0     -15.703  -6.844 -26.697  0.00  0.00     0.143 C 
ATOM     62  O   UNK d   0     -15.777  -7.655 -25.773  0.00  0.00    -0.650 OA
BRANCH  61  63
ATOM     63  O   UNK d   0     -15.156  -7.290 -27.924  0.00  0.00    -0.776 OA
ATOM     64  H   UNK d   0     -15.118  -6.685 -28.725  0.00  0.00     0.167 HD
ENDBRANCH  61  63
ENDBRANCH  60  61
ENDBRANCH  18  60
BRANCH  14  65
ATOM     65  C   UNK d   0     -17.262  -4.726 -23.953  0.00  0.00     0.052 C 
BRANCH  65  66
ATOM     66  C   UNK d   0     -17.136  -3.247 -23.865  0.00  0.00     0.115 C 
BRANCH  66  67
ATOM     67  C   UNK d   0     -16.193  -2.665 -22.952  0.00  0.00     0.139 C 
ATOM     68  O   UNK d   0     -15.797  -1.460 -23.164  0.00  0.00    -0.650 OA
BRANCH  67  69
ATOM     69  O   UNK d   0     -15.625  -3.253 -21.822  0.00  0.00    -0.776 OA
ATOM     70  H   UNK d   0     -15.654  -2.689 -20.961  0.00  0.00     0.167 HD
ENDBRANCH  67  69
ENDBRANCH  66  67
ENDBRANCH  65  66
ENDBRANCH  14  65
ENDBRANCH   6   7
ENDBRANCH   5   6
ENDBRANCH   2   5
TORSDOF 28
ENDMDL
MODEL 4
REMARK VINA RESULT:      -9.2      1.619      7.322
REMARK  28 active torsions:
REMARK  status: ('A' for Active; 'I' for Inactive)
REMARK    1  A    between atoms: C_2  and  O_3 
REMARK    2  A    between atoms: C_2  and  C_4 
REMARK    3  A    between atoms: C_4  and  C_5 
REMARK    4  A    between atoms: C_5  and  C_6 
REMARK    5  A    between atoms: C_7  and  C_8 
REMARK    6  A    between atoms: C_8  and  C_9 
REMARK    7  A    between atoms: C_9  and  O_11 
REMARK    8  A    between atoms: C_28  and  C_29 
REMARK    9  A    between atoms: C_29  and  C_30 
REMARK   10  A    between atoms: C_30  and  O_32 
REMARK   11  A    between atoms: C_33  and  C_34 
REMARK   12  A    between atoms: C_34  and  C_35 
REMARK   13  A    between atoms: C_35  and  C_36 
REMARK   14  A    between atoms: C_36  and  O_38 
REMARK   15  A    between atoms: C_39  and  C_40 
REMARK   16  A    between atoms: C_40  and  C_41 
REMARK   17  A    between atoms: C_41  and  C_42 
REMARK   18  A    between atoms: C_42  and  O_44 
REMARK   19  A    between atoms: C_45  and  C_46 
REMARK   20  A    between atoms: C_46  and  C_47 
REMARK   21  A    between atoms: C_47  and  O_49 
REMARK   22  A    between atoms: C_50  and  C_51 
REMARK   23  A    between atoms: C_51  and  C_52 
REMARK   24  A    between atoms: C_52  and  O_54 
REMARK   25  A    between atoms: C_55  and  C_56 
REMARK   26  A    between atoms: C_56  and  C_57 
REMARK   27  A    between atoms: C_57  and  C_58 
REMARK   28  A    between atoms: C_58  and  O_60 
ROOT
ATOM      1  O   UNK d   0     -26.230  -9.666 -20.955  0.00  0.00    -0.650 OA
ATOM      2  C   UNK d   0     -26.468  -8.516 -21.387  0.00  0.00     0.139 C 
ENDROOT
BRANCH   2   3
ATOM      3  O   UNK d   0     -27.581  -8.306 -22.166  0.00  0.00    -0.776 OA
ATOM      4  H   UNK d   0     -27.968  -9.053 -22.745  0.00  0.00     0.167 HD
ENDBRANCH   2   3
BRANCH   2   5
ATOM      5  C   UNK d   0     -25.550  -7.389 -21.059  0.00  0.00     0.115 C 
BRANCH   5   6
ATOM      6  C   UNK d   0     -24.136  -7.889 -20.947  0.00  0.00     0.052 C 
BRANCH   6   7
ATOM      7  C   UNK d   0     -23.216  -7.267 -21.970  0.00  0.00    -0.020 A 
ATOM      8  C   UNK d   0     -22.338  -6.316 -21.780  0.00  0.00    -0.011 A 
ATOM      9  C   UNK d   0     -21.697  -6.041 -23.056  0.00  0.00     0.067 A 
ATOM     10  C   UNK d   0     -20.689  -5.180 -23.518  0.00  0.00     0.062 C 
ATOM     11  N   UNK d   0     -22.252  -6.866 -23.969  0.00  0.00    -0.248 NA
ATOM     12  C   UNK d   0     -20.007  -5.253 -24.737  0.00  0.00     0.041 A 
ATOM     13  N   UNK d   0     -20.447  -5.497 -25.986  0.00  0.00    -0.355 N 
ATOM     14  C   UNK d   0     -18.607  -5.109 -24.743  0.00  0.00    -0.022 A 
ATOM     15  C   UNK d   0     -19.362  -5.521 -26.783  0.00  0.00     0.042 A 
ATOM     16  H   UNK d   0     -21.505  -5.631 -26.301  0.00  0.00     0.166 HD
ATOM     17  C   UNK d   0     -19.254  -5.733 -28.172  0.00  0.00     0.062 C 
ATOM     18  C   UNK d   0     -18.190  -5.282 -26.040  0.00  0.00    -0.013 A 
ATOM     19  C   UNK d   0     -19.869  -6.681 -28.950  0.00  0.00     0.067 A 
ATOM     20  N   UNK d   0     -20.853  -7.383 -28.383  0.00  0.00    -0.248 NA
ATOM     21  C   UNK d   0     -19.722  -7.171 -30.310  0.00  0.00    -0.011 A 
ATOM     22  C   UNK d   0     -21.359  -8.298 -29.273  0.00  0.00     0.066 A 
ATOM     23  C   UNK d   0     -22.418  -9.074 -28.825  0.00  0.00     0.062 C 
ATOM     24  C   UNK d   0     -20.594  -8.120 -30.492  0.00  0.00    -0.020 A 
ATOM     25  C   UNK d   0     -23.098  -8.977 -27.601  0.00  0.00     0.041 A 
ATOM     26  N   UNK d   0     -22.658  -8.748 -26.357  0.00  0.00    -0.355 N 
ATOM     27  C   UNK d   0     -24.503  -9.116 -27.596  0.00  0.00    -0.022 A 
ATOM     28  C   UNK d   0     -23.738  -8.733 -25.559  0.00  0.00     0.042 A 
ATOM     29  H   UNK d   0     -21.594  -8.624 -26.041  0.00  0.00     0.166 HD
ATOM     30  C   UNK d   0     -23.859  -8.532 -24.175  0.00  0.00     0.062 C 
ATOM     31  C   UNK d   0     -24.916  -8.963 -26.308  0.00  0.00    -0.013 A 
ATOM     32  C   UNK d   0     -23.172  -7.630 -23.379  0.00  0.00     0.066 A 
BRANCH   8  33
ATOM     33  C   UNK d   0     -22.038  -5.628 -20.511  0.00  0.00     0.151 C 
BRANCH  33  34
ATOM     34  C   UNK d   0     -22.910  -4.464 -20.273  0.00  0.00     0.143 C 
ATOM     35  O   UNK d   0     -23.173  -3.669 -21.186  0.00  0.00    -0.650 OA
BRANCH  34  36
ATOM     36  O   UNK d   0     -23.436  -4.258 -19.018  0.00  0.00    -0.776 OA
ATOM     37  H   UNK d   0     -24.093  -4.929 -18.598  0.00  0.00     0.167 HD
ENDBRANCH  34  36
ENDBRANCH  33  34
ENDBRANCH   8  33
BRANCH  31  38
ATOM     38  C   UNK d   0     -26.344  -9.017 -25.818  0.00  0.00     0.151 C 
BRANCH  38  39
ATOM     39  C   UNK d   0     -27.008  -7.733 -25.880  0.00  0.00     0.143 C 
ATOM     40  O   UNK d   0     -27.103  -7.083 -26.936  0.00  0.00    -0.650 OA
BRANCH  39  41
ATOM     41  O   UNK d   0     -27.568  -7.193 -24.723  0.00  0.00    -0.776 OA
ATOM     42  H   UNK d   0     -27.981  -6.259 -24.802  0.00  0.00     0.167 HD
ENDBRANCH  39  41
ENDBRANCH  38  39
ENDBRANCH  31  38
BRANCH  27  43
ATOM     43  C   UNK d   0     -25.443  -9.386 -28.744  0.00  0.00     0.052 C 
BRANCH  43  44
ATOM     44  C   UNK d   0     -26.081 -10.736 -28.681  0.00  0.00     0.115 C 
BRANCH  44  45
ATOM     45  C   UNK d   0     -25.117 -11.690 -29.288  0.00  0.00     0.139 C 
ATOM     46  O   UNK d   0     -25.030 -12.840 -28.792  0.00  0.00    -0.650 OA
BRANCH  45  47
ATOM     47  O   UNK d   0     -24.326 -11.366 -30.369  0.00  0.00    -0.776 OA
ATOM     48  H   UNK d   0     -23.301 -11.256 -30.301  0.00  0.00     0.167 HD
ENDBRANCH  45  47
ENDBRANCH  44  45
ENDBRANCH  43  44
ENDBRANCH  27  43
BRANCH  24  49
ATOM     49  C   UNK d   0     -20.816  -8.868 -31.741  0.00  0.00     0.052 C 
BRANCH  49  50
ATOM     50  C   UNK d   0     -20.265 -10.265 -31.622  0.00  0.00     0.115 C 
BRANCH  50  51
ATOM     51  C   UNK d   0     -18.865 -10.460 -31.975  0.00  0.00     0.139 C 
ATOM     52  O   UNK d   0     -18.425 -10.262 -33.132  0.00  0.00    -0.650 OA
BRANCH  51  53
ATOM     53  O   UNK d   0     -17.966 -10.883 -31.008  0.00  0.00    -0.776 OA
ATOM     54  H   UNK d   0     -17.181 -11.439 -31.299  0.00  0.00     0.167 HD
ENDBRANCH  51  53
ENDBRANCH  50  51
ENDBRANCH  49  50
ENDBRANCH  24  49
BRANCH  21  55
ATOM     55  C   UNK d   0     -18.728  -6.637 -31.288  0.00  0.00     0.151 C 
BRANCH  55  56
ATOM     56  C   UNK d   0     -17.500  -7.445 -31.324  0.00  0.00     0.143 C 
ATOM     57  O   UNK d   0     -17.033  -8.008 -30.314  0.00  0.00    -0.650 OA
BRANCH  56  58
ATOM     58  O   UNK d   0     -16.844  -7.576 -32.547  0.00  0.00    -0.776 OA
ATOM     59  H   UNK d   0     -15.855  -7.266 -32.546  0.00  0.00     0.167 HD
ENDBRANCH  56  58
ENDBRANCH  55  56
ENDBRANCH  21  55
BRANCH  18  60
ATOM     60  C   UNK d   0     -16.755  -5.219 -26.502  0.00  0.00     0.151 C 
BRANCH  60  61
ATOM     61  C   UNK d   0     -16.276  -6.609 -26.521  0.00  0.00     0.143 C 
ATOM     62  O   UNK d   0     -16.132  -7.358 -25.555  0.00  0.00    -0.650 OA
BRANCH  61  63
ATOM     63  O   UNK d   0     -15.953  -7.117 -27.803  0.00  0.00    -0.776 OA
ATOM     64  H   UNK d   0     -15.875  -8.106 -27.964  0.00  0.00     0.167 HD
ENDBRANCH  61  63
ENDBRANCH  60  61
ENDBRANCH  18  60
BRANCH  14  65
ATOM     65  C   UNK d   0     -17.656  -4.728 -23.646  0.00  0.00     0.052 C 
BRANCH  65  66
ATOM     66  C   UNK d   0     -17.311  -3.281 -23.651  0.00  0.00     0.115 C 
BRANCH  66  67
ATOM     67  C   UNK d   0     -16.077  -2.841 -23.065  0.00  0.00     0.139 C 
ATOM     68  O   UNK d   0     -15.850  -1.577 -22.986  0.00  0.00    -0.650 OA
BRANCH  67  69
ATOM     69  O   UNK d   0     -15.048  -3.629 -22.549  0.00  0.00    -0.776 OA
ATOM     70  H   UNK d   0     -14.724  -3.380 -21.604  0.00  0.00     0.167 HD
ENDBRANCH  67  69
ENDBRANCH  66  67
ENDBRANCH  65  66
ENDBRANCH  14  65
ENDBRANCH   6   7
ENDBRANCH   5   6
ENDBRANCH   2   5
TORSDOF 28
ENDMDL
MODEL 5
REMARK VINA RESULT:      -8.8     30.234     34.057
REMARK  28 active torsions:
REMARK  status: ('A' for Active; 'I' for Inactive)
REMARK    1  A    between atoms: C_2  and  O_3 
REMARK    2  A    between atoms: C_2  and  C_4 
REMARK    3  A    between atoms: C_4  and  C_5 
REMARK    4  A    between atoms: C_5  and  C_6 
REMARK    5  A    between atoms: C_7  and  C_8 
REMARK    6  A    between atoms: C_8  and  C_9 
REMARK    7  A    between atoms: C_9  and  O_11 
REMARK    8  A    between atoms: C_28  and  C_29 
REMARK    9  A    between atoms: C_29  and  C_30 
REMARK   10  A    between atoms: C_30  and  O_32 
REMARK   11  A    between atoms: C_33  and  C_34 
REMARK   12  A    between atoms: C_34  and  C_35 
REMARK   13  A    between atoms: C_35  and  C_36 
REMARK   14  A    between atoms: C_36  and  O_38 
REMARK   15  A    between atoms: C_39  and  C_40 
REMARK   16  A    between atoms: C_40  and  C_41 
REMARK   17  A    between atoms: C_41  and  C_42 
REMARK   18  A    between atoms: C_42  and  O_44 
REMARK   19  A    between atoms: C_45  and  C_46 
REMARK   20  A    between atoms: C_46  and  C_47 
REMARK   21  A    between atoms: C_47  and  O_49 
REMARK   22  A    between atoms: C_50  and  C_51 
REMARK   23  A    between atoms: C_51  and  C_52 
REMARK   24  A    between atoms: C_52  and  O_54 
REMARK   25  A    between atoms: C_55  and  C_56 
REMARK   26  A    between atoms: C_56  and  C_57 
REMARK   27  A    between atoms: C_57  and  C_58 
REMARK   28  A    between atoms: C_58  and  O_60 
ROOT
ATOM      1  O   UNK d   0      -2.359 -17.448  -6.799  0.00  0.00    -0.650 OA
ATOM      2  C   UNK d   0      -1.202 -17.264  -6.360  0.00  0.00     0.139 C 
ENDROOT
BRANCH   2   3
ATOM      3  O   UNK d   0      -0.160 -17.124  -7.245  0.00  0.00    -0.776 OA
ATOM      4  H   UNK d   0      -0.302 -16.697  -8.163  0.00  0.00     0.167 HD
ENDBRANCH   2   3
BRANCH   2   5
ATOM      5  C   UNK d   0      -0.960 -17.198  -4.891  0.00  0.00     0.115 C 
BRANCH   5   6
ATOM      6  C   UNK d   0      -0.215 -18.422  -4.433  0.00  0.00     0.052 C 
BRANCH   6   7
ATOM      7  C   UNK d   0      -0.949 -19.180  -3.353  0.00  0.00    -0.020 A 
ATOM      8  C   UNK d   0      -0.705 -19.174  -2.068  0.00  0.00    -0.011 A 
ATOM      9  C   UNK d   0      -1.664 -20.060  -1.429  0.00  0.00     0.067 A 
ATOM     10  C   UNK d   0      -1.949 -20.467  -0.116  0.00  0.00     0.062 C 
ATOM     11  N   UNK d   0      -2.450 -20.568  -2.402  0.00  0.00    -0.248 NA
ATOM     12  C   UNK d   0      -3.100 -21.119   0.338  0.00  0.00     0.041 A 
ATOM     13  N   UNK d   0      -3.809 -22.136  -0.190  0.00  0.00    -0.355 N 
ATOM     14  C   UNK d   0      -3.721 -20.664   1.515  0.00  0.00    -0.022 A 
ATOM     15  C   UNK d   0      -4.869 -22.331   0.618  0.00  0.00     0.042 A 
ATOM     16  H   UNK d   0      -3.556 -22.716  -1.104  0.00  0.00     0.166 HD
ATOM     17  C   UNK d   0      -5.922 -23.264   0.534  0.00  0.00     0.062 C 
ATOM     18  C   UNK d   0      -4.848 -21.427   1.698  0.00  0.00    -0.013 A 
ATOM     19  C   UNK d   0      -6.665 -23.628  -0.559  0.00  0.00     0.067 A 
ATOM     20  N   UNK d   0      -6.233 -23.210  -1.752  0.00  0.00    -0.248 NA
ATOM     21  C   UNK d   0      -7.885 -24.385  -0.788  0.00  0.00    -0.011 A 
ATOM     22  C   UNK d   0      -7.082 -23.637  -2.743  0.00  0.00     0.066 A 
ATOM     23  C   UNK d   0      -6.730 -23.302  -4.042  0.00  0.00     0.062 C 
ATOM     24  C   UNK d   0      -8.126 -24.382  -2.068  0.00  0.00    -0.020 A 
ATOM     25  C   UNK d   0      -5.562 -22.657  -4.479  0.00  0.00     0.041 A 
ATOM     26  N   UNK d   0      -4.866 -21.638  -3.963  0.00  0.00    -0.355 N 
ATOM     27  C   UNK d   0      -4.937 -23.118  -5.658  0.00  0.00    -0.022 A 
ATOM     28  C   UNK d   0      -3.814 -21.435  -4.771  0.00  0.00     0.042 A 
ATOM     29  H   UNK d   0      -5.128 -21.049  -3.049  0.00  0.00     0.166 HD
ATOM     30  C   UNK d   0      -2.764 -20.505  -4.704  0.00  0.00     0.062 C 
ATOM     31  C   UNK d   0      -3.829 -22.351  -5.850  0.00  0.00    -0.013 A 
ATOM     32  C   UNK d   0      -2.072 -20.077  -3.583  0.00  0.00     0.066 A 
BRANCH   8  33
ATOM     33  C   UNK d   0       0.351 -18.417  -1.371  0.00  0.00     0.151 C 
BRANCH  33  34
ATOM     34  C   UNK d   0      -0.030 -17.017  -1.107  0.00  0.00     0.143 C 
ATOM     35  O   UNK d   0       0.433 -16.092  -1.789  0.00  0.00    -0.650 OA
BRANCH  34  36
ATOM     36  O   UNK d   0      -0.911 -16.738  -0.088  0.00  0.00    -0.776 OA
ATOM     37  H   UNK d   0      -0.586 -16.348   0.807  0.00  0.00     0.167 HD
ENDBRANCH  34  36
ENDBRANCH  33  34
ENDBRANCH   8  33
BRANCH  31  38
ATOM     38  C   UNK d   0      -2.837 -22.485  -6.981  0.00  0.00     0.151 C 
BRANCH  38  39
ATOM     39  C   UNK d   0      -3.182 -21.675  -8.130  0.00  0.00     0.143 C 
ATOM     40  O   UNK d   0      -2.861 -20.476  -8.219  0.00  0.00    -0.650 OA
BRANCH  39  41
ATOM     41  O   UNK d   0      -3.899 -22.245  -9.182  0.00  0.00    -0.776 OA
ATOM     42  H   UNK d   0      -4.106 -23.246  -9.110  0.00  0.00     0.167 HD
ENDBRANCH  39  41
ENDBRANCH  38  39
ENDBRANCH  31  38
BRANCH  27  43
ATOM     43  C   UNK d   0      -5.346 -24.234  -6.587  0.00  0.00     0.052 C 
BRANCH  43  44
ATOM     44  C   UNK d   0      -6.777 -24.154  -7.012  0.00  0.00     0.115 C 
BRANCH  44  45
ATOM     45  C   UNK d   0      -6.795 -24.360  -8.483  0.00  0.00     0.139 C 
ATOM     46  O   UNK d   0      -6.357 -23.438  -9.215  0.00  0.00    -0.650 OA
BRANCH  45  47
ATOM     47  O   UNK d   0      -7.263 -25.515  -9.070  0.00  0.00    -0.776 OA
ATOM     48  H   UNK d   0      -7.120 -25.734 -10.069  0.00  0.00     0.167 HD
ENDBRANCH  45  47
ENDBRANCH  44  45
ENDBRANCH  43  44
ENDBRANCH  27  43
BRANCH  24  49
ATOM     49  C   UNK d   0      -9.243 -25.064  -2.742  0.00  0.00     0.052 C 
BRANCH  49  50
ATOM     50  C   UNK d   0      -8.723 -26.005  -3.798  0.00  0.00     0.115 C 
BRANCH  50  51
ATOM     51  C   UNK d   0      -9.231 -27.370  -3.781  0.00  0.00     0.139 C 
ATOM     52  O   UNK d   0      -8.767 -28.274  -4.517  0.00  0.00    -0.650 OA
BRANCH  51  53
ATOM     53  O   UNK d   0     -10.270 -27.705  -2.927  0.00  0.00    -0.776 OA
ATOM     54  H   UNK d   0     -10.151 -27.534  -1.944  0.00  0.00     0.167 HD
ENDBRANCH  51  53
ENDBRANCH  50  51
ENDBRANCH  49  50
ENDBRANCH  24  49
BRANCH  21  55
ATOM     55  C   UNK d   0      -8.680 -25.035   0.295  0.00  0.00     0.151 C 
BRANCH  55  56
ATOM     56  C   UNK d   0      -8.398 -26.475   0.398  0.00  0.00     0.143 C 
ATOM     57  O   UNK d   0      -7.355 -26.923   0.913  0.00  0.00    -0.650 OA
BRANCH  56  58
ATOM     58  O   UNK d   0      -9.349 -27.360  -0.107  0.00  0.00    -0.776 OA
ATOM     59  H   UNK d   0      -8.960 -28.213  -0.548  0.00  0.00     0.167 HD
ENDBRANCH  56  58
ENDBRANCH  55  56
ENDBRANCH  21  55
BRANCH  18  60
ATOM     60  C   UNK d   0      -5.821 -21.272   2.840  0.00  0.00     0.151 C 
BRANCH  60  61
ATOM     61  C   UNK d   0      -6.813 -20.282   2.394  0.00  0.00     0.143 C 
ATOM     62  O   UNK d   0      -6.599 -19.256   1.749  0.00  0.00    -0.650 OA
BRANCH  61  63
ATOM     63  O   UNK d   0      -8.151 -20.564   2.760  0.00  0.00    -0.776 OA
ATOM     64  H   UNK d   0      -8.674 -21.287   2.297  0.00  0.00     0.167 HD
ENDBRANCH  61  63
ENDBRANCH  60  61
ENDBRANCH  18  60
BRANCH  14  65
ATOM     65  C   UNK d   0      -3.283 -19.639   2.522  0.00  0.00     0.052 C 
BRANCH  65  66
ATOM     66  C   UNK d   0      -2.905 -18.340   1.903  0.00  0.00     0.115 C 
BRANCH  66  67
ATOM     67  C   UNK d   0      -3.922 -17.497   1.340  0.00  0.00     0.139 C 
ATOM     68  O   UNK d   0      -3.909 -17.283   0.072  0.00  0.00    -0.650 OA
BRANCH  67  69
ATOM     69  O   UNK d   0      -4.963 -16.853   2.008  0.00  0.00    -0.776 OA
ATOM     70  H   UNK d   0      -5.650 -16.373   1.409  0.00  0.00     0.167 HD
ENDBRANCH  67  69
ENDBRANCH  66  67
ENDBRANCH  65  66
ENDBRANCH  14  65
ENDBRANCH   6   7
ENDBRANCH   5   6
ENDBRANCH   2   5
TORSDOF 28
ENDMDL
MODEL 6
REMARK VINA RESULT:      -8.8      1.735      8.480
REMARK  28 active torsions:
REMARK  status: ('A' for Active; 'I' for Inactive)
REMARK    1  A    between atoms: C_2  and  O_3 
REMARK    2  A    between atoms: C_2  and  C_4 
REMARK    3  A    between atoms: C_4  and  C_5 
REMARK    4  A    between atoms: C_5  and  C_6 
REMARK    5  A    between atoms: C_7  and  C_8 
REMARK    6  A    between atoms: C_8  and  C_9 
REMARK    7  A    between atoms: C_9  and  O_11 
REMARK    8  A    between atoms: C_28  and  C_29 
REMARK    9  A    between atoms: C_29  and  C_30 
REMARK   10  A    between atoms: C_30  and  O_32 
REMARK   11  A    between atoms: C_33  and  C_34 
REMARK   12  A    between atoms: C_34  and  C_35 
REMARK   13  A    between atoms: C_35  and  C_36 
REMARK   14  A    between atoms: C_36  and  O_38 
REMARK   15  A    between atoms: C_39  and  C_40 
REMARK   16  A    between atoms: C_40  and  C_41 
REMARK   17  A    between atoms: C_41  and  C_42 
REMARK   18  A    between atoms: C_42  and  O_44 
REMARK   19  A    between atoms: C_45  and  C_46 
REMARK   20  A    between atoms: C_46  and  C_47 
REMARK   21  A    between atoms: C_47  and  O_49 
REMARK   22  A    between atoms: C_50  and  C_51 
REMARK   23  A    between atoms: C_51  and  C_52 
REMARK   24  A    between atoms: C_52  and  O_54 
REMARK   25  A    between atoms: C_55  and  C_56 
REMARK   26  A    between atoms: C_56  and  C_57 
REMARK   27  A    between atoms: C_57  and  C_58 
REMARK   28  A    between atoms: C_58  and  O_60 
ROOT
ATOM      1  O   UNK d   0     -13.597  -5.481 -28.107  0.00  0.00    -0.650 OA
ATOM      2  C   UNK d   0     -14.483  -5.758 -27.268  0.00  0.00     0.139 C 
ENDROOT
BRANCH   2   3
ATOM      3  O   UNK d   0     -14.547  -5.046 -26.095  0.00  0.00    -0.776 OA
ATOM      4  H   UNK d   0     -13.818  -4.374 -25.845  0.00  0.00     0.167 HD
ENDBRANCH   2   3
BRANCH   2   5
ATOM      5  C   UNK d   0     -15.458  -6.852 -27.543  0.00  0.00     0.115 C 
BRANCH   5   6
ATOM      6  C   UNK d   0     -16.147  -6.612 -28.859  0.00  0.00     0.052 C 
BRANCH   6   7
ATOM      7  C   UNK d   0     -17.595  -7.040 -28.843  0.00  0.00    -0.020 A 
ATOM      8  C   UNK d   0     -18.291  -7.537 -29.833  0.00  0.00    -0.011 A 
ATOM      9  C   UNK d   0     -19.638  -7.789 -29.348  0.00  0.00     0.067 A 
ATOM     10  C   UNK d   0     -20.824  -8.317 -29.881  0.00  0.00     0.062 C 
ATOM     11  N   UNK d   0     -19.675  -7.410 -28.053  0.00  0.00    -0.248 NA
ATOM     12  C   UNK d   0     -21.955  -8.741 -29.175  0.00  0.00     0.041 A 
ATOM     13  N   UNK d   0     -22.603  -8.196 -28.128  0.00  0.00    -0.355 N 
ATOM     14  C   UNK d   0     -22.550  -9.969 -29.518  0.00  0.00    -0.022 A 
ATOM     15  C   UNK d   0     -23.589  -9.049 -27.793  0.00  0.00     0.042 A 
ATOM     16  H   UNK d   0     -22.380  -7.218 -27.647  0.00  0.00     0.166 HD
ATOM     17  C   UNK d   0     -24.561  -8.968 -26.776  0.00  0.00     0.062 C 
ATOM     18  C   UNK d   0     -23.588 -10.173 -28.642  0.00  0.00    -0.013 A 
ATOM     19  C   UNK d   0     -24.407  -8.603 -25.463  0.00  0.00     0.067 A 
ATOM     20  N   UNK d   0     -23.237  -8.060 -25.120  0.00  0.00    -0.248 NA
ATOM     21  C   UNK d   0     -25.221  -8.662 -24.260  0.00  0.00    -0.011 A 
ATOM     22  C   UNK d   0     -23.225  -7.761 -23.779  0.00  0.00     0.066 A 
ATOM     23  C   UNK d   0     -22.076  -7.153 -23.293  0.00  0.00     0.062 C 
ATOM     24  C   UNK d   0     -24.521  -8.172 -23.277  0.00  0.00    -0.020 A 
ATOM     25  C   UNK d   0     -20.957  -6.723 -24.022  0.00  0.00     0.041 A 
ATOM     26  N   UNK d   0     -20.303  -7.272 -25.053  0.00  0.00    -0.355 N 
ATOM     27  C   UNK d   0     -20.362  -5.489 -23.679  0.00  0.00    -0.022 A 
ATOM     28  C   UNK d   0     -19.314  -6.427 -25.383  0.00  0.00     0.042 A 
ATOM     29  H   UNK d   0     -20.522  -8.260 -25.527  0.00  0.00     0.166 HD
ATOM     30  C   UNK d   0     -18.335  -6.500 -26.386  0.00  0.00     0.062 C 
ATOM     31  C   UNK d   0     -19.323  -5.294 -24.536  0.00  0.00    -0.013 A 
ATOM     32  C   UNK d   0     -18.477  -6.951 -27.688  0.00  0.00     0.066 A 
BRANCH   8  33
ATOM     33  C   UNK d   0     -17.817  -7.799 -31.204  0.00  0.00     0.151 C 
BRANCH  33  34
ATOM     34  C   UNK d   0     -18.179  -6.726 -32.148  0.00  0.00     0.143 C 
ATOM     35  O   UNK d   0     -19.024  -5.871 -31.846  0.00  0.00    -0.650 OA
BRANCH  34  36
ATOM     36  O   UNK d   0     -17.569  -6.676 -33.380  0.00  0.00    -0.776 OA
ATOM     37  H   UNK d   0     -18.119  -6.575 -34.244  0.00  0.00     0.167 HD
ENDBRANCH  34  36
ENDBRANCH  33  34
ENDBRANCH   8  33
BRANCH  31  38
ATOM     38  C   UNK d   0     -18.400  -4.097 -24.560  0.00  0.00     0.151 C 
BRANCH  38  39
ATOM     39  C   UNK d   0     -17.332  -4.192 -23.587  0.00  0.00     0.143 C 
ATOM     40  O   UNK d   0     -17.206  -3.377 -22.657  0.00  0.00    -0.650 OA
BRANCH  39  41
ATOM     41  O   UNK d   0     -16.406  -5.230 -23.685  0.00  0.00    -0.776 OA
ATOM     42  H   UNK d   0     -15.426  -4.962 -23.820  0.00  0.00     0.167 HD
ENDBRANCH  39  41
ENDBRANCH  38  39
ENDBRANCH  31  38
BRANCH  27  43
ATOM     43  C   UNK d   0     -20.738  -4.513 -22.592  0.00  0.00     0.052 C 
BRANCH  43  44
ATOM     44  C   UNK d   0     -22.028  -3.805 -22.852  0.00  0.00     0.115 C 
BRANCH  44  45
ATOM     45  C   UNK d   0     -22.829  -3.910 -21.605  0.00  0.00     0.139 C 
ATOM     46  O   UNK d   0     -22.250  -4.300 -20.561  0.00  0.00    -0.650 OA
BRANCH  45  47
ATOM     47  O   UNK d   0     -24.169  -3.594 -21.549  0.00  0.00    -0.776 OA
ATOM     48  H   UNK d   0     -24.648  -3.339 -20.670  0.00  0.00     0.167 HD
ENDBRANCH  45  47
ENDBRANCH  44  45
ENDBRANCH  43  44
ENDBRANCH  27  43
BRANCH  24  49
ATOM     49  C   UNK d   0     -24.976  -8.006 -21.886  0.00  0.00     0.052 C 
BRANCH  49  50
ATOM     50  C   UNK d   0     -24.901  -9.319 -21.150  0.00  0.00     0.115 C 
BRANCH  50  51
ATOM     51  C   UNK d   0     -23.952  -9.411 -20.049  0.00  0.00     0.139 C 
ATOM     52  O   UNK d   0     -23.994 -10.327 -19.194  0.00  0.00    -0.650 OA
BRANCH  51  53
ATOM     53  O   UNK d   0     -22.954  -8.457 -19.922  0.00  0.00    -0.776 OA
ATOM     54  H   UNK d   0     -22.395  -8.243 -20.729  0.00  0.00     0.167 HD
ENDBRANCH  51  53
ENDBRANCH  50  51
ENDBRANCH  49  50
ENDBRANCH  24  49
BRANCH  21  55
ATOM     55  C   UNK d   0     -26.613  -9.198 -24.219  0.00  0.00     0.151 C 
BRANCH  55  56
ATOM     56  C   UNK d   0     -27.618  -8.139 -24.403  0.00  0.00     0.143 C 
ATOM     57  O   UNK d   0     -27.718  -7.481 -25.457  0.00  0.00    -0.650 OA
BRANCH  56  58
ATOM     58  O   UNK d   0     -28.485  -7.876 -23.345  0.00  0.00    -0.776 OA
ATOM     59  H   UNK d   0     -28.449  -6.906 -22.983  0.00  0.00     0.167 HD
ENDBRANCH  56  58
ENDBRANCH  55  56
ENDBRANCH  21  55
BRANCH  18  60
ATOM     60  C   UNK d   0     -24.496 -11.378 -28.643  0.00  0.00     0.151 C 
BRANCH  60  61
ATOM     61  C   UNK d   0     -25.667 -10.999 -29.448  0.00  0.00     0.143 C 
ATOM     62  O   UNK d   0     -26.365  -9.993 -29.316  0.00  0.00    -0.650 OA
BRANCH  61  63
ATOM     63  O   UNK d   0     -26.007 -11.906 -30.481  0.00  0.00    -0.776 OA
ATOM     64  H   UNK d   0     -25.915 -11.649 -31.448  0.00  0.00     0.167 HD
ENDBRANCH  61  63
ENDBRANCH  60  61
ENDBRANCH  18  60
BRANCH  14  65
ATOM     65  C   UNK d   0     -22.278 -10.906 -30.660  0.00  0.00     0.052 C 
BRANCH  65  66
ATOM     66  C   UNK d   0     -22.976 -10.512 -31.914  0.00  0.00     0.115 C 
BRANCH  66  67
ATOM     67  C   UNK d   0     -22.439  -9.456 -32.725  0.00  0.00     0.139 C 
ATOM     68  O   UNK d   0     -21.219  -9.544 -33.120  0.00  0.00    -0.650 OA
BRANCH  67  69
ATOM     69  O   UNK d   0     -23.088  -8.300 -33.160  0.00  0.00    -0.776 OA
ATOM     70  H   UNK d   0     -22.963  -8.064 -34.155  0.00  0.00     0.167 HD
ENDBRANCH  67  69
ENDBRANCH  66  67
ENDBRANCH  65  66
ENDBRANCH  14  65
ENDBRANCH   6   7
ENDBRANCH   5   6
ENDBRANCH   2   5
TORSDOF 28
ENDMDL
MODEL 7
REMARK VINA RESULT:      -8.6     30.358     34.124
REMARK  28 active torsions:
REMARK  status: ('A' for Active; 'I' for Inactive)
REMARK    1  A    between atoms: C_2  and  O_3 
REMARK    2  A    between atoms: C_2  and  C_4 
REMARK    3  A    between atoms: C_4  and  C_5 
REMARK    4  A    between atoms: C_5  and  C_6 
REMARK    5  A    between atoms: C_7  and  C_8 
REMARK    6  A    between atoms: C_8  and  C_9 
REMARK    7  A    between atoms: C_9  and  O_11 
REMARK    8  A    between atoms: C_28  and  C_29 
REMARK    9  A    between atoms: C_29  and  C_30 
REMARK   10  A    between atoms: C_30  and  O_32 
REMARK   11  A    between atoms: C_33  and  C_34 
REMARK   12  A    between atoms: C_34  and  C_35 
REMARK   13  A    between atoms: C_35  and  C_36 
REMARK   14  A    between atoms: C_36  and  O_38 
REMARK   15  A    between atoms: C_39  and  C_40 
REMARK   16  A    between atoms: C_40  and  C_41 
REMARK   17  A    between atoms: C_41  and  C_42 
REMARK   18  A    between atoms: C_42  and  O_44 
REMARK   19  A    between atoms: C_45  and  C_46 
REMARK   20  A    between atoms: C_46  and  C_47 
REMARK   21  A    between atoms: C_47  and  O_49 
REMARK   22  A    between atoms: C_50  and  C_51 
REMARK   23  A    between atoms: C_51  and  C_52 
REMARK   24  A    between atoms: C_52  and  O_54 
REMARK   25  A    between atoms: C_55  and  C_56 
REMARK   26  A    between atoms: C_56  and  C_57 
REMARK   27  A    between atoms: C_57  and  C_58 
REMARK   28  A    between atoms: C_58  and  O_60 
ROOT
ATOM      1  O   UNK d   0       2.158 -16.838  -0.339  0.00  0.00    -0.650 OA
ATOM      2  C   UNK d   0       1.216 -16.433  -1.055  0.00  0.00     0.139 C 
ENDROOT
BRANCH   2   3
ATOM      3  O   UNK d   0       1.379 -15.288  -1.798  0.00  0.00    -0.776 OA
ATOM      4  H   UNK d   0       1.656 -14.408  -1.357  0.00  0.00     0.167 HD
ENDBRANCH   2   3
BRANCH   2   5
ATOM      5  C   UNK d   0      -0.068 -17.187  -1.100  0.00  0.00     0.115 C 
BRANCH   5   6
ATOM      6  C   UNK d   0       0.197 -18.647  -1.350  0.00  0.00     0.052 C 
BRANCH   6   7
ATOM      7  C   UNK d   0      -0.887 -19.303  -2.172  0.00  0.00    -0.020 A 
ATOM      8  C   UNK d   0      -1.006 -19.313  -3.475  0.00  0.00    -0.011 A 
ATOM      9  C   UNK d   0      -2.208 -20.059  -3.806  0.00  0.00     0.067 A 
ATOM     10  C   UNK d   0      -2.869 -20.443  -4.983  0.00  0.00     0.062 C 
ATOM     11  N   UNK d   0      -2.764 -20.461  -2.643  0.00  0.00    -0.248 NA
ATOM     12  C   UNK d   0      -3.877 -21.406  -5.113  0.00  0.00     0.041 A 
ATOM     13  N   UNK d   0      -4.959 -21.664  -4.356  0.00  0.00    -0.355 N 
ATOM     14  C   UNK d   0      -3.793 -22.341  -6.161  0.00  0.00    -0.022 A 
ATOM     15  C   UNK d   0      -5.560 -22.743  -4.890  0.00  0.00     0.042 A 
ATOM     16  H   UNK d   0      -5.303 -21.082  -3.472  0.00  0.00     0.166 HD
ATOM     17  C   UNK d   0      -6.725 -23.430  -4.495  0.00  0.00     0.062 C 
ATOM     18  C   UNK d   0      -4.857 -23.197  -6.023  0.00  0.00    -0.013 A 
ATOM     19  C   UNK d   0      -7.115 -23.814  -3.237  0.00  0.00     0.067 A 
ATOM     20  N   UNK d   0      -6.420 -23.317  -2.210  0.00  0.00    -0.248 NA
ATOM     21  C   UNK d   0      -8.138 -24.683  -2.680  0.00  0.00    -0.011 A 
ATOM     22  C   UNK d   0      -6.914 -23.799  -1.023  0.00  0.00     0.066 A 
ATOM     23  C   UNK d   0      -6.305 -23.331   0.132  0.00  0.00     0.062 C 
ATOM     24  C   UNK d   0      -8.012 -24.673  -1.384  0.00  0.00    -0.020 A 
ATOM     25  C   UNK d   0      -5.303 -22.355   0.243  0.00  0.00     0.041 A 
ATOM     26  N   UNK d   0      -4.219 -22.108  -0.502  0.00  0.00    -0.355 N 
ATOM     27  C   UNK d   0      -5.390 -21.413   1.291  0.00  0.00    -0.022 A 
ATOM     28  C   UNK d   0      -3.613 -21.037   0.035  0.00  0.00     0.042 A 
ATOM     29  H   UNK d   0      -3.869 -22.699  -1.383  0.00  0.00     0.166 HD
ATOM     30  C   UNK d   0      -2.449 -20.349  -0.343  0.00  0.00     0.062 C 
ATOM     31  C   UNK d   0      -4.325 -20.575   1.167  0.00  0.00    -0.013 A 
ATOM     32  C   UNK d   0      -2.016 -20.038  -1.623  0.00  0.00     0.066 A 
BRANCH   8  33
ATOM     33  C   UNK d   0      -0.097 -18.684  -4.451  0.00  0.00     0.151 C 
BRANCH  33  34
ATOM     34  C   UNK d   0      -0.469 -17.292  -4.762  0.00  0.00     0.143 C 
ATOM     35  O   UNK d   0       0.262 -16.348  -4.430  0.00  0.00    -0.650 OA
BRANCH  34  36
ATOM     36  O   UNK d   0      -1.647 -17.040  -5.427  0.00  0.00    -0.776 OA
ATOM     37  H   UNK d   0      -2.244 -16.241  -5.173  0.00  0.00     0.167 HD
ENDBRANCH  34  36
ENDBRANCH  33  34
ENDBRANCH   8  33
BRANCH  31  38
ATOM     38  C   UNK d   0      -4.008 -19.398   2.060  0.00  0.00     0.151 C 
BRANCH  38  39
ATOM     39  C   UNK d   0      -4.488 -18.142   1.524  0.00  0.00     0.143 C 
ATOM     40  O   UNK d   0      -4.011 -17.046   1.869  0.00  0.00    -0.650 OA
BRANCH  39  41
ATOM     41  O   UNK d   0      -5.521 -18.145   0.588  0.00  0.00    -0.776 OA
ATOM     42  H   UNK d   0      -5.480 -18.863  -0.143  0.00  0.00     0.167 HD
ENDBRANCH  39  41
ENDBRANCH  38  39
ENDBRANCH  31  38
BRANCH  27  43
ATOM     43  C   UNK d   0      -6.424 -21.287   2.382  0.00  0.00     0.052 C 
BRANCH  43  44
ATOM     44  C   UNK d   0      -6.979 -22.602   2.826  0.00  0.00     0.115 C 
BRANCH  44  45
ATOM     45  C   UNK d   0      -8.443 -22.411   2.993  0.00  0.00     0.139 C 
ATOM     46  O   UNK d   0      -8.838 -21.607   3.874  0.00  0.00    -0.650 OA
BRANCH  45  47
ATOM     47  O   UNK d   0      -9.376 -23.070   2.222  0.00  0.00    -0.776 OA
ATOM     48  H   UNK d   0      -9.177 -23.963   1.743  0.00  0.00     0.167 HD
ENDBRANCH  45  47
ENDBRANCH  44  45
ENDBRANCH  43  44
ENDBRANCH  27  43
BRANCH  24  49
ATOM     49  C   UNK d   0      -8.870 -25.387  -0.423  0.00  0.00     0.052 C 
BRANCH  49  50
ATOM     50  C   UNK d   0      -8.028 -26.073   0.622  0.00  0.00     0.115 C 
BRANCH  50  51
ATOM     51  C   UNK d   0      -6.893 -26.856   0.153  0.00  0.00     0.139 C 
ATOM     52  O   UNK d   0      -5.781 -26.850   0.733  0.00  0.00    -0.650 OA
BRANCH  51  53
ATOM     53  O   UNK d   0      -7.025 -27.644  -0.980  0.00  0.00    -0.776 OA
ATOM     54  H   UNK d   0      -6.229 -27.743  -1.585  0.00  0.00     0.167 HD
ENDBRANCH  51  53
ENDBRANCH  50  51
ENDBRANCH  49  50
ENDBRANCH  24  49
BRANCH  21  55
ATOM     55  C   UNK d   0      -9.138 -25.428  -3.500  0.00  0.00     0.151 C 
BRANCH  55  56
ATOM     56  C   UNK d   0      -8.533 -26.572  -4.201  0.00  0.00     0.143 C 
ATOM     57  O   UNK d   0      -8.140 -26.509  -5.382  0.00  0.00    -0.650 OA
BRANCH  56  58
ATOM     58  O   UNK d   0      -8.402 -27.768  -3.497  0.00  0.00    -0.776 OA
ATOM     59  H   UNK d   0      -8.781 -28.602  -3.981  0.00  0.00     0.167 HD
ENDBRANCH  56  58
ENDBRANCH  55  56
ENDBRANCH  21  55
BRANCH  18  60
ATOM     60  C   UNK d   0      -5.151 -24.364  -6.933  0.00  0.00     0.151 C 
BRANCH  60  61
ATOM     61  C   UNK d   0      -6.141 -23.877  -7.907  0.00  0.00     0.143 C 
ATOM     62  O   UNK d   0      -7.361 -23.811  -7.754  0.00  0.00    -0.650 OA
BRANCH  61  63
ATOM     63  O   UNK d   0      -5.607 -23.445  -9.144  0.00  0.00    -0.776 OA
ATOM     64  H   UNK d   0      -5.855 -23.902 -10.004  0.00  0.00     0.167 HD
ENDBRANCH  61  63
ENDBRANCH  60  61
ENDBRANCH  18  60
BRANCH  14  65
ATOM     65  C   UNK d   0      -2.848 -22.427  -7.326  0.00  0.00     0.052 C 
BRANCH  65  66
ATOM     66  C   UNK d   0      -2.894 -21.226  -8.202  0.00  0.00     0.115 C 
BRANCH  66  67
ATOM     67  C   UNK d   0      -1.830 -20.984  -9.135  0.00  0.00     0.139 C 
ATOM     68  O   UNK d   0      -2.024 -21.267 -10.374  0.00  0.00    -0.650 OA
BRANCH  67  69
ATOM     69  O   UNK d   0      -0.564 -20.464  -8.869  0.00  0.00    -0.776 OA
ATOM     70  H   UNK d   0       0.194 -21.156  -8.774  0.00  0.00     0.167 HD
ENDBRANCH  67  69
ENDBRANCH  66  67
ENDBRANCH  65  66
ENDBRANCH  14  65
ENDBRANCH   6   7
ENDBRANCH   5   6
ENDBRANCH   2   5
TORSDOF 28
ENDMDL
MODEL 8
REMARK VINA RESULT:      -8.6      1.886      8.078
REMARK  28 active torsions:
REMARK  status: ('A' for Active; 'I' for Inactive)
REMARK    1  A    between atoms: C_2  and  O_3 
REMARK    2  A    between atoms: C_2  and  C_4 
REMARK    3  A    between atoms: C_4  and  C_5 
REMARK    4  A    between atoms: C_5  and  C_6 
REMARK    5  A    between atoms: C_7  and  C_8 
REMARK    6  A    between atoms: C_8  and  C_9 
REMARK    7  A    between atoms: C_9  and  O_11 
REMARK    8  A    between atoms: C_28  and  C_29 
REMARK    9  A    between atoms: C_29  and  C_30 
REMARK   10  A    between atoms: C_30  and  O_32 
REMARK   11  A    between atoms: C_33  and  C_34 
REMARK   12  A    between atoms: C_34  and  C_35 
REMARK   13  A    between atoms: C_35  and  C_36 
REMARK   14  A    between atoms: C_36  and  O_38 
REMARK   15  A    between atoms: C_39  and  C_40 
REMARK   16  A    between atoms: C_40  and  C_41 
REMARK   17  A    between atoms: C_41  and  C_42 
REMARK   18  A    between atoms: C_42  and  O_44 
REMARK   19  A    between atoms: C_45  and  C_46 
REMARK   20  A    between atoms: C_46  and  C_47 
REMARK   21  A    between atoms: C_47  and  O_49 
REMARK   22  A    between atoms: C_50  and  C_51 
REMARK   23  A    between atoms: C_51  and  C_52 
REMARK   24  A    between atoms: C_52  and  O_54 
REMARK   25  A    between atoms: C_55  and  C_56 
REMARK   26  A    between atoms: C_56  and  C_57 
REMARK   27  A    between atoms: C_57  and  C_58 
REMARK   28  A    between atoms: C_58  and  O_60 
ROOT
ATOM      1  O   UNK d   0     -27.486  -7.964 -26.937  0.00  0.00    -0.650 OA
ATOM      2  C   UNK d   0     -27.622  -8.924 -26.146  0.00  0.00     0.139 C 
ENDROOT
BRANCH   2   3
ATOM      3  O   UNK d   0     -28.611  -8.876 -25.192  0.00  0.00    -0.776 OA
ATOM      4  H   UNK d   0     -29.093  -8.001 -24.975  0.00  0.00     0.167 HD
ENDBRANCH   2   3
BRANCH   2   5
ATOM      5  C   UNK d   0     -26.718 -10.105 -26.239  0.00  0.00     0.115 C 
BRANCH   5   6
ATOM      6  C   UNK d   0     -26.413 -10.410 -27.681  0.00  0.00     0.052 C 
BRANCH   6   7
ATOM      7  C   UNK d   0     -24.974 -10.131 -28.042  0.00  0.00    -0.020 A 
ATOM      8  C   UNK d   0     -24.298 -10.610 -29.055  0.00  0.00    -0.011 A 
ATOM      9  C   UNK d   0     -22.951 -10.068 -28.988  0.00  0.00     0.067 A 
ATOM     10  C   UNK d   0     -21.781 -10.164 -29.757  0.00  0.00     0.062 C 
ATOM     11  N   UNK d   0     -22.893  -9.273 -27.898  0.00  0.00    -0.248 NA
ATOM     12  C   UNK d   0     -20.651  -9.341 -29.687  0.00  0.00     0.041 A 
ATOM     13  N   UNK d   0     -19.982  -8.842 -28.631  0.00  0.00    -0.355 N 
ATOM     14  C   UNK d   0     -20.084  -8.862 -30.882  0.00  0.00    -0.022 A 
ATOM     15  C   UNK d   0     -19.009  -8.053 -29.124  0.00  0.00     0.042 A 
ATOM     16  H   UNK d   0     -20.181  -9.059 -27.558  0.00  0.00     0.166 HD
ATOM     17  C   UNK d   0     -18.025  -7.293 -28.461  0.00  0.00     0.062 C 
ATOM     18  C   UNK d   0     -19.042  -8.040 -30.532  0.00  0.00    -0.013 A 
ATOM     19  C   UNK d   0     -18.157  -6.477 -27.367  0.00  0.00     0.067 A 
ATOM     20  N   UNK d   0     -19.314  -6.540 -26.702  0.00  0.00    -0.248 NA
ATOM     21  C   UNK d   0     -17.333  -5.485 -26.698  0.00  0.00    -0.011 A 
ATOM     22  C   UNK d   0     -19.305  -5.661 -25.647  0.00  0.00     0.066 A 
ATOM     23  C   UNK d   0     -20.437  -5.650 -24.844  0.00  0.00     0.062 C 
ATOM     24  C   UNK d   0     -18.012  -5.008 -25.695  0.00  0.00    -0.020 A 
ATOM     25  C   UNK d   0     -21.556  -6.494 -24.923  0.00  0.00     0.041 A 
ATOM     26  N   UNK d   0     -22.230  -6.977 -25.973  0.00  0.00    -0.355 N 
ATOM     27  C   UNK d   0     -22.122  -6.978 -23.724  0.00  0.00    -0.022 A 
ATOM     28  C   UNK d   0     -23.206  -7.758 -25.483  0.00  0.00     0.042 A 
ATOM     29  H   UNK d   0     -22.036  -6.750 -27.050  0.00  0.00     0.166 HD
ATOM     30  C   UNK d   0     -24.198  -8.512 -26.131  0.00  0.00     0.062 C 
ATOM     31  C   UNK d   0     -23.167  -7.779 -24.069  0.00  0.00    -0.013 A 
ATOM     32  C   UNK d   0     -24.078  -9.268 -27.286  0.00  0.00     0.066 A 
BRANCH   8  33
ATOM     33  C   UNK d   0     -24.792 -11.539 -30.089  0.00  0.00     0.151 C 
BRANCH  33  34
ATOM     34  C   UNK d   0     -24.649 -12.953 -29.700  0.00  0.00     0.143 C 
ATOM     35  O   UNK d   0     -24.654 -13.289 -28.507  0.00  0.00    -0.650 OA
BRANCH  34  36
ATOM     36  O   UNK d   0     -24.509 -13.912 -30.677  0.00  0.00    -0.776 OA
ATOM     37  H   UNK d   0     -23.638 -14.000 -31.217  0.00  0.00     0.167 HD
ENDBRANCH  34  36
ENDBRANCH  33  34
ENDBRANCH   8  33
BRANCH  31  38
ATOM     38  C   UNK d   0     -24.066  -8.531 -23.116  0.00  0.00     0.151 C 
BRANCH  38  39
ATOM     39  C   UNK d   0     -25.199  -7.745 -22.675  0.00  0.00     0.143 C 
ATOM     40  O   UNK d   0     -25.157  -7.029 -21.658  0.00  0.00    -0.650 OA
BRANCH  39  41
ATOM     41  O   UNK d   0     -26.386  -7.781 -23.406  0.00  0.00    -0.776 OA
ATOM     42  H   UNK d   0     -26.523  -8.588 -24.023  0.00  0.00     0.167 HD
ENDBRANCH  39  41
ENDBRANCH  38  39
ENDBRANCH  31  38
BRANCH  27  43
ATOM     43  C   UNK d   0     -21.716  -6.710 -22.296  0.00  0.00     0.052 C 
BRANCH  43  44
ATOM     44  C   UNK d   0     -21.652  -5.254 -21.963  0.00  0.00     0.115 C 
BRANCH  44  45
ATOM     45  C   UNK d   0     -22.670  -5.015 -20.907  0.00  0.00     0.139 C 
ATOM     46  O   UNK d   0     -22.371  -5.302 -19.722  0.00  0.00    -0.650 OA
BRANCH  45  47
ATOM     47  O   UNK d   0     -23.915  -4.489 -21.176  0.00  0.00    -0.776 OA
ATOM     48  H   UNK d   0     -24.181  -3.523 -20.926  0.00  0.00     0.167 HD
ENDBRANCH  45  47
ENDBRANCH  44  45
ENDBRANCH  43  44
ENDBRANCH  27  43
BRANCH  24  49
ATOM     49  C   UNK d   0     -17.540  -4.005 -24.725  0.00  0.00     0.052 C 
BRANCH  49  50
ATOM     50  C   UNK d   0     -16.623  -4.645 -23.714  0.00  0.00     0.115 C 
BRANCH  50  51
ATOM     51  C   UNK d   0     -15.435  -3.896 -23.326  0.00  0.00     0.139 C 
ATOM     52  O   UNK d   0     -15.473  -2.682 -23.012  0.00  0.00    -0.650 OA
BRANCH  51  53
ATOM     53  O   UNK d   0     -14.202  -4.530 -23.298  0.00  0.00    -0.776 OA
ATOM     54  H   UNK d   0     -13.405  -4.005 -22.983  0.00  0.00     0.167 HD
ENDBRANCH  51  53
ENDBRANCH  50  51
ENDBRANCH  49  50
ENDBRANCH  24  49
BRANCH  21  55
ATOM     55  C   UNK d   0     -15.951  -5.120 -27.128  0.00  0.00     0.151 C 
BRANCH  55  56
ATOM     56  C   UNK d   0     -14.928  -5.913 -26.428  0.00  0.00     0.143 C 
ATOM     57  O   UNK d   0     -13.828  -5.439 -26.080  0.00  0.00    -0.650 OA
BRANCH  56  58
ATOM     58  O   UNK d   0     -15.219  -7.247 -26.149  0.00  0.00    -0.776 OA
ATOM     59  H   UNK d   0     -15.737  -7.745 -26.895  0.00  0.00     0.167 HD
ENDBRANCH  56  58
ENDBRANCH  55  56
ENDBRANCH  21  55
BRANCH  18  60
ATOM     60  C   UNK d   0     -18.157  -7.303 -31.507  0.00  0.00     0.151 C 
BRANCH  60  61
ATOM     61  C   UNK d   0     -18.974  -6.204 -32.042  0.00  0.00     0.143 C 
ATOM     62  O   UNK d   0     -19.745  -5.478 -31.414  0.00  0.00    -0.650 OA
BRANCH  61  63
ATOM     63  O   UNK d   0     -18.840  -5.976 -33.433  0.00  0.00    -0.776 OA
ATOM     64  H   UNK d   0     -19.616  -6.108 -34.057  0.00  0.00     0.167 HD
ENDBRANCH  61  63
ENDBRANCH  60  61
ENDBRANCH  18  60
BRANCH  14  65
ATOM     65  C   UNK d   0     -20.386  -9.197 -32.315  0.00  0.00     0.052 C 
BRANCH  65  66
ATOM     66  C   UNK d   0     -21.640  -8.566 -32.807  0.00  0.00     0.115 C 
BRANCH  66  67
ATOM     67  C   UNK d   0     -22.854  -9.331 -32.848  0.00  0.00     0.139 C 
ATOM     68  O   UNK d   0     -23.975  -8.711 -32.730  0.00  0.00    -0.650 OA
BRANCH  67  69
ATOM     69  O   UNK d   0     -22.988 -10.710 -33.002  0.00  0.00    -0.776 OA
ATOM     70  H   UNK d   0     -23.799 -11.022 -33.556  0.00  0.00     0.167 HD
ENDBRANCH  67  69
ENDBRANCH  66  67
ENDBRANCH  65  66
ENDBRANCH  14  65
ENDBRANCH   6   7
ENDBRANCH   5   6
ENDBRANCH   2   5
TORSDOF 28
ENDMDL
MODEL 9
REMARK VINA RESULT:      -8.6      1.672      8.760
REMARK  28 active torsions:
REMARK  status: ('A' for Active; 'I' for Inactive)
REMARK    1  A    between atoms: C_2  and  O_3 
REMARK    2  A    between atoms: C_2  and  C_4 
REMARK    3  A    between atoms: C_4  and  C_5 
REMARK    4  A    between atoms: C_5  and  C_6 
REMARK    5  A    between atoms: C_7  and  C_8 
REMARK    6  A    between atoms: C_8  and  C_9 
REMARK    7  A    between atoms: C_9  and  O_11 
REMARK    8  A    between atoms: C_28  and  C_29 
REMARK    9  A    between atoms: C_29  and  C_30 
REMARK   10  A    between atoms: C_30  and  O_32 
REMARK   11  A    between atoms: C_33  and  C_34 
REMARK   12  A    between atoms: C_34  and  C_35 
REMARK   13  A    between atoms: C_35  and  C_36 
REMARK   14  A    between atoms: C_36  and  O_38 
REMARK   15  A    between atoms: C_39  and  C_40 
REMARK   16  A    between atoms: C_40  and  C_41 
REMARK   17  A    between atoms: C_41  and  C_42 
REMARK   18  A    between atoms: C_42  and  O_44 
REMARK   19  A    between atoms: C_45  and  C_46 
REMARK   20  A    between atoms: C_46  and  C_47 
REMARK   21  A    between atoms: C_47  and  O_49 
REMARK   22  A    between atoms: C_50  and  C_51 
REMARK   23  A    between atoms: C_51  and  C_52 
REMARK   24  A    between atoms: C_52  and  O_54 
REMARK   25  A    between atoms: C_55  and  C_56 
REMARK   26  A    between atoms: C_56  and  C_57 
REMARK   27  A    between atoms: C_57  and  C_58 
REMARK   28  A    between atoms: C_58  and  O_60 
ROOT
ATOM      1  O   UNK d   0     -14.095  -5.268 -26.705  0.00  0.00    -0.650 OA
ATOM      2  C   UNK d   0     -14.308  -6.008 -27.691  0.00  0.00     0.139 C 
ENDROOT
BRANCH   2   3
ATOM      3  O   UNK d   0     -13.299  -6.228 -28.598  0.00  0.00    -0.776 OA
ATOM      4  H   UNK d   0     -13.227  -7.114 -29.103  0.00  0.00     0.167 HD
ENDBRANCH   2   3
BRANCH   2   5
ATOM      5  C   UNK d   0     -15.644  -6.642 -27.877  0.00  0.00     0.115 C 
BRANCH   5   6
ATOM      6  C   UNK d   0     -16.529  -5.751 -28.705  0.00  0.00     0.052 C 
BRANCH   6   7
ATOM      7  C   UNK d   0     -17.957  -6.239 -28.760  0.00  0.00    -0.020 A 
ATOM      8  C   UNK d   0     -18.635  -6.607 -29.816  0.00  0.00    -0.011 A 
ATOM      9  C   UNK d   0     -19.968  -6.988 -29.380  0.00  0.00     0.067 A 
ATOM     10  C   UNK d   0     -21.132  -7.478 -29.991  0.00  0.00     0.062 C 
ATOM     11  N   UNK d   0     -20.015  -6.816 -28.042  0.00  0.00    -0.248 NA
ATOM     12  C   UNK d   0     -22.241  -8.056 -29.362  0.00  0.00     0.041 A 
ATOM     13  N   UNK d   0     -22.907  -7.707 -28.245  0.00  0.00    -0.355 N 
ATOM     14  C   UNK d   0     -22.784  -9.240 -29.893  0.00  0.00    -0.022 A 
ATOM     15  C   UNK d   0     -23.854  -8.645 -28.049  0.00  0.00     0.042 A 
ATOM     16  H   UNK d   0     -22.725  -6.807 -27.619  0.00  0.00     0.166 HD
ATOM     17  C   UNK d   0     -24.825  -8.764 -27.035  0.00  0.00     0.062 C 
ATOM     18  C   UNK d   0     -23.807  -9.622 -29.062  0.00  0.00    -0.013 A 
ATOM     19  C   UNK d   0     -24.681  -8.599 -25.680  0.00  0.00     0.067 A 
ATOM     20  N   UNK d   0     -23.534  -8.066 -25.254  0.00  0.00    -0.248 NA
ATOM     21  C   UNK d   0     -25.487  -8.879 -24.503  0.00  0.00    -0.011 A 
ATOM     22  C   UNK d   0     -23.530  -7.977 -23.884  0.00  0.00     0.066 A 
ATOM     23  C   UNK d   0     -22.407  -7.403 -23.306  0.00  0.00     0.062 C 
ATOM     24  C   UNK d   0     -24.805  -8.517 -23.455  0.00  0.00    -0.020 A 
ATOM     25  C   UNK d   0     -21.309  -6.817 -23.957  0.00  0.00     0.041 A 
ATOM     26  N   UNK d   0     -20.637  -7.172 -25.058  0.00  0.00    -0.355 N 
ATOM     27  C   UNK d   0     -20.768  -5.626 -23.426  0.00  0.00    -0.022 A 
ATOM     28  C   UNK d   0     -19.687  -6.244 -25.251  0.00  0.00     0.042 A 
ATOM     29  H   UNK d   0     -20.815  -8.083 -25.681  0.00  0.00     0.166 HD
ATOM     30  C   UNK d   0     -18.709  -6.117 -26.250  0.00  0.00     0.062 C 
ATOM     31  C   UNK d   0     -19.741  -5.256 -24.239  0.00  0.00    -0.013 A 
ATOM     32  C   UNK d   0     -18.837  -6.367 -27.607  0.00  0.00     0.066 A 
BRANCH   8  33
ATOM     33  C   UNK d   0     -18.156  -6.632 -31.211  0.00  0.00     0.151 C 
BRANCH  33  34
ATOM     34  C   UNK d   0     -17.503  -7.905 -31.566  0.00  0.00     0.143 C 
ATOM     35  O   UNK d   0     -17.158  -8.139 -32.733  0.00  0.00    -0.650 OA
BRANCH  34  36
ATOM     36  O   UNK d   0     -17.278  -8.845 -30.588  0.00  0.00    -0.776 OA
ATOM     37  H   UNK d   0     -16.595  -9.604 -30.723  0.00  0.00     0.167 HD
ENDBRANCH  34  36
ENDBRANCH  33  34
ENDBRANCH   8  33
BRANCH  31  38
ATOM     38  C   UNK d   0     -18.871  -4.031 -24.075  0.00  0.00     0.151 C 
BRANCH  38  39
ATOM     39  C   UNK d   0     -17.701  -4.279 -23.260  0.00  0.00     0.143 C 
ATOM     40  O   UNK d   0     -16.762  -4.997 -23.645  0.00  0.00    -0.650 OA
BRANCH  39  41
ATOM     41  O   UNK d   0     -17.610  -3.698 -21.996  0.00  0.00    -0.776 OA
ATOM     42  H   UNK d   0     -17.909  -2.721 -21.914  0.00  0.00     0.167 HD
ENDBRANCH  39  41
ENDBRANCH  38  39
ENDBRANCH  31  38
BRANCH  27  43
ATOM     43  C   UNK d   0     -21.181  -4.848 -22.201  0.00  0.00     0.052 C 
BRANCH  43  44
ATOM     44  C   UNK d   0     -22.086  -5.613 -21.292  0.00  0.00     0.115 C 
BRANCH  44  45
ATOM     45  C   UNK d   0     -23.070  -4.638 -20.754  0.00  0.00     0.139 C 
ATOM     46  O   UNK d   0     -23.668  -3.891 -21.567  0.00  0.00    -0.650 OA
BRANCH  45  47
ATOM     47  O   UNK d   0     -23.354  -4.528 -19.410  0.00  0.00    -0.776 OA
ATOM     48  H   UNK d   0     -23.568  -5.343 -18.813  0.00  0.00     0.167 HD
ENDBRANCH  45  47
ENDBRANCH  44  45
ENDBRANCH  43  44
ENDBRANCH  27  43
BRANCH  24  49
ATOM     49  C   UNK d   0     -25.261  -8.588 -22.056  0.00  0.00     0.052 C 
BRANCH  49  50
ATOM     50  C   UNK d   0     -25.633  -7.216 -21.555  0.00  0.00     0.115 C 
BRANCH  50  51
ATOM     51  C   UNK d   0     -25.661  -7.020 -20.112  0.00  0.00     0.139 C 
ATOM     52  O   UNK d   0     -24.705  -7.342 -19.367  0.00  0.00    -0.650 OA
BRANCH  51  53
ATOM     53  O   UNK d   0     -26.780  -6.459 -19.517  0.00  0.00    -0.776 OA
ATOM     54  H   UNK d   0     -27.486  -7.075 -19.155  0.00  0.00     0.167 HD
ENDBRANCH  51  53
ENDBRANCH  50  51
ENDBRANCH  49  50
ENDBRANCH  24  49
BRANCH  21  55
ATOM     55  C   UNK d   0     -26.854  -9.475 -24.549  0.00  0.00     0.151 C 
BRANCH  55  56
ATOM     56  C   UNK d   0     -27.893  -8.456 -24.767  0.00  0.00     0.143 C 
ATOM     57  O   UNK d   0     -28.309  -8.148 -25.901  0.00  0.00    -0.650 OA
BRANCH  56  58
ATOM     58  O   UNK d   0     -28.422  -7.819 -23.645  0.00  0.00    -0.776 OA
ATOM     59  H   UNK d   0     -29.367  -7.416 -23.778  0.00  0.00     0.167 HD
ENDBRANCH  56  58
ENDBRANCH  55  56
ENDBRANCH  21  55
BRANCH  18  60
ATOM     60  C   UNK d   0     -24.663 -10.850 -29.252  0.00  0.00     0.151 C 
BRANCH  60  61
ATOM     61  C   UNK d   0     -23.875 -11.976 -28.728  0.00  0.00     0.143 C 
ATOM     62  O   UNK d   0     -22.802 -11.915 -28.126  0.00  0.00    -0.650 OA
BRANCH  61  63
ATOM     63  O   UNK d   0     -24.433 -13.258 -28.952  0.00  0.00    -0.776 OA
ATOM     64  H   UNK d   0     -23.853 -14.038 -29.205  0.00  0.00     0.167 HD
ENDBRANCH  61  63
ENDBRANCH  60  61
ENDBRANCH  18  60
BRANCH  14  65
ATOM     65  C   UNK d   0     -22.476  -9.976 -31.166  0.00  0.00     0.052 C 
BRANCH  65  66
ATOM     66  C   UNK d   0     -22.586  -9.117 -32.375  0.00  0.00     0.115 C 
BRANCH  66  67
ATOM     67  C   UNK d   0     -21.395  -8.670 -33.042  0.00  0.00     0.139 C 
ATOM     68  O   UNK d   0     -20.388  -9.468 -33.100  0.00  0.00    -0.650 OA
BRANCH  67  69
ATOM     69  O   UNK d   0     -21.173  -7.440 -33.658  0.00  0.00    -0.776 OA
ATOM     70  H   UNK d   0     -21.228  -6.614 -33.044  0.00  0.00     0.167 HD
ENDBRANCH  67  69
ENDBRANCH  66  67
ENDBRANCH  65  66
ENDBRANCH  14  65
ENDBRANCH   6   7
ENDBRANCH   5   6
ENDBRANCH   2   5
TORSDOF 28
ENDMDL
MODEL 10
REMARK VINA RESULT:      -8.6     30.382     33.941
REMARK  28 active torsions:
REMARK  status: ('A' for Active; 'I' for Inactive)
REMARK    1  A    between atoms: C_2  and  O_3 
REMARK    2  A    between atoms: C_2  and  C_4 
REMARK    3  A    between atoms: C_4  and  C_5 
REMARK    4  A    between atoms: C_5  and  C_6 
REMARK    5  A    between atoms: C_7  and  C_8 
REMARK    6  A    between atoms: C_8  and  C_9 
REMARK    7  A    between atoms: C_9  and  O_11 
REMARK    8  A    between atoms: C_28  and  C_29 
REMARK    9  A    between atoms: C_29  and  C_30 
REMARK   10  A    between atoms: C_30  and  O_32 
REMARK   11  A    between atoms: C_33  and  C_34 
REMARK   12  A    between atoms: C_34  and  C_35 
REMARK   13  A    between atoms: C_35  and  C_36 
REMARK   14  A    between atoms: C_36  and  O_38 
REMARK   15  A    between atoms: C_39  and  C_40 
REMARK   16  A    between atoms: C_40  and  C_41 
REMARK   17  A    between atoms: C_41  and  C_42 
REMARK   18  A    between atoms: C_42  and  O_44 
REMARK   19  A    between atoms: C_45  and  C_46 
REMARK   20  A    between atoms: C_46  and  C_47 
REMARK   21  A    between atoms: C_47  and  O_49 
REMARK   22  A    between atoms: C_50  and  C_51 
REMARK   23  A    between atoms: C_51  and  C_52 
REMARK   24  A    between atoms: C_52  and  O_54 
REMARK   25  A    between atoms: C_55  and  C_56 
REMARK   26  A    between atoms: C_56  and  C_57 
REMARK   27  A    between atoms: C_57  and  C_58 
REMARK   28  A    between atoms: C_58  and  O_60 
ROOT
ATOM      1  O   UNK d   0      -2.668 -21.256  -8.375  0.00  0.00    -0.650 OA
ATOM      2  C   UNK d   0      -2.253 -22.413  -8.606  0.00  0.00     0.139 C 
ENDROOT
BRANCH   2   3
ATOM      3  O   UNK d   0      -1.044 -22.582  -9.237  0.00  0.00    -0.776 OA
ATOM      4  H   UNK d   0      -0.621 -21.825  -9.777  0.00  0.00     0.167 HD
ENDBRANCH   2   3
BRANCH   2   5
ATOM      5  C   UNK d   0      -3.066 -23.595  -8.198  0.00  0.00     0.115 C 
BRANCH   5   6
ATOM      6  C   UNK d   0      -4.530 -23.303  -8.382  0.00  0.00     0.052 C 
BRANCH   6   7
ATOM      7  C   UNK d   0      -5.335 -23.560  -7.131  0.00  0.00    -0.020 A 
ATOM      8  C   UNK d   0      -6.422 -24.279  -7.014  0.00  0.00    -0.011 A 
ATOM      9  C   UNK d   0      -6.843 -24.228  -5.624  0.00  0.00     0.067 A 
ATOM     10  C   UNK d   0      -7.882 -24.781  -4.859  0.00  0.00     0.062 C 
ATOM     11  N   UNK d   0      -5.958 -23.451  -4.966  0.00  0.00    -0.248 NA
ATOM     12  C   UNK d   0      -7.967 -24.843  -3.464  0.00  0.00     0.041 A 
ATOM     13  N   UNK d   0      -7.683 -23.929  -2.517  0.00  0.00    -0.355 N 
ATOM     14  C   UNK d   0      -8.359 -26.051  -2.860  0.00  0.00    -0.022 A 
ATOM     15  C   UNK d   0      -7.876 -24.529  -1.327  0.00  0.00     0.042 A 
ATOM     16  H   UNK d   0      -7.370 -22.875  -2.687  0.00  0.00     0.166 HD
ATOM     17  C   UNK d   0      -7.725 -24.030  -0.018  0.00  0.00     0.062 C 
ATOM     18  C   UNK d   0      -8.300 -25.860  -1.501  0.00  0.00    -0.013 A 
ATOM     19  C   UNK d   0      -6.705 -23.278   0.506  0.00  0.00     0.067 A 
ATOM     20  N   UNK d   0      -5.822 -22.770  -0.358  0.00  0.00    -0.248 NA
ATOM     21  C   UNK d   0      -6.286 -22.867   1.836  0.00  0.00    -0.011 A 
ATOM     22  C   UNK d   0      -4.856 -22.059   0.310  0.00  0.00     0.066 A 
ATOM     23  C   UNK d   0      -3.891 -21.442  -0.473  0.00  0.00     0.062 C 
ATOM     24  C   UNK d   0      -5.202 -22.157   1.715  0.00  0.00    -0.020 A 
ATOM     25  C   UNK d   0      -3.831 -21.381  -1.874  0.00  0.00     0.041 A 
ATOM     26  N   UNK d   0      -4.100 -22.294  -2.815  0.00  0.00    -0.355 N 
ATOM     27  C   UNK d   0      -3.442 -20.166  -2.480  0.00  0.00    -0.022 A 
ATOM     28  C   UNK d   0      -3.900 -21.701  -4.003  0.00  0.00     0.042 A 
ATOM     29  H   UNK d   0      -4.403 -23.356  -2.643  0.00  0.00     0.166 HD
ATOM     30  C   UNK d   0      -4.037 -22.188  -5.312  0.00  0.00     0.062 C 
ATOM     31  C   UNK d   0      -3.484 -20.360  -3.827  0.00  0.00    -0.013 A 
ATOM     32  C   UNK d   0      -5.025 -23.018  -5.816  0.00  0.00     0.066 A 
BRANCH   8  33
ATOM     33  C   UNK d   0      -7.117 -25.013  -8.088  0.00  0.00     0.151 C 
BRANCH  33  34
ATOM     34  C   UNK d   0      -7.007 -26.476  -7.942  0.00  0.00     0.143 C 
ATOM     35  O   UNK d   0      -6.059 -26.985  -7.327  0.00  0.00    -0.650 OA
BRANCH  34  36
ATOM     36  O   UNK d   0      -7.971 -27.285  -8.499  0.00  0.00    -0.776 OA
ATOM     37  H   UNK d   0      -8.515 -27.942  -7.923  0.00  0.00     0.167 HD
ENDBRANCH  34  36
ENDBRANCH  33  34
ENDBRANCH   8  33
BRANCH  31  38
ATOM     38  C   UNK d   0      -3.161 -19.331  -4.885  0.00  0.00     0.151 C 
BRANCH  38  39
ATOM     39  C   UNK d   0      -1.748 -19.268  -5.195  0.00  0.00     0.143 C 
ATOM     40  O   UNK d   0      -0.879 -19.144  -4.314  0.00  0.00    -0.650 OA
BRANCH  39  41
ATOM     41  O   UNK d   0      -1.332 -19.348  -6.523  0.00  0.00    -0.776 OA
ATOM     42  H   UNK d   0      -1.740 -20.099  -7.090  0.00  0.00     0.167 HD
ENDBRANCH  39  41
ENDBRANCH  38  39
ENDBRANCH  31  38
BRANCH  27  43
ATOM     43  C   UNK d   0      -3.041 -18.861  -1.840  0.00  0.00     0.052 C 
BRANCH  43  44
ATOM     44  C   UNK d   0      -4.181 -17.910  -1.671  0.00  0.00     0.115 C 
BRANCH  44  45
ATOM     45  C   UNK d   0      -3.938 -17.177  -0.402  0.00  0.00     0.139 C 
ATOM     46  O   UNK d   0      -4.911 -16.991   0.370  0.00  0.00    -0.650 OA
BRANCH  45  47
ATOM     47  O   UNK d   0      -2.696 -16.702  -0.040  0.00  0.00    -0.776 OA
ATOM     48  H   UNK d   0      -1.928 -16.567  -0.717  0.00  0.00     0.167 HD
ENDBRANCH  45  47
ENDBRANCH  44  45
ENDBRANCH  43  44
ENDBRANCH  27  43
BRANCH  24  49
ATOM     49  C   UNK d   0      -4.461 -21.509   2.811  0.00  0.00     0.052 C 
BRANCH  49  50
ATOM     50  C   UNK d   0      -4.134 -20.082   2.451  0.00  0.00     0.115 C 
BRANCH  50  51
ATOM     51  C   UNK d   0      -2.727 -19.706   2.434  0.00  0.00     0.139 C 
ATOM     52  O   UNK d   0      -1.802 -20.545   2.541  0.00  0.00    -0.650 OA
BRANCH  51  53
ATOM     53  O   UNK d   0      -2.374 -18.372   2.298  0.00  0.00    -0.776 OA
ATOM     54  H   UNK d   0      -1.401 -18.130   2.357  0.00  0.00     0.167 HD
ENDBRANCH  51  53
ENDBRANCH  50  51
ENDBRANCH  49  50
ENDBRANCH  24  49
BRANCH  21  55
ATOM     55  C   UNK d   0      -7.017 -23.222   3.088  0.00  0.00     0.151 C 
BRANCH  55  56
ATOM     56  C   UNK d   0      -8.034 -22.219   3.437  0.00  0.00     0.143 C 
ATOM     57  O   UNK d   0      -7.780 -21.213   4.129  0.00  0.00    -0.650 OA
BRANCH  56  58
ATOM     58  O   UNK d   0      -9.331 -22.418   2.966  0.00  0.00    -0.776 OA
ATOM     59  H   UNK d   0      -9.761 -21.592   2.512  0.00  0.00     0.167 HD
ENDBRANCH  56  58
ENDBRANCH  55  56
ENDBRANCH  21  55
BRANCH  18  60
ATOM     60  C   UNK d   0      -8.631 -26.906  -0.466  0.00  0.00     0.151 C 
BRANCH  60  61
ATOM     61  C   UNK d   0     -10.093 -26.867  -0.306  0.00  0.00     0.143 C 
ATOM     62  O   UNK d   0     -10.807 -25.865  -0.255  0.00  0.00    -0.650 OA
BRANCH  61  63
ATOM     63  O   UNK d   0     -10.722 -28.131  -0.202  0.00  0.00    -0.776 OA
ATOM     64  H   UNK d   0     -10.697 -28.786  -0.963  0.00  0.00     0.167 HD
ENDBRANCH  61  63
ENDBRANCH  60  61
ENDBRANCH  18  60
BRANCH  14  65
ATOM     65  C   UNK d   0      -8.874 -27.328  -3.462  0.00  0.00     0.052 C 
BRANCH  65  66
ATOM     66  C   UNK d   0     -10.293 -27.235  -3.896  0.00  0.00     0.115 C 
BRANCH  66  67
ATOM     67  C   UNK d   0     -10.665 -27.672  -5.213  0.00  0.00     0.139 C 
ATOM     68  O   UNK d   0     -11.860 -28.108  -5.400  0.00  0.00    -0.650 OA
BRANCH  67  69
ATOM     69  O   UNK d   0      -9.874 -27.689  -6.361  0.00  0.00    -0.776 OA
ATOM     70  H   UNK d   0     -10.291 -27.258  -7.198  0.00  0.00     0.167 HD
ENDBRANCH  67  69
ENDBRANCH  66  67
ENDBRANCH  65  66
ENDBRANCH  14  65
ENDBRANCH   6   7
ENDBRANCH   5   6
ENDBRANCH   2   5
TORSDOF 28
ENDMDL
MODEL 11
REMARK VINA RESULT:      -8.5     30.543     33.600
REMARK  28 active torsions:
REMARK  status: ('A' for Active; 'I' for Inactive)
REMARK    1  A    between atoms: C_2  and  O_3 
REMARK    2  A    between atoms: C_2  and  C_4 
REMARK    3  A    between atoms: C_4  and  C_5 
REMARK    4  A    between atoms: C_5  and  C_6 
REMARK    5  A    between atoms: C_7  and  C_8 
REMARK    6  A    between atoms: C_8  and  C_9 
REMARK    7  A    between atoms: C_9  and  O_11 
REMARK    8  A    between atoms: C_28  and  C_29 
REMARK    9  A    between atoms: C_29  and  C_30 
REMARK   10  A    between atoms: C_30  and  O_32 
REMARK   11  A    between atoms: C_33  and  C_34 
REMARK   12  A    between atoms: C_34  and  C_35 
REMARK   13  A    between atoms: C_35  and  C_36 
REMARK   14  A    between atoms: C_36  and  O_38 
REMARK   15  A    between atoms: C_39  and  C_40 
REMARK   16  A    between atoms: C_40  and  C_41 
REMARK   17  A    between atoms: C_41  and  C_42 
REMARK   18  A    between atoms: C_42  and  O_44 
REMARK   19  A    between atoms: C_45  and  C_46 
REMARK   20  A    between atoms: C_46  and  C_47 
REMARK   21  A    between atoms: C_47  and  O_49 
REMARK   22  A    between atoms: C_50  and  C_51 
REMARK   23  A    between atoms: C_51  and  C_52 
REMARK   24  A    between atoms: C_52  and  O_54 
REMARK   25  A    between atoms: C_55  and  C_56 
REMARK   26  A    between atoms: C_56  and  C_57 
REMARK   27  A    between atoms: C_57  and  C_58 
REMARK   28  A    between atoms: C_58  and  O_60 
ROOT
ATOM      1  O   UNK d   0      -1.767 -16.339   1.006  0.00  0.00    -0.650 OA
ATOM      2  C   UNK d   0      -2.765 -17.092   0.976  0.00  0.00     0.139 C 
ENDROOT
BRANCH   2   3
ATOM      3  O   UNK d   0      -3.875 -16.768   1.718  0.00  0.00    -0.776 OA
ATOM      4  H   UNK d   0      -4.772 -16.573   1.269  0.00  0.00     0.167 HD
ENDBRANCH   2   3
BRANCH   2   5
ATOM      5  C   UNK d   0      -2.746 -18.327   0.143  0.00  0.00     0.115 C 
BRANCH   5   6
ATOM      6  C   UNK d   0      -2.538 -19.536   1.014  0.00  0.00     0.052 C 
BRANCH   6   7
ATOM      7  C   UNK d   0      -3.592 -20.596   0.798  0.00  0.00    -0.020 A 
ATOM      8  C   UNK d   0      -4.334 -21.181   1.704  0.00  0.00    -0.011 A 
ATOM      9  C   UNK d   0      -5.194 -22.136   1.026  0.00  0.00     0.067 A 
ATOM     10  C   UNK d   0      -6.201 -23.037   1.404  0.00  0.00     0.062 C 
ATOM     11  N   UNK d   0      -4.905 -22.071  -0.291  0.00  0.00    -0.248 NA
ATOM     12  C   UNK d   0      -7.120 -23.681   0.567  0.00  0.00     0.041 A 
ATOM     13  N   UNK d   0      -6.963 -24.273  -0.632  0.00  0.00    -0.355 N 
ATOM     14  C   UNK d   0      -8.475 -23.714   0.942  0.00  0.00    -0.022 A 
ATOM     15  C   UNK d   0      -8.185 -24.674  -1.031  0.00  0.00     0.042 A 
ATOM     16  H   UNK d   0      -6.004 -24.422  -1.177  0.00  0.00     0.166 HD
ATOM     17  C   UNK d   0      -8.589 -25.344  -2.203  0.00  0.00     0.062 C 
ATOM     18  C   UNK d   0      -9.159 -24.341  -0.070  0.00  0.00    -0.013 A 
ATOM     19  C   UNK d   0      -8.223 -25.105  -3.503  0.00  0.00     0.067 A 
ATOM     20  N   UNK d   0      -7.205 -24.263  -3.700  0.00  0.00    -0.248 NA
ATOM     21  C   UNK d   0      -8.681 -25.535  -4.813  0.00  0.00    -0.011 A 
ATOM     22  C   UNK d   0      -6.966 -24.110  -5.043  0.00  0.00     0.066 A 
ATOM     23  C   UNK d   0      -5.904 -23.287  -5.391  0.00  0.00     0.062 C 
ATOM     24  C   UNK d   0      -7.944 -24.946  -5.710  0.00  0.00    -0.020 A 
ATOM     25  C   UNK d   0      -4.986 -22.660  -4.535  0.00  0.00     0.041 A 
ATOM     26  N   UNK d   0      -5.144 -22.059  -3.350  0.00  0.00    -0.355 N 
ATOM     27  C   UNK d   0      -3.625 -22.632  -4.910  0.00  0.00    -0.022 A 
ATOM     28  C   UNK d   0      -3.928 -21.650  -2.954  0.00  0.00     0.042 A 
ATOM     29  H   UNK d   0      -6.109 -21.900  -2.809  0.00  0.00     0.166 HD
ATOM     30  C   UNK d   0      -3.514 -20.974  -1.796  0.00  0.00     0.062 C 
ATOM     31  C   UNK d   0      -2.949 -21.994  -3.915  0.00  0.00    -0.013 A 
ATOM     32  C   UNK d   0      -3.949 -21.163  -0.494  0.00  0.00     0.066 A 
BRANCH   8  33
ATOM     33  C   UNK d   0      -4.313 -20.934   3.158  0.00  0.00     0.151 C 
BRANCH  33  34
ATOM     34  C   UNK d   0      -5.382 -20.020   3.596  0.00  0.00     0.143 C 
ATOM     35  O   UNK d   0      -6.271 -20.403   4.371  0.00  0.00    -0.650 OA
BRANCH  34  36
ATOM     36  O   UNK d   0      -5.393 -18.723   3.137  0.00  0.00    -0.776 OA
ATOM     37  H   UNK d   0      -5.872 -18.470   2.263  0.00  0.00     0.167 HD
ENDBRANCH  34  36
ENDBRANCH  33  34
ENDBRANCH   8  33
BRANCH  31  38
ATOM     38  C   UNK d   0      -1.460 -21.739  -3.871  0.00  0.00     0.151 C 
BRANCH  38  39
ATOM     39  C   UNK d   0      -0.735 -22.767  -3.156  0.00  0.00     0.143 C 
ATOM     40  O   UNK d   0      -0.888 -23.978  -3.394  0.00  0.00    -0.650 OA
BRANCH  39  41
ATOM     41  O   UNK d   0       0.173 -22.401  -2.162  0.00  0.00    -0.776 OA
ATOM     42  H   UNK d   0       0.272 -21.399  -1.974  0.00  0.00     0.167 HD
ENDBRANCH  39  41
ENDBRANCH  38  39
ENDBRANCH  31  38
BRANCH  27  43
ATOM     43  C   UNK d   0      -2.961 -23.173  -6.152  0.00  0.00     0.052 C 
BRANCH  43  44
ATOM     44  C   UNK d   0      -2.845 -22.164  -7.247  0.00  0.00     0.115 C 
BRANCH  44  45
ATOM     45  C   UNK d   0      -3.327 -22.826  -8.487  0.00  0.00     0.139 C 
ATOM     46  O   UNK d   0      -2.909 -22.393  -9.590  0.00  0.00    -0.650 OA
BRANCH  45  47
ATOM     47  O   UNK d   0      -4.202 -23.891  -8.474  0.00  0.00    -0.776 OA
ATOM     48  H   UNK d   0      -5.052 -23.910  -7.888  0.00  0.00     0.167 HD
ENDBRANCH  45  47
ENDBRANCH  44  45
ENDBRANCH  43  44
ENDBRANCH  27  43
BRANCH  24  49
ATOM     49  C   UNK d   0      -8.041 -25.128  -7.169  0.00  0.00     0.052 C 
BRANCH  49  50
ATOM     50  C   UNK d   0      -6.882 -25.950  -7.673  0.00  0.00     0.115 C 
BRANCH  50  51
ATOM     51  C   UNK d   0      -7.159 -27.329  -8.051  0.00  0.00     0.139 C 
ATOM     52  O   UNK d   0      -7.847 -27.629  -9.056  0.00  0.00    -0.650 OA
BRANCH  51  53
ATOM     53  O   UNK d   0      -6.655 -28.366  -7.282  0.00  0.00    -0.776 OA
ATOM     54  H   UNK d   0      -6.018 -29.012  -7.714  0.00  0.00     0.167 HD
ENDBRANCH  51  53
ENDBRANCH  50  51
ENDBRANCH  49  50
ENDBRANCH  24  49
BRANCH  21  55
ATOM     55  C   UNK d   0      -9.805 -26.493  -5.032  0.00  0.00     0.151 C 
BRANCH  55  56
ATOM     56  C   UNK d   0      -9.433 -27.870  -4.675  0.00  0.00     0.143 C 
ATOM     57  O   UNK d   0      -8.358 -28.393  -5.031  0.00  0.00    -0.650 OA
BRANCH  56  58
ATOM     58  O   UNK d   0     -10.332 -28.607  -3.906  0.00  0.00    -0.776 OA
ATOM     59  H   UNK d   0     -10.004 -28.837  -2.951  0.00  0.00     0.167 HD
ENDBRANCH  56  58
ENDBRANCH  55  56
ENDBRANCH  21  55
BRANCH  18  60
ATOM     60  C   UNK d   0     -10.647 -24.585  -0.086  0.00  0.00     0.151 C 
BRANCH  60  61
ATOM     61  C   UNK d   0     -11.257 -23.337  -0.568  0.00  0.00     0.143 C 
ATOM     62  O   UNK d   0     -11.795 -22.462   0.112  0.00  0.00    -0.650 OA
BRANCH  61  63
ATOM     63  O   UNK d   0     -11.205 -23.143  -1.969  0.00  0.00    -0.776 OA
ATOM     64  H   UNK d   0     -11.868 -23.588  -2.579  0.00  0.00     0.167 HD
ENDBRANCH  61  63
ENDBRANCH  60  61
ENDBRANCH  18  60
BRANCH  14  65
ATOM     65  C   UNK d   0      -9.151 -23.291   2.215  0.00  0.00     0.052 C 
BRANCH  65  66
ATOM     66  C   UNK d   0      -9.099 -21.821   2.441  0.00  0.00     0.115 C 
BRANCH  66  67
ATOM     67  C   UNK d   0      -9.605 -21.271   3.667  0.00  0.00     0.139 C 
ATOM     68  O   UNK d   0     -10.594 -21.859   4.241  0.00  0.00    -0.650 OA
BRANCH  67  69
ATOM     69  O   UNK d   0      -9.151 -20.141   4.346  0.00  0.00    -0.776 OA
ATOM     70  H   UNK d   0      -9.817 -19.720   5.011  0.00  0.00     0.167 HD
ENDBRANCH  67  69
ENDBRANCH  66  67
ENDBRANCH  65  66
ENDBRANCH  14  65
ENDBRANCH   6   7
ENDBRANCH   5   6
ENDBRANCH   2   5
TORSDOF 28
ENDMDL
MODEL 12
REMARK VINA RESULT:      -8.4      2.321      7.714
REMARK  28 active torsions:
REMARK  status: ('A' for Active; 'I' for Inactive)
REMARK    1  A    between atoms: C_2  and  O_3 
REMARK    2  A    between atoms: C_2  and  C_4 
REMARK    3  A    between atoms: C_4  and  C_5 
REMARK    4  A    between atoms: C_5  and  C_6 
REMARK    5  A    between atoms: C_7  and  C_8 
REMARK    6  A    between atoms: C_8  and  C_9 
REMARK    7  A    between atoms: C_9  and  O_11 
REMARK    8  A    between atoms: C_28  and  C_29 
REMARK    9  A    between atoms: C_29  and  C_30 
REMARK   10  A    between atoms: C_30  and  O_32 
REMARK   11  A    between atoms: C_33  and  C_34 
REMARK   12  A    between atoms: C_34  and  C_35 
REMARK   13  A    between atoms: C_35  and  C_36 
REMARK   14  A    between atoms: C_36  and  O_38 
REMARK   15  A    between atoms: C_39  and  C_40 
REMARK   16  A    between atoms: C_40  and  C_41 
REMARK   17  A    between atoms: C_41  and  C_42 
REMARK   18  A    between atoms: C_42  and  O_44 
REMARK   19  A    between atoms: C_45  and  C_46 
REMARK   20  A    between atoms: C_46  and  C_47 
REMARK   21  A    between atoms: C_47  and  O_49 
REMARK   22  A    between atoms: C_50  and  C_51 
REMARK   23  A    between atoms: C_51  and  C_52 
REMARK   24  A    between atoms: C_52  and  O_54 
REMARK   25  A    between atoms: C_55  and  C_56 
REMARK   26  A    between atoms: C_56  and  C_57 
REMARK   27  A    between atoms: C_57  and  C_58 
REMARK   28  A    between atoms: C_58  and  O_60 
ROOT
ATOM      1  O   UNK d   0     -24.498 -15.088 -31.275  0.00  0.00    -0.650 OA
ATOM      2  C   UNK d   0     -24.483 -14.127 -30.475  0.00  0.00     0.139 C 
ENDROOT
BRANCH   2   3
ATOM      3  O   UNK d   0     -25.064 -14.270 -29.238  0.00  0.00    -0.776 OA
ATOM      4  H   UNK d   0     -26.008 -14.649 -29.140  0.00  0.00     0.167 HD
ENDBRANCH   2   3
BRANCH   2   5
ATOM      5  C   UNK d   0     -23.841 -12.839 -30.865  0.00  0.00     0.115 C 
BRANCH   5   6
ATOM      6  C   UNK d   0     -24.797 -11.698 -30.648  0.00  0.00     0.052 C 
BRANCH   6   7
ATOM      7  C   UNK d   0     -24.331 -10.746 -29.572  0.00  0.00    -0.020 A 
ATOM      8  C   UNK d   0     -25.050 -10.197 -28.627  0.00  0.00    -0.011 A 
ATOM      9  C   UNK d   0     -24.173  -9.350 -27.835  0.00  0.00     0.067 A 
ATOM     10  C   UNK d   0     -24.307  -8.530 -26.704  0.00  0.00     0.062 C 
ATOM     11  N   UNK d   0     -22.938  -9.439 -28.373  0.00  0.00    -0.248 NA
ATOM     12  C   UNK d   0     -23.281  -8.005 -25.912  0.00  0.00     0.041 A 
ATOM     13  N   UNK d   0     -22.101  -7.447 -26.245  0.00  0.00    -0.355 N 
ATOM     14  C   UNK d   0     -23.396  -8.079 -24.512  0.00  0.00    -0.022 A 
ATOM     15  C   UNK d   0     -21.461  -7.174 -25.092  0.00  0.00     0.042 A 
ATOM     16  H   UNK d   0     -21.736  -7.233 -27.273  0.00  0.00     0.166 HD
ATOM     17  C   UNK d   0     -20.199  -6.589 -24.864  0.00  0.00     0.062 C 
ATOM     18  C   UNK d   0     -22.242  -7.557 -23.984  0.00  0.00    -0.013 A 
ATOM     19  C   UNK d   0     -19.005  -6.845 -25.487  0.00  0.00     0.067 A 
ATOM     20  N   UNK d   0     -19.047  -7.598 -26.589  0.00  0.00    -0.248 NA
ATOM     21  C   UNK d   0     -17.611  -6.509 -25.252  0.00  0.00    -0.011 A 
ATOM     22  C   UNK d   0     -17.781  -7.780 -27.091  0.00  0.00     0.066 A 
ATOM     23  C   UNK d   0     -17.683  -8.517 -28.262  0.00  0.00     0.062 C 
ATOM     24  C   UNK d   0     -16.899  -7.062 -26.192  0.00  0.00    -0.020 A 
ATOM     25  C   UNK d   0     -18.727  -9.024 -29.050  0.00  0.00     0.041 A 
ATOM     26  N   UNK d   0     -19.893  -9.592 -28.719  0.00  0.00    -0.355 N 
ATOM     27  C   UNK d   0     -18.613  -8.945 -30.455  0.00  0.00    -0.022 A 
ATOM     28  C   UNK d   0     -20.530  -9.874 -29.867  0.00  0.00     0.042 A 
ATOM     29  H   UNK d   0     -20.254  -9.816 -27.685  0.00  0.00     0.166 HD
ATOM     30  C   UNK d   0     -21.780 -10.464 -30.109  0.00  0.00     0.062 C 
ATOM     31  C   UNK d   0     -19.749  -9.479 -30.980  0.00  0.00    -0.013 A 
ATOM     32  C   UNK d   0     -22.966 -10.265 -29.420  0.00  0.00     0.066 A 
BRANCH   8  33
ATOM     33  C   UNK d   0     -26.494 -10.384 -28.391  0.00  0.00     0.151 C 
BRANCH  33  34
ATOM     34  C   UNK d   0     -26.778 -11.409 -27.370  0.00  0.00     0.143 C 
ATOM     35  O   UNK d   0     -27.161 -11.089 -26.236  0.00  0.00    -0.650 OA
BRANCH  34  36
ATOM     36  O   UNK d   0     -26.612 -12.738 -27.684  0.00  0.00    -0.776 OA
ATOM     37  H   UNK d   0     -26.418 -13.039 -28.649  0.00  0.00     0.167 HD
ENDBRANCH  34  36
ENDBRANCH  33  34
ENDBRANCH   8  33
BRANCH  31  38
ATOM     38  C   UNK d   0     -20.083  -9.597 -32.449  0.00  0.00     0.151 C 
BRANCH  38  39
ATOM     39  C   UNK d   0     -21.187  -8.749 -32.844  0.00  0.00     0.143 C 
ATOM     40  O   UNK d   0     -21.191  -7.523 -32.639  0.00  0.00    -0.650 OA
BRANCH  39  41
ATOM     41  O   UNK d   0     -22.293  -9.314 -33.480  0.00  0.00    -0.776 OA
ATOM     42  H   UNK d   0     -22.774  -8.732 -34.172  0.00  0.00     0.167 HD
ENDBRANCH  39  41
ENDBRANCH  38  39
ENDBRANCH  31  38
BRANCH  27  43
ATOM     43  C   UNK d   0     -17.488  -8.394 -31.295  0.00  0.00     0.052 C 
BRANCH  43  44
ATOM     44  C   UNK d   0     -17.683  -6.963 -31.679  0.00  0.00     0.115 C 
BRANCH  44  45
ATOM     45  C   UNK d   0     -17.809  -6.934 -33.159  0.00  0.00     0.139 C 
ATOM     46  O   UNK d   0     -17.032  -7.654 -33.834  0.00  0.00    -0.650 OA
BRANCH  45  47
ATOM     47  O   UNK d   0     -18.741  -6.158 -33.814  0.00  0.00    -0.776 OA
ATOM     48  H   UNK d   0     -19.755  -6.353 -33.781  0.00  0.00     0.167 HD
ENDBRANCH  45  47
ENDBRANCH  44  45
ENDBRANCH  43  44
ENDBRANCH  27  43
BRANCH  24  49
ATOM     49  C   UNK d   0     -15.441  -6.947 -26.359  0.00  0.00     0.052 C 
BRANCH  49  50
ATOM     50  C   UNK d   0     -15.115  -5.984 -27.472  0.00  0.00     0.115 C 
BRANCH  50  51
ATOM     51  C   UNK d   0     -13.773  -5.418 -27.490  0.00  0.00     0.139 C 
ATOM     52  O   UNK d   0     -13.191  -5.023 -26.452  0.00  0.00    -0.650 OA
BRANCH  51  53
ATOM     53  O   UNK d   0     -13.094  -5.300 -28.693  0.00  0.00    -0.776 OA
ATOM     54  H   UNK d   0     -12.249  -4.756 -28.711  0.00  0.00     0.167 HD
ENDBRANCH  51  53
ENDBRANCH  50  51
ENDBRANCH  49  50
ENDBRANCH  24  49
BRANCH  21  55
ATOM     55  C   UNK d   0     -17.135  -5.665 -24.116  0.00  0.00     0.151 C 
BRANCH  55  56
ATOM     56  C   UNK d   0     -17.432  -4.240 -24.325  0.00  0.00     0.143 C 
ATOM     57  O   UNK d   0     -18.535  -3.732 -24.045  0.00  0.00    -0.650 OA
BRANCH  56  58
ATOM     58  O   UNK d   0     -16.424  -3.439 -24.860  0.00  0.00    -0.776 OA
ATOM     59  H   UNK d   0     -15.947  -3.835 -25.690  0.00  0.00     0.167 HD
ENDBRANCH  56  58
ENDBRANCH  55  56
ENDBRANCH  21  55
BRANCH  18  60
ATOM     60  C   UNK d   0     -21.937  -7.448 -22.510  0.00  0.00     0.151 C 
BRANCH  60  61
ATOM     61  C   UNK d   0     -22.322  -6.084 -22.117  0.00  0.00     0.143 C 
ATOM     62  O   UNK d   0     -23.453  -5.683 -21.842  0.00  0.00    -0.650 OA
BRANCH  61  63
ATOM     63  O   UNK d   0     -21.259  -5.151 -22.057  0.00  0.00    -0.776 OA
ATOM     64  H   UNK d   0     -21.397  -4.191 -22.317  0.00  0.00     0.167 HD
ENDBRANCH  61  63
ENDBRANCH  60  61
ENDBRANCH  18  60
BRANCH  14  65
ATOM     65  C   UNK d   0     -24.543  -8.512 -23.644  0.00  0.00     0.052 C 
BRANCH  65  66
ATOM     66  C   UNK d   0     -25.777  -8.813 -24.418  0.00  0.00     0.115 C 
BRANCH  66  67
ATOM     67  C   UNK d   0     -26.999  -8.126 -24.104  0.00  0.00     0.139 C 
ATOM     68  O   UNK d   0     -27.958  -8.160 -24.959  0.00  0.00    -0.650 OA
BRANCH  67  69
ATOM     69  O   UNK d   0     -27.297  -7.398 -22.953  0.00  0.00    -0.776 OA
ATOM     70  H   UNK d   0     -28.236  -6.976 -22.921  0.00  0.00     0.167 HD
ENDBRANCH  67  69
ENDBRANCH  66  67
ENDBRANCH  65  66
ENDBRANCH  14  65
ENDBRANCH   6   7
ENDBRANCH   5   6
ENDBRANCH   2   5
TORSDOF 28
ENDMDL
MODEL 13
REMARK VINA RESULT:      -8.4     30.307     34.195
REMARK  28 active torsions:
REMARK  status: ('A' for Active; 'I' for Inactive)
REMARK    1  A    between atoms: C_2  and  O_3 
REMARK    2  A    between atoms: C_2  and  C_4 
REMARK    3  A    between atoms: C_4  and  C_5 
REMARK    4  A    between atoms: C_5  and  C_6 
REMARK    5  A    between atoms: C_7  and  C_8 
REMARK    6  A    between atoms: C_8  and  C_9 
REMARK    7  A    between atoms: C_9  and  O_11 
REMARK    8  A    between atoms: C_28  and  C_29 
REMARK    9  A    between atoms: C_29  and  C_30 
REMARK   10  A    between atoms: C_30  and  O_32 
REMARK   11  A    between atoms: C_33  and  C_34 
REMARK   12  A    between atoms: C_34  and  C_35 
REMARK   13  A    between atoms: C_35  and  C_36 
REMARK   14  A    between atoms: C_36  and  O_38 
REMARK   15  A    between atoms: C_39  and  C_40 
REMARK   16  A    between atoms: C_40  and  C_41 
REMARK   17  A    between atoms: C_41  and  C_42 
REMARK   18  A    between atoms: C_42  and  O_44 
REMARK   19  A    between atoms: C_45  and  C_46 
REMARK   20  A    between atoms: C_46  and  C_47 
REMARK   21  A    between atoms: C_47  and  O_49 
REMARK   22  A    between atoms: C_50  and  C_51 
REMARK   23  A    between atoms: C_51  and  C_52 
REMARK   24  A    between atoms: C_52  and  O_54 
REMARK   25  A    between atoms: C_55  and  C_56 
REMARK   26  A    between atoms: C_56  and  C_57 
REMARK   27  A    between atoms: C_57  and  C_58 
REMARK   28  A    between atoms: C_58  and  O_60 
ROOT
ATOM      1  O   UNK d   0      -2.405 -18.748  -7.303  0.00  0.00    -0.650 OA
ATOM      2  C   UNK d   0      -1.990 -17.708  -6.744  0.00  0.00     0.139 C 
ENDROOT
BRANCH   2   3
ATOM      3  O   UNK d   0      -1.567 -16.653  -7.515  0.00  0.00    -0.776 OA
ATOM      4  H   UNK d   0      -0.862 -16.782  -8.245  0.00  0.00     0.167 HD
ENDBRANCH   2   3
BRANCH   2   5
ATOM      5  C   UNK d   0      -1.957 -17.620  -5.257  0.00  0.00     0.115 C 
BRANCH   5   6
ATOM      6  C   UNK d   0      -1.084 -18.709  -4.693  0.00  0.00     0.052 C 
BRANCH   6   7
ATOM      7  C   UNK d   0      -1.745 -19.454  -3.558  0.00  0.00    -0.020 A 
ATOM      8  C   UNK d   0      -1.433 -19.412  -2.288  0.00  0.00    -0.011 A 
ATOM      9  C   UNK d   0      -2.339 -20.300  -1.578  0.00  0.00     0.067 A 
ATOM     10  C   UNK d   0      -2.545 -20.680  -0.243  0.00  0.00     0.062 C 
ATOM     11  N   UNK d   0      -3.165 -20.847  -2.495  0.00  0.00    -0.248 NA
ATOM     12  C   UNK d   0      -3.657 -21.343   0.287  0.00  0.00     0.041 A 
ATOM     13  N   UNK d   0      -4.372 -22.385  -0.177  0.00  0.00    -0.355 N 
ATOM     14  C   UNK d   0      -4.224 -20.871   1.485  0.00  0.00    -0.022 A 
ATOM     15  C   UNK d   0      -5.383 -22.581   0.690  0.00  0.00     0.042 A 
ATOM     16  H   UNK d   0      -4.155 -22.983  -1.090  0.00  0.00     0.166 HD
ATOM     17  C   UNK d   0      -6.420 -23.536   0.684  0.00  0.00     0.062 C 
ATOM     18  C   UNK d   0      -5.324 -21.651   1.746  0.00  0.00    -0.013 A 
ATOM     19  C   UNK d   0      -7.213 -23.941  -0.359  0.00  0.00     0.067 A 
ATOM     20  N   UNK d   0      -6.853 -23.544  -1.582  0.00  0.00    -0.248 NA
ATOM     21  C   UNK d   0      -8.427 -24.727  -0.504  0.00  0.00    -0.011 A 
ATOM     22  C   UNK d   0      -7.744 -24.012  -2.516  0.00  0.00     0.066 A 
ATOM     23  C   UNK d   0      -7.468 -23.703  -3.840  0.00  0.00     0.062 C 
ATOM     24  C   UNK d   0      -8.735 -24.760  -1.768  0.00  0.00    -0.020 A 
ATOM     25  C   UNK d   0      -6.339 -23.046  -4.353  0.00  0.00     0.041 A 
ATOM     26  N   UNK d   0      -5.637 -22.001  -3.899  0.00  0.00    -0.355 N 
ATOM     27  C   UNK d   0      -5.767 -23.524  -5.553  0.00  0.00    -0.022 A 
ATOM     28  C   UNK d   0      -4.633 -21.798  -4.767  0.00  0.00     0.042 A 
ATOM     29  H   UNK d   0      -5.862 -21.395  -2.987  0.00  0.00     0.166 HD
ATOM     30  C   UNK d   0      -3.601 -20.847  -4.779  0.00  0.00     0.062 C 
ATOM     31  C   UNK d   0      -4.688 -22.740  -5.822  0.00  0.00    -0.013 A 
ATOM     32  C   UNK d   0      -2.859 -20.378  -3.706  0.00  0.00     0.066 A 
BRANCH   8  33
ATOM     33  C   UNK d   0      -0.358 -18.618  -1.666  0.00  0.00     0.151 C 
BRANCH  33  34
ATOM     34  C   UNK d   0       0.921 -19.346  -1.595  0.00  0.00     0.143 C 
ATOM     35  O   UNK d   0       0.951 -20.555  -1.325  0.00  0.00    -0.650 OA
BRANCH  34  36
ATOM     36  O   UNK d   0       2.097 -18.672  -1.831  0.00  0.00    -0.776 OA
ATOM     37  H   UNK d   0       2.234 -17.706  -1.503  0.00  0.00     0.167 HD
ENDBRANCH  34  36
ENDBRANCH  33  34
ENDBRANCH   8  33
BRANCH  31  38
ATOM     38  C   UNK d   0      -3.754 -22.883  -7.001  0.00  0.00     0.151 C 
BRANCH  38  39
ATOM     39  C   UNK d   0      -2.710 -23.861  -6.776  0.00  0.00     0.143 C 
ATOM     40  O   UNK d   0      -2.045 -24.350  -7.705  0.00  0.00    -0.650 OA
BRANCH  39  41
ATOM     41  O   UNK d   0      -2.430 -24.277  -5.475  0.00  0.00    -0.776 OA
ATOM     42  H   UNK d   0      -2.901 -25.128  -5.151  0.00  0.00     0.167 HD
ENDBRANCH  39  41
ENDBRANCH  38  39
ENDBRANCH  31  38
BRANCH  27  43
ATOM     43  C   UNK d   0      -6.203 -24.670  -6.432  0.00  0.00     0.052 C 
BRANCH  43  44
ATOM     44  C   UNK d   0      -7.283 -24.298  -7.395  0.00  0.00     0.115 C 
BRANCH  44  45
ATOM     45  C   UNK d   0      -7.719 -25.558  -8.050  0.00  0.00     0.139 C 
ATOM     46  O   UNK d   0      -7.994 -25.524  -9.275  0.00  0.00    -0.650 OA
BRANCH  45  47
ATOM     47  O   UNK d   0      -7.828 -26.754  -7.374  0.00  0.00    -0.776 OA
ATOM     48  H   UNK d   0      -7.028 -27.203  -6.899  0.00  0.00     0.167 HD
ENDBRANCH  45  47
ENDBRANCH  44  45
ENDBRANCH  43  44
ENDBRANCH  27  43
BRANCH  24  49
ATOM     49  C   UNK d   0      -9.873 -25.480  -2.366  0.00  0.00     0.052 C 
BRANCH  49  50
ATOM     50  C   UNK d   0      -9.562 -26.951  -2.479  0.00  0.00     0.115 C 
BRANCH  50  51
ATOM     51  C   UNK d   0      -9.284 -27.472  -3.810  0.00  0.00     0.139 C 
ATOM     52  O   UNK d   0      -8.472 -26.926  -4.594  0.00  0.00    -0.650 OA
BRANCH  51  53
ATOM     53  O   UNK d   0      -9.935 -28.614  -4.250  0.00  0.00    -0.776 OA
ATOM     54  H   UNK d   0     -10.401 -28.584  -5.139  0.00  0.00     0.167 HD
ENDBRANCH  51  53
ENDBRANCH  50  51
ENDBRANCH  49  50
ENDBRANCH  24  49
BRANCH  21  55
ATOM     55  C   UNK d   0      -9.150 -25.365   0.635  0.00  0.00     0.151 C 
BRANCH  55  56
ATOM     56  C   UNK d   0     -10.084 -24.434   1.287  0.00  0.00     0.143 C 
ATOM     57  O   UNK d   0      -9.861 -23.925   2.403  0.00  0.00    -0.650 OA
BRANCH  56  58
ATOM     58  O   UNK d   0     -11.263 -24.119   0.613  0.00  0.00    -0.776 OA
ATOM     59  H   UNK d   0     -12.015 -24.826   0.697  0.00  0.00     0.167 HD
ENDBRANCH  56  58
ENDBRANCH  55  56
ENDBRANCH  21  55
BRANCH  18  60
ATOM     60  C   UNK d   0      -6.238 -21.487   2.935  0.00  0.00     0.151 C 
BRANCH  60  61
ATOM     61  C   UNK d   0      -7.363 -20.663   2.468  0.00  0.00     0.143 C 
ATOM     62  O   UNK d   0      -7.324 -19.483   2.117  0.00  0.00    -0.650 OA
BRANCH  61  63
ATOM     63  O   UNK d   0      -8.615 -21.322   2.427  0.00  0.00    -0.776 OA
ATOM     64  H   UNK d   0      -9.466 -20.832   2.641  0.00  0.00     0.167 HD
ENDBRANCH  61  63
ENDBRANCH  60  61
ENDBRANCH  18  60
BRANCH  14  65
ATOM     65  C   UNK d   0      -3.754 -19.813   2.442  0.00  0.00     0.052 C 
BRANCH  65  66
ATOM     66  C   UNK d   0      -4.268 -18.457   2.110  0.00  0.00     0.115 C 
BRANCH  66  67
ATOM     67  C   UNK d   0      -3.433 -17.537   1.391  0.00  0.00     0.139 C 
ATOM     68  O   UNK d   0      -2.158 -17.698   1.439  0.00  0.00    -0.650 OA
BRANCH  67  69
ATOM     69  O   UNK d   0      -3.833 -16.447   0.618  0.00  0.00    -0.776 OA
ATOM     70  H   UNK d   0      -3.379 -16.361  -0.303  0.00  0.00     0.167 HD
ENDBRANCH  67  69
ENDBRANCH  66  67
ENDBRANCH  65  66
ENDBRANCH  14  65
ENDBRANCH   6   7
ENDBRANCH   5   6
ENDBRANCH   2   5
TORSDOF 28
ENDMDL
MODEL 14
REMARK VINA RESULT:      -8.2      1.612      3.036
REMARK  28 active torsions:
REMARK  status: ('A' for Active; 'I' for Inactive)
REMARK    1  A    between atoms: C_2  and  O_3 
REMARK    2  A    between atoms: C_2  and  C_4 
REMARK    3  A    between atoms: C_4  and  C_5 
REMARK    4  A    between atoms: C_5  and  C_6 
REMARK    5  A    between atoms: C_7  and  C_8 
REMARK    6  A    between atoms: C_8  and  C_9 
REMARK    7  A    between atoms: C_9  and  O_11 
REMARK    8  A    between atoms: C_28  and  C_29 
REMARK    9  A    between atoms: C_29  and  C_30 
REMARK   10  A    between atoms: C_30  and  O_32 
REMARK   11  A    between atoms: C_33  and  C_34 
REMARK   12  A    between atoms: C_34  and  C_35 
REMARK   13  A    between atoms: C_35  and  C_36 
REMARK   14  A    between atoms: C_36  and  O_38 
REMARK   15  A    between atoms: C_39  and  C_40 
REMARK   16  A    between atoms: C_40  and  C_41 
REMARK   17  A    between atoms: C_41  and  C_42 
REMARK   18  A    between atoms: C_42  and  O_44 
REMARK   19  A    between atoms: C_45  and  C_46 
REMARK   20  A    between atoms: C_46  and  C_47 
REMARK   21  A    between atoms: C_47  and  O_49 
REMARK   22  A    between atoms: C_50  and  C_51 
REMARK   23  A    between atoms: C_51  and  C_52 
REMARK   24  A    between atoms: C_52  and  O_54 
REMARK   25  A    between atoms: C_55  and  C_56 
REMARK   26  A    between atoms: C_56  and  C_57 
REMARK   27  A    between atoms: C_57  and  C_58 
REMARK   28  A    between atoms: C_58  and  O_60 
ROOT
ATOM      1  O   UNK d   0     -16.651  -2.729 -22.021  0.00  0.00    -0.650 OA
ATOM      2  C   UNK d   0     -17.366  -3.335 -22.850  0.00  0.00     0.139 C 
ENDROOT
BRANCH   2   3
ATOM      3  O   UNK d   0     -17.374  -2.923 -24.161  0.00  0.00    -0.776 OA
ATOM      4  H   UNK d   0     -16.810  -2.128 -24.467  0.00  0.00     0.167 HD
ENDBRANCH   2   3
BRANCH   2   5
ATOM      5  C   UNK d   0     -18.199  -4.491 -22.414  0.00  0.00     0.115 C 
BRANCH   5   6
ATOM      6  C   UNK d   0     -19.660  -4.153 -22.541  0.00  0.00     0.052 C 
BRANCH   6   7
ATOM      7  C   UNK d   0     -20.432  -5.194 -23.316  0.00  0.00    -0.020 A 
ATOM      8  C   UNK d   0     -21.461  -5.893 -22.908  0.00  0.00    -0.011 A 
ATOM      9  C   UNK d   0     -21.861  -6.771 -23.995  0.00  0.00     0.067 A 
ATOM     10  C   UNK d   0     -22.868  -7.725 -24.207  0.00  0.00     0.062 C 
ATOM     11  N   UNK d   0     -21.017  -6.545 -25.024  0.00  0.00    -0.248 NA
ATOM     12  C   UNK d   0     -23.270  -8.276 -25.429  0.00  0.00     0.041 A 
ATOM     13  N   UNK d   0     -22.553  -8.718 -26.480  0.00  0.00    -0.355 N 
ATOM     14  C   UNK d   0     -24.644  -8.372 -25.713  0.00  0.00    -0.022 A 
ATOM     15  C   UNK d   0     -23.437  -9.085 -27.427  0.00  0.00     0.042 A 
ATOM     16  H   UNK d   0     -21.445  -8.787 -26.544  0.00  0.00     0.166 HD
ATOM     17  C   UNK d   0     -23.228  -9.615 -28.716  0.00  0.00     0.062 C 
ATOM     18  C   UNK d   0     -24.758  -8.882 -26.983  0.00  0.00    -0.013 A 
ATOM     19  C   UNK d   0     -22.336  -9.216 -29.678  0.00  0.00     0.067 A 
ATOM     20  N   UNK d   0     -21.396  -8.343 -29.306  0.00  0.00    -0.248 NA
ATOM     21  C   UNK d   0     -22.129  -9.492 -31.090  0.00  0.00    -0.011 A 
ATOM     22  C   UNK d   0     -20.591  -8.027 -30.373  0.00  0.00     0.066 A 
ATOM     23  C   UNK d   0     -19.544  -7.154 -30.117  0.00  0.00     0.062 C 
ATOM     24  C   UNK d   0     -21.109  -8.790 -31.491  0.00  0.00    -0.020 A 
ATOM     25  C   UNK d   0     -19.149  -6.622 -28.880  0.00  0.00     0.041 A 
ATOM     26  N   UNK d   0     -19.861  -6.169 -27.841  0.00  0.00    -0.355 N 
ATOM     27  C   UNK d   0     -17.770  -6.529 -28.594  0.00  0.00    -0.022 A 
ATOM     28  C   UNK d   0     -18.982  -5.794 -26.899  0.00  0.00     0.042 A 
ATOM     29  H   UNK d   0     -20.975  -6.089 -27.783  0.00  0.00     0.166 HD
ATOM     30  C   UNK d   0     -19.176  -5.257 -25.617  0.00  0.00     0.062 C 
ATOM     31  C   UNK d   0     -17.655  -6.007 -27.342  0.00  0.00    -0.013 A 
ATOM     32  C   UNK d   0     -20.135  -5.606 -24.680  0.00  0.00     0.066 A 
BRANCH   8  33
ATOM     33  C   UNK d   0     -22.110  -5.822 -21.586  0.00  0.00     0.151 C 
BRANCH  33  34
ATOM     34  C   UNK d   0     -23.275  -4.920 -21.570  0.00  0.00     0.143 C 
ATOM     35  O   UNK d   0     -23.161  -3.728 -21.889  0.00  0.00    -0.650 OA
BRANCH  34  36
ATOM     36  O   UNK d   0     -24.504  -5.410 -21.193  0.00  0.00    -0.776 OA
ATOM     37  H   UNK d   0     -24.798  -6.364 -21.442  0.00  0.00     0.167 HD
ENDBRANCH  34  36
ENDBRANCH  33  34
ENDBRANCH   8  33
BRANCH  31  38
ATOM     38  C   UNK d   0     -16.364  -5.738 -26.604  0.00  0.00     0.151 C 
BRANCH  38  39
ATOM     39  C   UNK d   0     -16.022  -6.791 -25.671  0.00  0.00     0.143 C 
ATOM     40  O   UNK d   0     -15.137  -6.653 -24.808  0.00  0.00    -0.650 OA
BRANCH  39  41
ATOM     41  O   UNK d   0     -16.701  -8.007 -25.729  0.00  0.00    -0.776 OA
ATOM     42  H   UNK d   0     -16.527  -8.594 -26.551  0.00  0.00     0.167 HD
ENDBRANCH  39  41
ENDBRANCH  38  39
ENDBRANCH  31  38
BRANCH  27  43
ATOM     43  C   UNK d   0     -16.586  -6.909 -29.448  0.00  0.00     0.052 C 
BRANCH  43  44
ATOM     44  C   UNK d   0     -16.503  -8.375 -29.724  0.00  0.00     0.115 C 
BRANCH  44  45
ATOM     45  C   UNK d   0     -16.725  -8.545 -31.184  0.00  0.00     0.139 C 
ATOM     46  O   UNK d   0     -17.501  -9.458 -31.562  0.00  0.00    -0.650 OA
BRANCH  45  47
ATOM     47  O   UNK d   0     -16.123  -7.744 -32.130  0.00  0.00    -0.776 OA
ATOM     48  H   UNK d   0     -16.599  -6.938 -32.566  0.00  0.00     0.167 HD
ENDBRANCH  45  47
ENDBRANCH  44  45
ENDBRANCH  43  44
ENDBRANCH  27  43
BRANCH  24  49
ATOM     49  C   UNK d   0     -20.529  -8.797 -32.846  0.00  0.00     0.052 C 
BRANCH  49  50
ATOM     50  C   UNK d   0     -20.270  -7.387 -33.312  0.00  0.00     0.115 C 
BRANCH  50  51
ATOM     51  C   UNK d   0     -18.898  -7.043 -33.657  0.00  0.00     0.139 C 
ATOM     52  O   UNK d   0     -18.165  -7.793 -34.344  0.00  0.00    -0.650 OA
BRANCH  51  53
ATOM     53  O   UNK d   0     -18.359  -5.844 -33.216  0.00  0.00    -0.776 OA
ATOM     54  H   UNK d   0     -18.979  -5.063 -33.089  0.00  0.00     0.167 HD
ENDBRANCH  51  53
ENDBRANCH  50  51
ENDBRANCH  49  50
ENDBRANCH  24  49
BRANCH  21  55
ATOM     55  C   UNK d   0     -22.970 -10.432 -31.889  0.00  0.00     0.151 C 
BRANCH  55  56
ATOM     56  C   UNK d   0     -24.007  -9.727 -32.657  0.00  0.00     0.143 C 
ATOM     57  O   UNK d   0     -24.965  -9.140 -32.117  0.00  0.00    -0.650 OA
BRANCH  56  58
ATOM     58  O   UNK d   0     -23.897  -9.726 -34.047  0.00  0.00    -0.776 OA
ATOM     59  H   UNK d   0     -24.556  -9.094 -34.536  0.00  0.00     0.167 HD
ENDBRANCH  56  58
ENDBRANCH  55  56
ENDBRANCH  21  55
BRANCH  18  60
ATOM     60  C   UNK d   0     -26.062  -9.144 -27.695  0.00  0.00     0.151 C 
BRANCH  60  61
ATOM     61  C   UNK d   0     -26.422  -7.880 -28.355  0.00  0.00     0.143 C 
ATOM     62  O   UNK d   0     -27.124  -6.977 -27.898  0.00  0.00    -0.650 OA
BRANCH  61  63
ATOM     63  O   UNK d   0     -25.891  -7.707 -29.656  0.00  0.00    -0.776 OA
ATOM     64  H   UNK d   0     -25.037  -8.159 -29.932  0.00  0.00     0.167 HD
ENDBRANCH  61  63
ENDBRANCH  60  61
ENDBRANCH  18  60
BRANCH  14  65
ATOM     65  C   UNK d   0     -25.845  -8.114 -24.849  0.00  0.00     0.052 C 
BRANCH  65  66
ATOM     66  C   UNK d   0     -26.037  -9.148 -23.796  0.00  0.00     0.115 C 
BRANCH  66  67
ATOM     67  C   UNK d   0     -26.270  -8.745 -22.438  0.00  0.00     0.139 C 
ATOM     68  O   UNK d   0     -26.432  -9.658 -21.546  0.00  0.00    -0.650 OA
BRANCH  67  69
ATOM     69  O   UNK d   0     -26.350  -7.447 -21.934  0.00  0.00    -0.776 OA
ATOM     70  H   UNK d   0     -25.553  -7.141 -21.357  0.00  0.00     0.167 HD
ENDBRANCH  67  69
ENDBRANCH  66  67
ENDBRANCH  65  66
ENDBRANCH  14  65
ENDBRANCH   6   7
ENDBRANCH   5   6
ENDBRANCH   2   5
TORSDOF 28
ENDMDL
MODEL 15
REMARK VINA RESULT:      -8.0     30.247     34.035
REMARK  28 active torsions:
REMARK  status: ('A' for Active; 'I' for Inactive)
REMARK    1  A    between atoms: C_2  and  O_3 
REMARK    2  A    between atoms: C_2  and  C_4 
REMARK    3  A    between atoms: C_4  and  C_5 
REMARK    4  A    between atoms: C_5  and  C_6 
REMARK    5  A    between atoms: C_7  and  C_8 
REMARK    6  A    between atoms: C_8  and  C_9 
REMARK    7  A    between atoms: C_9  and  O_11 
REMARK    8  A    between atoms: C_28  and  C_29 
REMARK    9  A    between atoms: C_29  and  C_30 
REMARK   10  A    between atoms: C_30  and  O_32 
REMARK   11  A    between atoms: C_33  and  C_34 
REMARK   12  A    between atoms: C_34  and  C_35 
REMARK   13  A    between atoms: C_35  and  C_36 
REMARK   14  A    between atoms: C_36  and  O_38 
REMARK   15  A    between atoms: C_39  and  C_40 
REMARK   16  A    between atoms: C_40  and  C_41 
REMARK   17  A    between atoms: C_41  and  C_42 
REMARK   18  A    between atoms: C_42  and  O_44 
REMARK   19  A    between atoms: C_45  and  C_46 
REMARK   20  A    between atoms: C_46  and  C_47 
REMARK   21  A    between atoms: C_47  and  O_49 
REMARK   22  A    between atoms: C_50  and  C_51 
REMARK   23  A    between atoms: C_51  and  C_52 
REMARK   24  A    between atoms: C_52  and  O_54 
REMARK   25  A    between atoms: C_55  and  C_56 
REMARK   26  A    between atoms: C_56  and  C_57 
REMARK   27  A    between atoms: C_57  and  C_58 
REMARK   28  A    between atoms: C_58  and  O_60 
ROOT
ATOM      1  O   UNK d   0       0.560 -16.891  -5.112  0.00  0.00    -0.650 OA
ATOM      2  C   UNK d   0       0.206 -17.343  -4.000  0.00  0.00     0.139 C 
ENDROOT
BRANCH   2   3
ATOM      3  O   UNK d   0       0.399 -16.582  -2.872  0.00  0.00    -0.776 OA
ATOM      4  H   UNK d   0      -0.393 -16.182  -2.364  0.00  0.00     0.167 HD
ENDBRANCH   2   3
BRANCH   2   5
ATOM      5  C   UNK d   0      -0.417 -18.693  -3.904  0.00  0.00     0.115 C 
BRANCH   5   6
ATOM      6  C   UNK d   0      -1.917 -18.573  -3.913  0.00  0.00     0.052 C 
BRANCH   6   7
ATOM      7  C   UNK d   0      -2.582 -19.539  -2.962  0.00  0.00    -0.020 A 
ATOM      8  C   UNK d   0      -2.404 -19.637  -1.670  0.00  0.00    -0.011 A 
ATOM      9  C   UNK d   0      -3.252 -20.713  -1.184  0.00  0.00     0.067 A 
ATOM     10  C   UNK d   0      -3.536 -21.294   0.062  0.00  0.00     0.062 C 
ATOM     11  N   UNK d   0      -3.908 -21.218  -2.249  0.00  0.00    -0.248 NA
ATOM     12  C   UNK d   0      -4.600 -22.147   0.376  0.00  0.00     0.041 A 
ATOM     13  N   UNK d   0      -5.126 -23.190  -0.294  0.00  0.00    -0.355 N 
ATOM     14  C   UNK d   0      -5.336 -21.913   1.551  0.00  0.00    -0.022 A 
ATOM     15  C   UNK d   0      -6.183 -23.619   0.423  0.00  0.00     0.042 A 
ATOM     16  H   UNK d   0      -4.747 -23.627  -1.244  0.00  0.00     0.166 HD
ATOM     17  C   UNK d   0      -7.083 -24.676   0.181  0.00  0.00     0.062 C 
ATOM     18  C   UNK d   0      -6.346 -22.842   1.586  0.00  0.00    -0.013 A 
ATOM     19  C   UNK d   0      -7.712 -25.021  -0.988  0.00  0.00     0.067 A 
ATOM     20  N   UNK d   0      -7.290 -24.421  -2.103  0.00  0.00    -0.248 NA
ATOM     21  C   UNK d   0      -8.796 -25.913  -1.367  0.00  0.00    -0.011 A 
ATOM     22  C   UNK d   0      -8.019 -24.853  -3.183  0.00  0.00     0.066 A 
ATOM     23  C   UNK d   0      -7.658 -24.335  -4.418  0.00  0.00     0.062 C 
ATOM     24  C   UNK d   0      -8.973 -25.807  -2.652  0.00  0.00    -0.020 A 
ATOM     25  C   UNK d   0      -6.578 -23.489  -4.714  0.00  0.00     0.041 A 
ATOM     26  N   UNK d   0      -6.064 -22.443  -4.057  0.00  0.00    -0.355 N 
ATOM     27  C   UNK d   0      -5.837 -23.728  -5.892  0.00  0.00    -0.022 A 
ATOM     28  C   UNK d   0      -5.015 -22.009  -4.774  0.00  0.00     0.042 A 
ATOM     29  H   UNK d   0      -6.452 -21.999  -3.108  0.00  0.00     0.166 HD
ATOM     30  C   UNK d   0      -4.117 -20.953  -4.549  0.00  0.00     0.062 C 
ATOM     31  C   UNK d   0      -4.846 -22.796  -5.937  0.00  0.00    -0.013 A 
ATOM     32  C   UNK d   0      -3.550 -20.555  -3.350  0.00  0.00     0.066 A 
BRANCH   8  33
ATOM     33  C   UNK d   0      -1.504 -18.818  -0.836  0.00  0.00     0.151 C 
BRANCH  33  34
ATOM     34  C   UNK d   0      -2.044 -17.474  -0.564  0.00  0.00     0.143 C 
ATOM     35  O   UNK d   0      -3.264 -17.257  -0.611  0.00  0.00    -0.650 OA
BRANCH  34  36
ATOM     36  O   UNK d   0      -1.181 -16.448  -0.257  0.00  0.00    -0.776 OA
ATOM     37  H   UNK d   0      -0.458 -16.558   0.468  0.00  0.00     0.167 HD
ENDBRANCH  34  36
ENDBRANCH  33  34
ENDBRANCH   8  33
BRANCH  31  38
ATOM     38  C   UNK d   0      -3.792 -22.667  -7.012  0.00  0.00     0.151 C 
BRANCH  38  39
ATOM     39  C   UNK d   0      -2.724 -23.634  -6.870  0.00  0.00     0.143 C 
ATOM     40  O   UNK d   0      -2.093 -24.077  -7.846  0.00  0.00    -0.650 OA
BRANCH  39  41
ATOM     41  O   UNK d   0      -2.379 -24.094  -5.600  0.00  0.00    -0.776 OA
ATOM     42  H   UNK d   0      -1.605 -24.764  -5.545  0.00  0.00     0.167 HD
ENDBRANCH  39  41
ENDBRANCH  38  39
ENDBRANCH  31  38
BRANCH  27  43
ATOM     43  C   UNK d   0      -6.034 -24.784  -6.951  0.00  0.00     0.052 C 
BRANCH  43  44
ATOM     44  C   UNK d   0      -6.981 -24.368  -8.030  0.00  0.00     0.115 C 
BRANCH  44  45
ATOM     45  C   UNK d   0      -7.893 -25.519  -8.260  0.00  0.00     0.139 C 
ATOM     46  O   UNK d   0      -7.534 -26.406  -9.073  0.00  0.00    -0.650 OA
BRANCH  45  47
ATOM     47  O   UNK d   0      -9.105 -25.651  -7.617  0.00  0.00    -0.776 OA
ATOM     48  H   UNK d   0      -9.896 -25.006  -7.774  0.00  0.00     0.167 HD
ENDBRANCH  45  47
ENDBRANCH  44  45
ENDBRANCH  43  44
ENDBRANCH  27  43
BRANCH  24  49
ATOM     49  C   UNK d   0      -9.946 -26.563  -3.460  0.00  0.00     0.052 C 
BRANCH  49  50
ATOM     50  C   UNK d   0     -10.939 -25.625  -4.098  0.00  0.00     0.115 C 
BRANCH  50  51
ATOM     51  C   UNK d   0     -11.374 -24.481  -3.309  0.00  0.00     0.139 C 
ATOM     52  O   UNK d   0     -11.168 -23.297  -3.665  0.00  0.00    -0.650 OA
BRANCH  51  53
ATOM     53  O   UNK d   0     -12.044 -24.687  -2.113  0.00  0.00    -0.776 OA
ATOM     54  H   UNK d   0     -11.620 -25.288  -1.428  0.00  0.00     0.167 HD
ENDBRANCH  51  53
ENDBRANCH  50  51
ENDBRANCH  49  50
ENDBRANCH  24  49
BRANCH  21  55
ATOM     55  C   UNK d   0      -9.538 -26.781  -0.405  0.00  0.00     0.151 C 
BRANCH  55  56
ATOM     56  C   UNK d   0      -9.951 -26.043   0.798  0.00  0.00     0.143 C 
ATOM     57  O   UNK d   0      -9.653 -26.411   1.952  0.00  0.00    -0.650 OA
BRANCH  56  58
ATOM     58  O   UNK d   0     -10.708 -24.885   0.622  0.00  0.00    -0.776 OA
ATOM     59  H   UNK d   0     -10.724 -24.518  -0.346  0.00  0.00     0.167 HD
ENDBRANCH  56  58
ENDBRANCH  55  56
ENDBRANCH  21  55
BRANCH  18  60
ATOM     60  C   UNK d   0      -7.384 -22.949   2.676  0.00  0.00     0.151 C 
BRANCH  60  61
ATOM     61  C   UNK d   0      -8.555 -22.201   2.193  0.00  0.00     0.143 C 
ATOM     62  O   UNK d   0      -9.450 -22.618   1.456  0.00  0.00    -0.650 OA
BRANCH  61  63
ATOM     63  O   UNK d   0      -8.638 -20.860   2.638  0.00  0.00    -0.776 OA
ATOM     64  H   UNK d   0      -9.527 -20.406   2.751  0.00  0.00     0.167 HD
ENDBRANCH  61  63
ENDBRANCH  60  61
ENDBRANCH  18  60
BRANCH  14  65
ATOM     65  C   UNK d   0      -5.101 -20.951   2.681  0.00  0.00     0.052 C 
BRANCH  65  66
ATOM     66  C   UNK d   0      -5.449 -19.547   2.331  0.00  0.00     0.115 C 
BRANCH  66  67
ATOM     67  C   UNK d   0      -4.421 -18.546   2.295  0.00  0.00     0.139 C 
ATOM     68  O   UNK d   0      -3.199 -18.916   2.453  0.00  0.00    -0.650 OA
BRANCH  67  69
ATOM     69  O   UNK d   0      -4.572 -17.173   2.106  0.00  0.00    -0.776 OA
ATOM     70  H   UNK d   0      -5.211 -16.893   1.348  0.00  0.00     0.167 HD
ENDBRANCH  67  69
ENDBRANCH  66  67
ENDBRANCH  65  66
ENDBRANCH  14  65
ENDBRANCH   6   7
ENDBRANCH   5   6
ENDBRANCH   2   5
TORSDOF 28
ENDMDL
MODEL 16
REMARK VINA RESULT:      -8.0     30.347     34.588
REMARK  28 active torsions:
REMARK  status: ('A' for Active; 'I' for Inactive)
REMARK    1  A    between atoms: C_2  and  O_3 
REMARK    2  A    between atoms: C_2  and  C_4 
REMARK    3  A    between atoms: C_4  and  C_5 
REMARK    4  A    between atoms: C_5  and  C_6 
REMARK    5  A    between atoms: C_7  and  C_8 
REMARK    6  A    between atoms: C_8  and  C_9 
REMARK    7  A    between atoms: C_9  and  O_11 
REMARK    8  A    between atoms: C_28  and  C_29 
REMARK    9  A    between atoms: C_29  and  C_30 
REMARK   10  A    between atoms: C_30  and  O_32 
REMARK   11  A    between atoms: C_33  and  C_34 
REMARK   12  A    between atoms: C_34  and  C_35 
REMARK   13  A    between atoms: C_35  and  C_36 
REMARK   14  A    between atoms: C_36  and  O_38 
REMARK   15  A    between atoms: C_39  and  C_40 
REMARK   16  A    between atoms: C_40  and  C_41 
REMARK   17  A    between atoms: C_41  and  C_42 
REMARK   18  A    between atoms: C_42  and  O_44 
REMARK   19  A    between atoms: C_45  and  C_46 
REMARK   20  A    between atoms: C_46  and  C_47 
REMARK   21  A    between atoms: C_47  and  O_49 
REMARK   22  A    between atoms: C_50  and  C_51 
REMARK   23  A    between atoms: C_51  and  C_52 
REMARK   24  A    between atoms: C_52  and  O_54 
REMARK   25  A    between atoms: C_55  and  C_56 
REMARK   26  A    between atoms: C_56  and  C_57 
REMARK   27  A    between atoms: C_57  and  C_58 
REMARK   28  A    between atoms: C_58  and  O_60 
ROOT
ATOM      1  O   UNK d   0      -5.940 -27.582  -7.289  0.00  0.00    -0.650 OA
ATOM      2  C   UNK d   0      -6.939 -26.934  -7.674  0.00  0.00     0.139 C 
ENDROOT
BRANCH   2   3
ATOM      3  O   UNK d   0      -8.170 -27.206  -7.126  0.00  0.00    -0.776 OA
ATOM      4  H   UNK d   0      -8.612 -28.119  -7.248  0.00  0.00     0.167 HD
ENDBRANCH   2   3
BRANCH   2   5
ATOM      5  C   UNK d   0      -6.791 -25.880  -8.718  0.00  0.00     0.115 C 
BRANCH   5   6
ATOM      6  C   UNK d   0      -7.206 -24.543  -8.166  0.00  0.00     0.052 C 
BRANCH   6   7
ATOM      7  C   UNK d   0      -6.270 -24.043  -7.092  0.00  0.00    -0.020 A 
ATOM      8  C   UNK d   0      -5.078 -23.526  -7.249  0.00  0.00    -0.011 A 
ATOM      9  C   UNK d   0      -4.557 -23.200  -5.931  0.00  0.00     0.067 A 
ATOM     10  C   UNK d   0      -3.385 -22.621  -5.421  0.00  0.00     0.062 C 
ATOM     11  N   UNK d   0      -5.496 -23.558  -5.030  0.00  0.00    -0.248 NA
ATOM     12  C   UNK d   0      -3.177 -22.130  -4.128  0.00  0.00     0.041 A 
ATOM     13  N   UNK d   0      -3.521 -22.626  -2.924  0.00  0.00    -0.355 N 
ATOM     14  C   UNK d   0      -2.553 -20.879  -3.967  0.00  0.00    -0.022 A 
ATOM     15  C   UNK d   0      -3.140 -21.719  -2.005  0.00  0.00     0.042 A 
ATOM     16  H   UNK d   0      -4.007 -23.607  -2.727  0.00  0.00     0.166 HD
ATOM     17  C   UNK d   0      -3.258 -21.737  -0.601  0.00  0.00     0.062 C 
ATOM     18  C   UNK d   0      -2.529 -20.610  -2.621  0.00  0.00    -0.013 A 
ATOM     19  C   UNK d   0      -4.336 -22.090   0.169  0.00  0.00     0.067 A 
ATOM     20  N   UNK d   0      -5.355 -22.686  -0.454  0.00  0.00    -0.248 NA
ATOM     21  C   UNK d   0      -4.702 -21.973   1.571  0.00  0.00    -0.011 A 
ATOM     22  C   UNK d   0      -6.362 -22.966   0.437  0.00  0.00     0.066 A 
ATOM     23  C   UNK d   0      -7.472 -23.623  -0.072  0.00  0.00     0.062 C 
ATOM     24  C   UNK d   0      -5.890 -22.483   1.720  0.00  0.00    -0.020 A 
ATOM     25  C   UNK d   0      -7.656 -24.120  -1.372  0.00  0.00     0.041 A 
ATOM     26  N   UNK d   0      -7.327 -23.619  -2.569  0.00  0.00    -0.355 N 
ATOM     27  C   UNK d   0      -8.278 -25.377  -1.532  0.00  0.00    -0.022 A 
ATOM     28  C   UNK d   0      -7.715 -24.518  -3.488  0.00  0.00     0.042 A 
ATOM     29  H   UNK d   0      -6.849 -22.628  -2.766  0.00  0.00     0.166 HD
ATOM     30  C   UNK d   0      -7.612 -24.509  -4.888  0.00  0.00     0.062 C 
ATOM     31  C   UNK d   0      -8.319 -25.637  -2.867  0.00  0.00    -0.013 A 
ATOM     32  C   UNK d   0      -6.551 -24.071  -5.664  0.00  0.00     0.066 A 
BRANCH   8  33
ATOM     33  C   UNK d   0      -4.369 -23.308  -8.523  0.00  0.00     0.151 C 
BRANCH  33  34
ATOM     34  C   UNK d   0      -2.908 -23.215  -8.354  0.00  0.00     0.143 C 
ATOM     35  O   UNK d   0      -2.323 -22.127  -8.456  0.00  0.00    -0.650 OA
BRANCH  34  36
ATOM     36  O   UNK d   0      -2.185 -24.354  -8.080  0.00  0.00    -0.776 OA
ATOM     37  H   UNK d   0      -1.185 -24.420  -8.312  0.00  0.00     0.167 HD
ENDBRANCH  34  36
ENDBRANCH  33  34
ENDBRANCH   8  33
BRANCH  31  38
ATOM     38  C   UNK d   0      -8.884 -26.878  -3.517  0.00  0.00     0.151 C 
BRANCH  38  39
ATOM     39  C   UNK d   0     -10.214 -26.676  -4.053  0.00  0.00     0.143 C 
ATOM     40  O   UNK d   0     -11.091 -26.047  -3.436  0.00  0.00    -0.650 OA
BRANCH  39  41
ATOM     41  O   UNK d   0     -10.536 -27.199  -5.305  0.00  0.00    -0.776 OA
ATOM     42  H   UNK d   0     -10.493 -28.218  -5.404  0.00  0.00     0.167 HD
ENDBRANCH  39  41
ENDBRANCH  38  39
ENDBRANCH  31  38
BRANCH  27  43
ATOM     43  C   UNK d   0      -8.824 -26.316  -0.486  0.00  0.00     0.052 C 
BRANCH  43  44
ATOM     44  C   UNK d   0      -7.957 -26.418   0.727  0.00  0.00     0.115 C 
BRANCH  44  45
ATOM     45  C   UNK d   0      -6.683 -27.044   0.287  0.00  0.00     0.139 C 
ATOM     46  O   UNK d   0      -5.612 -26.618   0.785  0.00  0.00    -0.650 OA
BRANCH  45  47
ATOM     47  O   UNK d   0      -6.633 -28.068  -0.634  0.00  0.00    -0.776 OA
ATOM     48  H   UNK d   0      -5.791 -28.276  -1.195  0.00  0.00     0.167 HD
ENDBRANCH  45  47
ENDBRANCH  44  45
ENDBRANCH  43  44
ENDBRANCH  27  43
BRANCH  24  49
ATOM     49  C   UNK d   0      -6.630 -22.605   2.988  0.00  0.00     0.052 C 
BRANCH  49  50
ATOM     50  C   UNK d   0      -7.654 -21.506   3.106  0.00  0.00     0.115 C 
BRANCH  50  51
ATOM     51  C   UNK d   0      -9.043 -21.908   3.285  0.00  0.00     0.139 C 
ATOM     52  O   UNK d   0      -9.537 -22.906   2.709  0.00  0.00    -0.650 OA
BRANCH  51  53
ATOM     53  O   UNK d   0      -9.869 -21.170   4.118  0.00  0.00    -0.776 OA
ATOM     54  H   UNK d   0      -9.853 -20.168   4.038  0.00  0.00     0.167 HD
ENDBRANCH  51  53
ENDBRANCH  50  51
ENDBRANCH  49  50
ENDBRANCH  24  49
BRANCH  21  55
ATOM     55  C   UNK d   0      -3.824 -21.367   2.615  0.00  0.00     0.151 C 
BRANCH  55  56
ATOM     56  C   UNK d   0      -3.757 -19.902   2.497  0.00  0.00     0.143 C 
ATOM     57  O   UNK d   0      -4.747 -19.165   2.671  0.00  0.00    -0.650 OA
BRANCH  56  58
ATOM     58  O   UNK d   0      -2.526 -19.332   2.176  0.00  0.00    -0.776 OA
ATOM     59  H   UNK d   0      -1.968 -19.013   2.989  0.00  0.00     0.167 HD
ENDBRANCH  56  58
ENDBRANCH  55  56
ENDBRANCH  21  55
BRANCH  18  60
ATOM     60  C   UNK d   0      -1.954 -19.361  -1.999  0.00  0.00     0.151 C 
BRANCH  60  61
ATOM     61  C   UNK d   0      -3.108 -18.554  -1.575  0.00  0.00     0.143 C 
ATOM     62  O   UNK d   0      -3.321 -18.097  -0.451  0.00  0.00    -0.650 OA
BRANCH  61  63
ATOM     63  O   UNK d   0      -4.061 -18.287  -2.587  0.00  0.00    -0.776 OA
ATOM     64  H   UNK d   0      -4.258 -17.346  -2.878  0.00  0.00     0.167 HD
ENDBRANCH  61  63
ENDBRANCH  60  61
ENDBRANCH  18  60
BRANCH  14  65
ATOM     65  C   UNK d   0      -1.897 -19.974  -4.971  0.00  0.00     0.052 C 
BRANCH  65  66
ATOM     66  C   UNK d   0      -2.875 -19.244  -5.822  0.00  0.00     0.115 C 
BRANCH  66  67
ATOM     67  C   UNK d   0      -2.480 -18.783  -7.123  0.00  0.00     0.139 C 
ATOM     68  O   UNK d   0      -1.739 -17.735  -7.204  0.00  0.00    -0.650 OA
BRANCH  67  69
ATOM     69  O   UNK d   0      -2.804 -19.339  -8.360  0.00  0.00    -0.776 OA
ATOM     70  H   UNK d   0      -2.999 -20.350  -8.360  0.00  0.00     0.167 HD
ENDBRANCH  67  69
ENDBRANCH  66  67
ENDBRANCH  65  66
ENDBRANCH  14  65
ENDBRANCH   6   7
ENDBRANCH   5   6
ENDBRANCH   2   5
TORSDOF 28
ENDMDL
MODEL 17
REMARK VINA RESULT:      -8.0     30.312     33.874
REMARK  28 active torsions:
REMARK  status: ('A' for Active; 'I' for Inactive)
REMARK    1  A    between atoms: C_2  and  O_3 
REMARK    2  A    between atoms: C_2  and  C_4 
REMARK    3  A    between atoms: C_4  and  C_5 
REMARK    4  A    between atoms: C_5  and  C_6 
REMARK    5  A    between atoms: C_7  and  C_8 
REMARK    6  A    between atoms: C_8  and  C_9 
REMARK    7  A    between atoms: C_9  and  O_11 
REMARK    8  A    between atoms: C_28  and  C_29 
REMARK    9  A    between atoms: C_29  and  C_30 
REMARK   10  A    between atoms: C_30  and  O_32 
REMARK   11  A    between atoms: C_33  and  C_34 
REMARK   12  A    between atoms: C_34  and  C_35 
REMARK   13  A    between atoms: C_35  and  C_36 
REMARK   14  A    between atoms: C_36  and  O_38 
REMARK   15  A    between atoms: C_39  and  C_40 
REMARK   16  A    between atoms: C_40  and  C_41 
REMARK   17  A    between atoms: C_41  and  C_42 
REMARK   18  A    between atoms: C_42  and  O_44 
REMARK   19  A    between atoms: C_45  and  C_46 
REMARK   20  A    between atoms: C_46  and  C_47 
REMARK   21  A    between atoms: C_47  and  O_49 
REMARK   22  A    between atoms: C_50  and  C_51 
REMARK   23  A    between atoms: C_51  and  C_52 
REMARK   24  A    between atoms: C_52  and  O_54 
REMARK   25  A    between atoms: C_55  and  C_56 
REMARK   26  A    between atoms: C_56  and  C_57 
REMARK   27  A    between atoms: C_57  and  C_58 
REMARK   28  A    between atoms: C_58  and  O_60 
ROOT
ATOM      1  O   UNK d   0      -2.401 -18.315   2.237  0.00  0.00    -0.650 OA
ATOM      2  C   UNK d   0      -3.281 -19.204   2.191  0.00  0.00     0.139 C 
ENDROOT
BRANCH   2   3
ATOM      3  O   UNK d   0      -4.542 -18.882   1.753  0.00  0.00    -0.776 OA
ATOM      4  H   UNK d   0      -5.088 -19.536   1.188  0.00  0.00     0.167 HD
ENDBRANCH   2   3
BRANCH   2   5
ATOM      5  C   UNK d   0      -2.958 -20.598   2.609  0.00  0.00     0.115 C 
BRANCH   5   6
ATOM      6  C   UNK d   0      -2.093 -21.263   1.573  0.00  0.00     0.052 C 
BRANCH   6   7
ATOM      7  C   UNK d   0      -2.769 -21.357   0.226  0.00  0.00    -0.020 A 
ATOM      8  C   UNK d   0      -2.415 -20.768  -0.888  0.00  0.00    -0.011 A 
ATOM      9  C   UNK d   0      -3.369 -21.149  -1.916  0.00  0.00     0.067 A 
ATOM     10  C   UNK d   0      -3.541 -20.889  -3.284  0.00  0.00     0.062 C 
ATOM     11  N   UNK d   0      -4.275 -21.967  -1.338  0.00  0.00    -0.248 NA
ATOM     12  C   UNK d   0      -4.371 -21.574  -4.179  0.00  0.00     0.041 A 
ATOM     13  N   UNK d   0      -5.633 -22.024  -4.049  0.00  0.00    -0.355 N 
ATOM     14  C   UNK d   0      -3.859 -21.942  -5.436  0.00  0.00    -0.022 A 
ATOM     15  C   UNK d   0      -5.933 -22.676  -5.189  0.00  0.00     0.042 A 
ATOM     16  H   UNK d   0      -6.306 -21.868  -3.178  0.00  0.00     0.166 HD
ATOM     17  C   UNK d   0      -7.115 -23.335  -5.581  0.00  0.00     0.062 C 
ATOM     18  C   UNK d   0      -4.844 -22.646  -6.083  0.00  0.00    -0.013 A 
ATOM     19  C   UNK d   0      -7.901 -24.197  -4.860  0.00  0.00     0.067 A 
ATOM     20  N   UNK d   0      -7.651 -24.293  -3.552  0.00  0.00    -0.248 NA
ATOM     21  C   UNK d   0      -8.997 -25.106  -5.154  0.00  0.00    -0.011 A 
ATOM     22  C   UNK d   0      -8.502 -25.200  -2.969  0.00  0.00     0.066 A 
ATOM     23  C   UNK d   0      -8.377 -25.371  -1.599  0.00  0.00     0.062 C 
ATOM     24  C   UNK d   0      -9.341 -25.693  -4.044  0.00  0.00    -0.020 A 
ATOM     25  C   UNK d   0      -7.546 -24.664  -0.716  0.00  0.00     0.041 A 
ATOM     26  N   UNK d   0      -6.286 -24.229  -0.839  0.00  0.00    -0.355 N 
ATOM     27  C   UNK d   0      -8.062 -24.291   0.544  0.00  0.00    -0.022 A 
ATOM     28  C   UNK d   0      -5.982 -23.587   0.300  0.00  0.00     0.042 A 
ATOM     29  H   UNK d   0      -5.607 -24.397  -1.711  0.00  0.00     0.166 HD
ATOM     30  C   UNK d   0      -4.807 -22.935   0.707  0.00  0.00     0.062 C 
ATOM     31  C   UNK d   0      -7.080 -23.608   1.193  0.00  0.00    -0.013 A 
ATOM     32  C   UNK d   0      -3.969 -22.132  -0.051  0.00  0.00     0.066 A 
BRANCH   8  33
ATOM     33  C   UNK d   0      -1.262 -19.871  -1.087  0.00  0.00     0.151 C 
BRANCH  33  34
ATOM     34  C   UNK d   0      -1.646 -18.449  -1.133  0.00  0.00     0.143 C 
ATOM     35  O   UNK d   0      -2.342 -18.008  -2.059  0.00  0.00    -0.650 OA
BRANCH  34  36
ATOM     36  O   UNK d   0      -1.224 -17.602  -0.134  0.00  0.00    -0.776 OA
ATOM     37  H   UNK d   0      -0.285 -17.183  -0.150  0.00  0.00     0.167 HD
ENDBRANCH  34  36
ENDBRANCH  33  34
ENDBRANCH   8  33
BRANCH  31  38
ATOM     38  C   UNK d   0      -7.179 -23.000   2.573  0.00  0.00     0.151 C 
BRANCH  38  39
ATOM     39  C   UNK d   0      -7.671 -21.639   2.552  0.00  0.00     0.143 C 
ATOM     40  O   UNK d   0      -8.883 -21.369   2.622  0.00  0.00    -0.650 OA
BRANCH  39  41
ATOM     41  O   UNK d   0      -6.766 -20.583   2.452  0.00  0.00    -0.776 OA
ATOM     42  H   UNK d   0      -6.881 -19.812   3.117  0.00  0.00     0.167 HD
ENDBRANCH  39  41
ENDBRANCH  38  39
ENDBRANCH  31  38
BRANCH  27  43
ATOM     43  C   UNK d   0      -9.423 -24.556   1.139  0.00  0.00     0.052 C 
BRANCH  43  44
ATOM     44  C   UNK d   0      -9.658 -25.996   1.458  0.00  0.00     0.115 C 
BRANCH  44  45
ATOM     45  C   UNK d   0     -10.490 -26.545   0.356  0.00  0.00     0.139 C 
ATOM     46  O   UNK d   0     -11.350 -25.793  -0.167  0.00  0.00    -0.650 OA
BRANCH  45  47
ATOM     47  O   UNK d   0     -10.353 -27.833  -0.115  0.00  0.00    -0.776 OA
ATOM     48  H   UNK d   0     -10.870 -28.187  -0.936  0.00  0.00     0.167 HD
ENDBRANCH  45  47
ENDBRANCH  44  45
ENDBRANCH  43  44
ENDBRANCH  27  43
BRANCH  24  49
ATOM     49  C   UNK d   0     -10.436 -26.664  -3.879  0.00  0.00     0.052 C 
BRANCH  49  50
ATOM     50  C   UNK d   0      -9.938 -28.064  -4.129  0.00  0.00     0.115 C 
BRANCH  50  51
ATOM     51  C   UNK d   0     -10.720 -28.897  -5.032  0.00  0.00     0.139 C 
ATOM     52  O   UNK d   0     -11.184 -28.469  -6.116  0.00  0.00    -0.650 OA
BRANCH  51  53
ATOM     53  O   UNK d   0     -10.975 -30.219  -4.700  0.00  0.00    -0.776 OA
ATOM     54  H   UNK d   0     -10.507 -30.939  -5.220  0.00  0.00     0.167 HD
ENDBRANCH  51  53
ENDBRANCH  50  51
ENDBRANCH  49  50
ENDBRANCH  24  49
BRANCH  21  55
ATOM     55  C   UNK d   0      -9.587 -25.290  -6.513  0.00  0.00     0.151 C 
BRANCH  55  56
ATOM     56  C   UNK d   0      -8.681 -26.017  -7.415  0.00  0.00     0.143 C 
ATOM     57  O   UNK d   0      -8.096 -25.469  -8.370  0.00  0.00    -0.650 OA
BRANCH  56  58
ATOM     58  O   UNK d   0      -8.480 -27.376  -7.176  0.00  0.00    -0.776 OA
ATOM     59  H   UNK d   0      -9.347 -27.931  -7.057  0.00  0.00     0.167 HD
ENDBRANCH  56  58
ENDBRANCH  55  56
ENDBRANCH  21  55
BRANCH  18  60
ATOM     60  C   UNK d   0      -4.718 -23.240  -7.464  0.00  0.00     0.151 C 
BRANCH  60  61
ATOM     61  C   UNK d   0      -4.371 -24.655  -7.264  0.00  0.00     0.143 C 
ATOM     62  O   UNK d   0      -5.141 -25.617  -7.269  0.00  0.00    -0.650 OA
BRANCH  61  63
ATOM     63  O   UNK d   0      -2.996 -24.913  -7.045  0.00  0.00    -0.776 OA
ATOM     64  H   UNK d   0      -2.315 -24.738  -7.763  0.00  0.00     0.167 HD
ENDBRANCH  61  63
ENDBRANCH  60  61
ENDBRANCH  18  60
BRANCH  14  65
ATOM     65  C   UNK d   0      -2.558 -21.599  -6.104  0.00  0.00     0.052 C 
BRANCH  65  66
ATOM     66  C   UNK d   0      -2.586 -20.277  -6.786  0.00  0.00     0.115 C 
BRANCH  66  67
ATOM     67  C   UNK d   0      -2.442 -20.209  -8.213  0.00  0.00     0.139 C 
ATOM     68  O   UNK d   0      -1.905 -21.205  -8.824  0.00  0.00    -0.650 OA
BRANCH  67  69
ATOM     69  O   UNK d   0      -2.819 -19.167  -9.060  0.00  0.00    -0.776 OA
ATOM     70  H   UNK d   0      -3.290 -18.370  -8.608  0.00  0.00     0.167 HD
ENDBRANCH  67  69
ENDBRANCH  66  67
ENDBRANCH  65  66
ENDBRANCH  14  65
ENDBRANCH   6   7
ENDBRANCH   5   6
ENDBRANCH   2   5
TORSDOF 28
ENDMDL
MODEL 18
REMARK VINA RESULT:      -7.9     30.079     33.300
REMARK  28 active torsions:
REMARK  status: ('A' for Active; 'I' for Inactive)
REMARK    1  A    between atoms: C_2  and  O_3 
REMARK    2  A    between atoms: C_2  and  C_4 
REMARK    3  A    between atoms: C_4  and  C_5 
REMARK    4  A    between atoms: C_5  and  C_6 
REMARK    5  A    between atoms: C_7  and  C_8 
REMARK    6  A    between atoms: C_8  and  C_9 
REMARK    7  A    between atoms: C_9  and  O_11 
REMARK    8  A    between atoms: C_28  and  C_29 
REMARK    9  A    between atoms: C_29  and  C_30 
REMARK   10  A    between atoms: C_30  and  O_32 
REMARK   11  A    between atoms: C_33  and  C_34 
REMARK   12  A    between atoms: C_34  and  C_35 
REMARK   13  A    between atoms: C_35  and  C_36 
REMARK   14  A    between atoms: C_36  and  O_38 
REMARK   15  A    between atoms: C_39  and  C_40 
REMARK   16  A    between atoms: C_40  and  C_41 
REMARK   17  A    between atoms: C_41  and  C_42 
REMARK   18  A    between atoms: C_42  and  O_44 
REMARK   19  A    between atoms: C_45  and  C_46 
REMARK   20  A    between atoms: C_46  and  C_47 
REMARK   21  A    between atoms: C_47  and  O_49 
REMARK   22  A    between atoms: C_50  and  C_51 
REMARK   23  A    between atoms: C_51  and  C_52 
REMARK   24  A    between atoms: C_52  and  O_54 
REMARK   25  A    between atoms: C_55  and  C_56 
REMARK   26  A    between atoms: C_56  and  C_57 
REMARK   27  A    between atoms: C_57  and  C_58 
REMARK   28  A    between atoms: C_58  and  O_60 
ROOT
ATOM      1  O   UNK d   0      -1.046 -16.796   0.159  0.00  0.00    -0.650 OA
ATOM      2  C   UNK d   0      -2.240 -17.130   0.326  0.00  0.00     0.139 C 
ENDROOT
BRANCH   2   3
ATOM      3  O   UNK d   0      -2.881 -16.781   1.490  0.00  0.00    -0.776 OA
ATOM      4  H   UNK d   0      -3.076 -17.476   2.214  0.00  0.00     0.167 HD
ENDBRANCH   2   3
BRANCH   2   5
ATOM      5  C   UNK d   0      -2.956 -17.900  -0.730  0.00  0.00     0.115 C 
BRANCH   5   6
ATOM      6  C   UNK d   0      -2.315 -19.249  -0.912  0.00  0.00     0.052 C 
BRANCH   6   7
ATOM      7  C   UNK d   0      -3.284 -20.387  -0.696  0.00  0.00    -0.020 A 
ATOM      8  C   UNK d   0      -3.682 -20.891   0.444  0.00  0.00    -0.011 A 
ATOM      9  C   UNK d   0      -4.607 -21.974   0.153  0.00  0.00     0.067 A 
ATOM     10  C   UNK d   0      -5.379 -22.875   0.903  0.00  0.00     0.062 C 
ATOM     11  N   UNK d   0      -4.710 -22.063  -1.190  0.00  0.00    -0.248 NA
ATOM     12  C   UNK d   0      -6.433 -23.673   0.445  0.00  0.00     0.041 A 
ATOM     13  N   UNK d   0      -6.568 -24.405  -0.677  0.00  0.00    -0.355 N 
ATOM     14  C   UNK d   0      -7.618 -23.735   1.200  0.00  0.00    -0.022 A 
ATOM     15  C   UNK d   0      -7.810 -24.924  -0.657  0.00  0.00     0.042 A 
ATOM     16  H   UNK d   0      -5.793 -24.568  -1.459  0.00  0.00     0.166 HD
ATOM     17  C   UNK d   0      -8.465 -25.762  -1.581  0.00  0.00     0.062 C 
ATOM     18  C   UNK d   0      -8.499 -24.526   0.505  0.00  0.00    -0.013 A 
ATOM     19  C   UNK d   0      -8.506 -25.672  -2.949  0.00  0.00     0.067 A 
ATOM     20  N   UNK d   0      -7.668 -24.805  -3.523  0.00  0.00    -0.248 NA
ATOM     21  C   UNK d   0      -9.275 -26.294  -4.014  0.00  0.00    -0.011 A 
ATOM     22  C   UNK d   0      -7.833 -24.814  -4.886  0.00  0.00     0.066 A 
ATOM     23  C   UNK d   0      -6.994 -23.984  -5.615  0.00  0.00     0.062 C 
ATOM     24  C   UNK d   0      -8.879 -25.784  -5.145  0.00  0.00    -0.020 A 
ATOM     25  C   UNK d   0      -5.933 -23.200  -5.136  0.00  0.00     0.041 A 
ATOM     26  N   UNK d   0      -5.805 -22.460  -4.029  0.00  0.00    -0.355 N 
ATOM     27  C   UNK d   0      -4.743 -23.141  -5.894  0.00  0.00    -0.022 A 
ATOM     28  C   UNK d   0      -4.570 -21.934  -4.051  0.00  0.00     0.042 A 
ATOM     29  H   UNK d   0      -6.588 -22.289  -3.250  0.00  0.00     0.166 HD
ATOM     30  C   UNK d   0      -3.908 -21.092  -3.144  0.00  0.00     0.062 C 
ATOM     31  C   UNK d   0      -3.875 -22.343  -5.214  0.00  0.00    -0.013 A 
ATOM     32  C   UNK d   0      -3.939 -21.135  -1.759  0.00  0.00     0.066 A 
BRANCH   8  33
ATOM     33  C   UNK d   0      -3.274 -20.458   1.793  0.00  0.00     0.151 C 
BRANCH  33  34
ATOM     34  C   UNK d   0      -4.362 -19.791   2.532  0.00  0.00     0.143 C 
ATOM     35  O   UNK d   0      -4.825 -18.709   2.143  0.00  0.00    -0.650 OA
BRANCH  34  36
ATOM     36  O   UNK d   0      -4.867 -20.380   3.668  0.00  0.00    -0.776 OA
ATOM     37  H   UNK d   0      -5.564 -21.135   3.614  0.00  0.00     0.167 HD
ENDBRANCH  34  36
ENDBRANCH  33  34
ENDBRANCH   8  33
BRANCH  31  38
ATOM     38  C   UNK d   0      -2.465 -21.999  -5.634  0.00  0.00     0.151 C 
BRANCH  38  39
ATOM     39  C   UNK d   0      -2.380 -20.734  -6.332  0.00  0.00     0.143 C 
ATOM     40  O   UNK d   0      -2.626 -19.649  -5.776  0.00  0.00    -0.650 OA
BRANCH  39  41
ATOM     41  O   UNK d   0      -2.010 -20.715  -7.677  0.00  0.00    -0.776 OA
ATOM     42  H   UNK d   0      -2.686 -21.094  -8.347  0.00  0.00     0.167 HD
ENDBRANCH  39  41
ENDBRANCH  38  39
ENDBRANCH  31  38
BRANCH  27  43
ATOM     43  C   UNK d   0      -4.410 -23.799  -7.209  0.00  0.00     0.052 C 
BRANCH  43  44
ATOM     44  C   UNK d   0      -4.502 -22.869  -8.375  0.00  0.00     0.115 C 
BRANCH  44  45
ATOM     45  C   UNK d   0      -3.349 -23.181  -9.259  0.00  0.00     0.139 C 
ATOM     46  O   UNK d   0      -2.281 -23.569  -8.723  0.00  0.00    -0.650 OA
BRANCH  45  47
ATOM     47  O   UNK d   0      -3.406 -23.067 -10.631  0.00  0.00    -0.776 OA
ATOM     48  H   UNK d   0      -4.170 -22.573 -11.121  0.00  0.00     0.167 HD
ENDBRANCH  45  47
ENDBRANCH  44  45
ENDBRANCH  43  44
ENDBRANCH  27  43
BRANCH  24  49
ATOM     49  C   UNK d   0      -9.367 -26.158  -6.484  0.00  0.00     0.052 C 
BRANCH  49  50
ATOM     50  C   UNK d   0     -10.645 -25.425  -6.800  0.00  0.00     0.115 C 
BRANCH  50  51
ATOM     51  C   UNK d   0     -11.719 -26.194  -7.414  0.00  0.00     0.139 C 
ATOM     52  O   UNK d   0     -12.330 -25.805  -8.437  0.00  0.00    -0.650 OA
BRANCH  51  53
ATOM     53  O   UNK d   0     -12.097 -27.408  -6.860  0.00  0.00    -0.776 OA
ATOM     54  H   UNK d   0     -12.286 -27.442  -5.874  0.00  0.00     0.167 HD
ENDBRANCH  51  53
ENDBRANCH  50  51
ENDBRANCH  49  50
ENDBRANCH  24  49
BRANCH  21  55
ATOM     55  C   UNK d   0     -10.321 -27.335  -3.791  0.00  0.00     0.151 C 
BRANCH  55  56
ATOM     56  C   UNK d   0      -9.998 -28.597  -4.474  0.00  0.00     0.143 C 
ATOM     57  O   UNK d   0     -10.870 -29.347  -4.955  0.00  0.00    -0.650 OA
BRANCH  56  58
ATOM     58  O   UNK d   0      -8.654 -28.952  -4.580  0.00  0.00    -0.776 OA
ATOM     59  H   UNK d   0      -8.299 -29.550  -3.811  0.00  0.00     0.167 HD
ENDBRANCH  56  58
ENDBRANCH  55  56
ENDBRANCH  21  55
BRANCH  18  60
ATOM     60  C   UNK d   0      -9.902 -24.856   0.951  0.00  0.00     0.151 C 
BRANCH  60  61
ATOM     61  C   UNK d   0     -10.795 -24.073   0.084  0.00  0.00     0.143 C 
ATOM     62  O   UNK d   0     -10.856 -22.847  -0.006  0.00  0.00    -0.650 OA
BRANCH  61  63
ATOM     63  O   UNK d   0     -11.671 -24.837  -0.725  0.00  0.00    -0.776 OA
ATOM     64  H   UNK d   0     -11.502 -25.813  -0.893  0.00  0.00     0.167 HD
ENDBRANCH  61  63
ENDBRANCH  60  61
ENDBRANCH  18  60
BRANCH  14  65
ATOM     65  C   UNK d   0      -7.942 -23.191   2.563  0.00  0.00     0.052 C 
BRANCH  65  66
ATOM     66  C   UNK d   0      -8.640 -21.878   2.513  0.00  0.00     0.115 C 
BRANCH  66  67
ATOM     67  C   UNK d   0      -8.034 -20.726   3.120  0.00  0.00     0.139 C 
ATOM     68  O   UNK d   0      -7.739 -20.775   4.371  0.00  0.00    -0.650 OA
BRANCH  67  69
ATOM     69  O   UNK d   0      -7.709 -19.514   2.513  0.00  0.00    -0.776 OA
ATOM     70  H   UNK d   0      -6.734 -19.418   2.196  0.00  0.00     0.167 HD
ENDBRANCH  67  69
ENDBRANCH  66  67
ENDBRANCH  65  66
ENDBRANCH  14  65
ENDBRANCH   6   7
ENDBRANCH   5   6
ENDBRANCH   2   5
TORSDOF 28
ENDMDL
MODEL 19
REMARK VINA RESULT:      -7.8     30.808     34.911
REMARK  28 active torsions:
REMARK  status: ('A' for Active; 'I' for Inactive)
REMARK    1  A    between atoms: C_2  and  O_3 
REMARK    2  A    between atoms: C_2  and  C_4 
REMARK    3  A    between atoms: C_4  and  C_5 
REMARK    4  A    between atoms: C_5  and  C_6 
REMARK    5  A    between atoms: C_7  and  C_8 
REMARK    6  A    between atoms: C_8  and  C_9 
REMARK    7  A    between atoms: C_9  and  O_11 
REMARK    8  A    between atoms: C_28  and  C_29 
REMARK    9  A    between atoms: C_29  and  C_30 
REMARK   10  A    between atoms: C_30  and  O_32 
REMARK   11  A    between atoms: C_33  and  C_34 
REMARK   12  A    between atoms: C_34  and  C_35 
REMARK   13  A    between atoms: C_35  and  C_36 
REMARK   14  A    between atoms: C_36  and  O_38 
REMARK   15  A    between atoms: C_39  and  C_40 
REMARK   16  A    between atoms: C_40  and  C_41 
REMARK   17  A    between atoms: C_41  and  C_42 
REMARK   18  A    between atoms: C_42  and  O_44 
REMARK   19  A    between atoms: C_45  and  C_46 
REMARK   20  A    between atoms: C_46  and  C_47 
REMARK   21  A    between atoms: C_47  and  O_49 
REMARK   22  A    between atoms: C_50  and  C_51 
REMARK   23  A    between atoms: C_51  and  C_52 
REMARK   24  A    between atoms: C_52  and  O_54 
REMARK   25  A    between atoms: C_55  and  C_56 
REMARK   26  A    between atoms: C_56  and  C_57 
REMARK   27  A    between atoms: C_57  and  C_58 
REMARK   28  A    between atoms: C_58  and  O_60 
ROOT
ATOM      1  O   UNK d   0     -14.215 -19.656  -1.362  0.00  0.00    -0.650 OA
ATOM      2  C   UNK d   0     -14.780 -19.174  -0.355  0.00  0.00     0.139 C 
ENDROOT
BRANCH   2   3
ATOM      3  O   UNK d   0     -14.574 -17.853  -0.036  0.00  0.00    -0.776 OA
ATOM      4  H   UNK d   0     -15.295 -17.308   0.443  0.00  0.00     0.167 HD
ENDBRANCH   2   3
BRANCH   2   5
ATOM      5  C   UNK d   0     -15.665 -20.028   0.487  0.00  0.00     0.115 C 
BRANCH   5   6
ATOM      6  C   UNK d   0     -15.124 -20.109   1.889  0.00  0.00     0.052 C 
BRANCH   6   7
ATOM      7  C   UNK d   0     -13.798 -20.829   1.959  0.00  0.00    -0.020 A 
ATOM      8  C   UNK d   0     -13.582 -22.115   1.854  0.00  0.00    -0.011 A 
ATOM      9  C   UNK d   0     -12.153 -22.338   1.995  0.00  0.00     0.067 A 
ATOM     10  C   UNK d   0     -11.293 -23.448   1.960  0.00  0.00     0.062 C 
ATOM     11  N   UNK d   0     -11.576 -21.134   2.188  0.00  0.00    -0.248 NA
ATOM     12  C   UNK d   0      -9.899 -23.436   1.838  0.00  0.00     0.041 A 
ATOM     13  N   UNK d   0      -8.965 -22.660   2.420  0.00  0.00    -0.355 N 
ATOM     14  C   UNK d   0      -9.288 -24.320   0.930  0.00  0.00    -0.022 A 
ATOM     15  C   UNK d   0      -7.778 -23.024   1.899  0.00  0.00     0.042 A 
ATOM     16  H   UNK d   0      -9.139 -21.884   3.198  0.00  0.00     0.166 HD
ATOM     17  C   UNK d   0      -6.480 -22.538   2.157  0.00  0.00     0.062 C 
ATOM     18  C   UNK d   0      -7.940 -24.061   0.961  0.00  0.00    -0.013 A 
ATOM     19  C   UNK d   0      -6.052 -21.241   2.273  0.00  0.00     0.067 A 
ATOM     20  N   UNK d   0      -6.995 -20.298   2.353  0.00  0.00    -0.248 NA
ATOM     21  C   UNK d   0      -4.766 -20.565   2.323  0.00  0.00    -0.011 A 
ATOM     22  C   UNK d   0      -6.418 -19.055   2.449  0.00  0.00     0.066 A 
ATOM     23  C   UNK d   0      -7.287 -17.981   2.577  0.00  0.00     0.062 C 
ATOM     24  C   UNK d   0      -4.987 -19.286   2.422  0.00  0.00    -0.020 A 
ATOM     25  C   UNK d   0      -8.683 -18.015   2.711  0.00  0.00     0.041 A 
ATOM     26  N   UNK d   0      -9.613 -18.776   2.121  0.00  0.00    -0.355 N 
ATOM     27  C   UNK d   0      -9.296 -17.131   3.625  0.00  0.00    -0.022 A 
ATOM     28  C   UNK d   0     -10.799 -18.409   2.632  0.00  0.00     0.042 A 
ATOM     29  H   UNK d   0      -9.438 -19.547   1.332  0.00  0.00     0.166 HD
ATOM     30  C   UNK d   0     -12.098 -18.877   2.378  0.00  0.00     0.062 C 
ATOM     31  C   UNK d   0     -10.634 -17.374   3.583  0.00  0.00    -0.013 A 
ATOM     32  C   UNK d   0     -12.512 -20.184   2.177  0.00  0.00     0.066 A 
BRANCH   8  33
ATOM     33  C   UNK d   0     -14.592 -23.168   1.638  0.00  0.00     0.151 C 
BRANCH  33  34
ATOM     34  C   UNK d   0     -14.587 -23.687   0.258  0.00  0.00     0.143 C 
ATOM     35  O   UNK d   0     -14.256 -22.965  -0.693  0.00  0.00    -0.650 OA
BRANCH  34  36
ATOM     36  O   UNK d   0     -14.959 -24.991   0.027  0.00  0.00    -0.776 OA
ATOM     37  H   UNK d   0     -15.937 -25.294   0.128  0.00  0.00     0.167 HD
ENDBRANCH  34  36
ENDBRANCH  33  34
ENDBRANCH   8  33
BRANCH  31  38
ATOM     38  C   UNK d   0     -11.693 -16.676   4.403  0.00  0.00     0.151 C 
BRANCH  38  39
ATOM     39  C   UNK d   0     -11.892 -17.286   5.701  0.00  0.00     0.143 C 
ATOM     40  O   UNK d   0     -12.314 -18.448   5.832  0.00  0.00    -0.650 OA
BRANCH  39  41
ATOM     41  O   UNK d   0     -11.602 -16.557   6.854  0.00  0.00    -0.776 OA
ATOM     42  H   UNK d   0     -11.419 -17.095   7.706  0.00  0.00     0.167 HD
ENDBRANCH  39  41
ENDBRANCH  38  39
ENDBRANCH  31  38
BRANCH  27  43
ATOM     43  C   UNK d   0      -8.668 -16.087   4.515  0.00  0.00     0.052 C 
BRANCH  43  44
ATOM     44  C   UNK d   0      -8.104 -16.650   5.779  0.00  0.00     0.115 C 
BRANCH  44  45
ATOM     45  C   UNK d   0      -8.662 -15.838   6.892  0.00  0.00     0.139 C 
ATOM     46  O   UNK d   0      -8.722 -16.360   8.032  0.00  0.00    -0.650 OA
BRANCH  45  47
ATOM     47  O   UNK d   0      -9.105 -14.544   6.723  0.00  0.00    -0.776 OA
ATOM     48  H   UNK d   0      -8.674 -13.887   6.053  0.00  0.00     0.167 HD
ENDBRANCH  45  47
ENDBRANCH  44  45
ENDBRANCH  43  44
ENDBRANCH  27  43
BRANCH  24  49
ATOM     49  C   UNK d   0      -3.963 -18.234   2.539  0.00  0.00     0.052 C 
BRANCH  49  50
ATOM     50  C   UNK d   0      -3.724 -17.583   1.201  0.00  0.00     0.115 C 
BRANCH  50  51
ATOM     51  C   UNK d   0      -2.345 -17.268   0.852  0.00  0.00     0.139 C 
ATOM     52  O   UNK d   0      -1.720 -16.309   1.362  0.00  0.00    -0.650 OA
BRANCH  51  53
ATOM     53  O   UNK d   0      -1.679 -18.047  -0.082  0.00  0.00    -0.776 OA
ATOM     54  H   UNK d   0      -0.677 -17.989  -0.121  0.00  0.00     0.167 HD
ENDBRANCH  51  53
ENDBRANCH  50  51
ENDBRANCH  49  50
ENDBRANCH  24  49
BRANCH  21  55
ATOM     55  C   UNK d   0      -3.451 -21.269   2.271  0.00  0.00     0.151 C 
BRANCH  55  56
ATOM     56  C   UNK d   0      -2.843 -21.205   0.933  0.00  0.00     0.143 C 
ATOM     57  O   UNK d   0      -3.473 -21.478  -0.108  0.00  0.00    -0.650 OA
BRANCH  56  58
ATOM     58  O   UNK d   0      -1.506 -20.821   0.844  0.00  0.00    -0.776 OA
ATOM     59  H   UNK d   0      -1.191 -20.554  -0.106  0.00  0.00     0.167 HD
ENDBRANCH  56  58
ENDBRANCH  55  56
ENDBRANCH  21  55
BRANCH  18  60
ATOM     60  C   UNK d   0      -6.904 -24.778   0.131  0.00  0.00     0.151 C 
BRANCH  60  61
ATOM     61  C   UNK d   0      -6.459 -25.922   0.941  0.00  0.00     0.143 C 
ATOM     62  O   UNK d   0      -7.119 -26.914   1.250  0.00  0.00    -0.650 OA
BRANCH  61  63
ATOM     63  O   UNK d   0      -5.122 -25.850   1.402  0.00  0.00    -0.776 OA
ATOM     64  H   UNK d   0      -4.360 -26.179   0.836  0.00  0.00     0.167 HD
ENDBRANCH  61  63
ENDBRANCH  60  61
ENDBRANCH  18  60
BRANCH  14  65
ATOM     65  C   UNK d   0      -9.864 -25.444   0.117  0.00  0.00     0.052 C 
BRANCH  65  66
ATOM     66  C   UNK d   0      -9.754 -25.218  -1.349  0.00  0.00     0.115 C 
BRANCH  66  67
ATOM     67  C   UNK d   0      -9.471 -26.324  -2.220  0.00  0.00     0.139 C 
ATOM     68  O   UNK d   0      -8.367 -26.319  -2.880  0.00  0.00    -0.650 OA
BRANCH  67  69
ATOM     69  O   UNK d   0     -10.263 -27.447  -2.458  0.00  0.00    -0.776 OA
ATOM     70  H   UNK d   0     -11.254 -27.362  -2.188  0.00  0.00     0.167 HD
ENDBRANCH  67  69
ENDBRANCH  66  67
ENDBRANCH  65  66
ENDBRANCH  14  65
ENDBRANCH   6   7
ENDBRANCH   5   6
ENDBRANCH   2   5
TORSDOF 28
ENDMDL
MODEL 20
REMARK VINA RESULT:      -7.7     31.995     34.891
REMARK  28 active torsions:
REMARK  status: ('A' for Active; 'I' for Inactive)
REMARK    1  A    between atoms: C_2  and  O_3 
REMARK    2  A    between atoms: C_2  and  C_4 
REMARK    3  A    between atoms: C_4  and  C_5 
REMARK    4  A    between atoms: C_5  and  C_6 
REMARK    5  A    between atoms: C_7  and  C_8 
REMARK    6  A    between atoms: C_8  and  C_9 
REMARK    7  A    between atoms: C_9  and  O_11 
REMARK    8  A    between atoms: C_28  and  C_29 
REMARK    9  A    between atoms: C_29  and  C_30 
REMARK   10  A    between atoms: C_30  and  O_32 
REMARK   11  A    between atoms: C_33  and  C_34 
REMARK   12  A    between atoms: C_34  and  C_35 
REMARK   13  A    between atoms: C_35  and  C_36 
REMARK   14  A    between atoms: C_36  and  O_38 
REMARK   15  A    between atoms: C_39  and  C_40 
REMARK   16  A    between atoms: C_40  and  C_41 
REMARK   17  A    between atoms: C_41  and  C_42 
REMARK   18  A    between atoms: C_42  and  O_44 
REMARK   19  A    between atoms: C_45  and  C_46 
REMARK   20  A    between atoms: C_46  and  C_47 
REMARK   21  A    between atoms: C_47  and  O_49 
REMARK   22  A    between atoms: C_50  and  C_51 
REMARK   23  A    between atoms: C_51  and  C_52 
REMARK   24  A    between atoms: C_52  and  O_54 
REMARK   25  A    between atoms: C_55  and  C_56 
REMARK   26  A    between atoms: C_56  and  C_57 
REMARK   27  A    between atoms: C_57  and  C_58 
REMARK   28  A    between atoms: C_58  and  O_60 
ROOT
ATOM      1  O   UNK d   0     -17.547 -18.973   3.014  0.00  0.00    -0.650 OA
ATOM      2  C   UNK d   0     -16.681 -18.649   3.857  0.00  0.00     0.139 C 
ENDROOT
BRANCH   2   3
ATOM      3  O   UNK d   0     -17.079 -18.199   5.093  0.00  0.00    -0.776 OA
ATOM      4  H   UNK d   0     -16.407 -18.083   5.854  0.00  0.00     0.167 HD
ENDBRANCH   2   3
BRANCH   2   5
ATOM      5  C   UNK d   0     -15.233 -18.752   3.519  0.00  0.00     0.115 C 
BRANCH   5   6
ATOM      6  C   UNK d   0     -15.057 -19.474   2.211  0.00  0.00     0.052 C 
BRANCH   6   7
ATOM      7  C   UNK d   0     -13.814 -20.332   2.184  0.00  0.00    -0.020 A 
ATOM      8  C   UNK d   0     -13.735 -21.616   1.946  0.00  0.00    -0.011 A 
ATOM      9  C   UNK d   0     -12.337 -22.000   2.036  0.00  0.00     0.067 A 
ATOM     10  C   UNK d   0     -11.599 -23.184   1.874  0.00  0.00     0.062 C 
ATOM     11  N   UNK d   0     -11.634 -20.889   2.339  0.00  0.00    -0.248 NA
ATOM     12  C   UNK d   0     -10.213 -23.305   1.727  0.00  0.00     0.041 A 
ATOM     13  N   UNK d   0      -9.197 -22.694   2.367  0.00  0.00    -0.355 N 
ATOM     14  C   UNK d   0      -9.706 -24.150   0.724  0.00  0.00    -0.022 A 
ATOM     15  C   UNK d   0      -8.060 -23.124   1.790  0.00  0.00     0.042 A 
ATOM     16  H   UNK d   0      -9.282 -21.988   3.222  0.00  0.00     0.166 HD
ATOM     17  C   UNK d   0      -6.716 -22.806   2.071  0.00  0.00     0.062 C 
ATOM     18  C   UNK d   0      -8.338 -24.038   0.755  0.00  0.00    -0.013 A 
ATOM     19  C   UNK d   0      -6.152 -21.579   2.309  0.00  0.00     0.067 A 
ATOM     20  N   UNK d   0      -6.989 -20.556   2.501  0.00  0.00    -0.248 NA
ATOM     21  C   UNK d   0      -4.802 -21.050   2.403  0.00  0.00    -0.011 A 
ATOM     22  C   UNK d   0      -6.284 -19.396   2.712  0.00  0.00     0.066 A 
ATOM     23  C   UNK d   0      -7.033 -18.256   2.963  0.00  0.00     0.062 C 
ATOM     24  C   UNK d   0      -4.886 -19.771   2.634  0.00  0.00    -0.020 A 
ATOM     25  C   UNK d   0      -8.425 -18.158   3.119  0.00  0.00     0.041 A 
ATOM     26  N   UNK d   0      -9.435 -18.753   2.473  0.00  0.00    -0.355 N 
ATOM     27  C   UNK d   0      -8.933 -17.313   4.130  0.00  0.00    -0.022 A 
ATOM     28  C   UNK d   0     -10.571 -18.319   3.041  0.00  0.00     0.042 A 
ATOM     29  H   UNK d   0      -9.348 -19.454   1.607  0.00  0.00     0.166 HD
ATOM     30  C   UNK d   0     -11.914 -18.621   2.766  0.00  0.00     0.062 C 
ATOM     31  C   UNK d   0     -10.290 -17.409   4.088  0.00  0.00    -0.013 A 
ATOM     32  C   UNK d   0     -12.465 -19.850   2.441  0.00  0.00     0.066 A 
BRANCH   8  33
ATOM     33  C   UNK d   0     -14.852 -22.530   1.643  0.00  0.00     0.151 C 
BRANCH  33  34
ATOM     34  C   UNK d   0     -14.789 -23.076   0.275  0.00  0.00     0.143 C 
ATOM     35  O   UNK d   0     -14.845 -22.328  -0.711  0.00  0.00    -0.650 OA
BRANCH  34  36
ATOM     36  O   UNK d   0     -14.666 -24.434   0.095  0.00  0.00    -0.776 OA
ATOM     37  H   UNK d   0     -13.816 -24.844  -0.315  0.00  0.00     0.167 HD
ENDBRANCH  34  36
ENDBRANCH  33  34
ENDBRANCH   8  33
BRANCH  31  38
ATOM     38  C   UNK d   0     -11.263 -16.692   4.994  0.00  0.00     0.151 C 
BRANCH  38  39
ATOM     39  C   UNK d   0     -11.554 -17.433   6.204  0.00  0.00     0.143 C 
ATOM     40  O   UNK d   0     -12.404 -18.340   6.240  0.00  0.00    -0.650 OA
BRANCH  39  41
ATOM     41  O   UNK d   0     -10.864 -17.130   7.377  0.00  0.00    -0.776 OA
ATOM     42  H   UNK d   0     -11.193 -17.582   8.236  0.00  0.00     0.167 HD
ENDBRANCH  39  41
ENDBRANCH  38  39
ENDBRANCH  31  38
BRANCH  27  43
ATOM     43  C   UNK d   0      -8.192 -16.437   5.108  0.00  0.00     0.052 C 
BRANCH  43  44
ATOM     44  C   UNK d   0      -8.285 -14.981   4.786  0.00  0.00     0.115 C 
BRANCH  44  45
ATOM     45  C   UNK d   0      -8.960 -14.332   5.940  0.00  0.00     0.139 C 
ATOM     46  O   UNK d   0      -9.042 -14.976   7.015  0.00  0.00    -0.650 OA
BRANCH  45  47
ATOM     47  O   UNK d   0      -9.491 -13.062   5.878  0.00  0.00    -0.776 OA
ATOM     48  H   UNK d   0      -9.630 -12.556   4.988  0.00  0.00     0.167 HD
ENDBRANCH  45  47
ENDBRANCH  44  45
ENDBRANCH  43  44
ENDBRANCH  27  43
BRANCH  24  49
ATOM     49  C   UNK d   0      -3.755 -18.849   2.838  0.00  0.00     0.052 C 
BRANCH  49  50
ATOM     50  C   UNK d   0      -3.704 -17.829   1.730  0.00  0.00     0.115 C 
BRANCH  50  51
ATOM     51  C   UNK d   0      -2.409 -17.588   1.108  0.00  0.00     0.139 C 
ATOM     52  O   UNK d   0      -1.936 -18.336   0.220  0.00  0.00    -0.650 OA
BRANCH  51  53
ATOM     53  O   UNK d   0      -1.652 -16.494   1.499  0.00  0.00    -0.776 OA
ATOM     54  H   UNK d   0      -0.970 -16.134   0.856  0.00  0.00     0.167 HD
ENDBRANCH  51  53
ENDBRANCH  50  51
ENDBRANCH  49  50
ENDBRANCH  24  49
BRANCH  21  55
ATOM     55  C   UNK d   0      -3.569 -21.878   2.256  0.00  0.00     0.151 C 
BRANCH  55  56
ATOM     56  C   UNK d   0      -2.907 -21.657   0.960  0.00  0.00     0.143 C 
ATOM     57  O   UNK d   0      -3.428 -21.977  -0.126  0.00  0.00    -0.650 OA
BRANCH  56  58
ATOM     58  O   UNK d   0      -1.646 -21.063   0.968  0.00  0.00    -0.776 OA
ATOM     59  H   UNK d   0      -0.852 -21.726   0.916  0.00  0.00     0.167 HD
ENDBRANCH  56  58
ENDBRANCH  55  56
ENDBRANCH  21  55
BRANCH  18  60
ATOM     60  C   UNK d   0      -7.390 -24.770  -0.162  0.00  0.00     0.151 C 
BRANCH  60  61
ATOM     61  C   UNK d   0      -6.934 -25.951   0.587  0.00  0.00     0.143 C 
ATOM     62  O   UNK d   0      -7.602 -26.938   0.895  0.00  0.00    -0.650 OA
BRANCH  61  63
ATOM     63  O   UNK d   0      -5.576 -25.924   0.986  0.00  0.00    -0.776 OA
ATOM     64  H   UNK d   0      -4.984 -25.144   0.760  0.00  0.00     0.167 HD
ENDBRANCH  61  63
ENDBRANCH  60  61
ENDBRANCH  18  60
BRANCH  14  65
ATOM     65  C   UNK d   0     -10.404 -25.120  -0.187  0.00  0.00     0.052 C 
BRANCH  65  66
ATOM     66  C   UNK d   0     -10.608 -24.584  -1.560  0.00  0.00     0.115 C 
BRANCH  66  67
ATOM     67  C   UNK d   0     -11.780 -23.809  -1.855  0.00  0.00     0.139 C 
ATOM     68  O   UNK d   0     -11.727 -22.534  -1.699  0.00  0.00    -0.650 OA
BRANCH  67  69
ATOM     69  O   UNK d   0     -13.016 -24.270  -2.305  0.00  0.00    -0.776 OA
ATOM     70  H   UNK d   0     -13.178 -24.200  -3.320  0.00  0.00     0.167 HD
ENDBRANCH  67  69
ENDBRANCH  66  67
ENDBRANCH  65  66
ENDBRANCH  14  65
ENDBRANCH   6   7
ENDBRANCH   5   6
ENDBRANCH   2   5
TORSDOF 28
ENDMDL
