MODEL 1
REMARK VINA RESULT:      -6.8      0.000      0.000
REMARK  28 active torsions:
REMARK  status: ('A' for Active; 'I' for Inactive)
REMARK    1  A    between atoms: C_2  and  O_3 
REMARK    2  A    between atoms: C_2  and  C_4 
REMARK    3  A    between atoms: C_4  and  C_5 
REMARK    4  A    between atoms: C_5  and  C_6 
REMARK    5  A    between atoms: C_7  and  C_8 
REMARK    6  A    between atoms: C_8  and  C_9 
REMARK    7  A    between atoms: C_9  and  O_11 
REMARK    8  A    between atoms: C_28  and  C_29 
REMARK    9  A    between atoms: C_29  and  C_30 
REMARK   10  A    between atoms: C_30  and  O_32 
REMARK   11  A    between atoms: C_33  and  C_34 
REMARK   12  A    between atoms: C_34  and  C_35 
REMARK   13  A    between atoms: C_35  and  C_36 
REMARK   14  A    between atoms: C_36  and  O_38 
REMARK   15  A    between atoms: C_39  and  C_40 
REMARK   16  A    between atoms: C_40  and  C_41 
REMARK   17  A    between atoms: C_41  and  C_42 
REMARK   18  A    between atoms: C_42  and  O_44 
REMARK   19  A    between atoms: C_45  and  C_46 
REMARK   20  A    between atoms: C_46  and  C_47 
REMARK   21  A    between atoms: C_47  and  O_49 
REMARK   22  A    between atoms: C_50  and  C_51 
REMARK   23  A    between atoms: C_51  and  C_52 
REMARK   24  A    between atoms: C_52  and  O_54 
REMARK   25  A    between atoms: C_55  and  C_56 
REMARK   26  A    between atoms: C_56  and  C_57 
REMARK   27  A    between atoms: C_57  and  C_58 
REMARK   28  A    between atoms: C_58  and  O_60 
ROOT
ATOM      1  O   UNK d   0     -10.123 -34.427  54.169  0.00  0.00    -0.650 OA
ATOM      2  C   UNK d   0     -10.035 -33.237  54.548  0.00  0.00     0.139 C 
ENDROOT
BRANCH   2   3
ATOM      3  O   UNK d   0      -9.946 -32.963  55.891  0.00  0.00    -0.776 OA
ATOM      4  H   UNK d   0      -9.060 -32.677  56.313  0.00  0.00     0.167 HD
ENDBRANCH   2   3
BRANCH   2   5
ATOM      5  C   UNK d   0     -10.030 -32.132  53.548  0.00  0.00     0.115 C 
BRANCH   5   6
ATOM      6  C   UNK d   0      -8.631 -31.895  53.046  0.00  0.00     0.052 C 
BRANCH   6   7
ATOM      7  C   UNK d   0      -8.416 -32.431  51.651  0.00  0.00    -0.020 A 
ATOM      8  C   UNK d   0      -7.560 -33.344  51.270  0.00  0.00    -0.011 A 
ATOM      9  C   UNK d   0      -7.710 -33.523  49.835  0.00  0.00     0.067 A 
ATOM     10  C   UNK d   0      -7.129 -34.337  48.850  0.00  0.00     0.062 C 
ATOM     11  N   UNK d   0      -8.676 -32.675  49.424  0.00  0.00    -0.248 NA
ATOM     12  C   UNK d   0      -7.602 -34.567  47.554  0.00  0.00     0.041 A 
ATOM     13  N   UNK d   0      -8.115 -33.726  46.635  0.00  0.00    -0.355 N 
ATOM     14  C   UNK d   0      -7.632 -35.885  47.064  0.00  0.00    -0.022 A 
ATOM     15  C   UNK d   0      -8.477 -34.478  45.579  0.00  0.00     0.042 A 
ATOM     16  H   UNK d   0      -8.201 -32.621  46.724  0.00  0.00     0.166 HD
ATOM     17  C   UNK d   0      -9.061 -34.108  44.351  0.00  0.00     0.062 C 
ATOM     18  C   UNK d   0      -8.191 -35.838  45.811  0.00  0.00    -0.013 A 
ATOM     19  C   UNK d   0     -10.101 -33.245  44.117  0.00  0.00     0.067 A 
ATOM     20  N   UNK d   0     -10.507 -32.493  45.143  0.00  0.00    -0.248 NA
ATOM     21  C   UNK d   0     -10.949 -32.914  42.983  0.00  0.00    -0.011 A 
ATOM     22  C   UNK d   0     -11.558 -31.695  44.764  0.00  0.00     0.066 A 
ATOM     23  C   UNK d   0     -12.056 -30.831  45.728  0.00  0.00     0.062 C 
ATOM     24  C   UNK d   0     -11.802 -32.009  43.369  0.00  0.00    -0.020 A 
ATOM     25  C   UNK d   0     -11.558 -30.606  47.021  0.00  0.00     0.041 A 
ATOM     26  N   UNK d   0     -11.062 -31.444  47.939  0.00  0.00    -0.355 N 
ATOM     27  C   UNK d   0     -11.524 -29.282  47.509  0.00  0.00    -0.022 A 
ATOM     28  C   UNK d   0     -10.708 -30.697  48.997  0.00  0.00     0.042 A 
ATOM     29  H   UNK d   0     -10.986 -32.555  47.853  0.00  0.00     0.166 HD
ATOM     30  C   UNK d   0     -10.135 -31.053  50.228  0.00  0.00     0.062 C 
ATOM     31  C   UNK d   0     -10.987 -29.330  48.759  0.00  0.00    -0.013 A 
ATOM     32  C   UNK d   0      -9.141 -31.989  50.469  0.00  0.00     0.066 A 
BRANCH   8  33
ATOM     33  C   UNK d   0      -6.601 -34.069  52.123  0.00  0.00     0.151 C 
BRANCH  33  34
ATOM     34  C   UNK d   0      -6.902 -35.509  52.223  0.00  0.00     0.143 C 
ATOM     35  O   UNK d   0      -6.174 -36.351  51.679  0.00  0.00    -0.650 OA
BRANCH  34  36
ATOM     36  O   UNK d   0      -8.008 -35.920  52.931  0.00  0.00    -0.776 OA
ATOM     37  H   UNK d   0      -8.961 -35.720  52.596  0.00  0.00     0.167 HD
ENDBRANCH  34  36
ENDBRANCH  33  34
ENDBRANCH   8  33
BRANCH  31  38
ATOM     38  C   UNK d   0     -10.740 -28.150  49.669  0.00  0.00     0.151 C 
BRANCH  38  39
ATOM     39  C   UNK d   0     -11.957 -27.624  50.250  0.00  0.00     0.143 C 
ATOM     40  O   UNK d   0     -12.804 -28.355  50.793  0.00  0.00    -0.650 OA
BRANCH  39  41
ATOM     41  O   UNK d   0     -12.200 -26.252  50.208  0.00  0.00    -0.776 OA
ATOM     42  H   UNK d   0     -11.873 -25.750  49.376  0.00  0.00     0.167 HD
ENDBRANCH  39  41
ENDBRANCH  38  39
ENDBRANCH  31  38
BRANCH  27  43
ATOM     43  C   UNK d   0     -11.974 -28.004  46.847  0.00  0.00     0.052 C 
BRANCH  43  44
ATOM     44  C   UNK d   0     -10.898 -27.340  46.051  0.00  0.00     0.115 C 
BRANCH  44  45
ATOM     45  C   UNK d   0     -10.731 -25.976  46.619  0.00  0.00     0.139 C 
ATOM     46  O   UNK d   0     -11.617 -25.547  47.399  0.00  0.00    -0.650 OA
BRANCH  45  47
ATOM     47  O   UNK d   0      -9.648 -25.174  46.329  0.00  0.00    -0.776 OA
ATOM     48  H   UNK d   0      -9.004 -24.819  47.055  0.00  0.00     0.167 HD
ENDBRANCH  45  47
ENDBRANCH  44  45
ENDBRANCH  43  44
ENDBRANCH  27  43
BRANCH  24  49
ATOM     49  C   UNK d   0     -12.822 -31.362  42.527  0.00  0.00     0.052 C 
BRANCH  49  50
ATOM     50  C   UNK d   0     -12.381 -29.972  42.145  0.00  0.00     0.115 C 
BRANCH  50  51
ATOM     51  C   UNK d   0     -13.252 -28.869  42.528  0.00  0.00     0.139 C 
ATOM     52  O   UNK d   0     -13.908 -28.866  43.597  0.00  0.00    -0.650 OA
BRANCH  51  53
ATOM     53  O   UNK d   0     -13.377 -27.771  41.692  0.00  0.00    -0.776 OA
ATOM     54  H   UNK d   0     -14.158 -27.153  41.831  0.00  0.00     0.167 HD
ENDBRANCH  51  53
ENDBRANCH  50  51
ENDBRANCH  49  50
ENDBRANCH  24  49
BRANCH  21  55
ATOM     55  C   UNK d   0     -10.814 -33.532  41.631  0.00  0.00     0.151 C 
BRANCH  55  56
ATOM     56  C   UNK d   0      -9.585 -33.102  40.947  0.00  0.00     0.143 C 
ATOM     57  O   UNK d   0      -9.485 -32.003  40.367  0.00  0.00    -0.650 OA
BRANCH  56  58
ATOM     58  O   UNK d   0      -8.496 -33.972  40.960  0.00  0.00    -0.776 OA
ATOM     59  H   UNK d   0      -7.665 -33.623  41.470  0.00  0.00     0.167 HD
ENDBRANCH  56  58
ENDBRANCH  55  56
ENDBRANCH  21  55
BRANCH  18  60
ATOM     60  C   UNK d   0      -8.423 -37.034  44.922  0.00  0.00     0.151 C 
BRANCH  60  61
ATOM     61  C   UNK d   0      -7.362 -36.993  43.904  0.00  0.00     0.143 C 
ATOM     62  O   UNK d   0      -6.164 -37.224  44.072  0.00  0.00    -0.650 OA
BRANCH  61  63
ATOM     63  O   UNK d   0      -7.791 -36.649  42.600  0.00  0.00    -0.776 OA
ATOM     64  H   UNK d   0      -8.165 -35.738  42.401  0.00  0.00     0.167 HD
ENDBRANCH  61  63
ENDBRANCH  60  61
ENDBRANCH  18  60
BRANCH  14  65
ATOM     65  C   UNK d   0      -7.090 -37.160  47.645  0.00  0.00     0.052 C 
BRANCH  65  66
ATOM     66  C   UNK d   0      -5.613 -37.279  47.508  0.00  0.00     0.115 C 
BRANCH  66  67
ATOM     67  C   UNK d   0      -4.865 -38.016  48.487  0.00  0.00     0.139 C 
ATOM     68  O   UNK d   0      -4.488 -39.211  48.199  0.00  0.00    -0.650 OA
BRANCH  67  69
ATOM     69  O   UNK d   0      -4.477 -37.596  49.759  0.00  0.00    -0.776 OA
ATOM     70  H   UNK d   0      -3.537 -37.890  50.061  0.00  0.00     0.167 HD
ENDBRANCH  67  69
ENDBRANCH  66  67
ENDBRANCH  65  66
ENDBRANCH  14  65
ENDBRANCH   6   7
ENDBRANCH   5   6
ENDBRANCH   2   5
TORSDOF 28
ENDMDL
MODEL 2
REMARK VINA RESULT:      -6.4      1.759      8.103
REMARK  28 active torsions:
REMARK  status: ('A' for Active; 'I' for Inactive)
REMARK    1  A    between atoms: C_2  and  O_3 
REMARK    2  A    between atoms: C_2  and  C_4 
REMARK    3  A    between atoms: C_4  and  C_5 
REMARK    4  A    between atoms: C_5  and  C_6 
REMARK    5  A    between atoms: C_7  and  C_8 
REMARK    6  A    between atoms: C_8  and  C_9 
REMARK    7  A    between atoms: C_9  and  O_11 
REMARK    8  A    between atoms: C_28  and  C_29 
REMARK    9  A    between atoms: C_29  and  C_30 
REMARK   10  A    between atoms: C_30  and  O_32 
REMARK   11  A    between atoms: C_33  and  C_34 
REMARK   12  A    between atoms: C_34  and  C_35 
REMARK   13  A    between atoms: C_35  and  C_36 
REMARK   14  A    between atoms: C_36  and  O_38 
REMARK   15  A    between atoms: C_39  and  C_40 
REMARK   16  A    between atoms: C_40  and  C_41 
REMARK   17  A    between atoms: C_41  and  C_42 
REMARK   18  A    between atoms: C_42  and  O_44 
REMARK   19  A    between atoms: C_45  and  C_46 
REMARK   20  A    between atoms: C_46  and  C_47 
REMARK   21  A    between atoms: C_47  and  O_49 
REMARK   22  A    between atoms: C_50  and  C_51 
REMARK   23  A    between atoms: C_51  and  C_52 
REMARK   24  A    between atoms: C_52  and  O_54 
REMARK   25  A    between atoms: C_55  and  C_56 
REMARK   26  A    between atoms: C_56  and  C_57 
REMARK   27  A    between atoms: C_57  and  C_58 
REMARK   28  A    between atoms: C_58  and  O_60 
ROOT
ATOM      1  O   UNK d   0      -9.974 -33.002  52.722  0.00  0.00    -0.650 OA
ATOM      2  C   UNK d   0      -9.643 -31.826  52.989  0.00  0.00     0.139 C 
ENDROOT
BRANCH   2   3
ATOM      3  O   UNK d   0      -8.434 -31.589  53.599  0.00  0.00    -0.776 OA
ATOM      4  H   UNK d   0      -7.604 -31.353  53.051  0.00  0.00     0.167 HD
ENDBRANCH   2   3
BRANCH   2   5
ATOM      5  C   UNK d   0     -10.553 -30.696  52.650  0.00  0.00     0.115 C 
BRANCH   5   6
ATOM      6  C   UNK d   0      -9.979 -29.891  51.515  0.00  0.00     0.052 C 
BRANCH   6   7
ATOM      7  C   UNK d   0     -10.431 -30.388  50.163  0.00  0.00    -0.020 A 
ATOM      8  C   UNK d   0     -11.488 -30.014  49.488  0.00  0.00    -0.011 A 
ATOM      9  C   UNK d   0     -11.515 -30.771  48.248  0.00  0.00     0.067 A 
ATOM     10  C   UNK d   0     -12.342 -30.830  47.115  0.00  0.00     0.062 C 
ATOM     11  N   UNK d   0     -10.440 -31.588  48.254  0.00  0.00    -0.248 NA
ATOM     12  C   UNK d   0     -12.052 -31.430  45.885  0.00  0.00     0.041 A 
ATOM     13  N   UNK d   0     -11.468 -32.607  45.588  0.00  0.00    -0.355 N 
ATOM     14  C   UNK d   0     -12.337 -30.727  44.700  0.00  0.00    -0.022 A 
ATOM     15  C   UNK d   0     -11.369 -32.665  44.247  0.00  0.00     0.042 A 
ATOM     16  H   UNK d   0     -11.150 -33.389  46.312  0.00  0.00     0.166 HD
ATOM     17  C   UNK d   0     -10.842 -33.671  43.413  0.00  0.00     0.062 C 
ATOM     18  C   UNK d   0     -11.904 -31.504  43.655  0.00  0.00    -0.013 A 
ATOM     19  C   UNK d   0      -9.675 -34.379  43.547  0.00  0.00     0.067 A 
ATOM     20  N   UNK d   0      -9.029 -34.264  44.710  0.00  0.00    -0.248 NA
ATOM     21  C   UNK d   0      -8.891 -35.269  42.708  0.00  0.00    -0.011 A 
ATOM     22  C   UNK d   0      -7.878 -35.013  44.692  0.00  0.00     0.066 A 
ATOM     23  C   UNK d   0      -7.125 -35.015  45.856  0.00  0.00     0.062 C 
ATOM     24  C   UNK d   0      -7.838 -35.633  43.382  0.00  0.00    -0.020 A 
ATOM     25  C   UNK d   0      -7.440 -34.416  47.086  0.00  0.00     0.041 A 
ATOM     26  N   UNK d   0      -8.006 -33.240  47.381  0.00  0.00    -0.355 N 
ATOM     27  C   UNK d   0      -7.157 -35.124  48.274  0.00  0.00    -0.022 A 
ATOM     28  C   UNK d   0      -8.098 -33.175  48.719  0.00  0.00     0.042 A 
ATOM     29  H   UNK d   0      -8.316 -32.450  46.653  0.00  0.00     0.166 HD
ATOM     30  C   UNK d   0      -8.612 -32.177  49.562  0.00  0.00     0.062 C 
ATOM     31  C   UNK d   0      -7.571 -34.347  49.312  0.00  0.00    -0.013 A 
ATOM     32  C   UNK d   0      -9.747 -31.405  49.378  0.00  0.00     0.066 A 
BRANCH   8  33
ATOM     33  C   UNK d   0     -12.489 -29.010  49.895  0.00  0.00     0.151 C 
BRANCH  33  34
ATOM     34  C   UNK d   0     -12.035 -27.626  49.666  0.00  0.00     0.143 C 
ATOM     35  O   UNK d   0     -11.852 -26.851  50.615  0.00  0.00    -0.650 OA
BRANCH  34  36
ATOM     36  O   UNK d   0     -11.813 -27.193  48.379  0.00  0.00    -0.776 OA
ATOM     37  H   UNK d   0     -12.507 -26.618  47.882  0.00  0.00     0.167 HD
ENDBRANCH  34  36
ENDBRANCH  33  34
ENDBRANCH   8  33
BRANCH  31  38
ATOM     38  C   UNK d   0      -7.484 -34.698  50.779  0.00  0.00     0.151 C 
BRANCH  38  39
ATOM     39  C   UNK d   0      -6.403 -34.015  51.457  0.00  0.00     0.143 C 
ATOM     40  O   UNK d   0      -5.328 -33.745  50.892  0.00  0.00    -0.650 OA
BRANCH  39  41
ATOM     41  O   UNK d   0      -6.558 -33.640  52.791  0.00  0.00    -0.776 OA
ATOM     42  H   UNK d   0      -6.360 -32.661  53.021  0.00  0.00     0.167 HD
ENDBRANCH  39  41
ENDBRANCH  38  39
ENDBRANCH  31  38
BRANCH  27  43
ATOM     43  C   UNK d   0      -6.520 -36.480  48.453  0.00  0.00     0.052 C 
BRANCH  43  44
ATOM     44  C   UNK d   0      -5.043 -36.415  48.669  0.00  0.00     0.115 C 
BRANCH  44  45
ATOM     45  C   UNK d   0      -4.707 -37.497  49.631  0.00  0.00     0.139 C 
ATOM     46  O   UNK d   0      -5.356 -37.556  50.705  0.00  0.00    -0.650 OA
BRANCH  45  47
ATOM     47  O   UNK d   0      -3.725 -38.433  49.390  0.00  0.00    -0.776 OA
ATOM     48  H   UNK d   0      -3.913 -39.335  48.924  0.00  0.00     0.167 HD
ENDBRANCH  45  47
ENDBRANCH  44  45
ENDBRANCH  43  44
ENDBRANCH  27  43
BRANCH  24  49
ATOM     49  C   UNK d   0      -6.793 -36.564  42.924  0.00  0.00     0.052 C 
BRANCH  49  50
ATOM     50  C   UNK d   0      -5.550 -35.806  42.534  0.00  0.00     0.115 C 
BRANCH  50  51
ATOM     51  C   UNK d   0      -4.325 -36.120  43.257  0.00  0.00     0.139 C 
ATOM     52  O   UNK d   0      -3.237 -36.350  42.678  0.00  0.00    -0.650 OA
BRANCH  51  53
ATOM     53  O   UNK d   0      -4.341 -36.174  44.643  0.00  0.00    -0.776 OA
ATOM     54  H   UNK d   0      -3.807 -35.491  45.151  0.00  0.00     0.167 HD
ENDBRANCH  51  53
ENDBRANCH  50  51
ENDBRANCH  49  50
ENDBRANCH  24  49
BRANCH  21  55
ATOM     55  C   UNK d   0      -9.277 -35.666  41.322  0.00  0.00     0.151 C 
BRANCH  55  56
ATOM     56  C   UNK d   0      -9.091 -34.568  40.361  0.00  0.00     0.143 C 
ATOM     57  O   UNK d   0     -10.044 -33.989  39.804  0.00  0.00    -0.650 OA
BRANCH  56  58
ATOM     58  O   UNK d   0      -7.786 -34.170  40.075  0.00  0.00    -0.776 OA
ATOM     59  H   UNK d   0      -7.482 -34.340  39.099  0.00  0.00     0.167 HD
ENDBRANCH  56  58
ENDBRANCH  55  56
ENDBRANCH  21  55
BRANCH  18  60
ATOM     60  C   UNK d   0     -12.006 -31.128  42.198  0.00  0.00     0.151 C 
BRANCH  60  61
ATOM     61  C   UNK d   0     -13.034 -32.011  41.625  0.00  0.00     0.143 C 
ATOM     62  O   UNK d   0     -14.159 -32.230  42.074  0.00  0.00    -0.650 OA
BRANCH  61  63
ATOM     63  O   UNK d   0     -12.663 -32.668  40.426  0.00  0.00    -0.776 OA
ATOM     64  H   UNK d   0     -11.751 -32.539  40.026  0.00  0.00     0.167 HD
ENDBRANCH  61  63
ENDBRANCH  60  61
ENDBRANCH  18  60
BRANCH  14  65
ATOM     65  C   UNK d   0     -13.071 -29.434  44.480  0.00  0.00     0.052 C 
BRANCH  65  66
ATOM     66  C   UNK d   0     -14.549 -29.599  44.472  0.00  0.00     0.115 C 
BRANCH  66  67
ATOM     67  C   UNK d   0     -15.299 -29.249  43.299  0.00  0.00     0.139 C 
ATOM     68  O   UNK d   0     -14.663 -28.792  42.278  0.00  0.00    -0.650 OA
BRANCH  67  69
ATOM     69  O   UNK d   0     -16.677 -29.340  43.107  0.00  0.00    -0.776 OA
ATOM     70  H   UNK d   0     -17.134 -28.497  42.731  0.00  0.00     0.167 HD
ENDBRANCH  67  69
ENDBRANCH  66  67
ENDBRANCH  65  66
ENDBRANCH  14  65
ENDBRANCH   6   7
ENDBRANCH   5   6
ENDBRANCH   2   5
TORSDOF 28
ENDMDL
MODEL 3
REMARK VINA RESULT:      -6.4      1.840      8.049
REMARK  28 active torsions:
REMARK  status: ('A' for Active; 'I' for Inactive)
REMARK    1  A    between atoms: C_2  and  O_3 
REMARK    2  A    between atoms: C_2  and  C_4 
REMARK    3  A    between atoms: C_4  and  C_5 
REMARK    4  A    between atoms: C_5  and  C_6 
REMARK    5  A    between atoms: C_7  and  C_8 
REMARK    6  A    between atoms: C_8  and  C_9 
REMARK    7  A    between atoms: C_9  and  O_11 
REMARK    8  A    between atoms: C_28  and  C_29 
REMARK    9  A    between atoms: C_29  and  C_30 
REMARK   10  A    between atoms: C_30  and  O_32 
REMARK   11  A    between atoms: C_33  and  C_34 
REMARK   12  A    between atoms: C_34  and  C_35 
REMARK   13  A    between atoms: C_35  and  C_36 
REMARK   14  A    between atoms: C_36  and  O_38 
REMARK   15  A    between atoms: C_39  and  C_40 
REMARK   16  A    between atoms: C_40  and  C_41 
REMARK   17  A    between atoms: C_41  and  C_42 
REMARK   18  A    between atoms: C_42  and  O_44 
REMARK   19  A    between atoms: C_45  and  C_46 
REMARK   20  A    between atoms: C_46  and  C_47 
REMARK   21  A    between atoms: C_47  and  O_49 
REMARK   22  A    between atoms: C_50  and  C_51 
REMARK   23  A    between atoms: C_51  and  C_52 
REMARK   24  A    between atoms: C_52  and  O_54 
REMARK   25  A    between atoms: C_55  and  C_56 
REMARK   26  A    between atoms: C_56  and  C_57 
REMARK   27  A    between atoms: C_57  and  C_58 
REMARK   28  A    between atoms: C_58  and  O_60 
ROOT
ATOM      1  O   UNK d   0     -11.139 -33.173  53.563  0.00  0.00    -0.650 OA
ATOM      2  C   UNK d   0     -10.301 -32.270  53.778  0.00  0.00     0.139 C 
ENDROOT
BRANCH   2   3
ATOM      3  O   UNK d   0      -9.011 -32.613  54.104  0.00  0.00    -0.776 OA
ATOM      4  H   UNK d   0      -8.798 -33.513  54.539  0.00  0.00     0.167 HD
ENDBRANCH   2   3
BRANCH   2   5
ATOM      5  C   UNK d   0     -10.702 -30.838  53.680  0.00  0.00     0.115 C 
BRANCH   5   6
ATOM      6  C   UNK d   0      -9.952 -30.165  52.563  0.00  0.00     0.052 C 
BRANCH   6   7
ATOM      7  C   UNK d   0     -10.284 -30.745  51.209  0.00  0.00    -0.020 A 
ATOM      8  C   UNK d   0     -11.408 -30.638  50.548  0.00  0.00    -0.011 A 
ATOM      9  C   UNK d   0     -11.262 -31.367  49.299  0.00  0.00     0.067 A 
ATOM     10  C   UNK d   0     -12.062 -31.617  48.173  0.00  0.00     0.062 C 
ATOM     11  N   UNK d   0     -10.019 -31.892  49.285  0.00  0.00    -0.248 NA
ATOM     12  C   UNK d   0     -11.647 -32.115  46.933  0.00  0.00     0.041 A 
ATOM     13  N   UNK d   0     -10.794 -33.109  46.617  0.00  0.00    -0.355 N 
ATOM     14  C   UNK d   0     -12.112 -31.494  45.760  0.00  0.00    -0.022 A 
ATOM     15  C   UNK d   0     -10.700 -33.128  45.274  0.00  0.00     0.042 A 
ATOM     16  H   UNK d   0     -10.285 -33.795  47.329  0.00  0.00     0.166 HD
ATOM     17  C   UNK d   0      -9.951 -33.964  44.423  0.00  0.00     0.062 C 
ATOM     18  C   UNK d   0     -11.512 -32.130  44.702  0.00  0.00    -0.013 A 
ATOM     19  C   UNK d   0      -8.644 -34.363  44.539  0.00  0.00     0.067 A 
ATOM     20  N   UNK d   0      -8.032 -34.103  45.697  0.00  0.00    -0.248 NA
ATOM     21  C   UNK d   0      -7.674 -35.024  43.682  0.00  0.00    -0.011 A 
ATOM     22  C   UNK d   0      -6.732 -34.544  45.659  0.00  0.00     0.066 A 
ATOM     23  C   UNK d   0      -5.988 -34.371  46.817  0.00  0.00     0.062 C 
ATOM     24  C   UNK d   0      -6.556 -35.123  44.342  0.00  0.00    -0.020 A 
ATOM     25  C   UNK d   0      -6.427 -33.880  48.056  0.00  0.00     0.041 A 
ATOM     26  N   UNK d   0      -7.263 -32.883  48.371  0.00  0.00    -0.355 N 
ATOM     27  C   UNK d   0      -5.964 -34.508  49.233  0.00  0.00    -0.022 A 
ATOM     28  C   UNK d   0      -7.351 -32.856  49.710  0.00  0.00     0.042 A 
ATOM     29  H   UNK d   0      -7.766 -32.187  47.655  0.00  0.00     0.166 HD
ATOM     30  C   UNK d   0      -8.086 -32.024  50.569  0.00  0.00     0.062 C 
ATOM     31  C   UNK d   0      -6.544 -33.866  50.284  0.00  0.00    -0.013 A 
ATOM     32  C   UNK d   0      -9.379 -31.554  50.406  0.00  0.00     0.066 A 
BRANCH   8  33
ATOM     33  C   UNK d   0     -12.621 -29.916  50.976  0.00  0.00     0.151 C 
BRANCH  33  34
ATOM     34  C   UNK d   0     -12.568 -28.476  50.664  0.00  0.00     0.143 C 
ATOM     35  O   UNK d   0     -12.543 -27.630  51.569  0.00  0.00    -0.650 OA
BRANCH  34  36
ATOM     36  O   UNK d   0     -12.549 -28.070  49.350  0.00  0.00    -0.776 OA
ATOM     37  H   UNK d   0     -11.695 -28.146  48.780  0.00  0.00     0.167 HD
ENDBRANCH  34  36
ENDBRANCH  33  34
ENDBRANCH   8  33
BRANCH  31  38
ATOM     38  C   UNK d   0      -6.355 -34.199  51.746  0.00  0.00     0.151 C 
BRANCH  38  39
ATOM     39  C   UNK d   0      -7.229 -35.261  52.197  0.00  0.00     0.143 C 
ATOM     40  O   UNK d   0      -8.435 -35.075  52.436  0.00  0.00    -0.650 OA
BRANCH  39  41
ATOM     41  O   UNK d   0      -6.714 -36.545  52.373  0.00  0.00    -0.776 OA
ATOM     42  H   UNK d   0      -7.252 -37.318  51.969  0.00  0.00     0.167 HD
ENDBRANCH  39  41
ENDBRANCH  38  39
ENDBRANCH  31  38
BRANCH  27  43
ATOM     43  C   UNK d   0      -5.010 -35.665  49.390  0.00  0.00     0.052 C 
BRANCH  43  44
ATOM     44  C   UNK d   0      -5.615 -36.983  49.026  0.00  0.00     0.115 C 
BRANCH  44  45
ATOM     45  C   UNK d   0      -4.672 -38.028  49.502  0.00  0.00     0.139 C 
ATOM     46  O   UNK d   0      -4.077 -38.725  48.643  0.00  0.00    -0.650 OA
BRANCH  45  47
ATOM     47  O   UNK d   0      -4.424 -38.258  50.838  0.00  0.00    -0.776 OA
ATOM     48  H   UNK d   0      -4.574 -39.177  51.286  0.00  0.00     0.167 HD
ENDBRANCH  45  47
ENDBRANCH  44  45
ENDBRANCH  43  44
ENDBRANCH  27  43
BRANCH  24  49
ATOM     49  C   UNK d   0      -5.318 -35.763  43.862  0.00  0.00     0.052 C 
BRANCH  49  50
ATOM     50  C   UNK d   0      -4.828 -36.775  44.866  0.00  0.00     0.115 C 
BRANCH  50  51
ATOM     51  C   UNK d   0      -5.425 -38.103  44.816  0.00  0.00     0.139 C 
ATOM     52  O   UNK d   0      -5.691 -38.685  43.737  0.00  0.00    -0.650 OA
BRANCH  51  53
ATOM     53  O   UNK d   0      -5.720 -38.768  45.996  0.00  0.00    -0.776 OA
ATOM     54  H   UNK d   0      -6.671 -38.759  46.321  0.00  0.00     0.167 HD
ENDBRANCH  51  53
ENDBRANCH  50  51
ENDBRANCH  49  50
ENDBRANCH  24  49
BRANCH  21  55
ATOM     55  C   UNK d   0      -7.966 -35.491  42.294  0.00  0.00     0.151 C 
BRANCH  55  56
ATOM     56  C   UNK d   0      -8.407 -36.894  42.266  0.00  0.00     0.143 C 
ATOM     57  O   UNK d   0      -9.526 -37.259  42.678  0.00  0.00    -0.650 OA
BRANCH  56  58
ATOM     58  O   UNK d   0      -7.523 -37.842  41.754  0.00  0.00    -0.776 OA
ATOM     59  H   UNK d   0      -6.706 -38.049  42.358  0.00  0.00     0.167 HD
ENDBRANCH  56  58
ENDBRANCH  55  56
ENDBRANCH  21  55
BRANCH  18  60
ATOM     60  C   UNK d   0     -11.721 -31.777  43.250  0.00  0.00     0.151 C 
BRANCH  60  61
ATOM     61  C   UNK d   0     -12.946 -32.480  42.837  0.00  0.00     0.143 C 
ATOM     62  O   UNK d   0     -13.157 -33.692  42.881  0.00  0.00    -0.650 OA
BRANCH  61  63
ATOM     63  O   UNK d   0     -13.978 -31.649  42.338  0.00  0.00    -0.776 OA
ATOM     64  H   UNK d   0     -14.561 -31.947  41.576  0.00  0.00     0.167 HD
ENDBRANCH  61  63
ENDBRANCH  60  61
ENDBRANCH  18  60
BRANCH  14  65
ATOM     65  C   UNK d   0     -13.144 -30.420  45.562  0.00  0.00     0.052 C 
BRANCH  65  66
ATOM     66  C   UNK d   0     -12.612 -29.051  45.795  0.00  0.00     0.115 C 
BRANCH  66  67
ATOM     67  C   UNK d   0     -12.252 -28.227  44.675  0.00  0.00     0.139 C 
ATOM     68  O   UNK d   0     -11.251 -27.429  44.797  0.00  0.00    -0.650 OA
BRANCH  67  69
ATOM     69  O   UNK d   0     -12.865 -28.173  43.424  0.00  0.00    -0.776 OA
ATOM     70  H   UNK d   0     -13.769 -27.680  43.389  0.00  0.00     0.167 HD
ENDBRANCH  67  69
ENDBRANCH  66  67
ENDBRANCH  65  66
ENDBRANCH  14  65
ENDBRANCH   6   7
ENDBRANCH   5   6
ENDBRANCH   2   5
TORSDOF 28
ENDMDL
MODEL 4
REMARK VINA RESULT:      -6.4     14.924     22.467
REMARK  28 active torsions:
REMARK  status: ('A' for Active; 'I' for Inactive)
REMARK    1  A    between atoms: C_2  and  O_3 
REMARK    2  A    between atoms: C_2  and  C_4 
REMARK    3  A    between atoms: C_4  and  C_5 
REMARK    4  A    between atoms: C_5  and  C_6 
REMARK    5  A    between atoms: C_7  and  C_8 
REMARK    6  A    between atoms: C_8  and  C_9 
REMARK    7  A    between atoms: C_9  and  O_11 
REMARK    8  A    between atoms: C_28  and  C_29 
REMARK    9  A    between atoms: C_29  and  C_30 
REMARK   10  A    between atoms: C_30  and  O_32 
REMARK   11  A    between atoms: C_33  and  C_34 
REMARK   12  A    between atoms: C_34  and  C_35 
REMARK   13  A    between atoms: C_35  and  C_36 
REMARK   14  A    between atoms: C_36  and  O_38 
REMARK   15  A    between atoms: C_39  and  C_40 
REMARK   16  A    between atoms: C_40  and  C_41 
REMARK   17  A    between atoms: C_41  and  C_42 
REMARK   18  A    between atoms: C_42  and  O_44 
REMARK   19  A    between atoms: C_45  and  C_46 
REMARK   20  A    between atoms: C_46  and  C_47 
REMARK   21  A    between atoms: C_47  and  O_49 
REMARK   22  A    between atoms: C_50  and  C_51 
REMARK   23  A    between atoms: C_51  and  C_52 
REMARK   24  A    between atoms: C_52  and  O_54 
REMARK   25  A    between atoms: C_55  and  C_56 
REMARK   26  A    between atoms: C_56  and  C_57 
REMARK   27  A    between atoms: C_57  and  C_58 
REMARK   28  A    between atoms: C_58  and  O_60 
ROOT
ATOM      1  O   UNK d   0     -20.577 -22.226  54.952  0.00  0.00    -0.650 OA
ATOM      2  C   UNK d   0     -19.473 -22.530  54.449  0.00  0.00     0.139 C 
ENDROOT
BRANCH   2   3
ATOM      3  O   UNK d   0     -19.396 -22.785  53.100  0.00  0.00    -0.776 OA
ATOM      4  H   UNK d   0     -19.006 -22.095  52.455  0.00  0.00     0.167 HD
ENDBRANCH   2   3
BRANCH   2   5
ATOM      5  C   UNK d   0     -18.258 -22.616  55.306  0.00  0.00     0.115 C 
BRANCH   5   6
ATOM      6  C   UNK d   0     -17.635 -21.255  55.458  0.00  0.00     0.052 C 
BRANCH   6   7
ATOM      7  C   UNK d   0     -17.803 -20.691  56.849  0.00  0.00    -0.020 A 
ATOM      8  C   UNK d   0     -18.437 -19.600  57.196  0.00  0.00    -0.011 A 
ATOM      9  C   UNK d   0     -18.323 -19.460  58.639  0.00  0.00     0.067 A 
ATOM     10  C   UNK d   0     -18.781 -18.552  59.607  0.00  0.00     0.062 C 
ATOM     11  N   UNK d   0     -17.599 -20.507  59.087  0.00  0.00    -0.248 NA
ATOM     12  C   UNK d   0     -18.805 -18.734  60.994  0.00  0.00     0.041 A 
ATOM     13  N   UNK d   0     -17.893 -19.258  61.835  0.00  0.00    -0.355 N 
ATOM     14  C   UNK d   0     -19.967 -18.385  61.706  0.00  0.00    -0.022 A 
ATOM     15  C   UNK d   0     -18.450 -19.258  63.061  0.00  0.00     0.042 A 
ATOM     16  H   UNK d   0     -16.869 -19.603  61.571  0.00  0.00     0.166 HD
ATOM     17  C   UNK d   0     -17.934 -19.692  64.299  0.00  0.00     0.062 C 
ATOM     18  C   UNK d   0     -19.750 -18.718  63.020  0.00  0.00    -0.013 A 
ATOM     19  C   UNK d   0     -17.248 -20.843  64.591  0.00  0.00     0.067 A 
ATOM     20  N   UNK d   0     -16.827 -21.575  63.556  0.00  0.00    -0.248 NA
ATOM     21  C   UNK d   0     -16.839 -21.537  65.801  0.00  0.00    -0.011 A 
ATOM     22  C   UNK d   0     -16.173 -22.698  64.002  0.00  0.00     0.066 A 
ATOM     23  C   UNK d   0     -15.648 -23.532  63.027  0.00  0.00     0.062 C 
ATOM     24  C   UNK d   0     -16.214 -22.623  65.449  0.00  0.00    -0.020 A 
ATOM     25  C   UNK d   0     -15.623 -23.325  61.639  0.00  0.00     0.041 A 
ATOM     26  N   UNK d   0     -16.534 -22.819  60.800  0.00  0.00    -0.355 N 
ATOM     27  C   UNK d   0     -14.454 -23.672  60.926  0.00  0.00    -0.022 A 
ATOM     28  C   UNK d   0     -15.985 -22.826  59.576  0.00  0.00     0.042 A 
ATOM     29  H   UNK d   0     -17.567 -22.482  61.066  0.00  0.00     0.166 HD
ATOM     30  C   UNK d   0     -16.489 -22.406  58.335  0.00  0.00     0.062 C 
ATOM     31  C   UNK d   0     -14.674 -23.358  59.620  0.00  0.00    -0.013 A 
ATOM     32  C   UNK d   0     -17.256 -21.285  58.059  0.00  0.00     0.066 A 
BRANCH   8  33
ATOM     33  C   UNK d   0     -19.142 -18.663  56.302  0.00  0.00     0.151 C 
BRANCH  33  34
ATOM     34  C   UNK d   0     -20.601 -18.658  56.517  0.00  0.00     0.143 C 
ATOM     35  O   UNK d   0     -21.169 -17.670  57.001  0.00  0.00    -0.650 OA
BRANCH  34  36
ATOM     36  O   UNK d   0     -21.337 -19.769  56.174  0.00  0.00    -0.776 OA
ATOM     37  H   UNK d   0     -21.952 -20.233  56.857  0.00  0.00     0.167 HD
ENDBRANCH  34  36
ENDBRANCH  33  34
ENDBRANCH   8  33
BRANCH  31  38
ATOM     38  C   UNK d   0     -13.696 -23.540  58.483  0.00  0.00     0.151 C 
BRANCH  38  39
ATOM     39  C   UNK d   0     -13.834 -24.821  57.823  0.00  0.00     0.143 C 
ATOM     40  O   UNK d   0     -14.398 -25.790  58.362  0.00  0.00    -0.650 OA
BRANCH  39  41
ATOM     41  O   UNK d   0     -13.322 -24.989  56.537  0.00  0.00    -0.776 OA
ATOM     42  H   UNK d   0     -13.974 -25.322  55.820  0.00  0.00     0.167 HD
ENDBRANCH  39  41
ENDBRANCH  38  39
ENDBRANCH  31  38
BRANCH  27  43
ATOM     43  C   UNK d   0     -13.168 -24.277  61.430  0.00  0.00     0.052 C 
BRANCH  43  44
ATOM     44  C   UNK d   0     -12.009 -23.335  61.372  0.00  0.00     0.115 C 
BRANCH  44  45
ATOM     45  C   UNK d   0     -11.523 -23.174  62.767  0.00  0.00     0.139 C 
ATOM     46  O   UNK d   0     -12.201 -23.684  63.693  0.00  0.00    -0.650 OA
BRANCH  45  47
ATOM     47  O   UNK d   0     -10.363 -22.498  63.081  0.00  0.00    -0.776 OA
ATOM     48  H   UNK d   0      -9.424 -22.905  62.945  0.00  0.00     0.167 HD
ENDBRANCH  45  47
ENDBRANCH  44  45
ENDBRANCH  43  44
ENDBRANCH  27  43
BRANCH  24  49
ATOM     49  C   UNK d   0     -15.598 -23.604  66.359  0.00  0.00     0.052 C 
BRANCH  49  50
ATOM     50  C   UNK d   0     -14.131 -23.305  66.536  0.00  0.00     0.115 C 
BRANCH  50  51
ATOM     51  C   UNK d   0     -13.256 -24.428  66.843  0.00  0.00     0.139 C 
ATOM     52  O   UNK d   0     -13.672 -25.485  67.374  0.00  0.00    -0.650 OA
BRANCH  51  53
ATOM     53  O   UNK d   0     -11.904 -24.347  66.545  0.00  0.00    -0.776 OA
ATOM     54  H   UNK d   0     -11.340 -23.701  67.069  0.00  0.00     0.167 HD
ENDBRANCH  51  53
ENDBRANCH  50  51
ENDBRANCH  49  50
ENDBRANCH  24  49
BRANCH  21  55
ATOM     55  C   UNK d   0     -17.112 -21.039  67.182  0.00  0.00     0.151 C 
BRANCH  55  56
ATOM     56  C   UNK d   0     -16.096 -20.074  67.630  0.00  0.00     0.143 C 
ATOM     57  O   UNK d   0     -15.093 -20.408  68.291  0.00  0.00    -0.650 OA
BRANCH  56  58
ATOM     58  O   UNK d   0     -16.281 -18.734  67.293  0.00  0.00    -0.776 OA
ATOM     59  H   UNK d   0     -15.408 -18.183  67.203  0.00  0.00     0.167 HD
ENDBRANCH  56  58
ENDBRANCH  55  56
ENDBRANCH  21  55
BRANCH  18  60
ATOM     60  C   UNK d   0     -20.746 -18.522  64.137  0.00  0.00     0.151 C 
BRANCH  60  61
ATOM     61  C   UNK d   0     -20.571 -17.135  64.594  0.00  0.00     0.143 C 
ATOM     62  O   UNK d   0     -19.508 -16.552  64.807  0.00  0.00    -0.650 OA
BRANCH  61  63
ATOM     63  O   UNK d   0     -21.771 -16.415  64.804  0.00  0.00    -0.776 OA
ATOM     64  H   UNK d   0     -22.610 -16.648  64.303  0.00  0.00     0.167 HD
ENDBRANCH  61  63
ENDBRANCH  60  61
ENDBRANCH  18  60
BRANCH  14  65
ATOM     65  C   UNK d   0     -21.216 -17.679  61.260  0.00  0.00     0.052 C 
BRANCH  65  66
ATOM     66  C   UNK d   0     -21.025 -16.213  61.090  0.00  0.00     0.115 C 
BRANCH  66  67
ATOM     67  C   UNK d   0     -21.792 -15.505  60.104  0.00  0.00     0.139 C 
ATOM     68  O   UNK d   0     -22.808 -14.820  60.493  0.00  0.00    -0.650 OA
BRANCH  67  69
ATOM     69  O   UNK d   0     -21.577 -15.459  58.727  0.00  0.00    -0.776 OA
ATOM     70  H   UNK d   0     -20.619 -15.219  58.431  0.00  0.00     0.167 HD
ENDBRANCH  67  69
ENDBRANCH  66  67
ENDBRANCH  65  66
ENDBRANCH  14  65
ENDBRANCH   6   7
ENDBRANCH   5   6
ENDBRANCH   2   5
TORSDOF 28
ENDMDL
MODEL 5
REMARK VINA RESULT:      -6.3      1.762      2.368
REMARK  28 active torsions:
REMARK  status: ('A' for Active; 'I' for Inactive)
REMARK    1  A    between atoms: C_2  and  O_3 
REMARK    2  A    between atoms: C_2  and  C_4 
REMARK    3  A    between atoms: C_4  and  C_5 
REMARK    4  A    between atoms: C_5  and  C_6 
REMARK    5  A    between atoms: C_7  and  C_8 
REMARK    6  A    between atoms: C_8  and  C_9 
REMARK    7  A    between atoms: C_9  and  O_11 
REMARK    8  A    between atoms: C_28  and  C_29 
REMARK    9  A    between atoms: C_29  and  C_30 
REMARK   10  A    between atoms: C_30  and  O_32 
REMARK   11  A    between atoms: C_33  and  C_34 
REMARK   12  A    between atoms: C_34  and  C_35 
REMARK   13  A    between atoms: C_35  and  C_36 
REMARK   14  A    between atoms: C_36  and  O_38 
REMARK   15  A    between atoms: C_39  and  C_40 
REMARK   16  A    between atoms: C_40  and  C_41 
REMARK   17  A    between atoms: C_41  and  C_42 
REMARK   18  A    between atoms: C_42  and  O_44 
REMARK   19  A    between atoms: C_45  and  C_46 
REMARK   20  A    between atoms: C_46  and  C_47 
REMARK   21  A    between atoms: C_47  and  O_49 
REMARK   22  A    between atoms: C_50  and  C_51 
REMARK   23  A    between atoms: C_51  and  C_52 
REMARK   24  A    between atoms: C_52  and  O_54 
REMARK   25  A    between atoms: C_55  and  C_56 
REMARK   26  A    between atoms: C_56  and  C_57 
REMARK   27  A    between atoms: C_57  and  C_58 
REMARK   28  A    between atoms: C_58  and  O_60 
ROOT
ATOM      1  O   UNK d   0      -9.586 -33.644  54.175  0.00  0.00    -0.650 OA
ATOM      2  C   UNK d   0      -8.974 -32.905  53.373  0.00  0.00     0.139 C 
ENDROOT
BRANCH   2   3
ATOM      3  O   UNK d   0      -8.418 -31.733  53.827  0.00  0.00    -0.776 OA
ATOM      4  H   UNK d   0      -8.512 -31.448  54.804  0.00  0.00     0.167 HD
ENDBRANCH   2   3
BRANCH   2   5
ATOM      5  C   UNK d   0      -8.851 -33.295  51.940  0.00  0.00     0.115 C 
BRANCH   5   6
ATOM      6  C   UNK d   0      -8.074 -32.252  51.184  0.00  0.00     0.052 C 
BRANCH   6   7
ATOM      7  C   UNK d   0      -7.774 -32.667  49.763  0.00  0.00    -0.020 A 
ATOM      8  C   UNK d   0      -6.718 -33.302  49.324  0.00  0.00    -0.011 A 
ATOM      9  C   UNK d   0      -6.867 -33.473  47.888  0.00  0.00     0.067 A 
ATOM     10  C   UNK d   0      -6.125 -34.069  46.857  0.00  0.00     0.062 C 
ATOM     11  N   UNK d   0      -8.040 -32.905  47.537  0.00  0.00    -0.248 NA
ATOM     12  C   UNK d   0      -6.565 -34.379  45.566  0.00  0.00     0.041 A 
ATOM     13  N   UNK d   0      -7.319 -33.681  44.695  0.00  0.00    -0.355 N 
ATOM     14  C   UNK d   0      -6.258 -35.641  45.026  0.00  0.00    -0.022 A 
ATOM     15  C   UNK d   0      -7.504 -34.471  43.620  0.00  0.00     0.042 A 
ATOM     16  H   UNK d   0      -7.696 -32.644  44.829  0.00  0.00     0.166 HD
ATOM     17  C   UNK d   0      -8.211 -34.236  42.424  0.00  0.00     0.062 C 
ATOM     18  C   UNK d   0      -6.854 -35.709  43.792  0.00  0.00    -0.013 A 
ATOM     19  C   UNK d   0      -9.453 -33.680  42.252  0.00  0.00     0.067 A 
ATOM     20  N   UNK d   0     -10.008 -33.097  43.317  0.00  0.00    -0.248 NA
ATOM     21  C   UNK d   0     -10.399 -33.556  41.155  0.00  0.00    -0.011 A 
ATOM     22  C   UNK d   0     -11.248 -32.602  42.998  0.00  0.00     0.066 A 
ATOM     23  C   UNK d   0     -11.925 -31.934  44.008  0.00  0.00     0.062 C 
ATOM     24  C   UNK d   0     -11.449 -32.928  41.599  0.00  0.00    -0.020 A 
ATOM     25  C   UNK d   0     -11.459 -31.622  45.295  0.00  0.00     0.041 A 
ATOM     26  N   UNK d   0     -10.722 -32.321  46.166  0.00  0.00    -0.355 N 
ATOM     27  C   UNK d   0     -11.764 -30.353  45.833  0.00  0.00    -0.022 A 
ATOM     28  C   UNK d   0     -10.544 -31.539  47.242  0.00  0.00     0.042 A 
ATOM     29  H   UNK d   0     -10.353 -33.368  46.035  0.00  0.00     0.166 HD
ATOM     30  C   UNK d   0      -9.851 -31.764  48.442  0.00  0.00     0.062 C 
ATOM     31  C   UNK d   0     -11.189 -30.292  47.065  0.00  0.00    -0.013 A 
ATOM     32  C   UNK d   0      -8.634 -32.403  48.620  0.00  0.00     0.066 A 
BRANCH   8  33
ATOM     33  C   UNK d   0      -5.568 -33.767  50.122  0.00  0.00     0.151 C 
BRANCH  33  34
ATOM     34  C   UNK d   0      -5.615 -35.214  50.401  0.00  0.00     0.143 C 
ATOM     35  O   UNK d   0      -6.230 -35.653  51.383  0.00  0.00    -0.650 OA
BRANCH  34  36
ATOM     36  O   UNK d   0      -4.965 -36.085  49.558  0.00  0.00    -0.776 OA
ATOM     37  H   UNK d   0      -3.937 -36.109  49.503  0.00  0.00     0.167 HD
ENDBRANCH  34  36
ENDBRANCH  33  34
ENDBRANCH   8  33
BRANCH  31  38
ATOM     38  C   UNK d   0     -11.236 -29.116  48.013  0.00  0.00     0.151 C 
BRANCH  38  39
ATOM     39  C   UNK d   0     -12.418 -29.115  48.848  0.00  0.00     0.143 C 
ATOM     40  O   UNK d   0     -13.290 -29.998  48.768  0.00  0.00    -0.650 OA
BRANCH  39  41
ATOM     41  O   UNK d   0     -12.600 -28.093  49.779  0.00  0.00    -0.776 OA
ATOM     42  H   UNK d   0     -13.564 -27.894  50.065  0.00  0.00     0.167 HD
ENDBRANCH  39  41
ENDBRANCH  38  39
ENDBRANCH  31  38
BRANCH  27  43
ATOM     43  C   UNK d   0     -12.567 -29.225  45.234  0.00  0.00     0.052 C 
BRANCH  43  44
ATOM     44  C   UNK d   0     -11.827 -28.471  44.177  0.00  0.00     0.115 C 
BRANCH  44  45
ATOM     45  C   UNK d   0     -11.074 -27.395  44.872  0.00  0.00     0.139 C 
ATOM     46  O   UNK d   0     -11.707 -26.635  45.646  0.00  0.00    -0.650 OA
BRANCH  45  47
ATOM     47  O   UNK d   0      -9.720 -27.203  44.705  0.00  0.00    -0.776 OA
ATOM     48  H   UNK d   0      -9.015 -27.899  44.999  0.00  0.00     0.167 HD
ENDBRANCH  45  47
ENDBRANCH  44  45
ENDBRANCH  43  44
ENDBRANCH  27  43
BRANCH  24  49
ATOM     49  C   UNK d   0     -12.636 -32.555  40.811  0.00  0.00     0.052 C 
BRANCH  49  50
ATOM     50  C   UNK d   0     -12.845 -31.063  40.850  0.00  0.00     0.115 C 
BRANCH  50  51
ATOM     51  C   UNK d   0     -11.844 -30.235  40.191  0.00  0.00     0.139 C 
ATOM     52  O   UNK d   0     -11.028 -29.526  40.825  0.00  0.00    -0.650 OA
BRANCH  51  53
ATOM     53  O   UNK d   0     -11.777 -30.212  38.806  0.00  0.00    -0.776 OA
ATOM     54  H   UNK d   0     -12.014 -31.050  38.305  0.00  0.00     0.167 HD
ENDBRANCH  51  53
ENDBRANCH  50  51
ENDBRANCH  49  50
ENDBRANCH  24  49
BRANCH  21  55
ATOM     55  C   UNK d   0     -10.152 -34.074  39.777  0.00  0.00     0.151 C 
BRANCH  55  56
ATOM     56  C   UNK d   0      -9.397 -33.117  38.955  0.00  0.00     0.143 C 
ATOM     57  O   UNK d   0      -8.166 -32.953  39.069  0.00  0.00    -0.650 OA
BRANCH  56  58
ATOM     58  O   UNK d   0     -10.103 -32.370  38.013  0.00  0.00    -0.776 OA
ATOM     59  H   UNK d   0      -9.922 -31.351  38.040  0.00  0.00     0.167 HD
ENDBRANCH  56  58
ENDBRANCH  55  56
ENDBRANCH  21  55
BRANCH  18  60
ATOM     60  C   UNK d   0      -6.787 -36.896  42.863  0.00  0.00     0.151 C 
BRANCH  60  61
ATOM     61  C   UNK d   0      -5.495 -36.794  42.168  0.00  0.00     0.143 C 
ATOM     62  O   UNK d   0      -4.515 -37.526  42.312  0.00  0.00    -0.650 OA
BRANCH  61  63
ATOM     63  O   UNK d   0      -5.394 -35.731  41.239  0.00  0.00    -0.776 OA
ATOM     64  H   UNK d   0      -4.921 -34.877  41.477  0.00  0.00     0.167 HD
ENDBRANCH  61  63
ENDBRANCH  60  61
ENDBRANCH  18  60
BRANCH  14  65
ATOM     65  C   UNK d   0      -5.371 -36.739  45.542  0.00  0.00     0.052 C 
BRANCH  65  66
ATOM     66  C   UNK d   0      -6.081 -37.686  46.443  0.00  0.00     0.115 C 
BRANCH  66  67
ATOM     67  C   UNK d   0      -5.371 -38.799  47.008  0.00  0.00     0.139 C 
ATOM     68  O   UNK d   0      -4.863 -38.671  48.182  0.00  0.00    -0.650 OA
BRANCH  67  69
ATOM     69  O   UNK d   0      -5.148 -40.049  46.433  0.00  0.00    -0.776 OA
ATOM     70  H   UNK d   0      -4.266 -40.151  45.910  0.00  0.00     0.167 HD
ENDBRANCH  67  69
ENDBRANCH  66  67
ENDBRANCH  65  66
ENDBRANCH  14  65
ENDBRANCH   6   7
ENDBRANCH   5   6
ENDBRANCH   2   5
TORSDOF 28
ENDMDL
MODEL 6
REMARK VINA RESULT:      -6.3      1.709      4.289
REMARK  28 active torsions:
REMARK  status: ('A' for Active; 'I' for Inactive)
REMARK    1  A    between atoms: C_2  and  O_3 
REMARK    2  A    between atoms: C_2  and  C_4 
REMARK    3  A    between atoms: C_4  and  C_5 
REMARK    4  A    between atoms: C_5  and  C_6 
REMARK    5  A    between atoms: C_7  and  C_8 
REMARK    6  A    between atoms: C_8  and  C_9 
REMARK    7  A    between atoms: C_9  and  O_11 
REMARK    8  A    between atoms: C_28  and  C_29 
REMARK    9  A    between atoms: C_29  and  C_30 
REMARK   10  A    between atoms: C_30  and  O_32 
REMARK   11  A    between atoms: C_33  and  C_34 
REMARK   12  A    between atoms: C_34  and  C_35 
REMARK   13  A    between atoms: C_35  and  C_36 
REMARK   14  A    between atoms: C_36  and  O_38 
REMARK   15  A    between atoms: C_39  and  C_40 
REMARK   16  A    between atoms: C_40  and  C_41 
REMARK   17  A    between atoms: C_41  and  C_42 
REMARK   18  A    between atoms: C_42  and  O_44 
REMARK   19  A    between atoms: C_45  and  C_46 
REMARK   20  A    between atoms: C_46  and  C_47 
REMARK   21  A    between atoms: C_47  and  O_49 
REMARK   22  A    between atoms: C_50  and  C_51 
REMARK   23  A    between atoms: C_51  and  C_52 
REMARK   24  A    between atoms: C_52  and  O_54 
REMARK   25  A    between atoms: C_55  and  C_56 
REMARK   26  A    between atoms: C_56  and  C_57 
REMARK   27  A    between atoms: C_57  and  C_58 
REMARK   28  A    between atoms: C_58  and  O_60 
ROOT
ATOM      1  O   UNK d   0     -11.089 -29.440  53.535  0.00  0.00    -0.650 OA
ATOM      2  C   UNK d   0     -11.201 -28.617  52.599  0.00  0.00     0.139 C 
ENDROOT
BRANCH   2   3
ATOM      3  O   UNK d   0     -11.078 -27.274  52.865  0.00  0.00    -0.776 OA
ATOM      4  H   UNK d   0     -10.186 -26.791  52.739  0.00  0.00     0.167 HD
ENDBRANCH   2   3
BRANCH   2   5
ATOM      5  C   UNK d   0     -11.464 -29.092  51.211  0.00  0.00     0.115 C 
BRANCH   5   6
ATOM      6  C   UNK d   0     -11.559 -30.594  51.188  0.00  0.00     0.052 C 
BRANCH   6   7
ATOM      7  C   UNK d   0     -10.481 -31.230  50.342  0.00  0.00    -0.020 A 
ATOM      8  C   UNK d   0      -9.297 -31.631  50.728  0.00  0.00    -0.011 A 
ATOM      9  C   UNK d   0      -8.609 -32.169  49.566  0.00  0.00     0.067 A 
ATOM     10  C   UNK d   0      -7.362 -32.759  49.311  0.00  0.00     0.062 C 
ATOM     11  N   UNK d   0      -9.447 -32.051  48.514  0.00  0.00    -0.248 NA
ATOM     12  C   UNK d   0      -6.980 -33.475  48.170  0.00  0.00     0.041 A 
ATOM     13  N   UNK d   0      -7.199 -33.241  46.862  0.00  0.00    -0.355 N 
ATOM     14  C   UNK d   0      -6.291 -34.691  48.329  0.00  0.00    -0.022 A 
ATOM     15  C   UNK d   0      -6.673 -34.281  46.188  0.00  0.00     0.042 A 
ATOM     16  H   UNK d   0      -7.697 -32.348  46.424  0.00  0.00     0.166 HD
ATOM     17  C   UNK d   0      -6.623 -34.540  44.804  0.00  0.00     0.062 C 
ATOM     18  C   UNK d   0      -6.096 -35.211  47.074  0.00  0.00    -0.013 A 
ATOM     19  C   UNK d   0      -7.615 -34.410  43.866  0.00  0.00     0.067 A 
ATOM     20  N   UNK d   0      -8.726 -33.771  44.244  0.00  0.00    -0.248 NA
ATOM     21  C   UNK d   0      -7.806 -34.816  42.483  0.00  0.00    -0.011 A 
ATOM     22  C   UNK d   0      -9.629 -33.732  43.210  0.00  0.00     0.066 A 
ATOM     23  C   UNK d   0     -10.818 -33.061  43.456  0.00  0.00     0.062 C 
ATOM     24  C   UNK d   0      -8.988 -34.421  42.107  0.00  0.00    -0.020 A 
ATOM     25  C   UNK d   0     -11.177 -32.338  44.604  0.00  0.00     0.041 A 
ATOM     26  N   UNK d   0     -10.973 -32.578  45.904  0.00  0.00    -0.355 N 
ATOM     27  C   UNK d   0     -11.864 -31.115  44.443  0.00  0.00    -0.022 A 
ATOM     28  C   UNK d   0     -11.504 -31.547  46.580  0.00  0.00     0.042 A 
ATOM     29  H   UNK d   0     -10.481 -33.480  46.344  0.00  0.00     0.166 HD
ATOM     30  C   UNK d   0     -11.568 -31.280  47.957  0.00  0.00     0.062 C 
ATOM     31  C   UNK d   0     -12.075 -30.607  45.688  0.00  0.00    -0.013 A 
ATOM     32  C   UNK d   0     -10.591 -31.494  48.915  0.00  0.00     0.066 A 
BRANCH   8  33
ATOM     33  C   UNK d   0      -8.736 -31.555  52.090  0.00  0.00     0.151 C 
BRANCH  33  34
ATOM     34  C   UNK d   0      -9.315 -32.558  53.002  0.00  0.00     0.143 C 
ATOM     35  O   UNK d   0      -9.272 -33.766  52.729  0.00  0.00    -0.650 OA
BRANCH  34  36
ATOM     36  O   UNK d   0      -9.912 -32.143  54.170  0.00  0.00    -0.776 OA
ATOM     37  H   UNK d   0     -10.682 -32.678  54.595  0.00  0.00     0.167 HD
ENDBRANCH  34  36
ENDBRANCH  33  34
ENDBRANCH   8  33
BRANCH  31  38
ATOM     38  C   UNK d   0     -12.764 -29.303  46.015  0.00  0.00     0.151 C 
BRANCH  38  39
ATOM     39  C   UNK d   0     -11.878 -28.162  45.924  0.00  0.00     0.143 C 
ATOM     40  O   UNK d   0     -11.054 -27.887  46.814  0.00  0.00    -0.650 OA
BRANCH  39  41
ATOM     41  O   UNK d   0     -11.940 -27.333  44.804  0.00  0.00    -0.776 OA
ATOM     42  H   UNK d   0     -11.503 -26.410  44.889  0.00  0.00     0.167 HD
ENDBRANCH  39  41
ENDBRANCH  38  39
ENDBRANCH  31  38
BRANCH  27  43
ATOM     43  C   UNK d   0     -12.319 -30.430  43.179  0.00  0.00     0.052 C 
BRANCH  43  44
ATOM     44  C   UNK d   0     -13.753 -30.690  42.849  0.00  0.00     0.115 C 
BRANCH  44  45
ATOM     45  C   UNK d   0     -14.401 -29.362  42.696  0.00  0.00     0.139 C 
ATOM     46  O   UNK d   0     -13.666 -28.343  42.679  0.00  0.00    -0.650 OA
BRANCH  45  47
ATOM     47  O   UNK d   0     -15.764 -29.206  42.567  0.00  0.00    -0.776 OA
ATOM     48  H   UNK d   0     -16.395 -29.095  43.377  0.00  0.00     0.167 HD
ENDBRANCH  45  47
ENDBRANCH  44  45
ENDBRANCH  43  44
ENDBRANCH  27  43
BRANCH  24  49
ATOM     49  C   UNK d   0      -9.575 -34.590  40.767  0.00  0.00     0.052 C 
BRANCH  49  50
ATOM     50  C   UNK d   0      -9.498 -33.299  39.993  0.00  0.00     0.115 C 
BRANCH  50  51
ATOM     51  C   UNK d   0      -8.187 -32.894  39.504  0.00  0.00     0.139 C 
ATOM     52  O   UNK d   0      -7.457 -33.651  38.822  0.00  0.00    -0.650 OA
BRANCH  51  53
ATOM     53  O   UNK d   0      -7.707 -31.627  39.795  0.00  0.00    -0.776 OA
ATOM     54  H   UNK d   0      -7.884 -31.250  40.710  0.00  0.00     0.167 HD
ENDBRANCH  51  53
ENDBRANCH  50  51
ENDBRANCH  49  50
ENDBRANCH  24  49
BRANCH  21  55
ATOM     55  C   UNK d   0      -6.786 -35.554  41.682  0.00  0.00     0.151 C 
BRANCH  55  56
ATOM     56  C   UNK d   0      -6.955 -37.012  41.781  0.00  0.00     0.143 C 
ATOM     57  O   UNK d   0      -7.502 -37.690  40.889  0.00  0.00    -0.650 OA
BRANCH  56  58
ATOM     58  O   UNK d   0      -6.477 -37.644  42.928  0.00  0.00    -0.776 OA
ATOM     59  H   UNK d   0      -5.587 -38.160  42.802  0.00  0.00     0.167 HD
ENDBRANCH  56  58
ENDBRANCH  55  56
ENDBRANCH  21  55
BRANCH  18  60
ATOM     60  C   UNK d   0      -5.400 -36.516  46.777  0.00  0.00     0.151 C 
BRANCH  60  61
ATOM     61  C   UNK d   0      -6.443 -37.552  46.835  0.00  0.00     0.143 C 
ATOM     62  O   UNK d   0      -6.741 -38.251  47.804  0.00  0.00    -0.650 OA
BRANCH  61  63
ATOM     63  O   UNK d   0      -7.167 -37.745  45.634  0.00  0.00    -0.776 OA
ATOM     64  H   UNK d   0      -7.090 -38.601  45.115  0.00  0.00     0.167 HD
ENDBRANCH  61  63
ENDBRANCH  60  61
ENDBRANCH  18  60
BRANCH  14  65
ATOM     65  C   UNK d   0      -5.723 -35.344  49.557  0.00  0.00     0.052 C 
BRANCH  65  66
ATOM     66  C   UNK d   0      -6.754 -36.036  50.377  0.00  0.00     0.115 C 
BRANCH  66  67
ATOM     67  C   UNK d   0      -6.577 -36.144  51.798  0.00  0.00     0.139 C 
ATOM     68  O   UNK d   0      -6.232 -37.281  52.289  0.00  0.00    -0.650 OA
BRANCH  67  69
ATOM     69  O   UNK d   0      -6.738 -35.144  52.757  0.00  0.00    -0.776 OA
ATOM     70  H   UNK d   0      -6.788 -35.465  53.734  0.00  0.00     0.167 HD
ENDBRANCH  67  69
ENDBRANCH  66  67
ENDBRANCH  65  66
ENDBRANCH  14  65
ENDBRANCH   6   7
ENDBRANCH   5   6
ENDBRANCH   2   5
TORSDOF 28
ENDMDL
MODEL 7
REMARK VINA RESULT:      -6.3      1.860      7.638
REMARK  28 active torsions:
REMARK  status: ('A' for Active; 'I' for Inactive)
REMARK    1  A    between atoms: C_2  and  O_3 
REMARK    2  A    between atoms: C_2  and  C_4 
REMARK    3  A    between atoms: C_4  and  C_5 
REMARK    4  A    between atoms: C_5  and  C_6 
REMARK    5  A    between atoms: C_7  and  C_8 
REMARK    6  A    between atoms: C_8  and  C_9 
REMARK    7  A    between atoms: C_9  and  O_11 
REMARK    8  A    between atoms: C_28  and  C_29 
REMARK    9  A    between atoms: C_29  and  C_30 
REMARK   10  A    between atoms: C_30  and  O_32 
REMARK   11  A    between atoms: C_33  and  C_34 
REMARK   12  A    between atoms: C_34  and  C_35 
REMARK   13  A    between atoms: C_35  and  C_36 
REMARK   14  A    between atoms: C_36  and  O_38 
REMARK   15  A    between atoms: C_39  and  C_40 
REMARK   16  A    between atoms: C_40  and  C_41 
REMARK   17  A    between atoms: C_41  and  C_42 
REMARK   18  A    between atoms: C_42  and  O_44 
REMARK   19  A    between atoms: C_45  and  C_46 
REMARK   20  A    between atoms: C_46  and  C_47 
REMARK   21  A    between atoms: C_47  and  O_49 
REMARK   22  A    between atoms: C_50  and  C_51 
REMARK   23  A    between atoms: C_51  and  C_52 
REMARK   24  A    between atoms: C_52  and  O_54 
REMARK   25  A    between atoms: C_55  and  C_56 
REMARK   26  A    between atoms: C_56  and  C_57 
REMARK   27  A    between atoms: C_57  and  C_58 
REMARK   28  A    between atoms: C_58  and  O_60 
ROOT
ATOM      1  O   UNK d   0      -6.597 -35.264  52.321  0.00  0.00    -0.650 OA
ATOM      2  C   UNK d   0      -6.493 -35.256  51.074  0.00  0.00     0.139 C 
ENDROOT
BRANCH   2   3
ATOM      3  O   UNK d   0      -7.315 -36.062  50.325  0.00  0.00    -0.776 OA
ATOM      4  H   UNK d   0      -8.332 -36.006  50.412  0.00  0.00     0.167 HD
ENDBRANCH   2   3
BRANCH   2   5
ATOM      5  C   UNK d   0      -5.484 -34.380  50.413  0.00  0.00     0.115 C 
BRANCH   5   6
ATOM      6  C   UNK d   0      -5.961 -32.954  50.409  0.00  0.00     0.052 C 
BRANCH   6   7
ATOM      7  C   UNK d   0      -7.192 -32.755  49.556  0.00  0.00    -0.020 A 
ATOM      8  C   UNK d   0      -8.335 -32.230  49.915  0.00  0.00    -0.011 A 
ATOM      9  C   UNK d   0      -9.219 -32.257  48.762  0.00  0.00     0.067 A 
ATOM     10  C   UNK d   0     -10.530 -31.842  48.481  0.00  0.00     0.062 C 
ATOM     11  N   UNK d   0      -8.534 -32.821  47.745  0.00  0.00    -0.248 NA
ATOM     12  C   UNK d   0     -11.122 -31.699  47.221  0.00  0.00     0.041 A 
ATOM     13  N   UNK d   0     -11.076 -32.482  46.126  0.00  0.00    -0.355 N 
ATOM     14  C   UNK d   0     -11.868 -30.538  46.948  0.00  0.00    -0.022 A 
ATOM     15  C   UNK d   0     -11.767 -31.844  45.163  0.00  0.00     0.042 A 
ATOM     16  H   UNK d   0     -10.581 -33.474  46.042  0.00  0.00     0.166 HD
ATOM     17  C   UNK d   0     -12.033 -32.217  43.830  0.00  0.00     0.062 C 
ATOM     18  C   UNK d   0     -12.279 -30.621  45.640  0.00  0.00    -0.013 A 
ATOM     19  C   UNK d   0     -11.179 -32.742  42.895  0.00  0.00     0.067 A 
ATOM     20  N   UNK d   0      -9.982 -33.147  43.328  0.00  0.00    -0.248 NA
ATOM     21  C   UNK d   0     -11.218 -32.981  41.462  0.00  0.00    -0.011 A 
ATOM     22  C   UNK d   0      -9.235 -33.632  42.283  0.00  0.00     0.066 A 
ATOM     23  C   UNK d   0      -7.978 -34.123  42.599  0.00  0.00     0.062 C 
ATOM     24  C   UNK d   0     -10.076 -33.498  41.109  0.00  0.00    -0.020 A 
ATOM     25  C   UNK d   0      -7.407 -34.270  43.873  0.00  0.00     0.041 A 
ATOM     26  N   UNK d   0      -7.440 -33.485  44.957  0.00  0.00    -0.355 N 
ATOM     27  C   UNK d   0      -6.662 -35.438  44.148  0.00  0.00    -0.022 A 
ATOM     28  C   UNK d   0      -6.744 -34.115  45.916  0.00  0.00     0.042 A 
ATOM     29  H   UNK d   0      -7.928 -32.483  45.036  0.00  0.00     0.166 HD
ATOM     30  C   UNK d   0      -6.463 -33.751  47.243  0.00  0.00     0.062 C 
ATOM     31  C   UNK d   0      -6.239 -35.348  45.439  0.00  0.00    -0.013 A 
ATOM     32  C   UNK d   0      -7.307 -33.142  48.158  0.00  0.00     0.066 A 
BRANCH   8  33
ATOM     33  C   UNK d   0      -8.688 -31.703  51.247  0.00  0.00     0.151 C 
BRANCH  33  34
ATOM     34  C   UNK d   0      -8.935 -32.769  52.235  0.00  0.00     0.143 C 
ATOM     35  O   UNK d   0      -9.884 -33.554  52.100  0.00  0.00    -0.650 OA
BRANCH  34  36
ATOM     36  O   UNK d   0      -8.098 -32.891  53.320  0.00  0.00    -0.776 OA
ATOM     37  H   UNK d   0      -7.170 -32.447  53.332  0.00  0.00     0.167 HD
ENDBRANCH  34  36
ENDBRANCH  33  34
ENDBRANCH   8  33
BRANCH  31  38
ATOM     38  C   UNK d   0      -5.417 -36.375  46.181  0.00  0.00     0.151 C 
BRANCH  38  39
ATOM     39  C   UNK d   0      -6.206 -37.173  47.095  0.00  0.00     0.143 C 
ATOM     40  O   UNK d   0      -7.350 -37.572  46.812  0.00  0.00    -0.650 OA
BRANCH  39  41
ATOM     41  O   UNK d   0      -5.678 -37.516  48.339  0.00  0.00    -0.776 OA
ATOM     42  H   UNK d   0      -5.909 -38.448  48.697  0.00  0.00     0.167 HD
ENDBRANCH  39  41
ENDBRANCH  38  39
ENDBRANCH  31  38
BRANCH  27  43
ATOM     43  C   UNK d   0      -6.343 -36.606  43.249  0.00  0.00     0.052 C 
BRANCH  43  44
ATOM     44  C   UNK d   0      -4.954 -36.568  42.701  0.00  0.00     0.115 C 
BRANCH  44  45
ATOM     45  C   UNK d   0      -5.081 -36.566  41.220  0.00  0.00     0.139 C 
ATOM     46  O   UNK d   0      -4.635 -37.554  40.587  0.00  0.00    -0.650 OA
BRANCH  45  47
ATOM     47  O   UNK d   0      -5.669 -35.533  40.522  0.00  0.00    -0.776 OA
ATOM     48  H   UNK d   0      -5.154 -34.953  39.841  0.00  0.00     0.167 HD
ENDBRANCH  45  47
ENDBRANCH  44  45
ENDBRANCH  43  44
ENDBRANCH  27  43
BRANCH  24  49
ATOM     49  C   UNK d   0      -9.701 -33.930  39.752  0.00  0.00     0.052 C 
BRANCH  49  50
ATOM     50  C   UNK d   0      -8.446 -33.225  39.305  0.00  0.00     0.115 C 
BRANCH  50  51
ATOM     51  C   UNK d   0      -8.476 -31.769  39.275  0.00  0.00     0.139 C 
ATOM     52  O   UNK d   0      -9.378 -31.123  38.690  0.00  0.00    -0.650 OA
BRANCH  51  53
ATOM     53  O   UNK d   0      -7.477 -31.048  39.910  0.00  0.00    -0.776 OA
ATOM     54  H   UNK d   0      -7.646 -30.724  40.846  0.00  0.00     0.167 HD
ENDBRANCH  51  53
ENDBRANCH  50  51
ENDBRANCH  49  50
ENDBRANCH  24  49
BRANCH  21  55
ATOM     55  C   UNK d   0     -12.393 -32.672  40.595  0.00  0.00     0.151 C 
BRANCH  55  56
ATOM     56  C   UNK d   0     -12.652 -31.226  40.512  0.00  0.00     0.143 C 
ATOM     57  O   UNK d   0     -13.802 -30.745  40.512  0.00  0.00    -0.650 OA
BRANCH  56  58
ATOM     58  O   UNK d   0     -11.552 -30.374  40.429  0.00  0.00    -0.776 OA
ATOM     59  H   UNK d   0     -11.462 -29.863  39.532  0.00  0.00     0.167 HD
ENDBRANCH  56  58
ENDBRANCH  55  56
ENDBRANCH  21  55
BRANCH  18  60
ATOM     60  C   UNK d   0     -13.103 -29.580  44.925  0.00  0.00     0.151 C 
BRANCH  60  61
ATOM     61  C   UNK d   0     -12.145 -28.748  44.181  0.00  0.00     0.143 C 
ATOM     62  O   UNK d   0     -11.591 -29.025  43.117  0.00  0.00    -0.650 OA
BRANCH  61  63
ATOM     63  O   UNK d   0     -11.846 -27.497  44.774  0.00  0.00    -0.776 OA
ATOM     64  H   UNK d   0     -11.257 -27.436  45.585  0.00  0.00     0.167 HD
ENDBRANCH  61  63
ENDBRANCH  60  61
ENDBRANCH  18  60
BRANCH  14  65
ATOM     65  C   UNK d   0     -12.301 -29.415  47.847  0.00  0.00     0.052 C 
BRANCH  65  66
ATOM     66  C   UNK d   0     -11.223 -28.420  48.094  0.00  0.00     0.115 C 
BRANCH  66  67
ATOM     67  C   UNK d   0     -11.560 -27.035  48.266  0.00  0.00     0.139 C 
ATOM     68  O   UNK d   0     -11.513 -26.259  47.241  0.00  0.00    -0.650 OA
BRANCH  67  69
ATOM     69  O   UNK d   0     -11.946 -26.390  49.441  0.00  0.00    -0.776 OA
ATOM     70  H   UNK d   0     -11.179 -26.089  50.059  0.00  0.00     0.167 HD
ENDBRANCH  67  69
ENDBRANCH  66  67
ENDBRANCH  65  66
ENDBRANCH  14  65
ENDBRANCH   6   7
ENDBRANCH   5   6
ENDBRANCH   2   5
TORSDOF 28
ENDMDL
MODEL 8
REMARK VINA RESULT:      -6.3     16.547     22.665
REMARK  28 active torsions:
REMARK  status: ('A' for Active; 'I' for Inactive)
REMARK    1  A    between atoms: C_2  and  O_3 
REMARK    2  A    between atoms: C_2  and  C_4 
REMARK    3  A    between atoms: C_4  and  C_5 
REMARK    4  A    between atoms: C_5  and  C_6 
REMARK    5  A    between atoms: C_7  and  C_8 
REMARK    6  A    between atoms: C_8  and  C_9 
REMARK    7  A    between atoms: C_9  and  O_11 
REMARK    8  A    between atoms: C_28  and  C_29 
REMARK    9  A    between atoms: C_29  and  C_30 
REMARK   10  A    between atoms: C_30  and  O_32 
REMARK   11  A    between atoms: C_33  and  C_34 
REMARK   12  A    between atoms: C_34  and  C_35 
REMARK   13  A    between atoms: C_35  and  C_36 
REMARK   14  A    between atoms: C_36  and  O_38 
REMARK   15  A    between atoms: C_39  and  C_40 
REMARK   16  A    between atoms: C_40  and  C_41 
REMARK   17  A    between atoms: C_41  and  C_42 
REMARK   18  A    between atoms: C_42  and  O_44 
REMARK   19  A    between atoms: C_45  and  C_46 
REMARK   20  A    between atoms: C_46  and  C_47 
REMARK   21  A    between atoms: C_47  and  O_49 
REMARK   22  A    between atoms: C_50  and  C_51 
REMARK   23  A    between atoms: C_51  and  C_52 
REMARK   24  A    between atoms: C_52  and  O_54 
REMARK   25  A    between atoms: C_55  and  C_56 
REMARK   26  A    between atoms: C_56  and  C_57 
REMARK   27  A    between atoms: C_57  and  C_58 
REMARK   28  A    between atoms: C_58  and  O_60 
ROOT
ATOM      1  O   UNK d   0     -20.861 -18.858  58.192  0.00  0.00    -0.650 OA
ATOM      2  C   UNK d   0     -20.041 -18.304  57.426  0.00  0.00     0.139 C 
ENDROOT
BRANCH   2   3
ATOM      3  O   UNK d   0     -20.042 -18.627  56.090  0.00  0.00    -0.776 OA
ATOM      4  H   UNK d   0     -19.634 -19.504  55.759  0.00  0.00     0.167 HD
ENDBRANCH   2   3
BRANCH   2   5
ATOM      5  C   UNK d   0     -19.073 -17.305  57.962  0.00  0.00     0.115 C 
BRANCH   5   6
ATOM      6  C   UNK d   0     -17.671 -17.845  57.876  0.00  0.00     0.052 C 
BRANCH   6   7
ATOM      7  C   UNK d   0     -17.418 -18.963  58.858  0.00  0.00    -0.020 A 
ATOM      8  C   UNK d   0     -17.076 -20.198  58.591  0.00  0.00    -0.011 A 
ATOM      9  C   UNK d   0     -16.953 -20.908  59.853  0.00  0.00     0.067 A 
ATOM     10  C   UNK d   0     -16.608 -22.209  60.254  0.00  0.00     0.062 C 
ATOM     11  N   UNK d   0     -17.244 -20.031  60.837  0.00  0.00    -0.248 NA
ATOM     12  C   UNK d   0     -16.272 -22.637  61.543  0.00  0.00     0.041 A 
ATOM     13  N   UNK d   0     -16.817 -22.353  62.741  0.00  0.00    -0.355 N 
ATOM     14  C   UNK d   0     -15.151 -23.469  61.713  0.00  0.00    -0.022 A 
ATOM     15  C   UNK d   0     -16.065 -22.976  63.668  0.00  0.00     0.042 A 
ATOM     16  H   UNK d   0     -17.726 -21.739  62.927  0.00  0.00     0.166 HD
ATOM     17  C   UNK d   0     -16.191 -23.014  65.071  0.00  0.00     0.062 C 
ATOM     18  C   UNK d   0     -15.011 -23.686  63.061  0.00  0.00    -0.013 A 
ATOM     19  C   UNK d   0     -16.444 -21.986  65.942  0.00  0.00     0.067 A 
ATOM     20  N   UNK d   0     -16.819 -20.820  65.409  0.00  0.00    -0.248 NA
ATOM     21  C   UNK d   0     -16.398 -21.803  67.383  0.00  0.00    -0.011 A 
ATOM     22  C   UNK d   0     -17.021 -19.888  66.397  0.00  0.00     0.066 A 
ATOM     23  C   UNK d   0     -17.453 -18.636  65.984  0.00  0.00     0.062 C 
ATOM     24  C   UNK d   0     -16.733 -20.571  67.643  0.00  0.00    -0.020 A 
ATOM     25  C   UNK d   0     -17.797 -18.230  64.686  0.00  0.00     0.041 A 
ATOM     26  N   UNK d   0     -17.246 -18.500  63.496  0.00  0.00    -0.355 N 
ATOM     27  C   UNK d   0     -18.925 -17.398  64.515  0.00  0.00    -0.022 A 
ATOM     28  C   UNK d   0     -17.989 -17.872  62.571  0.00  0.00     0.042 A 
ATOM     29  H   UNK d   0     -16.326 -19.108  63.312  0.00  0.00     0.166 HD
ATOM     30  C   UNK d   0     -17.871 -17.818  61.173  0.00  0.00     0.062 C 
ATOM     31  C   UNK d   0     -19.054 -17.168  63.180  0.00  0.00    -0.013 A 
ATOM     32  C   UNK d   0     -17.531 -18.842  60.304  0.00  0.00     0.066 A 
BRANCH   8  33
ATOM     33  C   UNK d   0     -16.856 -20.787  57.257  0.00  0.00     0.151 C 
BRANCH  33  34
ATOM     34  C   UNK d   0     -18.059 -21.447  56.719  0.00  0.00     0.143 C 
ATOM     35  O   UNK d   0     -18.022 -22.056  55.640  0.00  0.00    -0.650 OA
BRANCH  34  36
ATOM     36  O   UNK d   0     -19.237 -21.383  57.425  0.00  0.00    -0.776 OA
ATOM     37  H   UNK d   0     -19.247 -21.431  58.453  0.00  0.00     0.167 HD
ENDBRANCH  34  36
ENDBRANCH  33  34
ENDBRANCH   8  33
BRANCH  31  38
ATOM     38  C   UNK d   0     -20.132 -16.340  62.519  0.00  0.00     0.151 C 
BRANCH  38  39
ATOM     39  C   UNK d   0     -21.262 -17.133  62.083  0.00  0.00     0.143 C 
ATOM     40  O   UNK d   0     -22.131 -17.542  62.873  0.00  0.00    -0.650 OA
BRANCH  39  41
ATOM     41  O   UNK d   0     -21.393 -17.456  60.733  0.00  0.00    -0.776 OA
ATOM     42  H   UNK d   0     -20.984 -18.345  60.429  0.00  0.00     0.167 HD
ENDBRANCH  39  41
ENDBRANCH  38  39
ENDBRANCH  31  38
BRANCH  27  43
ATOM     43  C   UNK d   0     -19.860 -16.828  65.552  0.00  0.00     0.052 C 
BRANCH  43  44
ATOM     44  C   UNK d   0     -19.309 -15.625  66.247  0.00  0.00     0.115 C 
BRANCH  44  45
ATOM     45  C   UNK d   0     -19.993 -14.444  65.658  0.00  0.00     0.139 C 
ATOM     46  O   UNK d   0     -19.360 -13.748  64.826  0.00  0.00    -0.650 OA
BRANCH  45  47
ATOM     47  O   UNK d   0     -21.285 -14.090  65.981  0.00  0.00    -0.776 OA
ATOM     48  H   UNK d   0     -21.901 -13.569  65.336  0.00  0.00     0.167 HD
ENDBRANCH  45  47
ENDBRANCH  44  45
ENDBRANCH  43  44
ENDBRANCH  27  43
BRANCH  24  49
ATOM     49  C   UNK d   0     -16.855 -19.968  68.981  0.00  0.00     0.052 C 
BRANCH  49  50
ATOM     50  C   UNK d   0     -15.520 -19.440  69.442  0.00  0.00     0.115 C 
BRANCH  50  51
ATOM     51  C   UNK d   0     -15.047 -18.205  68.832  0.00  0.00     0.139 C 
ATOM     52  O   UNK d   0     -14.104 -18.176  68.007  0.00  0.00    -0.650 OA
BRANCH  51  53
ATOM     53  O   UNK d   0     -15.649 -17.001  69.164  0.00  0.00    -0.776 OA
ATOM     54  H   UNK d   0     -16.428 -16.690  68.611  0.00  0.00     0.167 HD
ENDBRANCH  51  53
ENDBRANCH  50  51
ENDBRANCH  49  50
ENDBRANCH  24  49
BRANCH  21  55
ATOM     55  C   UNK d   0     -16.029 -22.878  68.351  0.00  0.00     0.151 C 
BRANCH  55  56
ATOM     56  C   UNK d   0     -14.647 -23.343  68.158  0.00  0.00     0.143 C 
ATOM     57  O   UNK d   0     -13.661 -22.587  68.255  0.00  0.00    -0.650 OA
BRANCH  56  58
ATOM     58  O   UNK d   0     -14.452 -24.689  67.854  0.00  0.00    -0.776 OA
ATOM     59  H   UNK d   0     -14.418 -25.321  68.674  0.00  0.00     0.167 HD
ENDBRANCH  56  58
ENDBRANCH  55  56
ENDBRANCH  21  55
BRANCH  18  60
ATOM     60  C   UNK d   0     -13.926 -24.521  63.694  0.00  0.00     0.151 C 
BRANCH  60  61
ATOM     61  C   UNK d   0     -12.948 -23.567  64.240  0.00  0.00     0.143 C 
ATOM     62  O   UNK d   0     -12.479 -22.580  63.673  0.00  0.00    -0.650 OA
BRANCH  61  63
ATOM     63  O   UNK d   0     -12.517 -23.836  65.561  0.00  0.00    -0.776 OA
ATOM     64  H   UNK d   0     -13.178 -23.959  66.307  0.00  0.00     0.167 HD
ENDBRANCH  61  63
ENDBRANCH  60  61
ENDBRANCH  18  60
BRANCH  14  65
ATOM     65  C   UNK d   0     -14.270 -24.147  60.703  0.00  0.00     0.052 C 
BRANCH  65  66
ATOM     66  C   UNK d   0     -13.227 -23.245  60.142  0.00  0.00     0.115 C 
BRANCH  66  67
ATOM     67  C   UNK d   0     -11.840 -23.533  60.373  0.00  0.00     0.139 C 
ATOM     68  O   UNK d   0     -11.266 -24.418  59.637  0.00  0.00    -0.650 OA
BRANCH  67  69
ATOM     69  O   UNK d   0     -10.996 -22.961  61.325  0.00  0.00    -0.776 OA
ATOM     70  H   UNK d   0     -11.001 -21.932  61.366  0.00  0.00     0.167 HD
ENDBRANCH  67  69
ENDBRANCH  66  67
ENDBRANCH  65  66
ENDBRANCH  14  65
ENDBRANCH   6   7
ENDBRANCH   5   6
ENDBRANCH   2   5
TORSDOF 28
ENDMDL
MODEL 9
REMARK VINA RESULT:      -6.2      2.471      8.470
REMARK  28 active torsions:
REMARK  status: ('A' for Active; 'I' for Inactive)
REMARK    1  A    between atoms: C_2  and  O_3 
REMARK    2  A    between atoms: C_2  and  C_4 
REMARK    3  A    between atoms: C_4  and  C_5 
REMARK    4  A    between atoms: C_5  and  C_6 
REMARK    5  A    between atoms: C_7  and  C_8 
REMARK    6  A    between atoms: C_8  and  C_9 
REMARK    7  A    between atoms: C_9  and  O_11 
REMARK    8  A    between atoms: C_28  and  C_29 
REMARK    9  A    between atoms: C_29  and  C_30 
REMARK   10  A    between atoms: C_30  and  O_32 
REMARK   11  A    between atoms: C_33  and  C_34 
REMARK   12  A    between atoms: C_34  and  C_35 
REMARK   13  A    between atoms: C_35  and  C_36 
REMARK   14  A    between atoms: C_36  and  O_38 
REMARK   15  A    between atoms: C_39  and  C_40 
REMARK   16  A    between atoms: C_40  and  C_41 
REMARK   17  A    between atoms: C_41  and  C_42 
REMARK   18  A    between atoms: C_42  and  O_44 
REMARK   19  A    between atoms: C_45  and  C_46 
REMARK   20  A    between atoms: C_46  and  C_47 
REMARK   21  A    between atoms: C_47  and  O_49 
REMARK   22  A    between atoms: C_50  and  C_51 
REMARK   23  A    between atoms: C_51  and  C_52 
REMARK   24  A    between atoms: C_52  and  O_54 
REMARK   25  A    between atoms: C_55  and  C_56 
REMARK   26  A    between atoms: C_56  and  C_57 
REMARK   27  A    between atoms: C_57  and  C_58 
REMARK   28  A    between atoms: C_58  and  O_60 
ROOT
ATOM      1  O   UNK d   0      -8.615 -31.443  51.723  0.00  0.00    -0.650 OA
ATOM      2  C   UNK d   0      -9.610 -30.724  51.480  0.00  0.00     0.139 C 
ENDROOT
BRANCH   2   3
ATOM      3  O   UNK d   0      -9.689 -29.473  52.042  0.00  0.00    -0.776 OA
ATOM      4  H   UNK d   0     -10.335 -28.770  51.677  0.00  0.00     0.167 HD
ENDBRANCH   2   3
BRANCH   2   5
ATOM      5  C   UNK d   0     -10.696 -31.224  50.591  0.00  0.00     0.115 C 
BRANCH   5   6
ATOM      6  C   UNK d   0     -10.792 -30.367  49.359  0.00  0.00     0.052 C 
BRANCH   6   7
ATOM      7  C   UNK d   0     -10.747 -31.174  48.083  0.00  0.00    -0.020 A 
ATOM      8  C   UNK d   0     -11.662 -31.244  47.150  0.00  0.00    -0.011 A 
ATOM      9  C   UNK d   0     -11.180 -32.151  46.122  0.00  0.00     0.067 A 
ATOM     10  C   UNK d   0     -11.653 -32.627  44.889  0.00  0.00     0.062 C 
ATOM     11  N   UNK d   0      -9.967 -32.593  46.514  0.00  0.00    -0.248 NA
ATOM     12  C   UNK d   0     -10.919 -33.289  43.899  0.00  0.00     0.041 A 
ATOM     13  N   UNK d   0      -9.994 -34.264  43.983  0.00  0.00    -0.355 N 
ATOM     14  C   UNK d   0     -11.073 -32.892  42.558  0.00  0.00    -0.022 A 
ATOM     15  C   UNK d   0      -9.552 -34.490  42.732  0.00  0.00     0.042 A 
ATOM     16  H   UNK d   0      -9.675 -34.795  44.906  0.00  0.00     0.166 HD
ATOM     17  C   UNK d   0      -8.590 -35.402  42.254  0.00  0.00     0.062 C 
ATOM     18  C   UNK d   0     -10.205 -33.648  41.811  0.00  0.00    -0.013 A 
ATOM     19  C   UNK d   0      -7.351 -35.695  42.764  0.00  0.00     0.067 A 
ATOM     20  N   UNK d   0      -7.069 -35.216  43.978  0.00  0.00    -0.248 NA
ATOM     21  C   UNK d   0      -6.178 -36.421  42.307  0.00  0.00    -0.011 A 
ATOM     22  C   UNK d   0      -5.795 -35.575  44.347  0.00  0.00     0.066 A 
ATOM     23  C   UNK d   0      -5.383 -35.174  45.609  0.00  0.00     0.062 C 
ATOM     24  C   UNK d   0      -5.270 -36.344  43.236  0.00  0.00    -0.020 A 
ATOM     25  C   UNK d   0      -6.140 -34.521  46.594  0.00  0.00     0.041 A 
ATOM     26  N   UNK d   0      -7.048 -33.541  46.512  0.00  0.00    -0.355 N 
ATOM     27  C   UNK d   0      -5.988 -34.923  47.939  0.00  0.00    -0.022 A 
ATOM     28  C   UNK d   0      -7.484 -33.307  47.760  0.00  0.00     0.042 A 
ATOM     29  H   UNK d   0      -7.361 -33.001  45.585  0.00  0.00     0.166 HD
ATOM     30  C   UNK d   0      -8.434 -32.397  48.251  0.00  0.00     0.062 C 
ATOM     31  C   UNK d   0      -6.835 -34.161  48.684  0.00  0.00    -0.013 A 
ATOM     32  C   UNK d   0      -9.648 -32.041  47.686  0.00  0.00     0.066 A 
BRANCH   8  33
ATOM     33  C   UNK d   0     -12.958 -30.541  47.127  0.00  0.00     0.151 C 
BRANCH  33  34
ATOM     34  C   UNK d   0     -13.061 -29.571  46.022  0.00  0.00     0.143 C 
ATOM     35  O   UNK d   0     -14.058 -29.548  45.286  0.00  0.00    -0.650 OA
BRANCH  34  36
ATOM     36  O   UNK d   0     -12.035 -28.680  45.807  0.00  0.00    -0.776 OA
ATOM     37  H   UNK d   0     -11.852 -27.908  46.461  0.00  0.00     0.167 HD
ENDBRANCH  34  36
ENDBRANCH  33  34
ENDBRANCH   8  33
BRANCH  31  38
ATOM     38  C   UNK d   0      -7.029 -34.245  50.180  0.00  0.00     0.151 C 
BRANCH  38  39
ATOM     39  C   UNK d   0      -6.064 -33.456  50.916  0.00  0.00     0.143 C 
ATOM     40  O   UNK d   0      -5.107 -32.888  50.361  0.00  0.00    -0.650 OA
BRANCH  39  41
ATOM     41  O   UNK d   0      -6.202 -33.318  52.297  0.00  0.00    -0.776 OA
ATOM     42  H   UNK d   0      -6.025 -32.387  52.688  0.00  0.00     0.167 HD
ENDBRANCH  39  41
ENDBRANCH  38  39
ENDBRANCH  31  38
BRANCH  27  43
ATOM     43  C   UNK d   0      -5.086 -35.979  48.528  0.00  0.00     0.052 C 
BRANCH  43  44
ATOM     44  C   UNK d   0      -5.745 -37.314  48.657  0.00  0.00     0.115 C 
BRANCH  44  45
ATOM     45  C   UNK d   0      -4.903 -38.115  49.583  0.00  0.00     0.139 C 
ATOM     46  O   UNK d   0      -5.368 -38.391  50.717  0.00  0.00    -0.650 OA
BRANCH  45  47
ATOM     47  O   UNK d   0      -3.646 -38.568  49.248  0.00  0.00    -0.776 OA
ATOM     48  H   UNK d   0      -2.830 -38.469  49.873  0.00  0.00     0.167 HD
ENDBRANCH  45  47
ENDBRANCH  44  45
ENDBRANCH  43  44
ENDBRANCH  27  43
BRANCH  24  49
ATOM     49  C   UNK d   0      -3.938 -36.972  43.203  0.00  0.00     0.052 C 
BRANCH  49  50
ATOM     50  C   UNK d   0      -2.880 -35.943  42.896  0.00  0.00     0.115 C 
BRANCH  50  51
ATOM     51  C   UNK d   0      -1.858 -36.310  41.925  0.00  0.00     0.139 C 
ATOM     52  O   UNK d   0      -0.922 -37.100  42.195  0.00  0.00    -0.650 OA
BRANCH  51  53
ATOM     53  O   UNK d   0      -1.901 -35.775  40.647  0.00  0.00    -0.776 OA
ATOM     54  H   UNK d   0      -1.085 -35.863  40.067  0.00  0.00     0.167 HD
ENDBRANCH  51  53
ENDBRANCH  50  51
ENDBRANCH  49  50
ENDBRANCH  24  49
BRANCH  21  55
ATOM     55  C   UNK d   0      -6.089 -37.120  40.991  0.00  0.00     0.151 C 
BRANCH  55  56
ATOM     56  C   UNK d   0      -5.677 -36.211  39.910  0.00  0.00     0.143 C 
ATOM     57  O   UNK d   0      -4.489 -36.082  39.553  0.00  0.00    -0.650 OA
BRANCH  56  58
ATOM     58  O   UNK d   0      -6.669 -35.471  39.270  0.00  0.00    -0.776 OA
ATOM     59  H   UNK d   0      -6.542 -35.364  38.247  0.00  0.00     0.167 HD
ENDBRANCH  56  58
ENDBRANCH  55  56
ENDBRANCH  21  55
BRANCH  18  60
ATOM     60  C   UNK d   0     -10.035 -33.545  40.315  0.00  0.00     0.151 C 
BRANCH  60  61
ATOM     61  C   UNK d   0      -8.905 -32.628  40.100  0.00  0.00     0.143 C 
ATOM     62  O   UNK d   0      -7.712 -32.864  40.292  0.00  0.00    -0.650 OA
BRANCH  61  63
ATOM     63  O   UNK d   0      -9.255 -31.344  39.619  0.00  0.00    -0.776 OA
ATOM     64  H   UNK d   0      -9.030 -30.516  40.142  0.00  0.00     0.167 HD
ENDBRANCH  61  63
ENDBRANCH  60  61
ENDBRANCH  18  60
BRANCH  14  65
ATOM     65  C   UNK d   0     -12.039 -31.931  41.924  0.00  0.00     0.052 C 
BRANCH  65  66
ATOM     66  C   UNK d   0     -11.522 -30.537  41.872  0.00  0.00     0.115 C 
BRANCH  66  67
ATOM     67  C   UNK d   0     -12.332 -29.459  42.365  0.00  0.00     0.139 C 
ATOM     68  O   UNK d   0     -11.746 -28.434  42.875  0.00  0.00    -0.650 OA
BRANCH  67  69
ATOM     69  O   UNK d   0     -13.724 -29.368  42.367  0.00  0.00    -0.776 OA
ATOM     70  H   UNK d   0     -14.111 -28.423  42.237  0.00  0.00     0.167 HD
ENDBRANCH  67  69
ENDBRANCH  66  67
ENDBRANCH  65  66
ENDBRANCH  14  65
ENDBRANCH   6   7
ENDBRANCH   5   6
ENDBRANCH   2   5
TORSDOF 28
ENDMDL
MODEL 10
REMARK VINA RESULT:      -6.2     15.696     21.899
REMARK  28 active torsions:
REMARK  status: ('A' for Active; 'I' for Inactive)
REMARK    1  A    between atoms: C_2  and  O_3 
REMARK    2  A    between atoms: C_2  and  C_4 
REMARK    3  A    between atoms: C_4  and  C_5 
REMARK    4  A    between atoms: C_5  and  C_6 
REMARK    5  A    between atoms: C_7  and  C_8 
REMARK    6  A    between atoms: C_8  and  C_9 
REMARK    7  A    between atoms: C_9  and  O_11 
REMARK    8  A    between atoms: C_28  and  C_29 
REMARK    9  A    between atoms: C_29  and  C_30 
REMARK   10  A    between atoms: C_30  and  O_32 
REMARK   11  A    between atoms: C_33  and  C_34 
REMARK   12  A    between atoms: C_34  and  C_35 
REMARK   13  A    between atoms: C_35  and  C_36 
REMARK   14  A    between atoms: C_36  and  O_38 
REMARK   15  A    between atoms: C_39  and  C_40 
REMARK   16  A    between atoms: C_40  and  C_41 
REMARK   17  A    between atoms: C_41  and  C_42 
REMARK   18  A    between atoms: C_42  and  O_44 
REMARK   19  A    between atoms: C_45  and  C_46 
REMARK   20  A    between atoms: C_46  and  C_47 
REMARK   21  A    between atoms: C_47  and  O_49 
REMARK   22  A    between atoms: C_50  and  C_51 
REMARK   23  A    between atoms: C_51  and  C_52 
REMARK   24  A    between atoms: C_52  and  O_54 
REMARK   25  A    between atoms: C_55  and  C_56 
REMARK   26  A    between atoms: C_56  and  C_57 
REMARK   27  A    between atoms: C_57  and  C_58 
REMARK   28  A    between atoms: C_58  and  O_60 
ROOT
ATOM      1  O   UNK d   0     -19.207 -22.362  54.942  0.00  0.00    -0.650 OA
ATOM      2  C   UNK d   0     -17.973 -22.173  55.017  0.00  0.00     0.139 C 
ENDROOT
BRANCH   2   3
ATOM      3  O   UNK d   0     -17.461 -20.937  54.703  0.00  0.00    -0.776 OA
ATOM      4  H   UNK d   0     -17.076 -20.327  55.427  0.00  0.00     0.167 HD
ENDBRANCH   2   3
BRANCH   2   5
ATOM      5  C   UNK d   0     -17.071 -23.281  55.442  0.00  0.00     0.115 C 
BRANCH   5   6
ATOM      6  C   UNK d   0     -15.941 -22.738  56.274  0.00  0.00     0.052 C 
BRANCH   6   7
ATOM      7  C   UNK d   0     -16.283 -22.669  57.743  0.00  0.00    -0.020 A 
ATOM      8  C   UNK d   0     -16.234 -23.639  58.620  0.00  0.00    -0.011 A 
ATOM      9  C   UNK d   0     -16.661 -23.103  59.902  0.00  0.00     0.067 A 
ATOM     10  C   UNK d   0     -16.809 -23.596  61.207  0.00  0.00     0.062 C 
ATOM     11  N   UNK d   0     -16.957 -21.800  59.712  0.00  0.00    -0.248 NA
ATOM     12  C   UNK d   0     -16.970 -22.852  62.381  0.00  0.00     0.041 A 
ATOM     13  N   UNK d   0     -17.721 -21.767  62.647  0.00  0.00    -0.355 N 
ATOM     14  C   UNK d   0     -16.210 -23.196  63.515  0.00  0.00    -0.022 A 
ATOM     15  C   UNK d   0     -17.453 -21.409  63.917  0.00  0.00     0.042 A 
ATOM     16  H   UNK d   0     -18.442 -21.275  61.957  0.00  0.00     0.166 HD
ATOM     17  C   UNK d   0     -17.963 -20.350  64.694  0.00  0.00     0.062 C 
ATOM     18  C   UNK d   0     -16.510 -22.281  64.493  0.00  0.00    -0.013 A 
ATOM     19  C   UNK d   0     -18.152 -19.037  64.346  0.00  0.00     0.067 A 
ATOM     20  N   UNK d   0     -18.032 -18.732  63.051  0.00  0.00    -0.248 NA
ATOM     21  C   UNK d   0     -18.454 -17.802  65.050  0.00  0.00    -0.011 A 
ATOM     22  C   UNK d   0     -18.233 -17.387  62.857  0.00  0.00     0.066 A 
ATOM     23  C   UNK d   0     -18.174 -16.938  61.547  0.00  0.00     0.062 C 
ATOM     24  C   UNK d   0     -18.495 -16.840  64.174  0.00  0.00    -0.020 A 
ATOM     25  C   UNK d   0     -18.025 -17.704  60.380  0.00  0.00     0.041 A 
ATOM     26  N   UNK d   0     -17.266 -18.773  60.111  0.00  0.00    -0.355 N 
ATOM     27  C   UNK d   0     -18.790 -17.360  59.244  0.00  0.00    -0.022 A 
ATOM     28  C   UNK d   0     -17.525 -19.127  58.843  0.00  0.00     0.042 A 
ATOM     29  H   UNK d   0     -16.535 -19.260  60.803  0.00  0.00     0.166 HD
ATOM     30  C   UNK d   0     -17.019 -20.172  58.054  0.00  0.00     0.062 C 
ATOM     31  C   UNK d   0     -18.481 -18.256  58.267  0.00  0.00    -0.013 A 
ATOM     32  C   UNK d   0     -16.749 -21.477  58.435  0.00  0.00     0.066 A 
BRANCH   8  33
ATOM     33  C   UNK d   0     -15.827 -25.035  58.374  0.00  0.00     0.151 C 
BRANCH  33  34
ATOM     34  C   UNK d   0     -14.365 -25.218  58.407  0.00  0.00     0.143 C 
ATOM     35  O   UNK d   0     -13.727 -25.429  57.366  0.00  0.00    -0.650 OA
BRANCH  34  36
ATOM     36  O   UNK d   0     -13.703 -25.154  59.611  0.00  0.00    -0.776 OA
ATOM     37  H   UNK d   0     -12.801 -24.667  59.700  0.00  0.00     0.167 HD
ENDBRANCH  34  36
ENDBRANCH  33  34
ENDBRANCH   8  33
BRANCH  31  38
ATOM     38  C   UNK d   0     -19.066 -18.293  56.875  0.00  0.00     0.151 C 
BRANCH  38  39
ATOM     39  C   UNK d   0     -20.325 -19.004  56.814  0.00  0.00     0.143 C 
ATOM     40  O   UNK d   0     -20.437 -20.191  57.167  0.00  0.00    -0.650 OA
BRANCH  39  41
ATOM     41  O   UNK d   0     -21.462 -18.347  56.344  0.00  0.00    -0.776 OA
ATOM     42  H   UNK d   0     -21.326 -17.407  55.958  0.00  0.00     0.167 HD
ENDBRANCH  39  41
ENDBRANCH  38  39
ENDBRANCH  31  38
BRANCH  27  43
ATOM     43  C   UNK d   0     -19.779 -16.237  59.059  0.00  0.00     0.052 C 
BRANCH  43  44
ATOM     44  C   UNK d   0     -21.176 -16.611  59.438  0.00  0.00     0.115 C 
BRANCH  44  45
ATOM     45  C   UNK d   0     -21.744 -15.446  60.166  0.00  0.00     0.139 C 
ATOM     46  O   UNK d   0     -21.892 -15.540  61.410  0.00  0.00    -0.650 OA
BRANCH  45  47
ATOM     47  O   UNK d   0     -22.108 -14.276  59.536  0.00  0.00    -0.776 OA
ATOM     48  H   UNK d   0     -22.925 -13.715  59.824  0.00  0.00     0.167 HD
ENDBRANCH  45  47
ENDBRANCH  44  45
ENDBRANCH  43  44
ENDBRANCH  27  43
BRANCH  24  49
ATOM     49  C   UNK d   0     -18.808 -15.427  64.450  0.00  0.00     0.052 C 
BRANCH  49  50
ATOM     50  C   UNK d   0     -20.292 -15.187  64.340  0.00  0.00     0.115 C 
BRANCH  50  51
ATOM     51  C   UNK d   0     -20.985 -14.742  65.541  0.00  0.00     0.139 C 
ATOM     52  O   UNK d   0     -20.378 -14.399  66.583  0.00  0.00    -0.650 OA
BRANCH  51  53
ATOM     53  O   UNK d   0     -22.370 -14.689  65.555  0.00  0.00    -0.776 OA
ATOM     54  H   UNK d   0     -22.859 -15.229  66.247  0.00  0.00     0.167 HD
ENDBRANCH  51  53
ENDBRANCH  50  51
ENDBRANCH  49  50
ENDBRANCH  24  49
BRANCH  21  55
ATOM     55  C   UNK d   0     -18.673 -17.713  66.524  0.00  0.00     0.151 C 
BRANCH  55  56
ATOM     56  C   UNK d   0     -20.014 -18.179  66.910  0.00  0.00     0.143 C 
ATOM     57  O   UNK d   0     -20.983 -18.173  66.126  0.00  0.00    -0.650 OA
BRANCH  56  58
ATOM     58  O   UNK d   0     -20.189 -18.642  68.213  0.00  0.00    -0.776 OA
ATOM     59  H   UNK d   0     -20.967 -18.198  68.733  0.00  0.00     0.167 HD
ENDBRANCH  56  58
ENDBRANCH  55  56
ENDBRANCH  21  55
BRANCH  18  60
ATOM     60  C   UNK d   0     -15.911 -22.271  65.878  0.00  0.00     0.151 C 
BRANCH  60  61
ATOM     61  C   UNK d   0     -16.890 -22.942  66.746  0.00  0.00     0.143 C 
ATOM     62  O   UNK d   0     -17.216 -24.130  66.718  0.00  0.00    -0.650 OA
BRANCH  61  63
ATOM     63  O   UNK d   0     -17.511 -22.112  67.710  0.00  0.00    -0.776 OA
ATOM     64  H   UNK d   0     -17.089 -21.247  67.998  0.00  0.00     0.167 HD
ENDBRANCH  61  63
ENDBRANCH  60  61
ENDBRANCH  18  60
BRANCH  14  65
ATOM     65  C   UNK d   0     -15.308 -24.369  63.771  0.00  0.00     0.052 C 
BRANCH  65  66
ATOM     66  C   UNK d   0     -13.951 -24.198  63.187  0.00  0.00     0.115 C 
BRANCH  66  67
ATOM     67  C   UNK d   0     -12.865 -23.768  64.023  0.00  0.00     0.139 C 
ATOM     68  O   UNK d   0     -12.103 -22.822  63.601  0.00  0.00    -0.650 OA
BRANCH  67  69
ATOM     69  O   UNK d   0     -12.510 -24.257  65.280  0.00  0.00    -0.776 OA
ATOM     70  H   UNK d   0     -11.504 -24.422  65.428  0.00  0.00     0.167 HD
ENDBRANCH  67  69
ENDBRANCH  66  67
ENDBRANCH  65  66
ENDBRANCH  14  65
ENDBRANCH   6   7
ENDBRANCH   5   6
ENDBRANCH   2   5
TORSDOF 28
ENDMDL
MODEL 11
REMARK VINA RESULT:      -6.2      2.307     10.823
REMARK  28 active torsions:
REMARK  status: ('A' for Active; 'I' for Inactive)
REMARK    1  A    between atoms: C_2  and  O_3 
REMARK    2  A    between atoms: C_2  and  C_4 
REMARK    3  A    between atoms: C_4  and  C_5 
REMARK    4  A    between atoms: C_5  and  C_6 
REMARK    5  A    between atoms: C_7  and  C_8 
REMARK    6  A    between atoms: C_8  and  C_9 
REMARK    7  A    between atoms: C_9  and  O_11 
REMARK    8  A    between atoms: C_28  and  C_29 
REMARK    9  A    between atoms: C_29  and  C_30 
REMARK   10  A    between atoms: C_30  and  O_32 
REMARK   11  A    between atoms: C_33  and  C_34 
REMARK   12  A    between atoms: C_34  and  C_35 
REMARK   13  A    between atoms: C_35  and  C_36 
REMARK   14  A    between atoms: C_36  and  O_38 
REMARK   15  A    between atoms: C_39  and  C_40 
REMARK   16  A    between atoms: C_40  and  C_41 
REMARK   17  A    between atoms: C_41  and  C_42 
REMARK   18  A    between atoms: C_42  and  O_44 
REMARK   19  A    between atoms: C_45  and  C_46 
REMARK   20  A    between atoms: C_46  and  C_47 
REMARK   21  A    between atoms: C_47  and  O_49 
REMARK   22  A    between atoms: C_50  and  C_51 
REMARK   23  A    between atoms: C_51  and  C_52 
REMARK   24  A    between atoms: C_52  and  O_54 
REMARK   25  A    between atoms: C_55  and  C_56 
REMARK   26  A    between atoms: C_56  and  C_57 
REMARK   27  A    between atoms: C_57  and  C_58 
REMARK   28  A    between atoms: C_58  and  O_60 
ROOT
ATOM      1  O   UNK d   0     -14.762 -30.788  43.998  0.00  0.00    -0.650 OA
ATOM      2  C   UNK d   0     -13.670 -30.235  43.739  0.00  0.00     0.139 C 
ENDROOT
BRANCH   2   3
ATOM      3  O   UNK d   0     -12.691 -30.948  43.089  0.00  0.00    -0.776 OA
ATOM      4  H   UNK d   0     -11.811 -31.181  43.554  0.00  0.00     0.167 HD
ENDBRANCH   2   3
BRANCH   2   5
ATOM      5  C   UNK d   0     -13.437 -28.817  44.134  0.00  0.00     0.115 C 
BRANCH   5   6
ATOM      6  C   UNK d   0     -11.973 -28.585  44.390  0.00  0.00     0.052 C 
BRANCH   6   7
ATOM      7  C   UNK d   0     -11.629 -28.606  45.861  0.00  0.00    -0.020 A 
ATOM      8  C   UNK d   0     -11.559 -27.587  46.678  0.00  0.00    -0.011 A 
ATOM      9  C   UNK d   0     -11.186 -28.093  47.989  0.00  0.00     0.067 A 
ATOM     10  C   UNK d   0     -10.972 -27.544  49.263  0.00  0.00     0.062 C 
ATOM     11  N   UNK d   0     -11.045 -29.430  47.877  0.00  0.00    -0.248 NA
ATOM     12  C   UNK d   0     -10.889 -28.231  50.479  0.00  0.00     0.041 A 
ATOM     13  N   UNK d   0     -10.265 -29.379  50.807  0.00  0.00    -0.355 N 
ATOM     14  C   UNK d   0     -11.594 -27.736  51.590  0.00  0.00    -0.022 A 
ATOM     15  C   UNK d   0     -10.563 -29.628  52.097  0.00  0.00     0.042 A 
ATOM     16  H   UNK d   0      -9.611 -29.990  50.147  0.00  0.00     0.166 HD
ATOM     17  C   UNK d   0     -10.173 -30.691  52.935  0.00  0.00     0.062 C 
ATOM     18  C   UNK d   0     -11.394 -28.620  52.621  0.00  0.00    -0.013 A 
ATOM     19  C   UNK d   0     -10.139 -32.035  52.664  0.00  0.00     0.067 A 
ATOM     20  N   UNK d   0     -10.303 -32.400  51.390  0.00  0.00    -0.248 NA
ATOM     21  C   UNK d   0      -9.976 -33.253  53.440  0.00  0.00    -0.011 A 
ATOM     22  C   UNK d   0     -10.261 -33.768  51.277  0.00  0.00     0.066 A 
ATOM     23  C   UNK d   0     -10.382 -34.284  49.995  0.00  0.00     0.062 C 
ATOM     24  C   UNK d   0     -10.053 -34.264  52.623  0.00  0.00    -0.020 A 
ATOM     25  C   UNK d   0     -10.451 -33.576  48.785  0.00  0.00     0.041 A 
ATOM     26  N   UNK d   0     -11.083 -32.443  48.455  0.00  0.00    -0.355 N 
ATOM     27  C   UNK d   0      -9.739 -34.072  47.671  0.00  0.00    -0.022 A 
ATOM     28  C   UNK d   0     -10.795 -32.198  47.167  0.00  0.00     0.042 A 
ATOM     29  H   UNK d   0     -11.748 -31.836  49.116  0.00  0.00     0.166 HD
ATOM     30  C   UNK d   0     -11.184 -31.149  46.318  0.00  0.00     0.062 C 
ATOM     31  C   UNK d   0      -9.951 -33.205  46.643  0.00  0.00    -0.013 A 
ATOM     32  C   UNK d   0     -11.298 -29.802  46.621  0.00  0.00     0.066 A 
BRANCH   8  33
ATOM     33  C   UNK d   0     -11.803 -26.170  46.350  0.00  0.00     0.151 C 
BRANCH  33  34
ATOM     34  C   UNK d   0     -10.905 -25.253  47.075  0.00  0.00     0.143 C 
ATOM     35  O   UNK d   0     -11.323 -24.567  48.019  0.00  0.00    -0.650 OA
BRANCH  34  36
ATOM     36  O   UNK d   0      -9.586 -25.158  46.695  0.00  0.00    -0.776 OA
ATOM     37  H   UNK d   0      -8.920 -24.574  47.218  0.00  0.00     0.167 HD
ENDBRANCH  34  36
ENDBRANCH  33  34
ENDBRANCH   8  33
BRANCH  31  38
ATOM     38  C   UNK d   0      -9.377 -33.318  45.250  0.00  0.00     0.151 C 
BRANCH  38  39
ATOM     39  C   UNK d   0     -10.146 -34.197  44.395  0.00  0.00     0.143 C 
ATOM     40  O   UNK d   0      -9.612 -34.942  43.554  0.00  0.00    -0.650 OA
BRANCH  39  41
ATOM     41  O   UNK d   0     -11.536 -34.221  44.508  0.00  0.00    -0.776 OA
ATOM     42  H   UNK d   0     -12.031 -34.930  43.959  0.00  0.00     0.167 HD
ENDBRANCH  39  41
ENDBRANCH  38  39
ENDBRANCH  31  38
BRANCH  27  43
ATOM     43  C   UNK d   0      -8.888 -35.311  47.552  0.00  0.00     0.052 C 
BRANCH  43  44
ATOM     44  C   UNK d   0      -7.422 -35.026  47.590  0.00  0.00     0.115 C 
BRANCH  44  45
ATOM     45  C   UNK d   0      -6.964 -35.339  48.969  0.00  0.00     0.139 C 
ATOM     46  O   UNK d   0      -6.645 -36.525  49.233  0.00  0.00    -0.650 OA
BRANCH  45  47
ATOM     47  O   UNK d   0      -6.873 -34.385  49.960  0.00  0.00    -0.776 OA
ATOM     48  H   UNK d   0      -5.986 -34.158  50.439  0.00  0.00     0.167 HD
ENDBRANCH  45  47
ENDBRANCH  44  45
ENDBRANCH  43  44
ENDBRANCH  27  43
BRANCH  24  49
ATOM     49  C   UNK d   0      -9.903 -35.684  52.982  0.00  0.00     0.052 C 
BRANCH  49  50
ATOM     50  C   UNK d   0      -9.019 -36.387  51.984  0.00  0.00     0.115 C 
BRANCH  50  51
ATOM     51  C   UNK d   0      -7.779 -36.964  52.484  0.00  0.00     0.139 C 
ATOM     52  O   UNK d   0      -7.736 -38.072  53.069  0.00  0.00    -0.650 OA
BRANCH  51  53
ATOM     53  O   UNK d   0      -6.586 -36.276  52.320  0.00  0.00    -0.776 OA
ATOM     54  H   UNK d   0      -6.389 -35.875  51.420  0.00  0.00     0.167 HD
ENDBRANCH  51  53
ENDBRANCH  50  51
ENDBRANCH  49  50
ENDBRANCH  24  49
BRANCH  21  55
ATOM     55  C   UNK d   0      -9.756 -33.280  54.917  0.00  0.00     0.151 C 
BRANCH  55  56
ATOM     56  C   UNK d   0     -11.013 -33.122  55.664  0.00  0.00     0.143 C 
ATOM     57  O   UNK d   0     -12.040 -33.780  55.405  0.00  0.00    -0.650 OA
BRANCH  56  58
ATOM     58  O   UNK d   0     -11.038 -32.194  56.703  0.00  0.00    -0.776 OA
ATOM     59  H   UNK d   0     -11.986 -31.918  57.019  0.00  0.00     0.167 HD
ENDBRANCH  56  58
ENDBRANCH  55  56
ENDBRANCH  21  55
BRANCH  18  60
ATOM     60  C   UNK d   0     -11.979 -28.480  54.005  0.00  0.00     0.151 C 
BRANCH  60  61
ATOM     61  C   UNK d   0     -12.987 -29.544  54.127  0.00  0.00     0.143 C 
ATOM     62  O   UNK d   0     -13.035 -30.425  54.986  0.00  0.00    -0.650 OA
BRANCH  61  63
ATOM     63  O   UNK d   0     -14.000 -29.530  53.139  0.00  0.00    -0.776 OA
ATOM     64  H   UNK d   0     -14.718 -30.232  53.122  0.00  0.00     0.167 HD
ENDBRANCH  61  63
ENDBRANCH  60  61
ENDBRANCH  18  60
BRANCH  14  65
ATOM     65  C   UNK d   0     -12.353 -26.453  51.778  0.00  0.00     0.052 C 
BRANCH  65  66
ATOM     66  C   UNK d   0     -11.465 -25.277  51.983  0.00  0.00     0.115 C 
BRANCH  66  67
ATOM     67  C   UNK d   0     -11.166 -24.835  53.316  0.00  0.00     0.139 C 
ATOM     68  O   UNK d   0     -12.089 -24.906  54.208  0.00  0.00    -0.650 OA
BRANCH  67  69
ATOM     69  O   UNK d   0      -9.962 -24.318  53.793  0.00  0.00    -0.776 OA
ATOM     70  H   UNK d   0     -10.012 -23.828  54.698  0.00  0.00     0.167 HD
ENDBRANCH  67  69
ENDBRANCH  66  67
ENDBRANCH  65  66
ENDBRANCH  14  65
ENDBRANCH   6   7
ENDBRANCH   5   6
ENDBRANCH   2   5
TORSDOF 28
ENDMDL
MODEL 12
REMARK VINA RESULT:      -6.1      1.822      8.464
REMARK  28 active torsions:
REMARK  status: ('A' for Active; 'I' for Inactive)
REMARK    1  A    between atoms: C_2  and  O_3 
REMARK    2  A    between atoms: C_2  and  C_4 
REMARK    3  A    between atoms: C_4  and  C_5 
REMARK    4  A    between atoms: C_5  and  C_6 
REMARK    5  A    between atoms: C_7  and  C_8 
REMARK    6  A    between atoms: C_8  and  C_9 
REMARK    7  A    between atoms: C_9  and  O_11 
REMARK    8  A    between atoms: C_28  and  C_29 
REMARK    9  A    between atoms: C_29  and  C_30 
REMARK   10  A    between atoms: C_30  and  O_32 
REMARK   11  A    between atoms: C_33  and  C_34 
REMARK   12  A    between atoms: C_34  and  C_35 
REMARK   13  A    between atoms: C_35  and  C_36 
REMARK   14  A    between atoms: C_36  and  O_38 
REMARK   15  A    between atoms: C_39  and  C_40 
REMARK   16  A    between atoms: C_40  and  C_41 
REMARK   17  A    between atoms: C_41  and  C_42 
REMARK   18  A    between atoms: C_42  and  O_44 
REMARK   19  A    between atoms: C_45  and  C_46 
REMARK   20  A    between atoms: C_46  and  C_47 
REMARK   21  A    between atoms: C_47  and  O_49 
REMARK   22  A    between atoms: C_50  and  C_51 
REMARK   23  A    between atoms: C_51  and  C_52 
REMARK   24  A    between atoms: C_52  and  O_54 
REMARK   25  A    between atoms: C_55  and  C_56 
REMARK   26  A    between atoms: C_56  and  C_57 
REMARK   27  A    between atoms: C_57  and  C_58 
REMARK   28  A    between atoms: C_58  and  O_60 
ROOT
ATOM      1  O   UNK d   0     -16.082 -31.199  43.508  0.00  0.00    -0.650 OA
ATOM      2  C   UNK d   0     -15.871 -29.968  43.441  0.00  0.00     0.139 C 
ENDROOT
BRANCH   2   3
ATOM      3  O   UNK d   0     -16.559 -29.215  42.520  0.00  0.00    -0.776 OA
ATOM      4  H   UNK d   0     -17.085 -28.386  42.804  0.00  0.00     0.167 HD
ENDBRANCH   2   3
BRANCH   2   5
ATOM      5  C   UNK d   0     -14.881 -29.329  44.354  0.00  0.00     0.115 C 
BRANCH   5   6
ATOM      6  C   UNK d   0     -13.586 -29.090  43.627  0.00  0.00     0.052 C 
BRANCH   6   7
ATOM      7  C   UNK d   0     -12.693 -30.309  43.614  0.00  0.00    -0.020 A 
ATOM      8  C   UNK d   0     -12.543 -31.178  42.648  0.00  0.00    -0.011 A 
ATOM      9  C   UNK d   0     -11.590 -32.180  43.095  0.00  0.00     0.067 A 
ATOM     10  C   UNK d   0     -10.998 -33.329  42.549  0.00  0.00     0.062 C 
ATOM     11  N   UNK d   0     -11.215 -31.845  44.348  0.00  0.00    -0.248 NA
ATOM     12  C   UNK d   0      -9.881 -34.018  43.033  0.00  0.00     0.041 A 
ATOM     13  N   UNK d   0      -9.526 -34.364  44.286  0.00  0.00    -0.355 N 
ATOM     14  C   UNK d   0      -8.877 -34.409  42.128  0.00  0.00    -0.022 A 
ATOM     15  C   UNK d   0      -8.320 -34.956  44.199  0.00  0.00     0.042 A 
ATOM     16  H   UNK d   0     -10.125 -34.209  45.210  0.00  0.00     0.166 HD
ATOM     17  C   UNK d   0      -7.498 -35.504  45.204  0.00  0.00     0.062 C 
ATOM     18  C   UNK d   0      -7.880 -35.002  42.862  0.00  0.00    -0.013 A 
ATOM     19  C   UNK d   0      -7.176 -34.986  46.432  0.00  0.00     0.067 A 
ATOM     20  N   UNK d   0      -7.869 -33.920  46.840  0.00  0.00    -0.248 NA
ATOM     21  C   UNK d   0      -6.211 -35.294  47.475  0.00  0.00    -0.011 A 
ATOM     22  C   UNK d   0      -7.427 -33.508  48.073  0.00  0.00     0.066 A 
ATOM     23  C   UNK d   0      -8.090 -32.427  48.635  0.00  0.00     0.062 C 
ATOM     24  C   UNK d   0      -6.361 -34.422  48.431  0.00  0.00    -0.020 A 
ATOM     25  C   UNK d   0      -9.219 -31.756  48.139  0.00  0.00     0.041 A 
ATOM     26  N   UNK d   0      -9.564 -31.400  46.896  0.00  0.00    -0.355 N 
ATOM     27  C   UNK d   0     -10.227 -31.369  49.047  0.00  0.00    -0.022 A 
ATOM     28  C   UNK d   0     -10.763 -30.801  46.980  0.00  0.00     0.042 A 
ATOM     29  H   UNK d   0      -8.956 -31.546  45.969  0.00  0.00     0.166 HD
ATOM     30  C   UNK d   0     -11.587 -30.243  45.991  0.00  0.00     0.062 C 
ATOM     31  C   UNK d   0     -11.208 -30.764  48.323  0.00  0.00    -0.013 A 
ATOM     32  C   UNK d   0     -11.843 -30.728  44.718  0.00  0.00     0.066 A 
BRANCH   8  33
ATOM     33  C   UNK d   0     -13.215 -31.168  41.336  0.00  0.00     0.151 C 
BRANCH  33  34
ATOM     34  C   UNK d   0     -12.440 -30.457  40.303  0.00  0.00     0.143 C 
ATOM     35  O   UNK d   0     -12.148 -29.259  40.438  0.00  0.00    -0.650 OA
BRANCH  34  36
ATOM     36  O   UNK d   0     -12.036 -31.133  39.176  0.00  0.00    -0.776 OA
ATOM     37  H   UNK d   0     -12.561 -31.946  38.824  0.00  0.00     0.167 HD
ENDBRANCH  34  36
ENDBRANCH  33  34
ENDBRANCH   8  33
BRANCH  31  38
ATOM     38  C   UNK d   0     -12.498 -30.197  48.868  0.00  0.00     0.151 C 
BRANCH  38  39
ATOM     39  C   UNK d   0     -12.362 -28.830  49.324  0.00  0.00     0.143 C 
ATOM     40  O   UNK d   0     -12.564 -28.500  50.506  0.00  0.00    -0.650 OA
BRANCH  39  41
ATOM     41  O   UNK d   0     -11.990 -27.838  48.418  0.00  0.00    -0.776 OA
ATOM     42  H   UNK d   0     -11.381 -28.123  47.645  0.00  0.00     0.167 HD
ENDBRANCH  39  41
ENDBRANCH  38  39
ENDBRANCH  31  38
BRANCH  27  43
ATOM     43  C   UNK d   0     -10.289 -31.546  50.544  0.00  0.00     0.052 C 
BRANCH  43  44
ATOM     44  C   UNK d   0      -9.630 -30.437  51.298  0.00  0.00     0.115 C 
BRANCH  44  45
ATOM     45  C   UNK d   0      -9.655 -30.826  52.732  0.00  0.00     0.139 C 
ATOM     46  O   UNK d   0     -10.719 -30.649  53.375  0.00  0.00    -0.650 OA
BRANCH  45  47
ATOM     47  O   UNK d   0      -8.567 -31.374  53.377  0.00  0.00    -0.776 OA
ATOM     48  H   UNK d   0      -8.572 -31.613  54.382  0.00  0.00     0.167 HD
ENDBRANCH  45  47
ENDBRANCH  44  45
ENDBRANCH  43  44
ENDBRANCH  27  43
BRANCH  24  49
ATOM     49  C   UNK d   0      -5.612 -34.387  49.699  0.00  0.00     0.052 C 
BRANCH  49  50
ATOM     50  C   UNK d   0      -6.308 -35.223  50.742  0.00  0.00     0.115 C 
BRANCH  50  51
ATOM     51  C   UNK d   0      -7.041 -34.514  51.782  0.00  0.00     0.139 C 
ATOM     52  O   UNK d   0      -7.107 -33.262  51.830  0.00  0.00    -0.650 OA
BRANCH  51  53
ATOM     53  O   UNK d   0      -7.697 -35.231  52.771  0.00  0.00    -0.776 OA
ATOM     54  H   UNK d   0      -8.582 -35.650  52.546  0.00  0.00     0.167 HD
ENDBRANCH  51  53
ENDBRANCH  50  51
ENDBRANCH  49  50
ENDBRANCH  24  49
BRANCH  21  55
ATOM     55  C   UNK d   0      -5.244 -36.429  47.410  0.00  0.00     0.151 C 
BRANCH  55  56
ATOM     56  C   UNK d   0      -5.741 -37.619  48.118  0.00  0.00     0.143 C 
ATOM     57  O   UNK d   0      -5.123 -38.151  49.061  0.00  0.00    -0.650 OA
BRANCH  56  58
ATOM     58  O   UNK d   0      -6.957 -38.160  47.702  0.00  0.00    -0.776 OA
ATOM     59  H   UNK d   0      -6.922 -39.162  47.443  0.00  0.00     0.167 HD
ENDBRANCH  56  58
ENDBRANCH  55  56
ENDBRANCH  21  55
BRANCH  18  60
ATOM     60  C   UNK d   0      -6.602 -35.564  42.290  0.00  0.00     0.151 C 
BRANCH  60  61
ATOM     61  C   UNK d   0      -6.877 -36.980  42.002  0.00  0.00     0.143 C 
ATOM     62  O   UNK d   0      -6.914 -37.908  42.810  0.00  0.00    -0.650 OA
BRANCH  61  63
ATOM     63  O   UNK d   0      -7.122 -37.281  40.640  0.00  0.00    -0.776 OA
ATOM     64  H   UNK d   0      -7.995 -37.682  40.347  0.00  0.00     0.167 HD
ENDBRANCH  61  63
ENDBRANCH  60  61
ENDBRANCH  18  60
BRANCH  14  65
ATOM     65  C   UNK d   0      -8.834 -34.353  40.627  0.00  0.00     0.052 C 
BRANCH  65  66
ATOM     66  C   UNK d   0      -7.821 -33.394  40.110  0.00  0.00     0.115 C 
BRANCH  66  67
ATOM     67  C   UNK d   0      -8.161 -32.007  39.968  0.00  0.00     0.139 C 
ATOM     68  O   UNK d   0      -9.404 -31.685  39.887  0.00  0.00    -0.650 OA
BRANCH  67  69
ATOM     69  O   UNK d   0      -7.293 -30.917  39.904  0.00  0.00    -0.776 OA
ATOM     70  H   UNK d   0      -6.529 -30.912  40.594  0.00  0.00     0.167 HD
ENDBRANCH  67  69
ENDBRANCH  66  67
ENDBRANCH  65  66
ENDBRANCH  14  65
ENDBRANCH   6   7
ENDBRANCH   5   6
ENDBRANCH   2   5
TORSDOF 28
ENDMDL
MODEL 13
REMARK VINA RESULT:      -6.1     15.304     22.407
REMARK  28 active torsions:
REMARK  status: ('A' for Active; 'I' for Inactive)
REMARK    1  A    between atoms: C_2  and  O_3 
REMARK    2  A    between atoms: C_2  and  C_4 
REMARK    3  A    between atoms: C_4  and  C_5 
REMARK    4  A    between atoms: C_5  and  C_6 
REMARK    5  A    between atoms: C_7  and  C_8 
REMARK    6  A    between atoms: C_8  and  C_9 
REMARK    7  A    between atoms: C_9  and  O_11 
REMARK    8  A    between atoms: C_28  and  C_29 
REMARK    9  A    between atoms: C_29  and  C_30 
REMARK   10  A    between atoms: C_30  and  O_32 
REMARK   11  A    between atoms: C_33  and  C_34 
REMARK   12  A    between atoms: C_34  and  C_35 
REMARK   13  A    between atoms: C_35  and  C_36 
REMARK   14  A    between atoms: C_36  and  O_38 
REMARK   15  A    between atoms: C_39  and  C_40 
REMARK   16  A    between atoms: C_40  and  C_41 
REMARK   17  A    between atoms: C_41  and  C_42 
REMARK   18  A    between atoms: C_42  and  O_44 
REMARK   19  A    between atoms: C_45  and  C_46 
REMARK   20  A    between atoms: C_46  and  C_47 
REMARK   21  A    between atoms: C_47  and  O_49 
REMARK   22  A    between atoms: C_50  and  C_51 
REMARK   23  A    between atoms: C_51  and  C_52 
REMARK   24  A    between atoms: C_52  and  O_54 
REMARK   25  A    between atoms: C_55  and  C_56 
REMARK   26  A    between atoms: C_56  and  C_57 
REMARK   27  A    between atoms: C_57  and  C_58 
REMARK   28  A    between atoms: C_58  and  O_60 
ROOT
ATOM      1  O   UNK d   0     -12.543 -24.318  57.490  0.00  0.00    -0.650 OA
ATOM      2  C   UNK d   0     -13.719 -24.740  57.561  0.00  0.00     0.139 C 
ENDROOT
BRANCH   2   3
ATOM      3  O   UNK d   0     -14.089 -25.528  58.624  0.00  0.00    -0.776 OA
ATOM      4  H   UNK d   0     -14.289 -26.522  58.500  0.00  0.00     0.167 HD
ENDBRANCH   2   3
BRANCH   2   5
ATOM      5  C   UNK d   0     -14.705 -24.390  56.499  0.00  0.00     0.115 C 
BRANCH   5   6
ATOM      6  C   UNK d   0     -16.093 -24.337  57.078  0.00  0.00     0.052 C 
BRANCH   6   7
ATOM      7  C   UNK d   0     -16.432 -22.983  57.652  0.00  0.00    -0.020 A 
ATOM      8  C   UNK d   0     -16.746 -21.894  56.998  0.00  0.00    -0.011 A 
ATOM      9  C   UNK d   0     -16.981 -20.842  57.972  0.00  0.00     0.067 A 
ATOM     10  C   UNK d   0     -17.359 -19.490  57.931  0.00  0.00     0.062 C 
ATOM     11  N   UNK d   0     -16.782 -21.376  59.195  0.00  0.00    -0.248 NA
ATOM     12  C   UNK d   0     -17.809 -18.704  58.998  0.00  0.00     0.041 A 
ATOM     13  N   UNK d   0     -17.375 -18.602  60.268  0.00  0.00    -0.355 N 
ATOM     14  C   UNK d   0     -18.940 -17.889  58.812  0.00  0.00    -0.022 A 
ATOM     15  C   UNK d   0     -18.207 -17.748  60.896  0.00  0.00     0.042 A 
ATOM     16  H   UNK d   0     -16.487 -19.107  60.708  0.00  0.00     0.166 HD
ATOM     17  C   UNK d   0     -18.208 -17.288  62.227  0.00  0.00     0.062 C 
ATOM     18  C   UNK d   0     -19.201 -17.281  60.015  0.00  0.00    -0.013 A 
ATOM     19  C   UNK d   0     -18.037 -18.001  63.386  0.00  0.00     0.067 A 
ATOM     20  N   UNK d   0     -17.616 -19.263  63.264  0.00  0.00    -0.248 NA
ATOM     21  C   UNK d   0     -18.212 -17.745  64.806  0.00  0.00    -0.011 A 
ATOM     22  C   UNK d   0     -17.506 -19.851  64.500  0.00  0.00     0.066 A 
ATOM     23  C   UNK d   0     -17.040 -21.157  64.522  0.00  0.00     0.062 C 
ATOM     24  C   UNK d   0     -17.904 -18.832  65.452  0.00  0.00    -0.020 A 
ATOM     25  C   UNK d   0     -16.581 -21.925  63.441  0.00  0.00     0.041 A 
ATOM     26  N   UNK d   0     -17.022 -22.038  62.182  0.00  0.00    -0.355 N 
ATOM     27  C   UNK d   0     -15.443 -22.740  63.627  0.00  0.00    -0.022 A 
ATOM     28  C   UNK d   0     -16.199 -22.896  61.556  0.00  0.00     0.042 A 
ATOM     29  H   UNK d   0     -17.920 -21.538  61.745  0.00  0.00     0.166 HD
ATOM     30  C   UNK d   0     -16.191 -23.369  60.235  0.00  0.00     0.062 C 
ATOM     31  C   UNK d   0     -15.194 -23.357  62.439  0.00  0.00    -0.013 A 
ATOM     32  C   UNK d   0     -16.450 -22.662  59.072  0.00  0.00     0.066 A 
BRANCH   8  33
ATOM     33  C   UNK d   0     -16.845 -21.739  55.535  0.00  0.00     0.151 C 
BRANCH  33  34
ATOM     34  C   UNK d   0     -18.194 -22.033  55.019  0.00  0.00     0.143 C 
ATOM     35  O   UNK d   0     -19.160 -21.318  55.320  0.00  0.00    -0.650 OA
BRANCH  34  36
ATOM     36  O   UNK d   0     -18.380 -23.119  54.195  0.00  0.00    -0.776 OA
ATOM     37  H   UNK d   0     -18.808 -23.016  53.265  0.00  0.00     0.167 HD
ENDBRANCH  34  36
ENDBRANCH  33  34
ENDBRANCH   8  33
BRANCH  31  38
ATOM     38  C   UNK d   0     -14.063 -24.317  62.154  0.00  0.00     0.151 C 
BRANCH  38  39
ATOM     39  C   UNK d   0     -12.851 -23.648  61.731  0.00  0.00     0.143 C 
ATOM     40  O   UNK d   0     -11.991 -23.257  62.540  0.00  0.00    -0.650 OA
BRANCH  39  41
ATOM     41  O   UNK d   0     -12.627 -23.427  60.373  0.00  0.00    -0.776 OA
ATOM     42  H   UNK d   0     -12.840 -22.490  60.016  0.00  0.00     0.167 HD
ENDBRANCH  39  41
ENDBRANCH  38  39
ENDBRANCH  31  38
BRANCH  27  43
ATOM     43  C   UNK d   0     -14.606 -22.949  64.864  0.00  0.00     0.052 C 
BRANCH  43  44
ATOM     44  C   UNK d   0     -14.718 -24.329  65.426  0.00  0.00     0.115 C 
BRANCH  44  45
ATOM     45  C   UNK d   0     -13.353 -24.719  65.866  0.00  0.00     0.139 C 
ATOM     46  O   UNK d   0     -13.245 -25.451  66.881  0.00  0.00    -0.650 OA
BRANCH  45  47
ATOM     47  O   UNK d   0     -12.212 -24.318  65.206  0.00  0.00    -0.776 OA
ATOM     48  H   UNK d   0     -11.513 -23.686  65.629  0.00  0.00     0.167 HD
ENDBRANCH  45  47
ENDBRANCH  44  45
ENDBRANCH  43  44
ENDBRANCH  27  43
BRANCH  24  49
ATOM     49  C   UNK d   0     -17.904 -19.003  66.915  0.00  0.00     0.052 C 
BRANCH  49  50
ATOM     50  C   UNK d   0     -19.184 -19.660  67.366  0.00  0.00     0.115 C 
BRANCH  50  51
ATOM     51  C   UNK d   0     -20.010 -18.924  68.314  0.00  0.00     0.139 C 
ATOM     52  O   UNK d   0     -21.086 -19.380  68.769  0.00  0.00    -0.650 OA
BRANCH  51  53
ATOM     53  O   UNK d   0     -19.612 -17.667  68.741  0.00  0.00    -0.776 OA
ATOM     54  H   UNK d   0     -18.641 -17.525  68.959  0.00  0.00     0.167 HD
ENDBRANCH  51  53
ENDBRANCH  50  51
ENDBRANCH  49  50
ENDBRANCH  24  49
BRANCH  21  55
ATOM     55  C   UNK d   0     -18.665 -16.439  65.369  0.00  0.00     0.151 C 
BRANCH  55  56
ATOM     56  C   UNK d   0     -20.132 -16.347  65.440  0.00  0.00     0.143 C 
ATOM     57  O   UNK d   0     -20.871 -16.609  64.471  0.00  0.00    -0.650 OA
BRANCH  56  58
ATOM     58  O   UNK d   0     -20.700 -15.951  66.649  0.00  0.00    -0.776 OA
ATOM     59  H   UNK d   0     -21.635 -16.352  66.844  0.00  0.00     0.167 HD
ENDBRANCH  56  58
ENDBRANCH  55  56
ENDBRANCH  21  55
BRANCH  18  60
ATOM     60  C   UNK d   0     -20.338 -16.322  60.271  0.00  0.00     0.151 C 
BRANCH  60  61
ATOM     61  C   UNK d   0     -21.497 -17.156  60.622  0.00  0.00     0.143 C 
ATOM     62  O   UNK d   0     -21.490 -18.200  61.274  0.00  0.00    -0.650 OA
BRANCH  61  63
ATOM     63  O   UNK d   0     -22.745 -16.684  60.147  0.00  0.00    -0.776 OA
ATOM     64  H   UNK d   0     -23.115 -16.994  59.266  0.00  0.00     0.167 HD
ENDBRANCH  61  63
ENDBRANCH  60  61
ENDBRANCH  18  60
BRANCH  14  65
ATOM     65  C   UNK d   0     -19.726 -17.568  57.572  0.00  0.00     0.052 C 
BRANCH  65  66
ATOM     66  C   UNK d   0     -20.813 -18.547  57.303  0.00  0.00     0.115 C 
BRANCH  66  67
ATOM     67  C   UNK d   0     -22.132 -18.076  56.986  0.00  0.00     0.139 C 
ATOM     68  O   UNK d   0     -22.962 -18.896  56.445  0.00  0.00    -0.650 OA
BRANCH  67  69
ATOM     69  O   UNK d   0     -22.656 -16.801  57.195  0.00  0.00    -0.776 OA
ATOM     70  H   UNK d   0     -23.637 -16.765  57.505  0.00  0.00     0.167 HD
ENDBRANCH  67  69
ENDBRANCH  66  67
ENDBRANCH  65  66
ENDBRANCH  14  65
ENDBRANCH   6   7
ENDBRANCH   5   6
ENDBRANCH   2   5
TORSDOF 28
ENDMDL
MODEL 14
REMARK VINA RESULT:      -6.1     16.267     23.705
REMARK  28 active torsions:
REMARK  status: ('A' for Active; 'I' for Inactive)
REMARK    1  A    between atoms: C_2  and  O_3 
REMARK    2  A    between atoms: C_2  and  C_4 
REMARK    3  A    between atoms: C_4  and  C_5 
REMARK    4  A    between atoms: C_5  and  C_6 
REMARK    5  A    between atoms: C_7  and  C_8 
REMARK    6  A    between atoms: C_8  and  C_9 
REMARK    7  A    between atoms: C_9  and  O_11 
REMARK    8  A    between atoms: C_28  and  C_29 
REMARK    9  A    between atoms: C_29  and  C_30 
REMARK   10  A    between atoms: C_30  and  O_32 
REMARK   11  A    between atoms: C_33  and  C_34 
REMARK   12  A    between atoms: C_34  and  C_35 
REMARK   13  A    between atoms: C_35  and  C_36 
REMARK   14  A    between atoms: C_36  and  O_38 
REMARK   15  A    between atoms: C_39  and  C_40 
REMARK   16  A    between atoms: C_40  and  C_41 
REMARK   17  A    between atoms: C_41  and  C_42 
REMARK   18  A    between atoms: C_42  and  O_44 
REMARK   19  A    between atoms: C_45  and  C_46 
REMARK   20  A    between atoms: C_46  and  C_47 
REMARK   21  A    between atoms: C_47  and  O_49 
REMARK   22  A    between atoms: C_50  and  C_51 
REMARK   23  A    between atoms: C_51  and  C_52 
REMARK   24  A    between atoms: C_52  and  O_54 
REMARK   25  A    between atoms: C_55  and  C_56 
REMARK   26  A    between atoms: C_56  and  C_57 
REMARK   27  A    between atoms: C_57  and  C_58 
REMARK   28  A    between atoms: C_58  and  O_60 
ROOT
ATOM      1  O   UNK d   0     -19.245 -22.307  54.794  0.00  0.00    -0.650 OA
ATOM      2  C   UNK d   0     -18.261 -21.755  55.334  0.00  0.00     0.139 C 
ENDROOT
BRANCH   2   3
ATOM      3  O   UNK d   0     -17.451 -20.938  54.582  0.00  0.00    -0.776 OA
ATOM      4  H   UNK d   0     -16.477 -21.188  54.396  0.00  0.00     0.167 HD
ENDBRANCH   2   3
BRANCH   2   5
ATOM      5  C   UNK d   0     -17.974 -21.983  56.779  0.00  0.00     0.115 C 
BRANCH   5   6
ATOM      6  C   UNK d   0     -16.756 -21.203  57.194  0.00  0.00     0.052 C 
BRANCH   6   7
ATOM      7  C   UNK d   0     -16.988 -20.382  58.440  0.00  0.00    -0.020 A 
ATOM      8  C   UNK d   0     -17.421 -19.149  58.514  0.00  0.00    -0.011 A 
ATOM      9  C   UNK d   0     -17.476 -18.781  59.919  0.00  0.00     0.067 A 
ATOM     10  C   UNK d   0     -17.860 -17.649  60.655  0.00  0.00     0.062 C 
ATOM     11  N   UNK d   0     -17.053 -19.847  60.629  0.00  0.00    -0.248 NA
ATOM     12  C   UNK d   0     -18.108 -17.576  62.030  0.00  0.00     0.041 A 
ATOM     13  N   UNK d   0     -17.447 -18.102  63.079  0.00  0.00    -0.355 N 
ATOM     14  C   UNK d   0     -19.256 -16.900  62.479  0.00  0.00    -0.022 A 
ATOM     15  C   UNK d   0     -18.151 -17.784  64.181  0.00  0.00     0.042 A 
ATOM     16  H   UNK d   0     -16.491 -18.671  63.042  0.00  0.00     0.166 HD
ATOM     17  C   UNK d   0     -17.908 -18.081  65.537  0.00  0.00     0.062 C 
ATOM     18  C   UNK d   0     -19.293 -17.031  63.846  0.00  0.00    -0.013 A 
ATOM     19  C   UNK d   0     -17.523 -19.269  66.104  0.00  0.00     0.067 A 
ATOM     20  N   UNK d   0     -17.128 -20.236  65.272  0.00  0.00    -0.248 NA
ATOM     21  C   UNK d   0     -17.434 -19.802  67.453  0.00  0.00    -0.011 A 
ATOM     22  C   UNK d   0     -16.789 -21.364  65.979  0.00  0.00     0.066 A 
ATOM     23  C   UNK d   0     -16.323 -22.439  65.238  0.00  0.00     0.062 C 
ATOM     24  C   UNK d   0     -17.008 -21.030  67.373  0.00  0.00    -0.020 A 
ATOM     25  C   UNK d   0     -16.069 -22.488  63.858  0.00  0.00     0.041 A 
ATOM     26  N   UNK d   0     -16.734 -21.978  62.815  0.00  0.00    -0.355 N 
ATOM     27  C   UNK d   0     -14.913 -23.163  63.408  0.00  0.00    -0.022 A 
ATOM     28  C   UNK d   0     -16.038 -22.301  61.713  0.00  0.00     0.042 A 
ATOM     29  H   UNK d   0     -17.699 -21.416  62.852  0.00  0.00     0.166 HD
ATOM     30  C   UNK d   0     -16.273 -22.021  60.358  0.00  0.00     0.062 C 
ATOM     31  C   UNK d   0     -14.886 -23.049  62.052  0.00  0.00    -0.013 A 
ATOM     32  C   UNK d   0     -16.744 -20.844  59.798  0.00  0.00     0.066 A 
BRANCH   8  33
ATOM     33  C   UNK d   0     -17.789 -18.271  57.388  0.00  0.00     0.151 C 
BRANCH  33  34
ATOM     34  C   UNK d   0     -19.224 -18.337  57.058  0.00  0.00     0.143 C 
ATOM     35  O   UNK d   0     -19.620 -18.953  56.059  0.00  0.00    -0.650 OA
BRANCH  34  36
ATOM     36  O   UNK d   0     -20.134 -17.702  57.872  0.00  0.00    -0.776 OA
ATOM     37  H   UNK d   0     -20.438 -16.737  57.683  0.00  0.00     0.167 HD
ENDBRANCH  34  36
ENDBRANCH  33  34
ENDBRANCH   8  33
BRANCH  31  38
ATOM     38  C   UNK d   0     -13.824 -23.605  61.132  0.00  0.00     0.151 C 
BRANCH  38  39
ATOM     39  C   UNK d   0     -14.231 -24.831  60.480  0.00  0.00     0.143 C 
ATOM     40  O   UNK d   0     -15.036 -25.624  60.998  0.00  0.00    -0.650 OA
BRANCH  39  41
ATOM     41  O   UNK d   0     -13.710 -25.147  59.226  0.00  0.00    -0.776 OA
ATOM     42  H   UNK d   0     -13.138 -24.430  58.770  0.00  0.00     0.167 HD
ENDBRANCH  39  41
ENDBRANCH  38  39
ENDBRANCH  31  38
BRANCH  27  43
ATOM     43  C   UNK d   0     -13.861 -23.896  64.202  0.00  0.00     0.052 C 
BRANCH  43  44
ATOM     44  C   UNK d   0     -14.110 -25.366  64.296  0.00  0.00     0.115 C 
BRANCH  44  45
ATOM     45  C   UNK d   0     -14.329 -25.669  65.735  0.00  0.00     0.139 C 
ATOM     46  O   UNK d   0     -15.511 -25.752  66.149  0.00  0.00    -0.650 OA
BRANCH  45  47
ATOM     47  O   UNK d   0     -13.293 -25.864  66.623  0.00  0.00    -0.776 OA
ATOM     48  H   UNK d   0     -13.066 -25.194  67.375  0.00  0.00     0.167 HD
ENDBRANCH  45  47
ENDBRANCH  44  45
ENDBRANCH  43  44
ENDBRANCH  27  43
BRANCH  24  49
ATOM     49  C   UNK d   0     -16.737 -21.931  68.506  0.00  0.00     0.052 C 
BRANCH  49  50
ATOM     50  C   UNK d   0     -15.267 -21.928  68.839  0.00  0.00     0.115 C 
BRANCH  50  51
ATOM     51  C   UNK d   0     -14.495 -23.100  68.450  0.00  0.00     0.139 C 
ATOM     52  O   UNK d   0     -13.423 -23.020  67.805  0.00  0.00    -0.650 OA
BRANCH  51  53
ATOM     53  O   UNK d   0     -14.947 -24.365  68.793  0.00  0.00    -0.776 OA
ATOM     54  H   UNK d   0     -14.279 -25.029  69.146  0.00  0.00     0.167 HD
ENDBRANCH  51  53
ENDBRANCH  50  51
ENDBRANCH  49  50
ENDBRANCH  24  49
BRANCH  21  55
ATOM     55  C   UNK d   0     -17.780 -19.028  68.682  0.00  0.00     0.151 C 
BRANCH  55  56
ATOM     56  C   UNK d   0     -16.950 -17.822  68.825  0.00  0.00     0.143 C 
ATOM     57  O   UNK d   0     -15.729 -17.867  69.070  0.00  0.00    -0.650 OA
BRANCH  56  58
ATOM     58  O   UNK d   0     -17.574 -16.584  68.677  0.00  0.00    -0.776 OA
ATOM     59  H   UNK d   0     -18.549 -16.542  69.026  0.00  0.00     0.167 HD
ENDBRANCH  56  58
ENDBRANCH  55  56
ENDBRANCH  21  55
BRANCH  18  60
ATOM     60  C   UNK d   0     -20.366 -16.462  64.740  0.00  0.00     0.151 C 
BRANCH  60  61
ATOM     61  C   UNK d   0     -19.819 -15.207  65.279  0.00  0.00     0.143 C 
ATOM     62  O   UNK d   0     -19.605 -14.165  64.659  0.00  0.00    -0.650 OA
BRANCH  61  63
ATOM     63  O   UNK d   0     -19.516 -15.226  66.661  0.00  0.00    -0.776 OA
ATOM     64  H   UNK d   0     -20.158 -15.618  67.328  0.00  0.00     0.167 HD
ENDBRANCH  61  63
ENDBRANCH  60  61
ENDBRANCH  18  60
BRANCH  14  65
ATOM     65  C   UNK d   0     -20.258 -16.066  61.734  0.00  0.00     0.052 C 
BRANCH  65  66
ATOM     66  C   UNK d   0     -21.486 -16.821  61.366  0.00  0.00     0.115 C 
BRANCH  66  67
ATOM     67  C   UNK d   0     -21.464 -18.257  61.360  0.00  0.00     0.139 C 
ATOM     68  O   UNK d   0     -21.119 -18.860  60.279  0.00  0.00    -0.650 OA
BRANCH  67  69
ATOM     69  O   UNK d   0     -21.778 -19.119  62.410  0.00  0.00    -0.776 OA
ATOM     70  H   UNK d   0     -21.297 -20.030  62.401  0.00  0.00     0.167 HD
ENDBRANCH  67  69
ENDBRANCH  66  67
ENDBRANCH  65  66
ENDBRANCH  14  65
ENDBRANCH   6   7
ENDBRANCH   5   6
ENDBRANCH   2   5
TORSDOF 28
ENDMDL
MODEL 15
REMARK VINA RESULT:      -6.0     14.756     21.993
REMARK  28 active torsions:
REMARK  status: ('A' for Active; 'I' for Inactive)
REMARK    1  A    between atoms: C_2  and  O_3 
REMARK    2  A    between atoms: C_2  and  C_4 
REMARK    3  A    between atoms: C_4  and  C_5 
REMARK    4  A    between atoms: C_5  and  C_6 
REMARK    5  A    between atoms: C_7  and  C_8 
REMARK    6  A    between atoms: C_8  and  C_9 
REMARK    7  A    between atoms: C_9  and  O_11 
REMARK    8  A    between atoms: C_28  and  C_29 
REMARK    9  A    between atoms: C_29  and  C_30 
REMARK   10  A    between atoms: C_30  and  O_32 
REMARK   11  A    between atoms: C_33  and  C_34 
REMARK   12  A    between atoms: C_34  and  C_35 
REMARK   13  A    between atoms: C_35  and  C_36 
REMARK   14  A    between atoms: C_36  and  O_38 
REMARK   15  A    between atoms: C_39  and  C_40 
REMARK   16  A    between atoms: C_40  and  C_41 
REMARK   17  A    between atoms: C_41  and  C_42 
REMARK   18  A    between atoms: C_42  and  O_44 
REMARK   19  A    between atoms: C_45  and  C_46 
REMARK   20  A    between atoms: C_46  and  C_47 
REMARK   21  A    between atoms: C_47  and  O_49 
REMARK   22  A    between atoms: C_50  and  C_51 
REMARK   23  A    between atoms: C_51  and  C_52 
REMARK   24  A    between atoms: C_52  and  O_54 
REMARK   25  A    between atoms: C_55  and  C_56 
REMARK   26  A    between atoms: C_56  and  C_57 
REMARK   27  A    between atoms: C_57  and  C_58 
REMARK   28  A    between atoms: C_58  and  O_60 
ROOT
ATOM      1  O   UNK d   0     -17.516 -26.748  54.294  0.00  0.00    -0.650 OA
ATOM      2  C   UNK d   0     -17.379 -25.533  54.029  0.00  0.00     0.139 C 
ENDROOT
BRANCH   2   3
ATOM      3  O   UNK d   0     -17.740 -25.070  52.787  0.00  0.00    -0.776 OA
ATOM      4  H   UNK d   0     -18.642 -25.316  52.374  0.00  0.00     0.167 HD
ENDBRANCH   2   3
BRANCH   2   5
ATOM      5  C   UNK d   0     -16.827 -24.602  55.053  0.00  0.00     0.115 C 
BRANCH   5   6
ATOM      6  C   UNK d   0     -17.740 -24.544  56.247  0.00  0.00     0.052 C 
BRANCH   6   7
ATOM      7  C   UNK d   0     -17.952 -23.137  56.750  0.00  0.00    -0.020 A 
ATOM      8  C   UNK d   0     -18.381 -22.103  56.073  0.00  0.00    -0.011 A 
ATOM      9  C   UNK d   0     -18.413 -20.963  56.974  0.00  0.00     0.067 A 
ATOM     10  C   UNK d   0     -18.783 -19.612  56.884  0.00  0.00     0.062 C 
ATOM     11  N   UNK d   0     -17.981 -21.392  58.178  0.00  0.00    -0.248 NA
ATOM     12  C   UNK d   0     -19.010 -18.724  57.942  0.00  0.00     0.041 A 
ATOM     13  N   UNK d   0     -18.334 -18.520  59.088  0.00  0.00    -0.355 N 
ATOM     14  C   UNK d   0     -20.150 -17.900  57.907  0.00  0.00    -0.022 A 
ATOM     15  C   UNK d   0     -19.020 -17.595  59.785  0.00  0.00     0.042 A 
ATOM     16  H   UNK d   0     -17.380 -19.006  59.390  0.00  0.00     0.166 HD
ATOM     17  C   UNK d   0     -18.757 -17.019  61.044  0.00  0.00     0.062 C 
ATOM     18  C   UNK d   0     -20.165 -17.182  59.077  0.00  0.00    -0.013 A 
ATOM     19  C   UNK d   0     -18.365 -17.630  62.208  0.00  0.00     0.067 A 
ATOM     20  N   UNK d   0     -17.985 -18.908  62.121  0.00  0.00    -0.248 NA
ATOM     21  C   UNK d   0     -18.256 -17.246  63.605  0.00  0.00    -0.011 A 
ATOM     22  C   UNK d   0     -17.638 -19.387  63.360  0.00  0.00     0.066 A 
ATOM     23  C   UNK d   0     -17.186 -20.697  63.410  0.00  0.00     0.062 C 
ATOM     24  C   UNK d   0     -17.834 -18.279  64.275  0.00  0.00    -0.020 A 
ATOM     25  C   UNK d   0     -16.953 -21.569  62.335  0.00  0.00     0.041 A 
ATOM     26  N   UNK d   0     -17.633 -21.782  61.202  0.00  0.00    -0.355 N 
ATOM     27  C   UNK d   0     -15.806 -22.391  62.369  0.00  0.00    -0.022 A 
ATOM     28  C   UNK d   0     -16.955 -22.711  60.509  0.00  0.00     0.042 A 
ATOM     29  H   UNK d   0     -18.597 -21.300  60.905  0.00  0.00     0.166 HD
ATOM     30  C   UNK d   0     -17.210 -23.299  59.260  0.00  0.00     0.062 C 
ATOM     31  C   UNK d   0     -15.799 -23.117  61.217  0.00  0.00    -0.013 A 
ATOM     32  C   UNK d   0     -17.688 -22.691  58.110  0.00  0.00     0.066 A 
BRANCH   8  33
ATOM     33  C   UNK d   0     -18.764 -22.075  54.649  0.00  0.00     0.151 C 
BRANCH  33  34
ATOM     34  C   UNK d   0     -20.041 -22.763  54.388  0.00  0.00     0.143 C 
ATOM     35  O   UNK d   0     -21.072 -22.447  55.000  0.00  0.00    -0.650 OA
BRANCH  34  36
ATOM     36  O   UNK d   0     -20.086 -23.771  53.453  0.00  0.00    -0.776 OA
ATOM     37  H   UNK d   0     -19.245 -24.055  52.933  0.00  0.00     0.167 HD
ENDBRANCH  34  36
ENDBRANCH  33  34
ENDBRANCH   8  33
BRANCH  31  38
ATOM     38  C   UNK d   0     -14.753 -24.125  60.805  0.00  0.00     0.151 C 
BRANCH  38  39
ATOM     39  C   UNK d   0     -13.610 -23.517  60.159  0.00  0.00     0.143 C 
ATOM     40  O   UNK d   0     -13.619 -23.191  58.958  0.00  0.00    -0.650 OA
BRANCH  39  41
ATOM     41  O   UNK d   0     -12.450 -23.280  60.896  0.00  0.00    -0.776 OA
ATOM     42  H   UNK d   0     -12.281 -23.892  61.700  0.00  0.00     0.167 HD
ENDBRANCH  39  41
ENDBRANCH  38  39
ENDBRANCH  31  38
BRANCH  27  43
ATOM     43  C   UNK d   0     -14.743 -22.511  63.432  0.00  0.00     0.052 C 
BRANCH  43  44
ATOM     44  C   UNK d   0     -14.994 -23.625  64.395  0.00  0.00     0.115 C 
BRANCH  44  45
ATOM     45  C   UNK d   0     -13.775 -24.476  64.387  0.00  0.00     0.139 C 
ATOM     46  O   UNK d   0     -12.765 -24.056  63.771  0.00  0.00    -0.650 OA
BRANCH  45  47
ATOM     47  O   UNK d   0     -13.710 -25.694  65.028  0.00  0.00    -0.776 OA
ATOM     48  H   UNK d   0     -12.817 -26.141  65.292  0.00  0.00     0.167 HD
ENDBRANCH  45  47
ENDBRANCH  44  45
ENDBRANCH  43  44
ENDBRANCH  27  43
BRANCH  24  49
ATOM     49  C   UNK d   0     -17.548 -18.320  65.719  0.00  0.00     0.052 C 
BRANCH  49  50
ATOM     50  C   UNK d   0     -18.415 -19.350  66.396  0.00  0.00     0.115 C 
BRANCH  50  51
ATOM     51  C   UNK d   0     -17.752 -20.301  67.279  0.00  0.00     0.139 C 
ATOM     52  O   UNK d   0     -16.846 -21.072  66.884  0.00  0.00    -0.650 OA
BRANCH  51  53
ATOM     53  O   UNK d   0     -18.124 -20.374  68.612  0.00  0.00    -0.776 OA
ATOM     54  H   UNK d   0     -18.905 -20.958  68.857  0.00  0.00     0.167 HD
ENDBRANCH  51  53
ENDBRANCH  50  51
ENDBRANCH  49  50
ENDBRANCH  24  49
BRANCH  21  55
ATOM     55  C   UNK d   0     -18.581 -15.884  64.124  0.00  0.00     0.151 C 
BRANCH  55  56
ATOM     56  C   UNK d   0     -20.026 -15.706  64.338  0.00  0.00     0.143 C 
ATOM     57  O   UNK d   0     -20.799 -15.319  63.440  0.00  0.00    -0.650 OA
BRANCH  56  58
ATOM     58  O   UNK d   0     -20.534 -15.987  65.606  0.00  0.00    -0.776 OA
ATOM     59  H   UNK d   0     -21.562 -15.898  65.693  0.00  0.00     0.167 HD
ENDBRANCH  56  58
ENDBRANCH  55  56
ENDBRANCH  21  55
BRANCH  18  60
ATOM     60  C   UNK d   0     -21.223 -16.178  59.461  0.00  0.00     0.151 C 
BRANCH  60  61
ATOM     61  C   UNK d   0     -22.091 -16.858  60.434  0.00  0.00     0.143 C 
ATOM     62  O   UNK d   0     -22.305 -18.068  60.520  0.00  0.00    -0.650 OA
BRANCH  61  63
ATOM     63  O   UNK d   0     -22.739 -16.007  61.361  0.00  0.00    -0.776 OA
ATOM     64  H   UNK d   0     -22.429 -15.948  62.315  0.00  0.00     0.167 HD
ENDBRANCH  61  63
ENDBRANCH  60  61
ENDBRANCH  18  60
BRANCH  14  65
ATOM     65  C   UNK d   0     -21.161 -17.672  56.820  0.00  0.00     0.052 C 
BRANCH  65  66
ATOM     66  C   UNK d   0     -22.440 -18.396  57.053  0.00  0.00     0.115 C 
BRANCH  66  67
ATOM     67  C   UNK d   0     -22.559 -19.772  56.662  0.00  0.00     0.139 C 
ATOM     68  O   UNK d   0     -22.282 -20.682  57.527  0.00  0.00    -0.650 OA
BRANCH  67  69
ATOM     69  O   UNK d   0     -22.951 -20.276  55.422  0.00  0.00    -0.776 OA
ATOM     70  H   UNK d   0     -23.962 -20.429  55.300  0.00  0.00     0.167 HD
ENDBRANCH  67  69
ENDBRANCH  66  67
ENDBRANCH  65  66
ENDBRANCH  14  65
ENDBRANCH   6   7
ENDBRANCH   5   6
ENDBRANCH   2   5
TORSDOF 28
ENDMDL
MODEL 16
REMARK VINA RESULT:      -6.0      1.666      7.488
REMARK  28 active torsions:
REMARK  status: ('A' for Active; 'I' for Inactive)
REMARK    1  A    between atoms: C_2  and  O_3 
REMARK    2  A    between atoms: C_2  and  C_4 
REMARK    3  A    between atoms: C_4  and  C_5 
REMARK    4  A    between atoms: C_5  and  C_6 
REMARK    5  A    between atoms: C_7  and  C_8 
REMARK    6  A    between atoms: C_8  and  C_9 
REMARK    7  A    between atoms: C_9  and  O_11 
REMARK    8  A    between atoms: C_28  and  C_29 
REMARK    9  A    between atoms: C_29  and  C_30 
REMARK   10  A    between atoms: C_30  and  O_32 
REMARK   11  A    between atoms: C_33  and  C_34 
REMARK   12  A    between atoms: C_34  and  C_35 
REMARK   13  A    between atoms: C_35  and  C_36 
REMARK   14  A    between atoms: C_36  and  O_38 
REMARK   15  A    between atoms: C_39  and  C_40 
REMARK   16  A    between atoms: C_40  and  C_41 
REMARK   17  A    between atoms: C_41  and  C_42 
REMARK   18  A    between atoms: C_42  and  O_44 
REMARK   19  A    between atoms: C_45  and  C_46 
REMARK   20  A    between atoms: C_46  and  C_47 
REMARK   21  A    between atoms: C_47  and  O_49 
REMARK   22  A    between atoms: C_50  and  C_51 
REMARK   23  A    between atoms: C_51  and  C_52 
REMARK   24  A    between atoms: C_52  and  O_54 
REMARK   25  A    between atoms: C_55  and  C_56 
REMARK   26  A    between atoms: C_56  and  C_57 
REMARK   27  A    between atoms: C_57  and  C_58 
REMARK   28  A    between atoms: C_58  and  O_60 
ROOT
ATOM      1  O   UNK d   0      -5.044 -37.270  47.793  0.00  0.00    -0.650 OA
ATOM      2  C   UNK d   0      -4.731 -37.342  49.002  0.00  0.00     0.139 C 
ENDROOT
BRANCH   2   3
ATOM      3  O   UNK d   0      -3.871 -38.330  49.418  0.00  0.00    -0.776 OA
ATOM      4  H   UNK d   0      -3.550 -38.376  50.388  0.00  0.00     0.167 HD
ENDBRANCH   2   3
BRANCH   2   5
ATOM      5  C   UNK d   0      -5.288 -36.363  49.979  0.00  0.00     0.115 C 
BRANCH   5   6
ATOM      6  C   UNK d   0      -5.098 -34.960  49.470  0.00  0.00     0.052 C 
BRANCH   6   7
ATOM      7  C   UNK d   0      -6.405 -34.226  49.286  0.00  0.00    -0.020 A 
ATOM      8  C   UNK d   0      -7.076 -33.553  50.186  0.00  0.00    -0.011 A 
ATOM      9  C   UNK d   0      -8.274 -33.032  49.549  0.00  0.00     0.067 A 
ATOM     10  C   UNK d   0      -9.365 -32.239  49.939  0.00  0.00     0.062 C 
ATOM     11  N   UNK d   0      -8.255 -33.441  48.263  0.00  0.00    -0.248 NA
ATOM     12  C   UNK d   0     -10.291 -31.603  49.105  0.00  0.00     0.041 A 
ATOM     13  N   UNK d   0     -10.928 -32.032  47.999  0.00  0.00    -0.355 N 
ATOM     14  C   UNK d   0     -10.634 -30.264  49.365  0.00  0.00    -0.022 A 
ATOM     15  C   UNK d   0     -11.659 -30.996  47.545  0.00  0.00     0.042 A 
ATOM     16  H   UNK d   0     -10.876 -33.051  47.558  0.00  0.00     0.166 HD
ATOM     17  C   UNK d   0     -12.510 -30.900  46.426  0.00  0.00     0.062 C 
ATOM     18  C   UNK d   0     -11.500 -29.870  48.376  0.00  0.00    -0.013 A 
ATOM     19  C   UNK d   0     -12.301 -31.337  45.143  0.00  0.00     0.067 A 
ATOM     20  N   UNK d   0     -11.250 -32.135  44.940  0.00  0.00    -0.248 NA
ATOM     21  C   UNK d   0     -12.948 -31.146  43.856  0.00  0.00    -0.011 A 
ATOM     22  C   UNK d   0     -11.161 -32.478  43.613  0.00  0.00     0.066 A 
ATOM     23  C   UNK d   0     -10.130 -33.338  43.267  0.00  0.00     0.062 C 
ATOM     24  C   UNK d   0     -12.273 -31.812  42.964  0.00  0.00    -0.020 A 
ATOM     25  C   UNK d   0      -9.217 -33.976  44.122  0.00  0.00     0.041 A 
ATOM     26  N   UNK d   0      -8.573 -33.546  45.213  0.00  0.00    -0.355 N 
ATOM     27  C   UNK d   0      -8.878 -35.322  43.863  0.00  0.00    -0.022 A 
ATOM     28  C   UNK d   0      -7.836 -34.574  45.662  0.00  0.00     0.042 A 
ATOM     29  H   UNK d   0      -8.618 -32.517  45.648  0.00  0.00     0.166 HD
ATOM     30  C   UNK d   0      -6.978 -34.681  46.768  0.00  0.00     0.062 C 
ATOM     31  C   UNK d   0      -8.005 -35.708  44.833  0.00  0.00    -0.013 A 
ATOM     32  C   UNK d   0      -7.156 -34.163  48.041  0.00  0.00     0.066 A 
BRANCH   8  33
ATOM     33  C   UNK d   0      -6.706 -33.352  51.599  0.00  0.00     0.151 C 
BRANCH  33  34
ATOM     34  C   UNK d   0      -7.599 -34.065  52.530  0.00  0.00     0.143 C 
ATOM     35  O   UNK d   0      -7.606 -35.303  52.582  0.00  0.00    -0.650 OA
BRANCH  34  36
ATOM     36  O   UNK d   0      -8.435 -33.344  53.350  0.00  0.00    -0.776 OA
ATOM     37  H   UNK d   0      -9.156 -32.720  52.962  0.00  0.00     0.167 HD
ENDBRANCH  34  36
ENDBRANCH  33  34
ENDBRANCH   8  33
BRANCH  31  38
ATOM     38  C   UNK d   0      -7.377 -37.076  44.975  0.00  0.00     0.151 C 
BRANCH  38  39
ATOM     39  C   UNK d   0      -6.089 -37.173  44.322  0.00  0.00     0.143 C 
ATOM     40  O   UNK d   0      -5.954 -37.666  43.188  0.00  0.00    -0.650 OA
BRANCH  39  41
ATOM     41  O   UNK d   0      -4.952 -36.699  44.974  0.00  0.00    -0.776 OA
ATOM     42  H   UNK d   0      -4.073 -36.724  44.447  0.00  0.00     0.167 HD
ENDBRANCH  39  41
ENDBRANCH  38  39
ENDBRANCH  31  38
BRANCH  27  43
ATOM     43  C   UNK d   0      -9.340 -36.231  42.752  0.00  0.00     0.052 C 
BRANCH  43  44
ATOM     44  C   UNK d   0      -9.191 -35.626  41.393  0.00  0.00     0.115 C 
BRANCH  44  45
ATOM     45  C   UNK d   0      -7.784 -35.861  40.977  0.00  0.00     0.139 C 
ATOM     46  O   UNK d   0      -7.039 -34.862  40.818  0.00  0.00    -0.650 OA
BRANCH  45  47
ATOM     47  O   UNK d   0      -7.267 -37.121  40.766  0.00  0.00    -0.776 OA
ATOM     48  H   UNK d   0      -7.846 -37.921  40.466  0.00  0.00     0.167 HD
ENDBRANCH  45  47
ENDBRANCH  44  45
ENDBRANCH  43  44
ENDBRANCH  27  43
BRANCH  24  49
ATOM     49  C   UNK d   0     -12.601 -31.925  41.532  0.00  0.00     0.052 C 
BRANCH  49  50
ATOM     50  C   UNK d   0     -11.617 -31.138  40.705  0.00  0.00     0.115 C 
BRANCH  50  51
ATOM     51  C   UNK d   0     -12.143 -30.026  39.926  0.00  0.00     0.139 C 
ATOM     52  O   UNK d   0     -12.847 -30.191  38.901  0.00  0.00    -0.650 OA
BRANCH  51  53
ATOM     53  O   UNK d   0     -11.865 -28.724  40.313  0.00  0.00    -0.776 OA
ATOM     54  H   UNK d   0     -12.393 -28.331  41.072  0.00  0.00     0.167 HD
ENDBRANCH  51  53
ENDBRANCH  50  51
ENDBRANCH  49  50
ENDBRANCH  24  49
BRANCH  21  55
ATOM     55  C   UNK d   0     -14.175 -30.320  43.652  0.00  0.00     0.151 C 
BRANCH  55  56
ATOM     56  C   UNK d   0     -13.852 -28.948  43.229  0.00  0.00     0.143 C 
ATOM     57  O   UNK d   0     -14.219 -28.476  42.135  0.00  0.00    -0.650 OA
BRANCH  56  58
ATOM     58  O   UNK d   0     -13.106 -28.159  44.102  0.00  0.00    -0.776 OA
ATOM     59  H   UNK d   0     -12.309 -28.643  44.555  0.00  0.00     0.167 HD
ENDBRANCH  56  58
ENDBRANCH  55  56
ENDBRANCH  21  55
BRANCH  18  60
ATOM     60  C   UNK d   0     -12.114 -28.497  48.261  0.00  0.00     0.151 C 
BRANCH  60  61
ATOM     61  C   UNK d   0     -11.255 -27.746  47.333  0.00  0.00     0.143 C 
ATOM     62  O   UNK d   0     -10.932 -28.074  46.191  0.00  0.00    -0.650 OA
BRANCH  61  63
ATOM     63  O   UNK d   0     -10.759 -26.517  47.831  0.00  0.00    -0.776 OA
ATOM     64  H   UNK d   0      -9.778 -26.387  48.006  0.00  0.00     0.167 HD
ENDBRANCH  61  63
ENDBRANCH  60  61
ENDBRANCH  18  60
BRANCH  14  65
ATOM     65  C   UNK d   0     -10.285 -29.368  50.520  0.00  0.00     0.052 C 
BRANCH  65  66
ATOM     66  C   UNK d   0     -11.050 -29.688  51.755  0.00  0.00     0.115 C 
BRANCH  66  67
ATOM     67  C   UNK d   0     -10.370 -30.254  52.886  0.00  0.00     0.139 C 
ATOM     68  O   UNK d   0     -11.059 -30.551  53.931  0.00  0.00    -0.650 OA
BRANCH  67  69
ATOM     69  O   UNK d   0      -9.010 -30.536  53.011  0.00  0.00    -0.776 OA
ATOM     70  H   UNK d   0      -8.770 -31.527  53.154  0.00  0.00     0.167 HD
ENDBRANCH  67  69
ENDBRANCH  66  67
ENDBRANCH  65  66
ENDBRANCH  14  65
ENDBRANCH   6   7
ENDBRANCH   5   6
ENDBRANCH   2   5
TORSDOF 28
ENDMDL
MODEL 17
REMARK VINA RESULT:      -6.0     16.161     23.580
REMARK  28 active torsions:
REMARK  status: ('A' for Active; 'I' for Inactive)
REMARK    1  A    between atoms: C_2  and  O_3 
REMARK    2  A    between atoms: C_2  and  C_4 
REMARK    3  A    between atoms: C_4  and  C_5 
REMARK    4  A    between atoms: C_5  and  C_6 
REMARK    5  A    between atoms: C_7  and  C_8 
REMARK    6  A    between atoms: C_8  and  C_9 
REMARK    7  A    between atoms: C_9  and  O_11 
REMARK    8  A    between atoms: C_28  and  C_29 
REMARK    9  A    between atoms: C_29  and  C_30 
REMARK   10  A    between atoms: C_30  and  O_32 
REMARK   11  A    between atoms: C_33  and  C_34 
REMARK   12  A    between atoms: C_34  and  C_35 
REMARK   13  A    between atoms: C_35  and  C_36 
REMARK   14  A    between atoms: C_36  and  O_38 
REMARK   15  A    between atoms: C_39  and  C_40 
REMARK   16  A    between atoms: C_40  and  C_41 
REMARK   17  A    between atoms: C_41  and  C_42 
REMARK   18  A    between atoms: C_42  and  O_44 
REMARK   19  A    between atoms: C_45  and  C_46 
REMARK   20  A    between atoms: C_46  and  C_47 
REMARK   21  A    between atoms: C_47  and  O_49 
REMARK   22  A    between atoms: C_50  and  C_51 
REMARK   23  A    between atoms: C_51  and  C_52 
REMARK   24  A    between atoms: C_52  and  O_54 
REMARK   25  A    between atoms: C_55  and  C_56 
REMARK   26  A    between atoms: C_56  and  C_57 
REMARK   27  A    between atoms: C_57  and  C_58 
REMARK   28  A    between atoms: C_58  and  O_60 
ROOT
ATOM      1  O   UNK d   0     -21.379 -20.561  56.229  0.00  0.00    -0.650 OA
ATOM      2  C   UNK d   0     -20.377 -19.822  56.357  0.00  0.00     0.139 C 
ENDROOT
BRANCH   2   3
ATOM      3  O   UNK d   0     -20.499 -18.474  56.122  0.00  0.00    -0.776 OA
ATOM      4  H   UNK d   0     -21.351 -18.085  55.713  0.00  0.00     0.167 HD
ENDBRANCH   2   3
BRANCH   2   5
ATOM      5  C   UNK d   0     -19.066 -20.404  56.761  0.00  0.00     0.115 C 
BRANCH   5   6
ATOM      6  C   UNK d   0     -18.104 -19.307  57.128  0.00  0.00     0.052 C 
BRANCH   6   7
ATOM      7  C   UNK d   0     -18.022 -19.080  58.619  0.00  0.00    -0.020 A 
ATOM      8  C   UNK d   0     -18.400 -18.020  59.287  0.00  0.00    -0.011 A 
ATOM      9  C   UNK d   0     -18.119 -18.257  60.693  0.00  0.00     0.067 A 
ATOM     10  C   UNK d   0     -18.297 -17.552  61.894  0.00  0.00     0.062 C 
ATOM     11  N   UNK d   0     -17.565 -19.484  60.790  0.00  0.00    -0.248 NA
ATOM     12  C   UNK d   0     -18.216 -18.061  63.194  0.00  0.00     0.041 A 
ATOM     13  N   UNK d   0     -17.341 -18.914  63.760  0.00  0.00    -0.355 N 
ATOM     14  C   UNK d   0     -19.214 -17.714  64.123  0.00  0.00    -0.022 A 
ATOM     15  C   UNK d   0     -17.763 -19.124  65.022  0.00  0.00     0.042 A 
ATOM     16  H   UNK d   0     -16.433 -19.344  63.284  0.00  0.00     0.166 HD
ATOM     17  C   UNK d   0     -17.218 -19.924  66.046  0.00  0.00     0.062 C 
ATOM     18  C   UNK d   0     -18.935 -18.389  65.286  0.00  0.00    -0.013 A 
ATOM     19  C   UNK d   0     -16.737 -21.206  65.974  0.00  0.00     0.067 A 
ATOM     20  N   UNK d   0     -16.567 -21.721  64.753  0.00  0.00    -0.248 NA
ATOM     21  C   UNK d   0     -16.348 -22.231  66.928  0.00  0.00    -0.011 A 
ATOM     22  C   UNK d   0     -16.098 -23.009  64.841  0.00  0.00     0.066 A 
ATOM     23  C   UNK d   0     -15.840 -23.654  63.640  0.00  0.00     0.062 C 
ATOM     24  C   UNK d   0     -15.979 -23.285  66.259  0.00  0.00    -0.020 A 
ATOM     25  C   UNK d   0     -15.915 -23.121  62.344  0.00  0.00     0.041 A 
ATOM     26  N   UNK d   0     -16.793 -22.285  61.777  0.00  0.00    -0.355 N 
ATOM     27  C   UNK d   0     -14.910 -23.465  61.413  0.00  0.00    -0.022 A 
ATOM     28  C   UNK d   0     -16.379 -22.081  60.516  0.00  0.00     0.042 A 
ATOM     29  H   UNK d   0     -17.711 -21.862  62.254  0.00  0.00     0.166 HD
ATOM     30  C   UNK d   0     -16.916 -21.295  59.484  0.00  0.00     0.062 C 
ATOM     31  C   UNK d   0     -15.196 -22.811  60.254  0.00  0.00    -0.013 A 
ATOM     32  C   UNK d   0     -17.480 -20.032  59.577  0.00  0.00     0.066 A 
BRANCH   8  33
ATOM     33  C   UNK d   0     -19.000 -16.793  58.733  0.00  0.00     0.151 C 
BRANCH  33  34
ATOM     34  C   UNK d   0     -20.395 -16.594  59.166  0.00  0.00     0.143 C 
ATOM     35  O   UNK d   0     -21.319 -17.243  58.655  0.00  0.00    -0.650 OA
BRANCH  34  36
ATOM     36  O   UNK d   0     -20.672 -15.673  60.150  0.00  0.00    -0.776 OA
ATOM     37  H   UNK d   0     -21.418 -15.836  60.840  0.00  0.00     0.167 HD
ENDBRANCH  34  36
ENDBRANCH  33  34
ENDBRANCH   8  33
BRANCH  31  38
ATOM     38  C   UNK d   0     -14.389 -22.865  58.978  0.00  0.00     0.151 C 
BRANCH  38  39
ATOM     39  C   UNK d   0     -14.691 -24.027  58.171  0.00  0.00     0.143 C 
ATOM     40  O   UNK d   0     -13.923 -25.002  58.095  0.00  0.00    -0.650 OA
BRANCH  39  41
ATOM     41  O   UNK d   0     -15.882 -24.069  57.447  0.00  0.00    -0.776 OA
ATOM     42  H   UNK d   0     -16.711 -23.671  57.900  0.00  0.00     0.167 HD
ENDBRANCH  39  41
ENDBRANCH  38  39
ENDBRANCH  31  38
BRANCH  27  43
ATOM     43  C   UNK d   0     -13.718 -24.374  61.582  0.00  0.00     0.052 C 
BRANCH  43  44
ATOM     44  C   UNK d   0     -12.500 -23.665  62.077  0.00  0.00     0.115 C 
BRANCH  44  45
ATOM     45  C   UNK d   0     -11.465 -23.811  61.021  0.00  0.00     0.139 C 
ATOM     46  O   UNK d   0     -10.387 -23.181  61.158  0.00  0.00    -0.650 OA
BRANCH  45  47
ATOM     47  O   UNK d   0     -11.638 -24.608  59.910  0.00  0.00    -0.776 OA
ATOM     48  H   UNK d   0     -12.431 -25.262  59.808  0.00  0.00     0.167 HD
ENDBRANCH  45  47
ENDBRANCH  44  45
ENDBRANCH  43  44
ENDBRANCH  27  43
BRANCH  24  49
ATOM     49  C   UNK d   0     -15.472 -24.544  66.831  0.00  0.00     0.052 C 
BRANCH  49  50
ATOM     50  C   UNK d   0     -13.981 -24.646  66.636  0.00  0.00     0.115 C 
BRANCH  50  51
ATOM     51  C   UNK d   0     -13.161 -24.773  67.833  0.00  0.00     0.139 C 
ATOM     52  O   UNK d   0     -13.036 -25.854  68.455  0.00  0.00    -0.650 OA
BRANCH  51  53
ATOM     53  O   UNK d   0     -12.485 -23.666  68.322  0.00  0.00    -0.776 OA
ATOM     54  H   UNK d   0     -11.693 -23.820  68.922  0.00  0.00     0.167 HD
ENDBRANCH  51  53
ENDBRANCH  50  51
ENDBRANCH  49  50
ENDBRANCH  24  49
BRANCH  21  55
ATOM     55  C   UNK d   0     -16.382 -22.049  68.410  0.00  0.00     0.151 C 
BRANCH  55  56
ATOM     56  C   UNK d   0     -15.287 -21.190  68.885  0.00  0.00     0.143 C 
ATOM     57  O   UNK d   0     -14.098 -21.368  68.555  0.00  0.00    -0.650 OA
BRANCH  56  58
ATOM     58  O   UNK d   0     -15.612 -20.137  69.739  0.00  0.00    -0.776 OA
ATOM     59  H   UNK d   0     -15.162 -19.233  69.508  0.00  0.00     0.167 HD
ENDBRANCH  56  58
ENDBRANCH  55  56
ENDBRANCH  21  55
BRANCH  18  60
ATOM     60  C   UNK d   0     -19.758 -18.314  66.548  0.00  0.00     0.151 C 
BRANCH  60  61
ATOM     61  C   UNK d   0     -19.276 -17.130  67.275  0.00  0.00     0.143 C 
ATOM     62  O   UNK d   0     -18.109 -16.751  67.386  0.00  0.00    -0.650 OA
BRANCH  61  63
ATOM     63  O   UNK d   0     -20.282 -16.360  67.908  0.00  0.00    -0.776 OA
ATOM     64  H   UNK d   0     -20.811 -15.677  67.395  0.00  0.00     0.167 HD
ENDBRANCH  61  63
ENDBRANCH  60  61
ENDBRANCH  18  60
BRANCH  14  65
ATOM     65  C   UNK d   0     -20.344 -16.729  64.027  0.00  0.00     0.052 C 
BRANCH  65  66
ATOM     66  C   UNK d   0     -19.880 -15.332  63.814  0.00  0.00     0.115 C 
BRANCH  66  67
ATOM     67  C   UNK d   0     -19.709 -14.459  64.941  0.00  0.00     0.139 C 
ATOM     68  O   UNK d   0     -20.700 -14.288  65.742  0.00  0.00    -0.650 OA
BRANCH  67  69
ATOM     69  O   UNK d   0     -18.567 -13.742  65.299  0.00  0.00    -0.776 OA
ATOM     70  H   UNK d   0     -18.308 -13.782  66.295  0.00  0.00     0.167 HD
ENDBRANCH  67  69
ENDBRANCH  66  67
ENDBRANCH  65  66
ENDBRANCH  14  65
ENDBRANCH   6   7
ENDBRANCH   5   6
ENDBRANCH   2   5
TORSDOF 28
ENDMDL
MODEL 18
REMARK VINA RESULT:      -6.0      1.677      2.789
REMARK  28 active torsions:
REMARK  status: ('A' for Active; 'I' for Inactive)
REMARK    1  A    between atoms: C_2  and  O_3 
REMARK    2  A    between atoms: C_2  and  C_4 
REMARK    3  A    between atoms: C_4  and  C_5 
REMARK    4  A    between atoms: C_5  and  C_6 
REMARK    5  A    between atoms: C_7  and  C_8 
REMARK    6  A    between atoms: C_8  and  C_9 
REMARK    7  A    between atoms: C_9  and  O_11 
REMARK    8  A    between atoms: C_28  and  C_29 
REMARK    9  A    between atoms: C_29  and  C_30 
REMARK   10  A    between atoms: C_30  and  O_32 
REMARK   11  A    between atoms: C_33  and  C_34 
REMARK   12  A    between atoms: C_34  and  C_35 
REMARK   13  A    between atoms: C_35  and  C_36 
REMARK   14  A    between atoms: C_36  and  O_38 
REMARK   15  A    between atoms: C_39  and  C_40 
REMARK   16  A    between atoms: C_40  and  C_41 
REMARK   17  A    between atoms: C_41  and  C_42 
REMARK   18  A    between atoms: C_42  and  O_44 
REMARK   19  A    between atoms: C_45  and  C_46 
REMARK   20  A    between atoms: C_46  and  C_47 
REMARK   21  A    between atoms: C_47  and  O_49 
REMARK   22  A    between atoms: C_50  and  C_51 
REMARK   23  A    between atoms: C_51  and  C_52 
REMARK   24  A    between atoms: C_52  and  O_54 
REMARK   25  A    between atoms: C_55  and  C_56 
REMARK   26  A    between atoms: C_56  and  C_57 
REMARK   27  A    between atoms: C_57  and  C_58 
REMARK   28  A    between atoms: C_58  and  O_60 
ROOT
ATOM      1  O   UNK d   0     -10.019 -33.473  53.499  0.00  0.00    -0.650 OA
ATOM      2  C   UNK d   0      -8.788 -33.287  53.375  0.00  0.00     0.139 C 
ENDROOT
BRANCH   2   3
ATOM      3  O   UNK d   0      -8.236 -32.108  53.817  0.00  0.00    -0.776 OA
ATOM      4  H   UNK d   0      -7.527 -31.620  53.267  0.00  0.00     0.167 HD
ENDBRANCH   2   3
BRANCH   2   5
ATOM      5  C   UNK d   0      -7.932 -34.337  52.754  0.00  0.00     0.115 C 
BRANCH   5   6
ATOM      6  C   UNK d   0      -6.819 -33.699  51.968  0.00  0.00     0.052 C 
BRANCH   6   7
ATOM      7  C   UNK d   0      -7.050 -33.761  50.477  0.00  0.00    -0.020 A 
ATOM      8  C   UNK d   0      -6.323 -34.379  49.582  0.00  0.00    -0.011 A 
ATOM      9  C   UNK d   0      -6.930 -34.151  48.281  0.00  0.00     0.067 A 
ATOM     10  C   UNK d   0      -6.667 -34.540  46.959  0.00  0.00     0.062 C 
ATOM     11  N   UNK d   0      -8.019 -33.378  48.478  0.00  0.00    -0.248 NA
ATOM     12  C   UNK d   0      -7.530 -34.448  45.861  0.00  0.00     0.041 A 
ATOM     13  N   UNK d   0      -8.360 -33.464  45.465  0.00  0.00    -0.355 N 
ATOM     14  C   UNK d   0      -7.654 -35.553  44.999  0.00  0.00    -0.022 A 
ATOM     15  C   UNK d   0      -9.013 -33.919  44.379  0.00  0.00     0.042 A 
ATOM     16  H   UNK d   0      -8.468 -32.461  45.933  0.00  0.00     0.166 HD
ATOM     17  C   UNK d   0      -9.988 -33.299  43.573  0.00  0.00     0.062 C 
ATOM     18  C   UNK d   0      -8.597 -35.226  44.057  0.00  0.00    -0.013 A 
ATOM     19  C   UNK d   0     -11.089 -32.576  43.954  0.00  0.00     0.067 A 
ATOM     20  N   UNK d   0     -11.170 -32.231  45.242  0.00  0.00    -0.248 NA
ATOM     21  C   UNK d   0     -12.279 -32.061  43.298  0.00  0.00    -0.011 A 
ATOM     22  C   UNK d   0     -12.327 -31.528  45.476  0.00  0.00     0.066 A 
ATOM     23  C   UNK d   0     -12.520 -31.073  46.771  0.00  0.00     0.062 C 
ATOM     24  C   UNK d   0     -13.001 -31.452  44.195  0.00  0.00    -0.020 A 
ATOM     25  C   UNK d   0     -11.635 -31.163  47.857  0.00  0.00     0.041 A 
ATOM     26  N   UNK d   0     -10.822 -32.147  48.259  0.00  0.00    -0.355 N 
ATOM     27  C   UNK d   0     -11.508 -30.052  48.719  0.00  0.00    -0.022 A 
ATOM     28  C   UNK d   0     -10.176 -31.699  49.347  0.00  0.00     0.042 A 
ATOM     29  H   UNK d   0     -10.722 -33.159  47.794  0.00  0.00     0.166 HD
ATOM     30  C   UNK d   0      -9.210 -32.309  50.164  0.00  0.00     0.062 C 
ATOM     31  C   UNK d   0     -10.586 -30.382  49.664  0.00  0.00    -0.013 A 
ATOM     32  C   UNK d   0      -8.147 -33.110  49.778  0.00  0.00     0.066 A 
BRANCH   8  33
ATOM     33  C   UNK d   0      -5.101 -35.167  49.825  0.00  0.00     0.151 C 
BRANCH  33  34
ATOM     34  C   UNK d   0      -5.252 -36.585  49.450  0.00  0.00     0.143 C 
ATOM     35  O   UNK d   0      -5.870 -37.374  50.178  0.00  0.00    -0.650 OA
BRANCH  34  36
ATOM     36  O   UNK d   0      -4.695 -37.035  48.275  0.00  0.00    -0.776 OA
ATOM     37  H   UNK d   0      -4.755 -38.026  48.001  0.00  0.00     0.167 HD
ENDBRANCH  34  36
ENDBRANCH  33  34
ENDBRANCH   8  33
BRANCH  31  38
ATOM     38  C   UNK d   0     -10.112 -29.498  50.794  0.00  0.00     0.151 C 
BRANCH  38  39
ATOM     39  C   UNK d   0     -10.941 -29.605  51.976  0.00  0.00     0.143 C 
ATOM     40  O   UNK d   0     -11.989 -28.951  52.114  0.00  0.00    -0.650 OA
BRANCH  39  41
ATOM     41  O   UNK d   0     -10.562 -30.468  53.004  0.00  0.00    -0.776 OA
ATOM     42  H   UNK d   0     -10.879 -30.227  53.948  0.00  0.00     0.167 HD
ENDBRANCH  39  41
ENDBRANCH  38  39
ENDBRANCH  31  38
BRANCH  27  43
ATOM     43  C   UNK d   0     -12.217 -28.721  48.677  0.00  0.00     0.052 C 
BRANCH  43  44
ATOM     44  C   UNK d   0     -11.462 -27.673  47.926  0.00  0.00     0.115 C 
BRANCH  44  45
ATOM     45  C   UNK d   0     -11.722 -26.384  48.618  0.00  0.00     0.139 C 
ATOM     46  O   UNK d   0     -11.831 -26.396  49.870  0.00  0.00    -0.650 OA
BRANCH  45  47
ATOM     47  O   UNK d   0     -11.842 -25.187  47.948  0.00  0.00    -0.776 OA
ATOM     48  H   UNK d   0     -11.995 -25.129  46.928  0.00  0.00     0.167 HD
ENDBRANCH  45  47
ENDBRANCH  44  45
ENDBRANCH  43  44
ENDBRANCH  27  43
BRANCH  24  49
ATOM     49  C   UNK d   0     -14.274 -30.751  43.955  0.00  0.00     0.052 C 
BRANCH  49  50
ATOM     50  C   UNK d   0     -14.186 -29.325  44.435  0.00  0.00     0.115 C 
BRANCH  50  51
ATOM     51  C   UNK d   0     -13.166 -28.480  43.827  0.00  0.00     0.139 C 
ATOM     52  O   UNK d   0     -12.148 -28.095  44.449  0.00  0.00    -0.650 OA
BRANCH  51  53
ATOM     53  O   UNK d   0     -13.309 -28.072  42.510  0.00  0.00    -0.776 OA
ATOM     54  H   UNK d   0     -12.929 -28.657  41.787  0.00  0.00     0.167 HD
ENDBRANCH  51  53
ENDBRANCH  50  51
ENDBRANCH  49  50
ENDBRANCH  24  49
BRANCH  21  55
ATOM     55  C   UNK d   0     -12.569 -32.226  41.843  0.00  0.00     0.151 C 
BRANCH  55  56
ATOM     56  C   UNK d   0     -11.793 -31.289  41.016  0.00  0.00     0.143 C 
ATOM     57  O   UNK d   0     -12.115 -30.094  40.867  0.00  0.00    -0.650 OA
BRANCH  56  58
ATOM     58  O   UNK d   0     -10.651 -31.776  40.381  0.00  0.00    -0.776 OA
ATOM     59  H   UNK d   0     -10.106 -31.066  39.860  0.00  0.00     0.167 HD
ENDBRANCH  56  58
ENDBRANCH  55  56
ENDBRANCH  21  55
BRANCH  18  60
ATOM     60  C   UNK d   0      -9.050 -36.129  42.936  0.00  0.00     0.151 C 
BRANCH  60  61
ATOM     61  C   UNK d   0     -10.284 -36.774  43.411  0.00  0.00     0.143 C 
ATOM     62  O   UNK d   0     -10.395 -37.563  44.349  0.00  0.00    -0.650 OA
BRANCH  61  63
ATOM     63  O   UNK d   0     -11.456 -36.432  42.693  0.00  0.00    -0.776 OA
ATOM     64  H   UNK d   0     -12.342 -36.845  42.922  0.00  0.00     0.167 HD
ENDBRANCH  61  63
ENDBRANCH  60  61
ENDBRANCH  18  60
BRANCH  14  65
ATOM     65  C   UNK d   0      -6.886 -36.843  44.941  0.00  0.00     0.052 C 
BRANCH  65  66
ATOM     66  C   UNK d   0      -5.551 -36.696  44.302  0.00  0.00     0.115 C 
BRANCH  66  67
ATOM     67  C   UNK d   0      -5.415 -36.884  42.885  0.00  0.00     0.139 C 
ATOM     68  O   UNK d   0      -5.707 -38.033  42.388  0.00  0.00    -0.650 OA
BRANCH  67  69
ATOM     69  O   UNK d   0      -4.992 -35.952  41.938  0.00  0.00    -0.776 OA
ATOM     70  H   UNK d   0      -3.976 -35.910  41.773  0.00  0.00     0.167 HD
ENDBRANCH  67  69
ENDBRANCH  66  67
ENDBRANCH  65  66
ENDBRANCH  14  65
ENDBRANCH   6   7
ENDBRANCH   5   6
ENDBRANCH   2   5
TORSDOF 28
ENDMDL
MODEL 19
REMARK VINA RESULT:      -6.0     15.616     23.040
REMARK  28 active torsions:
REMARK  status: ('A' for Active; 'I' for Inactive)
REMARK    1  A    between atoms: C_2  and  O_3 
REMARK    2  A    between atoms: C_2  and  C_4 
REMARK    3  A    between atoms: C_4  and  C_5 
REMARK    4  A    between atoms: C_5  and  C_6 
REMARK    5  A    between atoms: C_7  and  C_8 
REMARK    6  A    between atoms: C_8  and  C_9 
REMARK    7  A    between atoms: C_9  and  O_11 
REMARK    8  A    between atoms: C_28  and  C_29 
REMARK    9  A    between atoms: C_29  and  C_30 
REMARK   10  A    between atoms: C_30  and  O_32 
REMARK   11  A    between atoms: C_33  and  C_34 
REMARK   12  A    between atoms: C_34  and  C_35 
REMARK   13  A    between atoms: C_35  and  C_36 
REMARK   14  A    between atoms: C_36  and  O_38 
REMARK   15  A    between atoms: C_39  and  C_40 
REMARK   16  A    between atoms: C_40  and  C_41 
REMARK   17  A    between atoms: C_41  and  C_42 
REMARK   18  A    between atoms: C_42  and  O_44 
REMARK   19  A    between atoms: C_45  and  C_46 
REMARK   20  A    between atoms: C_46  and  C_47 
REMARK   21  A    between atoms: C_47  and  O_49 
REMARK   22  A    between atoms: C_50  and  C_51 
REMARK   23  A    between atoms: C_51  and  C_52 
REMARK   24  A    between atoms: C_52  and  O_54 
REMARK   25  A    between atoms: C_55  and  C_56 
REMARK   26  A    between atoms: C_56  and  C_57 
REMARK   27  A    between atoms: C_57  and  C_58 
REMARK   28  A    between atoms: C_58  and  O_60 
ROOT
ATOM      1  O   UNK d   0     -21.461 -20.612  57.567  0.00  0.00    -0.650 OA
ATOM      2  C   UNK d   0     -20.932 -19.765  56.813  0.00  0.00     0.139 C 
ENDROOT
BRANCH   2   3
ATOM      3  O   UNK d   0     -21.646 -18.651  56.445  0.00  0.00    -0.776 OA
ATOM      4  H   UNK d   0     -22.386 -18.707  55.742  0.00  0.00     0.167 HD
ENDBRANCH   2   3
BRANCH   2   5
ATOM      5  C   UNK d   0     -19.540 -19.968  56.321  0.00  0.00     0.115 C 
BRANCH   5   6
ATOM      6  C   UNK d   0     -18.668 -18.817  56.744  0.00  0.00     0.052 C 
BRANCH   6   7
ATOM      7  C   UNK d   0     -18.483 -18.747  58.241  0.00  0.00    -0.020 A 
ATOM      8  C   UNK d   0     -18.807 -17.763  59.040  0.00  0.00    -0.011 A 
ATOM      9  C   UNK d   0     -18.431 -18.145  60.391  0.00  0.00     0.067 A 
ATOM     10  C   UNK d   0     -18.521 -17.570  61.668  0.00  0.00     0.062 C 
ATOM     11  N   UNK d   0     -17.881 -19.375  60.321  0.00  0.00    -0.248 NA
ATOM     12  C   UNK d   0     -18.356 -18.212  62.900  0.00  0.00     0.041 A 
ATOM     13  N   UNK d   0     -17.450 -19.119  63.312  0.00  0.00    -0.355 N 
ATOM     14  C   UNK d   0     -19.285 -17.964  63.927  0.00  0.00    -0.022 A 
ATOM     15  C   UNK d   0     -17.786 -19.460  64.571  0.00  0.00     0.042 A 
ATOM     16  H   UNK d   0     -16.580 -19.497  62.732  0.00  0.00     0.166 HD
ATOM     17  C   UNK d   0     -17.178 -20.363  65.466  0.00  0.00     0.062 C 
ATOM     18  C   UNK d   0     -18.931 -18.756  64.991  0.00  0.00    -0.013 A 
ATOM     19  C   UNK d   0     -16.712 -21.630  65.228  0.00  0.00     0.067 A 
ATOM     20  N   UNK d   0     -16.630 -22.015  63.952  0.00  0.00    -0.248 NA
ATOM     21  C   UNK d   0     -16.266 -22.749  66.041  0.00  0.00    -0.011 A 
ATOM     22  C   UNK d   0     -16.164 -23.305  63.872  0.00  0.00     0.066 A 
ATOM     23  C   UNK d   0     -15.994 -23.820  62.595  0.00  0.00     0.062 C 
ATOM     24  C   UNK d   0     -15.951 -23.727  65.242  0.00  0.00    -0.020 A 
ATOM     25  C   UNK d   0     -16.154 -23.155  61.370  0.00  0.00     0.041 A 
ATOM     26  N   UNK d   0     -17.063 -22.264  60.955  0.00  0.00    -0.355 N 
ATOM     27  C   UNK d   0     -15.218 -23.400  60.342  0.00  0.00    -0.022 A 
ATOM     28  C   UNK d   0     -16.735 -21.930  59.697  0.00  0.00     0.042 A 
ATOM     29  H   UNK d   0     -17.943 -21.894  61.536  0.00  0.00     0.166 HD
ATOM     30  C   UNK d   0     -17.336 -21.040  58.793  0.00  0.00     0.062 C 
ATOM     31  C   UNK d   0     -15.578 -22.629  59.280  0.00  0.00    -0.013 A 
ATOM     32  C   UNK d   0     -17.883 -19.794  59.055  0.00  0.00     0.066 A 
BRANCH   8  33
ATOM     33  C   UNK d   0     -19.435 -16.484  58.660  0.00  0.00     0.151 C 
BRANCH  33  34
ATOM     34  C   UNK d   0     -20.770 -16.305  59.257  0.00  0.00     0.143 C 
ATOM     35  O   UNK d   0     -21.719 -17.029  58.923  0.00  0.00    -0.650 OA
BRANCH  34  36
ATOM     36  O   UNK d   0     -20.964 -15.318  60.195  0.00  0.00    -0.776 OA
ATOM     37  H   UNK d   0     -20.168 -14.854  60.655  0.00  0.00     0.167 HD
ENDBRANCH  34  36
ENDBRANCH  33  34
ENDBRANCH   8  33
BRANCH  31  38
ATOM     38  C   UNK d   0     -14.861 -22.548  57.953  0.00  0.00     0.151 C 
BRANCH  38  39
ATOM     39  C   UNK d   0     -15.258 -23.595  57.035  0.00  0.00     0.143 C 
ATOM     40  O   UNK d   0     -16.275 -23.507  56.325  0.00  0.00    -0.650 OA
BRANCH  39  41
ATOM     41  O   UNK d   0     -14.481 -24.749  56.933  0.00  0.00    -0.776 OA
ATOM     42  H   UNK d   0     -13.464 -24.625  56.962  0.00  0.00     0.167 HD
ENDBRANCH  39  41
ENDBRANCH  38  39
ENDBRANCH  31  38
BRANCH  27  43
ATOM     43  C   UNK d   0     -14.024 -24.322  60.333  0.00  0.00     0.052 C 
BRANCH  43  44
ATOM     44  C   UNK d   0     -12.749 -23.641  60.713  0.00  0.00     0.115 C 
BRANCH  44  45
ATOM     45  C   UNK d   0     -11.694 -24.186  59.820  0.00  0.00     0.139 C 
ATOM     46  O   UNK d   0     -11.961 -24.318  58.600  0.00  0.00    -0.650 OA
BRANCH  45  47
ATOM     47  O   UNK d   0     -10.443 -24.544  60.274  0.00  0.00    -0.776 OA
ATOM     48  H   UNK d   0     -10.201 -25.511  60.546  0.00  0.00     0.167 HD
ENDBRANCH  45  47
ENDBRANCH  44  45
ENDBRANCH  43  44
ENDBRANCH  27  43
BRANCH  24  49
ATOM     49  C   UNK d   0     -15.415 -25.039  65.643  0.00  0.00     0.052 C 
BRANCH  49  50
ATOM     50  C   UNK d   0     -13.926 -25.091  65.412  0.00  0.00     0.115 C 
BRANCH  50  51
ATOM     51  C   UNK d   0     -13.069 -25.077  66.589  0.00  0.00     0.139 C 
ATOM     52  O   UNK d   0     -13.328 -25.739  67.622  0.00  0.00    -0.650 OA
BRANCH  51  53
ATOM     53  O   UNK d   0     -11.918 -24.305  66.591  0.00  0.00    -0.776 OA
ATOM     54  H   UNK d   0     -11.035 -24.767  66.455  0.00  0.00     0.167 HD
ENDBRANCH  51  53
ENDBRANCH  50  51
ENDBRANCH  49  50
ENDBRANCH  24  49
BRANCH  21  55
ATOM     55  C   UNK d   0     -16.197 -22.723  67.532  0.00  0.00     0.151 C 
BRANCH  55  56
ATOM     56  C   UNK d   0     -15.068 -21.915  68.018  0.00  0.00     0.143 C 
ATOM     57  O   UNK d   0     -13.884 -22.158  67.714  0.00  0.00    -0.650 OA
BRANCH  56  58
ATOM     58  O   UNK d   0     -15.354 -20.835  68.852  0.00  0.00    -0.776 OA
ATOM     59  H   UNK d   0     -16.239 -20.917  69.384  0.00  0.00     0.167 HD
ENDBRANCH  56  58
ENDBRANCH  55  56
ENDBRANCH  21  55
BRANCH  18  60
ATOM     60  C   UNK d   0     -19.666 -18.814  66.307  0.00  0.00     0.151 C 
BRANCH  60  61
ATOM     61  C   UNK d   0     -19.136 -17.704  67.114  0.00  0.00     0.143 C 
ATOM     62  O   UNK d   0     -17.990 -17.255  67.096  0.00  0.00    -0.650 OA
BRANCH  61  63
ATOM     63  O   UNK d   0     -20.066 -17.105  67.998  0.00  0.00    -0.776 OA
ATOM     64  H   UNK d   0     -20.650 -17.665  68.594  0.00  0.00     0.167 HD
ENDBRANCH  61  63
ENDBRANCH  60  61
ENDBRANCH  18  60
BRANCH  14  65
ATOM     65  C   UNK d   0     -20.412 -16.974  64.012  0.00  0.00     0.052 C 
BRANCH  65  66
ATOM     66  C   UNK d   0     -21.695 -17.506  63.480  0.00  0.00     0.115 C 
BRANCH  66  67
ATOM     67  C   UNK d   0     -22.582 -16.636  62.760  0.00  0.00     0.139 C 
ATOM     68  O   UNK d   0     -22.846 -15.480  63.257  0.00  0.00    -0.650 OA
BRANCH  67  69
ATOM     69  O   UNK d   0     -23.221 -16.885  61.546  0.00  0.00    -0.776 OA
ATOM     70  H   UNK d   0     -24.026 -16.279  61.331  0.00  0.00     0.167 HD
ENDBRANCH  67  69
ENDBRANCH  66  67
ENDBRANCH  65  66
ENDBRANCH  14  65
ENDBRANCH   6   7
ENDBRANCH   5   6
ENDBRANCH   2   5
TORSDOF 28
ENDMDL
MODEL 20
REMARK VINA RESULT:      -6.0      1.974      9.902
REMARK  28 active torsions:
REMARK  status: ('A' for Active; 'I' for Inactive)
REMARK    1  A    between atoms: C_2  and  O_3 
REMARK    2  A    between atoms: C_2  and  C_4 
REMARK    3  A    between atoms: C_4  and  C_5 
REMARK    4  A    between atoms: C_5  and  C_6 
REMARK    5  A    between atoms: C_7  and  C_8 
REMARK    6  A    between atoms: C_8  and  C_9 
REMARK    7  A    between atoms: C_9  and  O_11 
REMARK    8  A    between atoms: C_28  and  C_29 
REMARK    9  A    between atoms: C_29  and  C_30 
REMARK   10  A    between atoms: C_30  and  O_32 
REMARK   11  A    between atoms: C_33  and  C_34 
REMARK   12  A    between atoms: C_34  and  C_35 
REMARK   13  A    between atoms: C_35  and  C_36 
REMARK   14  A    between atoms: C_36  and  O_38 
REMARK   15  A    between atoms: C_39  and  C_40 
REMARK   16  A    between atoms: C_40  and  C_41 
REMARK   17  A    between atoms: C_41  and  C_42 
REMARK   18  A    between atoms: C_42  and  O_44 
REMARK   19  A    between atoms: C_45  and  C_46 
REMARK   20  A    between atoms: C_46  and  C_47 
REMARK   21  A    between atoms: C_47  and  O_49 
REMARK   22  A    between atoms: C_50  and  C_51 
REMARK   23  A    between atoms: C_51  and  C_52 
REMARK   24  A    between atoms: C_52  and  O_54 
REMARK   25  A    between atoms: C_55  and  C_56 
REMARK   26  A    between atoms: C_56  and  C_57 
REMARK   27  A    between atoms: C_57  and  C_58 
REMARK   28  A    between atoms: C_58  and  O_60 
ROOT
ATOM      1  O   UNK d   0     -13.255 -28.786  42.573  0.00  0.00    -0.650 OA
ATOM      2  C   UNK d   0     -12.580 -28.758  43.626  0.00  0.00     0.139 C 
ENDROOT
BRANCH   2   3
ATOM      3  O   UNK d   0     -12.695 -27.680  44.471  0.00  0.00    -0.776 OA
ATOM      4  H   UNK d   0     -12.467 -27.762  45.464  0.00  0.00     0.167 HD
ENDBRANCH   2   3
BRANCH   2   5
ATOM      5  C   UNK d   0     -11.660 -29.883  43.956  0.00  0.00     0.115 C 
BRANCH   5   6
ATOM      6  C   UNK d   0     -12.340 -30.852  44.885  0.00  0.00     0.052 C 
BRANCH   6   7
ATOM      7  C   UNK d   0     -11.455 -31.274  46.033  0.00  0.00    -0.020 A 
ATOM      8  C   UNK d   0     -11.398 -30.751  47.231  0.00  0.00    -0.011 A 
ATOM      9  C   UNK d   0     -10.396 -31.481  47.989  0.00  0.00     0.067 A 
ATOM     10  C   UNK d   0      -9.883 -31.438  49.295  0.00  0.00     0.062 C 
ATOM     11  N   UNK d   0      -9.888 -32.429  47.172  0.00  0.00    -0.248 NA
ATOM     12  C   UNK d   0      -9.108 -32.413  49.933  0.00  0.00     0.041 A 
ATOM     13  N   UNK d   0      -8.073 -33.152  49.492  0.00  0.00    -0.355 N 
ATOM     14  C   UNK d   0      -9.433 -32.785  51.251  0.00  0.00    -0.022 A 
ATOM     15  C   UNK d   0      -7.738 -33.989  50.492  0.00  0.00     0.042 A 
ATOM     16  H   UNK d   0      -7.576 -33.070  48.500  0.00  0.00     0.166 HD
ATOM     17  C   UNK d   0      -6.728 -34.969  50.563  0.00  0.00     0.062 C 
ATOM     18  C   UNK d   0      -8.569 -33.788  51.611  0.00  0.00    -0.013 A 
ATOM     19  C   UNK d   0      -6.374 -35.912  49.632  0.00  0.00     0.067 A 
ATOM     20  N   UNK d   0      -6.903 -35.785  48.412  0.00  0.00    -0.248 NA
ATOM     21  C   UNK d   0      -5.535 -37.098  49.613  0.00  0.00    -0.011 A 
ATOM     22  C   UNK d   0      -6.472 -36.804  47.598  0.00  0.00     0.066 A 
ATOM     23  C   UNK d   0      -6.918 -36.773  46.285  0.00  0.00     0.062 C 
ATOM     24  C   UNK d   0      -5.600 -37.618  48.421  0.00  0.00    -0.020 A 
ATOM     25  C   UNK d   0      -7.685 -35.778  45.659  0.00  0.00     0.041 A 
ATOM     26  N   UNK d   0      -8.724 -35.054  46.093  0.00  0.00    -0.355 N 
ATOM     27  C   UNK d   0      -7.355 -35.403  44.339  0.00  0.00    -0.022 A 
ATOM     28  C   UNK d   0      -9.065 -34.225  45.094  0.00  0.00     0.042 A 
ATOM     29  H   UNK d   0      -9.228 -35.145  47.086  0.00  0.00     0.166 HD
ATOM     30  C   UNK d   0     -10.073 -33.252  45.006  0.00  0.00     0.062 C 
ATOM     31  C   UNK d   0      -8.223 -34.420  43.973  0.00  0.00    -0.013 A 
ATOM     32  C   UNK d   0     -10.484 -32.357  45.981  0.00  0.00     0.066 A 
BRANCH   8  33
ATOM     33  C   UNK d   0     -12.194 -29.619  47.742  0.00  0.00     0.151 C 
BRANCH  33  34
ATOM     34  C   UNK d   0     -11.415 -28.371  47.838  0.00  0.00     0.143 C 
ATOM     35  O   UNK d   0     -11.074 -27.753  46.820  0.00  0.00    -0.650 OA
BRANCH  34  36
ATOM     36  O   UNK d   0     -11.062 -27.890  49.078  0.00  0.00    -0.776 OA
ATOM     37  H   UNK d   0     -10.507 -28.457  49.733  0.00  0.00     0.167 HD
ENDBRANCH  34  36
ENDBRANCH  33  34
ENDBRANCH   8  33
BRANCH  31  38
ATOM     38  C   UNK d   0      -8.245 -33.698  42.646  0.00  0.00     0.151 C 
BRANCH  38  39
ATOM     39  C   UNK d   0      -9.143 -34.310  41.690  0.00  0.00     0.143 C 
ATOM     40  O   UNK d   0      -8.842 -35.336  41.056  0.00  0.00    -0.650 OA
BRANCH  39  41
ATOM     41  O   UNK d   0     -10.395 -33.738  41.461  0.00  0.00    -0.776 OA
ATOM     42  H   UNK d   0     -11.202 -34.214  41.874  0.00  0.00     0.167 HD
ENDBRANCH  39  41
ENDBRANCH  38  39
ENDBRANCH  31  38
BRANCH  27  43
ATOM     43  C   UNK d   0      -6.272 -35.933  43.433  0.00  0.00     0.052 C 
BRANCH  43  44
ATOM     44  C   UNK d   0      -4.895 -35.723  43.974  0.00  0.00     0.115 C 
BRANCH  44  45
ATOM     45  C   UNK d   0      -4.004 -36.663  43.244  0.00  0.00     0.139 C 
ATOM     46  O   UNK d   0      -2.866 -36.257  42.905  0.00  0.00    -0.650 OA
BRANCH  45  47
ATOM     47  O   UNK d   0      -4.374 -37.954  42.933  0.00  0.00    -0.776 OA
ATOM     48  H   UNK d   0      -4.405 -38.309  41.963  0.00  0.00     0.167 HD
ENDBRANCH  45  47
ENDBRANCH  44  45
ENDBRANCH  43  44
ENDBRANCH  27  43
BRANCH  24  49
ATOM     49  C   UNK d   0      -4.872 -38.809  47.953  0.00  0.00     0.052 C 
BRANCH  49  50
ATOM     50  C   UNK d   0      -5.729 -40.040  48.103  0.00  0.00     0.115 C 
BRANCH  50  51
ATOM     51  C   UNK d   0      -5.925 -40.863  46.917  0.00  0.00     0.139 C 
ATOM     52  O   UNK d   0      -6.740 -40.564  46.013  0.00  0.00    -0.650 OA
BRANCH  51  53
ATOM     53  O   UNK d   0      -5.191 -42.030  46.763  0.00  0.00    -0.776 OA
ATOM     54  H   UNK d   0      -5.691 -42.896  46.663  0.00  0.00     0.167 HD
ENDBRANCH  51  53
ENDBRANCH  50  51
ENDBRANCH  49  50
ENDBRANCH  24  49
BRANCH  21  55
ATOM     55  C   UNK d   0      -4.752 -37.586  50.787  0.00  0.00     0.151 C 
BRANCH  55  56
ATOM     56  C   UNK d   0      -5.524 -38.529  51.611  0.00  0.00     0.143 C 
ATOM     57  O   UNK d   0      -6.549 -38.196  52.237  0.00  0.00    -0.650 OA
BRANCH  56  58
ATOM     58  O   UNK d   0      -5.074 -39.847  51.682  0.00  0.00    -0.776 OA
ATOM     59  H   UNK d   0      -4.510 -40.070  52.522  0.00  0.00     0.167 HD
ENDBRANCH  56  58
ENDBRANCH  55  56
ENDBRANCH  21  55
BRANCH  18  60
ATOM     60  C   UNK d   0      -8.568 -34.490  52.947  0.00  0.00     0.151 C 
BRANCH  60  61
ATOM     61  C   UNK d   0      -9.277 -35.761  52.736  0.00  0.00     0.143 C 
ATOM     62  O   UNK d   0     -10.248 -35.956  52.005  0.00  0.00    -0.650 OA
BRANCH  61  63
ATOM     63  O   UNK d   0      -8.767 -36.863  53.463  0.00  0.00    -0.776 OA
ATOM     64  H   UNK d   0      -9.375 -37.590  53.797  0.00  0.00     0.167 HD
ENDBRANCH  61  63
ENDBRANCH  60  61
ENDBRANCH  18  60
BRANCH  14  65
ATOM     65  C   UNK d   0     -10.424 -32.202  52.218  0.00  0.00     0.052 C 
BRANCH  65  66
ATOM     66  C   UNK d   0      -9.913 -30.992  52.916  0.00  0.00     0.115 C 
BRANCH  66  67
ATOM     67  C   UNK d   0     -10.683 -29.781  52.897  0.00  0.00     0.139 C 
ATOM     68  O   UNK d   0     -10.723 -29.096  51.810  0.00  0.00    -0.650 OA
BRANCH  67  69
ATOM     69  O   UNK d   0     -11.423 -29.223  53.940  0.00  0.00    -0.776 OA
ATOM     70  H   UNK d   0     -11.849 -29.894  54.595  0.00  0.00     0.167 HD
ENDBRANCH  67  69
ENDBRANCH  66  67
ENDBRANCH  65  66
ENDBRANCH  14  65
ENDBRANCH   6   7
ENDBRANCH   5   6
ENDBRANCH   2   5
TORSDOF 28
ENDMDL
