MODEL 1
REMARK VINA RESULT:      -8.8      0.000      0.000
REMARK  28 active torsions:
REMARK  status: ('A' for Active; 'I' for Inactive)
REMARK    1  A    between atoms: C_2  and  O_3 
REMARK    2  A    between atoms: C_2  and  C_4 
REMARK    3  A    between atoms: C_4  and  C_5 
REMARK    4  A    between atoms: C_5  and  C_6 
REMARK    5  A    between atoms: C_7  and  C_8 
REMARK    6  A    between atoms: C_8  and  C_9 
REMARK    7  A    between atoms: C_9  and  O_11 
REMARK    8  A    between atoms: C_28  and  C_29 
REMARK    9  A    between atoms: C_29  and  C_30 
REMARK   10  A    between atoms: C_30  and  O_32 
REMARK   11  A    between atoms: C_33  and  C_34 
REMARK   12  A    between atoms: C_34  and  C_35 
REMARK   13  A    between atoms: C_35  and  C_36 
REMARK   14  A    between atoms: C_36  and  O_38 
REMARK   15  A    between atoms: C_39  and  C_40 
REMARK   16  A    between atoms: C_40  and  C_41 
REMARK   17  A    between atoms: C_41  and  C_42 
REMARK   18  A    between atoms: C_42  and  O_44 
REMARK   19  A    between atoms: C_45  and  C_46 
REMARK   20  A    between atoms: C_46  and  C_47 
REMARK   21  A    between atoms: C_47  and  O_49 
REMARK   22  A    between atoms: C_50  and  C_51 
REMARK   23  A    between atoms: C_51  and  C_52 
REMARK   24  A    between atoms: C_52  and  O_54 
REMARK   25  A    between atoms: C_55  and  C_56 
REMARK   26  A    between atoms: C_56  and  C_57 
REMARK   27  A    between atoms: C_57  and  C_58 
REMARK   28  A    between atoms: C_58  and  O_60 
ROOT
ATOM      1  O   UNK d   0     -20.287  26.400  23.009  0.00  0.00    -0.650 OA
ATOM      2  C   UNK d   0     -19.104  26.807  23.023  0.00  0.00     0.139 C 
ENDROOT
BRANCH   2   3
ATOM      3  O   UNK d   0     -18.652  27.525  24.105  0.00  0.00    -0.776 OA
ATOM      4  H   UNK d   0     -19.132  27.478  25.006  0.00  0.00     0.167 HD
ENDBRANCH   2   3
BRANCH   2   5
ATOM      5  C   UNK d   0     -18.198  26.516  21.877  0.00  0.00     0.115 C 
BRANCH   5   6
ATOM      6  C   UNK d   0     -17.953  27.768  21.079  0.00  0.00     0.052 C 
BRANCH   6   7
ATOM      7  C   UNK d   0     -19.229  28.380  20.552  0.00  0.00    -0.020 A 
ATOM      8  C   UNK d   0     -19.798  29.494  20.936  0.00  0.00    -0.011 A 
ATOM      9  C   UNK d   0     -21.009  29.669  20.151  0.00  0.00     0.067 A 
ATOM     10  C   UNK d   0     -22.025  30.633  20.059  0.00  0.00     0.062 C 
ATOM     11  N   UNK d   0     -21.102  28.612  19.318  0.00  0.00    -0.248 NA
ATOM     12  C   UNK d   0     -22.973  30.769  19.039  0.00  0.00     0.041 A 
ATOM     13  N   UNK d   0     -23.708  29.850  18.384  0.00  0.00    -0.355 N 
ATOM     14  C   UNK d   0     -23.225  32.048  18.510  0.00  0.00    -0.022 A 
ATOM     15  C   UNK d   0     -24.414  30.513  17.447  0.00  0.00     0.042 A 
ATOM     16  H   UNK d   0     -23.743  28.758  18.592  0.00  0.00     0.166 HD
ATOM     17  C   UNK d   0     -25.336  30.038  16.493  0.00  0.00     0.062 C 
ATOM     18  C   UNK d   0     -24.137  31.893  17.496  0.00  0.00    -0.013 A 
ATOM     19  C   UNK d   0     -25.242  28.943  15.673  0.00  0.00     0.067 A 
ATOM     20  N   UNK d   0     -24.251  28.083  15.924  0.00  0.00    -0.248 NA
ATOM     21  C   UNK d   0     -25.966  28.436  14.520  0.00  0.00    -0.011 A 
ATOM     22  C   UNK d   0     -24.274  27.052  15.018  0.00  0.00     0.066 A 
ATOM     23  C   UNK d   0     -23.318  26.062  15.186  0.00  0.00     0.062 C 
ATOM     24  C   UNK d   0     -25.393  27.331  14.138  0.00  0.00    -0.020 A 
ATOM     25  C   UNK d   0     -22.382  25.936  16.225  0.00  0.00     0.041 A 
ATOM     26  N   UNK d   0     -21.641  26.847  16.866  0.00  0.00    -0.355 N 
ATOM     27  C   UNK d   0     -22.134  24.653  16.758  0.00  0.00    -0.022 A 
ATOM     28  C   UNK d   0     -20.930  26.188  17.794  0.00  0.00     0.042 A 
ATOM     29  H   UNK d   0     -21.599  27.943  16.649  0.00  0.00     0.166 HD
ATOM     30  C   UNK d   0     -20.002  26.646  18.744  0.00  0.00     0.062 C 
ATOM     31  C   UNK d   0     -21.216  24.803  17.752  0.00  0.00    -0.013 A 
ATOM     32  C   UNK d   0     -20.062  27.800  19.509  0.00  0.00     0.066 A 
BRANCH   8  33
ATOM     33  C   UNK d   0     -19.319  30.419  21.980  0.00  0.00     0.151 C 
BRANCH  33  34
ATOM     34  C   UNK d   0     -20.260  30.545  23.107  0.00  0.00     0.143 C 
ATOM     35  O   UNK d   0     -20.475  31.645  23.637  0.00  0.00    -0.650 OA
BRANCH  34  36
ATOM     36  O   UNK d   0     -20.907  29.425  23.576  0.00  0.00    -0.776 OA
ATOM     37  H   UNK d   0     -20.921  29.197  24.579  0.00  0.00     0.167 HD
ENDBRANCH  34  36
ENDBRANCH  33  34
ENDBRANCH   8  33
BRANCH  31  38
ATOM     38  C   UNK d   0     -20.654  23.702  18.620  0.00  0.00     0.151 C 
BRANCH  38  39
ATOM     39  C   UNK d   0     -19.846  22.759  17.877  0.00  0.00     0.143 C 
ATOM     40  O   UNK d   0     -19.110  23.108  16.938  0.00  0.00    -0.650 OA
BRANCH  39  41
ATOM     41  O   UNK d   0     -19.882  21.406  18.216  0.00  0.00    -0.776 OA
ATOM     42  H   UNK d   0     -20.757  20.907  18.026  0.00  0.00     0.167 HD
ENDBRANCH  39  41
ENDBRANCH  38  39
ENDBRANCH  31  38
BRANCH  27  43
ATOM     43  C   UNK d   0     -22.722  23.321  16.364  0.00  0.00     0.052 C 
BRANCH  43  44
ATOM     44  C   UNK d   0     -21.927  22.611  15.317  0.00  0.00     0.115 C 
BRANCH  44  45
ATOM     45  C   UNK d   0     -22.882  22.230  14.244  0.00  0.00     0.139 C 
ATOM     46  O   UNK d   0     -23.800  21.422  14.529  0.00  0.00    -0.650 OA
BRANCH  45  47
ATOM     47  O   UNK d   0     -22.804  22.729  12.962  0.00  0.00    -0.776 OA
ATOM     48  H   UNK d   0     -23.637  22.906  12.378  0.00  0.00     0.167 HD
ENDBRANCH  45  47
ENDBRANCH  44  45
ENDBRANCH  43  44
ENDBRANCH  27  43
BRANCH  24  49
ATOM     49  C   UNK d   0     -25.827  26.466  13.028  0.00  0.00     0.052 C 
BRANCH  49  50
ATOM     50  C   UNK d   0     -26.728  25.370  13.539  0.00  0.00     0.115 C 
BRANCH  50  51
ATOM     51  C   UNK d   0     -26.161  24.031  13.627  0.00  0.00     0.139 C 
ATOM     52  O   UNK d   0     -25.833  23.368  12.615  0.00  0.00    -0.650 OA
BRANCH  51  53
ATOM     53  O   UNK d   0     -25.972  23.446  14.870  0.00  0.00    -0.776 OA
ATOM     54  H   UNK d   0     -25.089  23.583  15.330  0.00  0.00     0.167 HD
ENDBRANCH  51  53
ENDBRANCH  50  51
ENDBRANCH  49  50
ENDBRANCH  24  49
BRANCH  21  55
ATOM     55  C   UNK d   0     -27.159  29.106  13.922  0.00  0.00     0.151 C 
BRANCH  55  56
ATOM     56  C   UNK d   0     -28.420  28.550  14.438  0.00  0.00     0.143 C 
ATOM     57  O   UNK d   0     -29.198  27.877  13.734  0.00  0.00    -0.650 OA
BRANCH  56  58
ATOM     58  O   UNK d   0     -28.741  28.797  15.771  0.00  0.00    -0.776 OA
ATOM     59  H   UNK d   0     -29.249  29.684  15.941  0.00  0.00     0.167 HD
ENDBRANCH  56  58
ENDBRANCH  55  56
ENDBRANCH  21  55
BRANCH  18  60
ATOM     60  C   UNK d   0     -24.684  33.013  16.646  0.00  0.00     0.151 C 
BRANCH  60  61
ATOM     61  C   UNK d   0     -23.817  33.080  15.460  0.00  0.00     0.143 C 
ATOM     62  O   UNK d   0     -23.909  32.404  14.434  0.00  0.00    -0.650 OA
BRANCH  61  63
ATOM     63  O   UNK d   0     -22.773  34.034  15.530  0.00  0.00    -0.776 OA
ATOM     64  H   UNK d   0     -22.912  34.923  15.976  0.00  0.00     0.167 HD
ENDBRANCH  61  63
ENDBRANCH  60  61
ENDBRANCH  18  60
BRANCH  14  65
ATOM     65  C   UNK d   0     -22.748  33.403  18.951  0.00  0.00     0.052 C 
BRANCH  65  66
ATOM     66  C   UNK d   0     -21.284  33.449  19.208  0.00  0.00     0.115 C 
BRANCH  66  67
ATOM     67  C   UNK d   0     -20.402  33.985  18.210  0.00  0.00     0.139 C 
ATOM     68  O   UNK d   0     -20.833  34.934  17.457  0.00  0.00    -0.650 OA
BRANCH  67  69
ATOM     69  O   UNK d   0     -19.090  33.601  17.935  0.00  0.00    -0.776 OA
ATOM     70  H   UNK d   0     -18.657  34.043  17.111  0.00  0.00     0.167 HD
ENDBRANCH  67  69
ENDBRANCH  66  67
ENDBRANCH  65  66
ENDBRANCH  14  65
ENDBRANCH   6   7
ENDBRANCH   5   6
ENDBRANCH   2   5
TORSDOF 28
ENDMDL
MODEL 2
REMARK VINA RESULT:      -8.1      2.304      8.147
REMARK  28 active torsions:
REMARK  status: ('A' for Active; 'I' for Inactive)
REMARK    1  A    between atoms: C_2  and  O_3 
REMARK    2  A    between atoms: C_2  and  C_4 
REMARK    3  A    between atoms: C_4  and  C_5 
REMARK    4  A    between atoms: C_5  and  C_6 
REMARK    5  A    between atoms: C_7  and  C_8 
REMARK    6  A    between atoms: C_8  and  C_9 
REMARK    7  A    between atoms: C_9  and  O_11 
REMARK    8  A    between atoms: C_28  and  C_29 
REMARK    9  A    between atoms: C_29  and  C_30 
REMARK   10  A    between atoms: C_30  and  O_32 
REMARK   11  A    between atoms: C_33  and  C_34 
REMARK   12  A    between atoms: C_34  and  C_35 
REMARK   13  A    between atoms: C_35  and  C_36 
REMARK   14  A    between atoms: C_36  and  O_38 
REMARK   15  A    between atoms: C_39  and  C_40 
REMARK   16  A    between atoms: C_40  and  C_41 
REMARK   17  A    between atoms: C_41  and  C_42 
REMARK   18  A    between atoms: C_42  and  O_44 
REMARK   19  A    between atoms: C_45  and  C_46 
REMARK   20  A    between atoms: C_46  and  C_47 
REMARK   21  A    between atoms: C_47  and  O_49 
REMARK   22  A    between atoms: C_50  and  C_51 
REMARK   23  A    between atoms: C_51  and  C_52 
REMARK   24  A    between atoms: C_52  and  O_54 
REMARK   25  A    between atoms: C_55  and  C_56 
REMARK   26  A    between atoms: C_56  and  C_57 
REMARK   27  A    between atoms: C_57  and  C_58 
REMARK   28  A    between atoms: C_58  and  O_60 
ROOT
ATOM      1  O   UNK d   0     -19.713  19.808  23.976  0.00  0.00    -0.650 OA
ATOM      2  C   UNK d   0     -19.315  20.457  22.983  0.00  0.00     0.139 C 
ENDROOT
BRANCH   2   3
ATOM      3  O   UNK d   0     -18.109  20.135  22.407  0.00  0.00    -0.776 OA
ATOM      4  H   UNK d   0     -17.407  19.598  22.919  0.00  0.00     0.167 HD
ENDBRANCH   2   3
BRANCH   2   5
ATOM      5  C   UNK d   0     -20.143  21.568  22.434  0.00  0.00     0.115 C 
BRANCH   5   6
ATOM      6  C   UNK d   0     -19.255  22.658  21.896  0.00  0.00     0.052 C 
BRANCH   6   7
ATOM      7  C   UNK d   0     -19.717  23.174  20.554  0.00  0.00    -0.020 A 
ATOM      8  C   UNK d   0     -19.605  22.586  19.391  0.00  0.00    -0.011 A 
ATOM      9  C   UNK d   0     -20.184  23.466  18.390  0.00  0.00     0.067 A 
ATOM     10  C   UNK d   0     -20.394  23.422  17.002  0.00  0.00     0.062 C 
ATOM     11  N   UNK d   0     -20.620  24.570  19.031  0.00  0.00    -0.248 NA
ATOM     12  C   UNK d   0     -21.227  24.253  16.245  0.00  0.00     0.041 A 
ATOM     13  N   UNK d   0     -21.428  25.583  16.289  0.00  0.00    -0.355 N 
ATOM     14  C   UNK d   0     -22.074  23.673  15.283  0.00  0.00    -0.022 A 
ATOM     15  C   UNK d   0     -22.387  25.862  15.385  0.00  0.00     0.042 A 
ATOM     16  H   UNK d   0     -20.890  26.314  16.931  0.00  0.00     0.166 HD
ATOM     17  C   UNK d   0     -22.974  27.091  15.025  0.00  0.00     0.062 C 
ATOM     18  C   UNK d   0     -22.817  24.689  14.735  0.00  0.00    -0.013 A 
ATOM     19  C   UNK d   0     -23.417  28.105  15.835  0.00  0.00     0.067 A 
ATOM     20  N   UNK d   0     -23.087  28.035  17.128  0.00  0.00    -0.248 NA
ATOM     21  C   UNK d   0     -24.214  29.309  15.662  0.00  0.00    -0.011 A 
ATOM     22  C   UNK d   0     -23.612  29.104  17.812  0.00  0.00     0.066 A 
ATOM     23  C   UNK d   0     -23.313  29.177  19.164  0.00  0.00     0.062 C 
ATOM     24  C   UNK d   0     -24.327  29.886  16.823  0.00  0.00    -0.020 A 
ATOM     25  C   UNK d   0     -22.464  28.339  19.904  0.00  0.00     0.041 A 
ATOM     26  N   UNK d   0     -22.274  27.015  19.871  0.00  0.00    -0.355 N 
ATOM     27  C   UNK d   0     -21.610  28.923  20.866  0.00  0.00    -0.022 A 
ATOM     28  C   UNK d   0     -21.324  26.734  20.777  0.00  0.00     0.042 A 
ATOM     29  H   UNK d   0     -22.824  26.281  19.232  0.00  0.00     0.166 HD
ATOM     30  C   UNK d   0     -20.738  25.515  21.152  0.00  0.00     0.062 C 
ATOM     31  C   UNK d   0     -20.885  27.914  21.422  0.00  0.00    -0.013 A 
ATOM     32  C   UNK d   0     -20.369  24.457  20.336  0.00  0.00     0.066 A 
BRANCH   8  33
ATOM     33  C   UNK d   0     -18.998  21.270  19.120  0.00  0.00     0.151 C 
BRANCH  33  34
ATOM     34  C   UNK d   0     -19.913  20.150  19.404  0.00  0.00     0.143 C 
ATOM     35  O   UNK d   0     -21.140  20.285  19.288  0.00  0.00    -0.650 OA
BRANCH  34  36
ATOM     36  O   UNK d   0     -19.396  18.940  19.805  0.00  0.00    -0.776 OA
ATOM     37  H   UNK d   0     -19.946  18.289  20.382  0.00  0.00     0.167 HD
ENDBRANCH  34  36
ENDBRANCH  33  34
ENDBRANCH   8  33
BRANCH  31  38
ATOM     38  C   UNK d   0     -19.830  28.061  22.493  0.00  0.00     0.151 C 
BRANCH  38  39
ATOM     39  C   UNK d   0     -18.483  28.007  21.965  0.00  0.00     0.143 C 
ATOM     40  O   UNK d   0     -18.034  28.875  21.196  0.00  0.00    -0.650 OA
BRANCH  39  41
ATOM     41  O   UNK d   0     -17.647  26.950  22.324  0.00  0.00    -0.776 OA
ATOM     42  H   UNK d   0     -17.386  26.295  21.580  0.00  0.00     0.167 HD
ENDBRANCH  39  41
ENDBRANCH  38  39
ENDBRANCH  31  38
BRANCH  27  43
ATOM     43  C   UNK d   0     -21.465  30.370  21.266  0.00  0.00     0.052 C 
BRANCH  43  44
ATOM     44  C   UNK d   0     -20.655  31.172  20.300  0.00  0.00     0.115 C 
BRANCH  44  45
ATOM     45  C   UNK d   0     -21.394  32.441  20.077  0.00  0.00     0.139 C 
ATOM     46  O   UNK d   0     -22.512  32.580  20.633  0.00  0.00    -0.650 OA
BRANCH  45  47
ATOM     47  O   UNK d   0     -20.902  33.466  19.297  0.00  0.00    -0.776 OA
ATOM     48  H   UNK d   0     -20.708  34.409  19.669  0.00  0.00     0.167 HD
ENDBRANCH  45  47
ENDBRANCH  44  45
ENDBRANCH  43  44
ENDBRANCH  27  43
BRANCH  24  49
ATOM     49  C   UNK d   0     -25.022  31.156  17.097  0.00  0.00     0.052 C 
BRANCH  49  50
ATOM     50  C   UNK d   0     -24.044  32.195  17.581  0.00  0.00     0.115 C 
BRANCH  50  51
ATOM     51  C   UNK d   0     -23.771  33.316  16.692  0.00  0.00     0.139 C 
ATOM     52  O   UNK d   0     -24.673  33.911  16.056  0.00  0.00    -0.650 OA
BRANCH  51  53
ATOM     53  O   UNK d   0     -22.468  33.758  16.525  0.00  0.00    -0.776 OA
ATOM     54  H   UNK d   0     -22.315  34.738  16.361  0.00  0.00     0.167 HD
ENDBRANCH  51  53
ENDBRANCH  50  51
ENDBRANCH  49  50
ENDBRANCH  24  49
BRANCH  21  55
ATOM     55  C   UNK d   0     -24.774  29.757  14.353  0.00  0.00     0.151 C 
BRANCH  55  56
ATOM     56  C   UNK d   0     -25.965  28.984  13.969  0.00  0.00     0.143 C 
ATOM     57  O   UNK d   0     -27.099  29.215  14.432  0.00  0.00    -0.650 OA
BRANCH  56  58
ATOM     58  O   UNK d   0     -25.799  27.953  13.046  0.00  0.00    -0.776 OA
ATOM     59  H   UNK d   0     -26.665  27.437  12.807  0.00  0.00     0.167 HD
ENDBRANCH  56  58
ENDBRANCH  55  56
ENDBRANCH  21  55
BRANCH  18  60
ATOM     60  C   UNK d   0     -23.864  24.513  13.663  0.00  0.00     0.151 C 
BRANCH  60  61
ATOM     61  C   UNK d   0     -25.159  24.504  14.361  0.00  0.00     0.143 C 
ATOM     62  O   UNK d   0     -25.890  25.470  14.582  0.00  0.00    -0.650 OA
BRANCH  61  63
ATOM     63  O   UNK d   0     -25.588  23.234  14.817  0.00  0.00    -0.776 OA
ATOM     64  H   UNK d   0     -25.035  22.411  14.656  0.00  0.00     0.167 HD
ENDBRANCH  61  63
ENDBRANCH  60  61
ENDBRANCH  18  60
BRANCH  14  65
ATOM     65  C   UNK d   0     -22.164  22.260  14.779  0.00  0.00     0.052 C 
BRANCH  65  66
ATOM     66  C   UNK d   0     -22.994  21.384  15.648  0.00  0.00     0.115 C 
BRANCH  66  67
ATOM     67  C   UNK d   0     -23.630  20.224  15.090  0.00  0.00     0.139 C 
ATOM     68  O   UNK d   0     -24.814  20.349  14.603  0.00  0.00    -0.650 OA
BRANCH  67  69
ATOM     69  O   UNK d   0     -23.118  18.930  15.000  0.00  0.00    -0.776 OA
ATOM     70  H   UNK d   0     -23.646  18.281  14.400  0.00  0.00     0.167 HD
ENDBRANCH  67  69
ENDBRANCH  66  67
ENDBRANCH  65  66
ENDBRANCH  14  65
ENDBRANCH   6   7
ENDBRANCH   5   6
ENDBRANCH   2   5
TORSDOF 28
ENDMDL
MODEL 3
REMARK VINA RESULT:      -8.0      1.134      7.129
REMARK  28 active torsions:
REMARK  status: ('A' for Active; 'I' for Inactive)
REMARK    1  A    between atoms: C_2  and  O_3 
REMARK    2  A    between atoms: C_2  and  C_4 
REMARK    3  A    between atoms: C_4  and  C_5 
REMARK    4  A    between atoms: C_5  and  C_6 
REMARK    5  A    between atoms: C_7  and  C_8 
REMARK    6  A    between atoms: C_8  and  C_9 
REMARK    7  A    between atoms: C_9  and  O_11 
REMARK    8  A    between atoms: C_28  and  C_29 
REMARK    9  A    between atoms: C_29  and  C_30 
REMARK   10  A    between atoms: C_30  and  O_32 
REMARK   11  A    between atoms: C_33  and  C_34 
REMARK   12  A    between atoms: C_34  and  C_35 
REMARK   13  A    between atoms: C_35  and  C_36 
REMARK   14  A    between atoms: C_36  and  O_38 
REMARK   15  A    between atoms: C_39  and  C_40 
REMARK   16  A    between atoms: C_40  and  C_41 
REMARK   17  A    between atoms: C_41  and  C_42 
REMARK   18  A    between atoms: C_42  and  O_44 
REMARK   19  A    between atoms: C_45  and  C_46 
REMARK   20  A    between atoms: C_46  and  C_47 
REMARK   21  A    between atoms: C_47  and  O_49 
REMARK   22  A    between atoms: C_50  and  C_51 
REMARK   23  A    between atoms: C_51  and  C_52 
REMARK   24  A    between atoms: C_52  and  O_54 
REMARK   25  A    between atoms: C_55  and  C_56 
REMARK   26  A    between atoms: C_56  and  C_57 
REMARK   27  A    between atoms: C_57  and  C_58 
REMARK   28  A    between atoms: C_58  and  O_60 
ROOT
ATOM      1  O   UNK d   0     -21.099  31.256  25.534  0.00  0.00    -0.650 OA
ATOM      2  C   UNK d   0     -20.504  31.272  24.433  0.00  0.00     0.139 C 
ENDROOT
BRANCH   2   3
ATOM      3  O   UNK d   0     -20.140  32.477  23.882  0.00  0.00    -0.776 OA
ATOM      4  H   UNK d   0     -19.816  33.249  24.468  0.00  0.00     0.167 HD
ENDBRANCH   2   3
BRANCH   2   5
ATOM      5  C   UNK d   0     -20.194  29.995  23.731  0.00  0.00     0.115 C 
BRANCH   5   6
ATOM      6  C   UNK d   0     -19.305  30.258  22.546  0.00  0.00     0.052 C 
BRANCH   6   7
ATOM      7  C   UNK d   0     -19.659  29.402  21.353  0.00  0.00    -0.020 A 
ATOM      8  C   UNK d   0     -19.062  28.310  20.949  0.00  0.00    -0.011 A 
ATOM      9  C   UNK d   0     -19.748  27.843  19.756  0.00  0.00     0.067 A 
ATOM     10  C   UNK d   0     -19.626  26.755  18.878  0.00  0.00     0.062 C 
ATOM     11  N   UNK d   0     -20.747  28.715  19.501  0.00  0.00    -0.248 NA
ATOM     12  C   UNK d   0     -20.562  26.319  17.934  0.00  0.00     0.041 A 
ATOM     13  N   UNK d   0     -21.331  27.003  17.066  0.00  0.00    -0.355 N 
ATOM     14  C   UNK d   0     -20.850  24.944  17.846  0.00  0.00    -0.022 A 
ATOM     15  C   UNK d   0     -22.105  26.100  16.436  0.00  0.00     0.042 A 
ATOM     16  H   UNK d   0     -21.314  28.101  16.889  0.00  0.00     0.166 HD
ATOM     17  C   UNK d   0     -23.083  26.274  15.437  0.00  0.00     0.062 C 
ATOM     18  C   UNK d   0     -21.832  24.798  16.899  0.00  0.00    -0.013 A 
ATOM     19  C   UNK d   0     -24.084  27.209  15.363  0.00  0.00     0.067 A 
ATOM     20  N   UNK d   0     -24.031  28.221  16.233  0.00  0.00    -0.248 NA
ATOM     21  C   UNK d   0     -25.272  27.405  14.550  0.00  0.00    -0.011 A 
ATOM     22  C   UNK d   0     -25.100  29.063  16.049  0.00  0.00     0.066 A 
ATOM     23  C   UNK d   0     -25.150  30.183  16.867  0.00  0.00     0.062 C 
ATOM     24  C   UNK d   0     -25.865  28.490  14.959  0.00  0.00    -0.020 A 
ATOM     25  C   UNK d   0     -24.193  30.610  17.800  0.00  0.00     0.041 A 
ATOM     26  N   UNK d   0     -23.439  29.931  18.673  0.00  0.00    -0.355 N 
ATOM     27  C   UNK d   0     -23.901  31.989  17.884  0.00  0.00    -0.022 A 
ATOM     28  C   UNK d   0     -22.672  30.831  19.309  0.00  0.00     0.042 A 
ATOM     29  H   UNK d   0     -23.466  28.829  18.857  0.00  0.00     0.166 HD
ATOM     30  C   UNK d   0     -21.702  30.673  20.311  0.00  0.00     0.062 C 
ATOM     31  C   UNK d   0     -22.940  32.138  18.836  0.00  0.00    -0.013 A 
ATOM     32  C   UNK d   0     -20.747  29.676  20.426  0.00  0.00     0.066 A 
BRANCH   8  33
ATOM     33  C   UNK d   0     -17.898  27.655  21.573  0.00  0.00     0.151 C 
BRANCH  33  34
ATOM     34  C   UNK d   0     -18.281  26.627  22.558  0.00  0.00     0.143 C 
ATOM     35  O   UNK d   0     -17.444  25.828  23.002  0.00  0.00    -0.650 OA
BRANCH  34  36
ATOM     36  O   UNK d   0     -19.586  26.555  22.986  0.00  0.00    -0.776 OA
ATOM     37  H   UNK d   0     -20.146  25.702  22.854  0.00  0.00     0.167 HD
ENDBRANCH  34  36
ENDBRANCH  33  34
ENDBRANCH   8  33
BRANCH  31  38
ATOM     38  C   UNK d   0     -22.302  33.439  19.263  0.00  0.00     0.151 C 
BRANCH  38  39
ATOM     39  C   UNK d   0     -21.164  33.802  18.446  0.00  0.00     0.143 C 
ATOM     40  O   UNK d   0     -20.066  33.226  18.540  0.00  0.00    -0.650 OA
BRANCH  39  41
ATOM     41  O   UNK d   0     -21.290  34.832  17.514  0.00  0.00    -0.776 OA
ATOM     42  H   UNK d   0     -20.672  34.793  16.696  0.00  0.00     0.167 HD
ENDBRANCH  39  41
ENDBRANCH  38  39
ENDBRANCH  31  38
BRANCH  27  43
ATOM     43  C   UNK d   0     -24.492  33.143  17.112  0.00  0.00     0.052 C 
BRANCH  43  44
ATOM     44  C   UNK d   0     -24.649  32.858  15.653  0.00  0.00     0.115 C 
BRANCH  44  45
ATOM     45  C   UNK d   0     -24.088  34.029  14.930  0.00  0.00     0.139 C 
ATOM     46  O   UNK d   0     -22.943  34.430  15.252  0.00  0.00    -0.650 OA
BRANCH  45  47
ATOM     47  O   UNK d   0     -24.768  34.682  13.925  0.00  0.00    -0.776 OA
ATOM     48  H   UNK d   0     -24.504  34.606  12.929  0.00  0.00     0.167 HD
ENDBRANCH  45  47
ENDBRANCH  44  45
ENDBRANCH  43  44
ENDBRANCH  27  43
BRANCH  24  49
ATOM     49  C   UNK d   0     -27.087  29.081  14.387  0.00  0.00     0.052 C 
BRANCH  49  50
ATOM     50  C   UNK d   0     -28.300  28.294  14.812  0.00  0.00     0.115 C 
BRANCH  50  51
ATOM     51  C   UNK d   0     -28.716  28.413  16.203  0.00  0.00     0.139 C 
ATOM     52  O   UNK d   0     -29.077  27.427  16.888  0.00  0.00    -0.650 OA
BRANCH  51  53
ATOM     53  O   UNK d   0     -28.723  29.659  16.813  0.00  0.00    -0.776 OA
ATOM     54  H   UNK d   0     -28.972  29.711  17.785  0.00  0.00     0.167 HD
ENDBRANCH  51  53
ENDBRANCH  50  51
ENDBRANCH  49  50
ENDBRANCH  24  49
BRANCH  21  55
ATOM     55  C   UNK d   0     -25.689  26.491  13.446  0.00  0.00     0.151 C 
BRANCH  55  56
ATOM     56  C   UNK d   0     -26.044  25.153  13.942  0.00  0.00     0.143 C 
ATOM     57  O   UNK d   0     -27.028  24.945  14.680  0.00  0.00    -0.650 OA
BRANCH  56  58
ATOM     58  O   UNK d   0     -25.235  24.084  13.561  0.00  0.00    -0.776 OA
ATOM     59  H   UNK d   0     -24.265  24.341  13.303  0.00  0.00     0.167 HD
ENDBRANCH  56  58
ENDBRANCH  55  56
ENDBRANCH  21  55
BRANCH  18  60
ATOM     60  C   UNK d   0     -22.449  23.483  16.489  0.00  0.00     0.151 C 
BRANCH  60  61
ATOM     61  C   UNK d   0     -21.899  23.176  15.160  0.00  0.00     0.143 C 
ATOM     62  O   UNK d   0     -22.533  22.938  14.132  0.00  0.00    -0.650 OA
BRANCH  61  63
ATOM     63  O   UNK d   0     -20.486  23.157  15.083  0.00  0.00    -0.776 OA
ATOM     64  H   UNK d   0     -20.002  23.605  14.325  0.00  0.00     0.167 HD
ENDBRANCH  61  63
ENDBRANCH  60  61
ENDBRANCH  18  60
BRANCH  14  65
ATOM     65  C   UNK d   0     -20.204  23.762  18.512  0.00  0.00     0.052 C 
BRANCH  65  66
ATOM     66  C   UNK d   0     -20.932  23.310  19.727  0.00  0.00     0.115 C 
BRANCH  66  67
ATOM     67  C   UNK d   0     -20.773  24.027  20.961  0.00  0.00     0.139 C 
ATOM     68  O   UNK d   0     -19.824  23.678  21.755  0.00  0.00    -0.650 OA
BRANCH  67  69
ATOM     69  O   UNK d   0     -21.538  25.093  21.434  0.00  0.00    -0.776 OA
ATOM     70  H   UNK d   0     -21.013  25.940  21.695  0.00  0.00     0.167 HD
ENDBRANCH  67  69
ENDBRANCH  66  67
ENDBRANCH  65  66
ENDBRANCH  14  65
ENDBRANCH   6   7
ENDBRANCH   5   6
ENDBRANCH   2   5
TORSDOF 28
ENDMDL
MODEL 4
REMARK VINA RESULT:      -7.9     21.877     25.180
REMARK  28 active torsions:
REMARK  status: ('A' for Active; 'I' for Inactive)
REMARK    1  A    between atoms: C_2  and  O_3 
REMARK    2  A    between atoms: C_2  and  C_4 
REMARK    3  A    between atoms: C_4  and  C_5 
REMARK    4  A    between atoms: C_5  and  C_6 
REMARK    5  A    between atoms: C_7  and  C_8 
REMARK    6  A    between atoms: C_8  and  C_9 
REMARK    7  A    between atoms: C_9  and  O_11 
REMARK    8  A    between atoms: C_28  and  C_29 
REMARK    9  A    between atoms: C_29  and  C_30 
REMARK   10  A    between atoms: C_30  and  O_32 
REMARK   11  A    between atoms: C_33  and  C_34 
REMARK   12  A    between atoms: C_34  and  C_35 
REMARK   13  A    between atoms: C_35  and  C_36 
REMARK   14  A    between atoms: C_36  and  O_38 
REMARK   15  A    between atoms: C_39  and  C_40 
REMARK   16  A    between atoms: C_40  and  C_41 
REMARK   17  A    between atoms: C_41  and  C_42 
REMARK   18  A    between atoms: C_42  and  O_44 
REMARK   19  A    between atoms: C_45  and  C_46 
REMARK   20  A    between atoms: C_46  and  C_47 
REMARK   21  A    between atoms: C_47  and  O_49 
REMARK   22  A    between atoms: C_50  and  C_51 
REMARK   23  A    between atoms: C_51  and  C_52 
REMARK   24  A    between atoms: C_52  and  O_54 
REMARK   25  A    between atoms: C_55  and  C_56 
REMARK   26  A    between atoms: C_56  and  C_57 
REMARK   27  A    between atoms: C_57  and  C_58 
REMARK   28  A    between atoms: C_58  and  O_60 
ROOT
ATOM      1  O   UNK d   0     -29.945   4.203  10.006  0.00  0.00    -0.650 OA
ATOM      2  C   UNK d   0     -30.333   5.190   9.342  0.00  0.00     0.139 C 
ENDROOT
BRANCH   2   3
ATOM      3  O   UNK d   0     -29.525   6.297   9.247  0.00  0.00    -0.776 OA
ATOM      4  H   UNK d   0     -29.230   6.809  10.081  0.00  0.00     0.167 HD
ENDBRANCH   2   3
BRANCH   2   5
ATOM      5  C   UNK d   0     -31.660   5.161   8.664  0.00  0.00     0.115 C 
BRANCH   5   6
ATOM      6  C   UNK d   0     -31.480   4.984   7.181  0.00  0.00     0.052 C 
BRANCH   6   7
ATOM      7  C   UNK d   0     -32.161   6.066   6.379  0.00  0.00    -0.020 A 
ATOM      8  C   UNK d   0     -33.433   6.161   6.085  0.00  0.00    -0.011 A 
ATOM      9  C   UNK d   0     -33.617   7.363   5.289  0.00  0.00     0.067 A 
ATOM     10  C   UNK d   0     -34.700   8.027   4.693  0.00  0.00     0.062 C 
ATOM     11  N   UNK d   0     -32.403   7.936   5.142  0.00  0.00    -0.248 NA
ATOM     12  C   UNK d   0     -34.723   9.334   4.195  0.00  0.00     0.041 A 
ATOM     13  N   UNK d   0     -33.827  10.017   3.457  0.00  0.00    -0.355 N 
ATOM     14  C   UNK d   0     -35.809  10.168   4.519  0.00  0.00    -0.022 A 
ATOM     15  C   UNK d   0     -34.314  11.264   3.311  0.00  0.00     0.042 A 
ATOM     16  H   UNK d   0     -32.880   9.620   3.031  0.00  0.00     0.166 HD
ATOM     17  C   UNK d   0     -33.782  12.378   2.631  0.00  0.00     0.062 C 
ATOM     18  C   UNK d   0     -35.554  11.397   3.964  0.00  0.00    -0.013 A 
ATOM     19  C   UNK d   0     -32.498  12.860   2.637  0.00  0.00     0.067 A 
ATOM     20  N   UNK d   0     -31.563  12.084   3.192  0.00  0.00    -0.248 NA
ATOM     21  C   UNK d   0     -31.835  14.072   2.187  0.00  0.00    -0.011 A 
ATOM     22  C   UNK d   0     -30.338  12.702   3.139  0.00  0.00     0.066 A 
ATOM     23  C   UNK d   0     -29.265  11.987   3.649  0.00  0.00     0.062 C 
ATOM     24  C   UNK d   0     -30.572  13.975   2.487  0.00  0.00    -0.020 A 
ATOM     25  C   UNK d   0     -29.261  10.669   4.134  0.00  0.00     0.041 A 
ATOM     26  N   UNK d   0     -30.144   9.995   4.880  0.00  0.00    -0.355 N 
ATOM     27  C   UNK d   0     -28.172   9.832   3.804  0.00  0.00    -0.022 A 
ATOM     28  C   UNK d   0     -29.657   8.754   5.035  0.00  0.00     0.042 A 
ATOM     29  H   UNK d   0     -31.090  10.399   5.316  0.00  0.00     0.166 HD
ATOM     30  C   UNK d   0     -30.170   7.639   5.716  0.00  0.00     0.062 C 
ATOM     31  C   UNK d   0     -28.415   8.618   4.369  0.00  0.00    -0.013 A 
ATOM     32  C   UNK d   0     -31.485   7.205   5.775  0.00  0.00     0.066 A 
BRANCH   8  33
ATOM     33  C   UNK d   0     -34.503   5.225   6.475  0.00  0.00     0.151 C 
BRANCH  33  34
ATOM     34  C   UNK d   0     -34.713   4.154   5.484  0.00  0.00     0.143 C 
ATOM     35  O   UNK d   0     -35.220   4.398   4.380  0.00  0.00    -0.650 OA
BRANCH  34  36
ATOM     36  O   UNK d   0     -34.342   2.866   5.794  0.00  0.00    -0.776 OA
ATOM     37  H   UNK d   0     -33.430   2.488   5.503  0.00  0.00     0.167 HD
ENDBRANCH  34  36
ENDBRANCH  33  34
ENDBRANCH   8  33
BRANCH  31  38
ATOM     38  C   UNK d   0     -27.530   7.398   4.274  0.00  0.00     0.151 C 
BRANCH  38  39
ATOM     39  C   UNK d   0     -26.216   7.611   4.844  0.00  0.00     0.143 C 
ATOM     40  O   UNK d   0     -25.173   7.477   4.180  0.00  0.00    -0.650 OA
BRANCH  39  41
ATOM     41  O   UNK d   0     -26.101   7.981   6.184  0.00  0.00    -0.776 OA
ATOM     42  H   UNK d   0     -25.158   7.972   6.585  0.00  0.00     0.167 HD
ENDBRANCH  39  41
ENDBRANCH  38  39
ENDBRANCH  31  38
BRANCH  27  43
ATOM     43  C   UNK d   0     -26.939  10.139   2.992  0.00  0.00     0.052 C 
BRANCH  43  44
ATOM     44  C   UNK d   0     -27.158  10.025   1.518  0.00  0.00     0.115 C 
BRANCH  44  45
ATOM     45  C   UNK d   0     -26.716   8.661   1.129  0.00  0.00     0.139 C 
ATOM     46  O   UNK d   0     -27.536   7.922   0.528  0.00  0.00    -0.650 OA
BRANCH  45  47
ATOM     47  O   UNK d   0     -25.452   8.180   1.393  0.00  0.00    -0.776 OA
ATOM     48  H   UNK d   0     -24.918   8.443   2.237  0.00  0.00     0.167 HD
ENDBRANCH  45  47
ENDBRANCH  44  45
ENDBRANCH  43  44
ENDBRANCH  27  43
BRANCH  24  49
ATOM     49  C   UNK d   0     -29.527  14.966   2.177  0.00  0.00     0.052 C 
BRANCH  49  50
ATOM     50  C   UNK d   0     -29.452  15.201   0.690  0.00  0.00     0.115 C 
BRANCH  50  51
ATOM     51  C   UNK d   0     -29.831  16.521   0.206  0.00  0.00     0.139 C 
ATOM     52  O   UNK d   0     -30.018  16.768  -1.009  0.00  0.00    -0.650 OA
BRANCH  51  53
ATOM     53  O   UNK d   0     -29.995  17.562   1.107  0.00  0.00    -0.776 OA
ATOM     54  H   UNK d   0     -30.749  18.208   0.955  0.00  0.00     0.167 HD
ENDBRANCH  51  53
ENDBRANCH  50  51
ENDBRANCH  49  50
ENDBRANCH  24  49
BRANCH  21  55
ATOM     55  C   UNK d   0     -32.532  15.199   1.499  0.00  0.00     0.151 C 
BRANCH  55  56
ATOM     56  C   UNK d   0     -33.085  16.171   2.455  0.00  0.00     0.143 C 
ATOM     57  O   UNK d   0     -34.310  16.360   2.592  0.00  0.00    -0.650 OA
BRANCH  56  58
ATOM     58  O   UNK d   0     -32.187  16.901   3.232  0.00  0.00    -0.776 OA
ATOM     59  H   UNK d   0     -32.560  17.791   3.609  0.00  0.00     0.167 HD
ENDBRANCH  56  58
ENDBRANCH  55  56
ENDBRANCH  21  55
BRANCH  18  60
ATOM     60  C   UNK d   0     -36.460  12.599   4.072  0.00  0.00     0.151 C 
BRANCH  60  61
ATOM     61  C   UNK d   0     -37.258  12.616   2.837  0.00  0.00     0.143 C 
ATOM     62  O   UNK d   0     -37.035  11.991   1.800  0.00  0.00    -0.650 OA
BRANCH  61  63
ATOM     63  O   UNK d   0     -38.402  13.449   2.871  0.00  0.00    -0.776 OA
ATOM     64  H   UNK d   0     -39.307  13.098   2.611  0.00  0.00     0.167 HD
ENDBRANCH  61  63
ENDBRANCH  60  61
ENDBRANCH  18  60
BRANCH  14  65
ATOM     65  C   UNK d   0     -37.101   9.865   5.223  0.00  0.00     0.052 C 
BRANCH  65  66
ATOM     66  C   UNK d   0     -37.633  11.026   5.987  0.00  0.00     0.115 C 
BRANCH  66  67
ATOM     67  C   UNK d   0     -39.017  11.387   5.861  0.00  0.00     0.139 C 
ATOM     68  O   UNK d   0     -39.905  10.465   5.980  0.00  0.00    -0.650 OA
BRANCH  67  69
ATOM     69  O   UNK d   0     -39.549  12.652   5.618  0.00  0.00    -0.776 OA
ATOM     70  H   UNK d   0     -39.202  13.129   4.773  0.00  0.00     0.167 HD
ENDBRANCH  67  69
ENDBRANCH  66  67
ENDBRANCH  65  66
ENDBRANCH  14  65
ENDBRANCH   6   7
ENDBRANCH   5   6
ENDBRANCH   2   5
TORSDOF 28
ENDMDL
MODEL 5
REMARK VINA RESULT:      -7.8     21.735     25.641
REMARK  28 active torsions:
REMARK  status: ('A' for Active; 'I' for Inactive)
REMARK    1  A    between atoms: C_2  and  O_3 
REMARK    2  A    between atoms: C_2  and  C_4 
REMARK    3  A    between atoms: C_4  and  C_5 
REMARK    4  A    between atoms: C_5  and  C_6 
REMARK    5  A    between atoms: C_7  and  C_8 
REMARK    6  A    between atoms: C_8  and  C_9 
REMARK    7  A    between atoms: C_9  and  O_11 
REMARK    8  A    between atoms: C_28  and  C_29 
REMARK    9  A    between atoms: C_29  and  C_30 
REMARK   10  A    between atoms: C_30  and  O_32 
REMARK   11  A    between atoms: C_33  and  C_34 
REMARK   12  A    between atoms: C_34  and  C_35 
REMARK   13  A    between atoms: C_35  and  C_36 
REMARK   14  A    between atoms: C_36  and  O_38 
REMARK   15  A    between atoms: C_39  and  C_40 
REMARK   16  A    between atoms: C_40  and  C_41 
REMARK   17  A    between atoms: C_41  and  C_42 
REMARK   18  A    between atoms: C_42  and  O_44 
REMARK   19  A    between atoms: C_45  and  C_46 
REMARK   20  A    between atoms: C_46  and  C_47 
REMARK   21  A    between atoms: C_47  and  O_49 
REMARK   22  A    between atoms: C_50  and  C_51 
REMARK   23  A    between atoms: C_51  and  C_52 
REMARK   24  A    between atoms: C_52  and  O_54 
REMARK   25  A    between atoms: C_55  and  C_56 
REMARK   26  A    between atoms: C_56  and  C_57 
REMARK   27  A    between atoms: C_57  and  C_58 
REMARK   28  A    between atoms: C_58  and  O_60 
ROOT
ATOM      1  O   UNK d   0     -33.271   3.850   8.279  0.00  0.00    -0.650 OA
ATOM      2  C   UNK d   0     -33.667   3.577   7.124  0.00  0.00     0.139 C 
ENDROOT
BRANCH   2   3
ATOM      3  O   UNK d   0     -33.803   2.261   6.752  0.00  0.00    -0.776 OA
ATOM      4  H   UNK d   0     -33.664   1.969   5.783  0.00  0.00     0.167 HD
ENDBRANCH   2   3
BRANCH   2   5
ATOM      5  C   UNK d   0     -33.986   4.671   6.163  0.00  0.00     0.115 C 
BRANCH   5   6
ATOM      6  C   UNK d   0     -33.058   4.608   4.980  0.00  0.00     0.052 C 
BRANCH   6   7
ATOM      7  C   UNK d   0     -32.207   5.848   4.843  0.00  0.00    -0.020 A 
ATOM      8  C   UNK d   0     -30.914   5.952   5.013  0.00  0.00    -0.011 A 
ATOM      9  C   UNK d   0     -30.544   7.338   4.781  0.00  0.00     0.067 A 
ATOM     10  C   UNK d   0     -29.354   8.083   4.783  0.00  0.00     0.062 C 
ATOM     11  N   UNK d   0     -31.676   8.010   4.482  0.00  0.00    -0.248 NA
ATOM     12  C   UNK d   0     -29.157   9.365   4.260  0.00  0.00     0.041 A 
ATOM     13  N   UNK d   0     -29.916  10.475   4.324  0.00  0.00    -0.355 N 
ATOM     14  C   UNK d   0     -28.018   9.611   3.472  0.00  0.00    -0.022 A 
ATOM     15  C   UNK d   0     -29.293  11.416   3.590  0.00  0.00     0.042 A 
ATOM     16  H   UNK d   0     -30.865  10.597   4.892  0.00  0.00     0.166 HD
ATOM     17  C   UNK d   0     -29.651  12.753   3.324  0.00  0.00     0.062 C 
ATOM     18  C   UNK d   0     -28.099  10.911   3.040  0.00  0.00    -0.013 A 
ATOM     19  C   UNK d   0     -30.874  13.264   2.973  0.00  0.00     0.067 A 
ATOM     20  N   UNK d   0     -31.925  12.446   3.079  0.00  0.00    -0.248 NA
ATOM     21  C   UNK d   0     -31.370  14.534   2.469  0.00  0.00    -0.011 A 
ATOM     22  C   UNK d   0     -33.071  13.089   2.681  0.00  0.00     0.066 A 
ATOM     23  C   UNK d   0     -34.249  12.363   2.777  0.00  0.00     0.062 C 
ATOM     24  C   UNK d   0     -32.656  14.424   2.296  0.00  0.00    -0.020 A 
ATOM     25  C   UNK d   0     -34.428  11.081   3.317  0.00  0.00     0.041 A 
ATOM     26  N   UNK d   0     -33.681   9.973   3.241  0.00  0.00    -0.355 N 
ATOM     27  C   UNK d   0     -35.570  10.836   4.112  0.00  0.00    -0.022 A 
ATOM     28  C   UNK d   0     -34.305   9.030   3.965  0.00  0.00     0.042 A 
ATOM     29  H   UNK d   0     -32.734   9.849   2.661  0.00  0.00     0.166 HD
ATOM     30  C   UNK d   0     -33.965   7.695   4.230  0.00  0.00     0.062 C 
ATOM     31  C   UNK d   0     -35.500   9.542   4.526  0.00  0.00    -0.013 A 
ATOM     32  C   UNK d   0     -32.712   7.170   4.501  0.00  0.00     0.066 A 
BRANCH   8  33
ATOM     33  C   UNK d   0     -29.980   4.871   5.379  0.00  0.00     0.151 C 
BRANCH  33  34
ATOM     34  C   UNK d   0     -29.644   4.868   6.814  0.00  0.00     0.143 C 
ATOM     35  O   UNK d   0     -28.651   5.476   7.236  0.00  0.00    -0.650 OA
BRANCH  34  36
ATOM     36  O   UNK d   0     -30.447   4.179   7.694  0.00  0.00    -0.776 OA
ATOM     37  H   UNK d   0     -30.975   3.348   7.396  0.00  0.00     0.167 HD
ENDBRANCH  34  36
ENDBRANCH  33  34
ENDBRANCH   8  33
BRANCH  31  38
ATOM     38  C   UNK d   0     -36.498   8.834   5.413  0.00  0.00     0.151 C 
BRANCH  38  39
ATOM     39  C   UNK d   0     -37.139   9.724   6.358  0.00  0.00     0.143 C 
ATOM     40  O   UNK d   0     -38.352   9.993   6.301  0.00  0.00    -0.650 OA
BRANCH  39  41
ATOM     41  O   UNK d   0     -36.382  10.306   7.374  0.00  0.00    -0.776 OA
ATOM     42  H   UNK d   0     -35.933   9.668   8.038  0.00  0.00     0.167 HD
ENDBRANCH  39  41
ENDBRANCH  38  39
ENDBRANCH  31  38
BRANCH  27  43
ATOM     43  C   UNK d   0     -36.698  11.767   4.480  0.00  0.00     0.052 C 
BRANCH  43  44
ATOM     44  C   UNK d   0     -37.530  12.179   3.309  0.00  0.00     0.115 C 
BRANCH  44  45
ATOM     45  C   UNK d   0     -38.819  12.676   3.858  0.00  0.00     0.139 C 
ATOM     46  O   UNK d   0     -39.166  13.851   3.582  0.00  0.00    -0.650 OA
BRANCH  45  47
ATOM     47  O   UNK d   0     -39.643  11.902   4.647  0.00  0.00    -0.776 OA
ATOM     48  H   UNK d   0     -40.546  12.241   5.015  0.00  0.00     0.167 HD
ENDBRANCH  45  47
ENDBRANCH  44  45
ENDBRANCH  43  44
ENDBRANCH  27  43
BRANCH  24  49
ATOM     49  C   UNK d   0     -33.565  15.487   1.835  0.00  0.00     0.052 C 
BRANCH  49  50
ATOM     50  C   UNK d   0     -33.929  15.275   0.388  0.00  0.00     0.115 C 
BRANCH  50  51
ATOM     51  C   UNK d   0     -33.943  16.449  -0.473  0.00  0.00     0.139 C 
ATOM     52  O   UNK d   0     -35.004  16.992  -0.861  0.00  0.00    -0.650 OA
BRANCH  51  53
ATOM     53  O   UNK d   0     -32.744  17.004  -0.896  0.00  0.00    -0.776 OA
ATOM     54  H   UNK d   0     -31.892  16.662  -0.488  0.00  0.00     0.167 HD
ENDBRANCH  51  53
ENDBRANCH  50  51
ENDBRANCH  49  50
ENDBRANCH  24  49
BRANCH  21  55
ATOM     55  C   UNK d   0     -30.508  15.727   2.217  0.00  0.00     0.151 C 
BRANCH  55  56
ATOM     56  C   UNK d   0     -29.737  15.597   0.971  0.00  0.00     0.143 C 
ATOM     57  O   UNK d   0     -28.726  14.874   0.875  0.00  0.00    -0.650 OA
BRANCH  56  58
ATOM     58  O   UNK d   0     -30.172  16.319  -0.139  0.00  0.00    -0.776 OA
ATOM     59  H   UNK d   0     -29.435  16.534  -0.835  0.00  0.00     0.167 HD
ENDBRANCH  56  58
ENDBRANCH  55  56
ENDBRANCH  21  55
BRANCH  18  60
ATOM     60  C   UNK d   0     -27.084  11.594   2.156  0.00  0.00     0.151 C 
BRANCH  60  61
ATOM     61  C   UNK d   0     -26.428  12.604   3.000  0.00  0.00     0.143 C 
ATOM     62  O   UNK d   0     -25.946  12.435   4.121  0.00  0.00    -0.650 OA
BRANCH  61  63
ATOM     63  O   UNK d   0     -26.355  13.902   2.440  0.00  0.00    -0.776 OA
ATOM     64  H   UNK d   0     -27.172  14.482   2.368  0.00  0.00     0.167 HD
ENDBRANCH  61  63
ENDBRANCH  60  61
ENDBRANCH  18  60
BRANCH  14  65
ATOM     65  C   UNK d   0     -26.822   8.749   3.180  0.00  0.00     0.052 C 
BRANCH  65  66
ATOM     66  C   UNK d   0     -26.995   7.907   1.966  0.00  0.00     0.115 C 
BRANCH  66  67
ATOM     67  C   UNK d   0     -27.217   6.495   2.105  0.00  0.00     0.139 C 
ATOM     68  O   UNK d   0     -26.208   5.703   2.018  0.00  0.00    -0.650 OA
BRANCH  67  69
ATOM     69  O   UNK d   0     -28.428   5.840   2.330  0.00  0.00    -0.776 OA
ATOM     70  H   UNK d   0     -29.157   6.396   2.801  0.00  0.00     0.167 HD
ENDBRANCH  67  69
ENDBRANCH  66  67
ENDBRANCH  65  66
ENDBRANCH  14  65
ENDBRANCH   6   7
ENDBRANCH   5   6
ENDBRANCH   2   5
TORSDOF 28
ENDMDL
MODEL 6
REMARK VINA RESULT:      -7.6      2.070      7.822
REMARK  28 active torsions:
REMARK  status: ('A' for Active; 'I' for Inactive)
REMARK    1  A    between atoms: C_2  and  O_3 
REMARK    2  A    between atoms: C_2  and  C_4 
REMARK    3  A    between atoms: C_4  and  C_5 
REMARK    4  A    between atoms: C_5  and  C_6 
REMARK    5  A    between atoms: C_7  and  C_8 
REMARK    6  A    between atoms: C_8  and  C_9 
REMARK    7  A    between atoms: C_9  and  O_11 
REMARK    8  A    between atoms: C_28  and  C_29 
REMARK    9  A    between atoms: C_29  and  C_30 
REMARK   10  A    between atoms: C_30  and  O_32 
REMARK   11  A    between atoms: C_33  and  C_34 
REMARK   12  A    between atoms: C_34  and  C_35 
REMARK   13  A    between atoms: C_35  and  C_36 
REMARK   14  A    between atoms: C_36  and  O_38 
REMARK   15  A    between atoms: C_39  and  C_40 
REMARK   16  A    between atoms: C_40  and  C_41 
REMARK   17  A    between atoms: C_41  and  C_42 
REMARK   18  A    between atoms: C_42  and  O_44 
REMARK   19  A    between atoms: C_45  and  C_46 
REMARK   20  A    between atoms: C_46  and  C_47 
REMARK   21  A    between atoms: C_47  and  O_49 
REMARK   22  A    between atoms: C_50  and  C_51 
REMARK   23  A    between atoms: C_51  and  C_52 
REMARK   24  A    between atoms: C_52  and  O_54 
REMARK   25  A    between atoms: C_55  and  C_56 
REMARK   26  A    between atoms: C_56  and  C_57 
REMARK   27  A    between atoms: C_57  and  C_58 
REMARK   28  A    between atoms: C_58  and  O_60 
ROOT
ATOM      1  O   UNK d   0     -16.804  23.597  24.719  0.00  0.00    -0.650 OA
ATOM      2  C   UNK d   0     -17.742  23.246  23.969  0.00  0.00     0.139 C 
ENDROOT
BRANCH   2   3
ATOM      3  O   UNK d   0     -18.008  21.908  23.805  0.00  0.00    -0.776 OA
ATOM      4  H   UNK d   0     -17.253  21.233  23.665  0.00  0.00     0.167 HD
ENDBRANCH   2   3
BRANCH   2   5
ATOM      5  C   UNK d   0     -18.560  24.273  23.263  0.00  0.00     0.115 C 
BRANCH   5   6
ATOM      6  C   UNK d   0     -19.975  23.787  23.103  0.00  0.00     0.052 C 
BRANCH   6   7
ATOM      7  C   UNK d   0     -20.540  24.085  21.735  0.00  0.00    -0.020 A 
ATOM      8  C   UNK d   0     -20.699  23.254  20.738  0.00  0.00    -0.011 A 
ATOM      9  C   UNK d   0     -21.270  23.996  19.626  0.00  0.00     0.067 A 
ATOM     10  C   UNK d   0     -21.688  23.699  18.319  0.00  0.00     0.062 C 
ATOM     11  N   UNK d   0     -21.420  25.274  20.032  0.00  0.00    -0.248 NA
ATOM     12  C   UNK d   0     -22.477  24.495  17.481  0.00  0.00     0.041 A 
ATOM     13  N   UNK d   0     -22.450  25.818  17.232  0.00  0.00    -0.355 N 
ATOM     14  C   UNK d   0     -23.540  23.898  16.780  0.00  0.00    -0.022 A 
ATOM     15  C   UNK d   0     -23.474  26.077  16.397  0.00  0.00     0.042 A 
ATOM     16  H   UNK d   0     -21.710  26.551  17.623  0.00  0.00     0.166 HD
ATOM     17  C   UNK d   0     -23.899  27.292  15.823  0.00  0.00     0.062 C 
ATOM     18  C   UNK d   0     -24.181  24.898  16.091  0.00  0.00    -0.013 A 
ATOM     19  C   UNK d   0     -24.047  28.521  16.414  0.00  0.00     0.067 A 
ATOM     20  N   UNK d   0     -23.545  28.664  17.644  0.00  0.00    -0.248 NA
ATOM     21  C   UNK d   0     -24.653  29.790  16.049  0.00  0.00    -0.011 A 
ATOM     22  C   UNK d   0     -23.780  29.935  18.109  0.00  0.00     0.066 A 
ATOM     23  C   UNK d   0     -23.276  30.234  19.366  0.00  0.00     0.062 C 
ATOM     24  C   UNK d   0     -24.498  30.612  17.047  0.00  0.00    -0.020 A 
ATOM     25  C   UNK d   0     -22.474  29.425  20.187  0.00  0.00     0.041 A 
ATOM     26  N   UNK d   0     -22.510  28.112  20.446  0.00  0.00    -0.355 N 
ATOM     27  C   UNK d   0     -21.404  30.023  20.886  0.00  0.00    -0.022 A 
ATOM     28  C   UNK d   0     -21.495  27.852  21.285  0.00  0.00     0.042 A 
ATOM     29  H   UNK d   0     -23.261  27.379  20.061  0.00  0.00     0.166 HD
ATOM     30  C   UNK d   0     -21.066  26.651  21.871  0.00  0.00     0.062 C 
ATOM     31  C   UNK d   0     -20.779  29.036  21.583  0.00  0.00    -0.013 A 
ATOM     32  C   UNK d   0     -21.000  25.393  21.292  0.00  0.00     0.066 A 
BRANCH   8  33
ATOM     33  C   UNK d   0     -20.362  21.818  20.720  0.00  0.00     0.151 C 
BRANCH  33  34
ATOM     34  C   UNK d   0     -19.027  21.553  20.153  0.00  0.00     0.143 C 
ATOM     35  O   UNK d   0     -18.828  21.627  18.933  0.00  0.00    -0.650 OA
BRANCH  34  36
ATOM     36  O   UNK d   0     -17.991  21.216  20.994  0.00  0.00    -0.776 OA
ATOM     37  H   UNK d   0     -17.939  21.588  21.952  0.00  0.00     0.167 HD
ENDBRANCH  34  36
ENDBRANCH  33  34
ENDBRANCH   8  33
BRANCH  31  38
ATOM     38  C   UNK d   0     -19.566  29.200  22.469  0.00  0.00     0.151 C 
BRANCH  38  39
ATOM     39  C   UNK d   0     -18.361  28.657  21.879  0.00  0.00     0.143 C 
ATOM     40  O   UNK d   0     -17.872  27.573  22.244  0.00  0.00    -0.650 OA
BRANCH  39  41
ATOM     41  O   UNK d   0     -17.716  29.363  20.864  0.00  0.00    -0.776 OA
ATOM     42  H   UNK d   0     -16.857  29.860  21.121  0.00  0.00     0.167 HD
ENDBRANCH  39  41
ENDBRANCH  38  39
ENDBRANCH  31  38
BRANCH  27  43
ATOM     43  C   UNK d   0     -20.967  31.467  20.917  0.00  0.00     0.052 C 
BRANCH  43  44
ATOM     44  C   UNK d   0     -20.494  31.969  19.591  0.00  0.00     0.115 C 
BRANCH  44  45
ATOM     45  C   UNK d   0     -21.121  33.302  19.394  0.00  0.00     0.139 C 
ATOM     46  O   UNK d   0     -22.090  33.615  20.129  0.00  0.00    -0.650 OA
BRANCH  45  47
ATOM     47  O   UNK d   0     -20.682  34.202  18.448  0.00  0.00    -0.776 OA
ATOM     48  H   UNK d   0     -19.899  34.854  18.616  0.00  0.00     0.167 HD
ENDBRANCH  45  47
ENDBRANCH  44  45
ENDBRANCH  43  44
ENDBRANCH  27  43
BRANCH  24  49
ATOM     49  C   UNK d   0     -24.928  32.020  17.088  0.00  0.00     0.052 C 
BRANCH  49  50
ATOM     50  C   UNK d   0     -23.730  32.933  17.140  0.00  0.00     0.115 C 
BRANCH  50  51
ATOM     51  C   UNK d   0     -23.504  33.799  15.991  0.00  0.00     0.139 C 
ATOM     52  O   UNK d   0     -22.498  34.541  15.891  0.00  0.00    -0.650 OA
BRANCH  51  53
ATOM     53  O   UNK d   0     -24.426  33.822  14.956  0.00  0.00    -0.776 OA
ATOM     54  H   UNK d   0     -24.797  34.710  14.669  0.00  0.00     0.167 HD
ENDBRANCH  51  53
ENDBRANCH  50  51
ENDBRANCH  49  50
ENDBRANCH  24  49
BRANCH  21  55
ATOM     55  C   UNK d   0     -25.321  30.050  14.740  0.00  0.00     0.151 C 
BRANCH  55  56
ATOM     56  C   UNK d   0     -26.640  29.405  14.656  0.00  0.00     0.143 C 
ATOM     57  O   UNK d   0     -26.906  28.519  13.819  0.00  0.00    -0.650 OA
BRANCH  56  58
ATOM     58  O   UNK d   0     -27.622  29.813  15.558  0.00  0.00    -0.776 OA
ATOM     59  H   UNK d   0     -27.965  29.071  16.194  0.00  0.00     0.167 HD
ENDBRANCH  56  58
ENDBRANCH  55  56
ENDBRANCH  21  55
BRANCH  18  60
ATOM     60  C   UNK d   0     -25.390  24.704  15.210  0.00  0.00     0.151 C 
BRANCH  60  61
ATOM     61  C   UNK d   0     -24.931  24.951  13.835  0.00  0.00     0.143 C 
ATOM     62  O   UNK d   0     -23.930  24.484  13.292  0.00  0.00    -0.650 OA
BRANCH  61  63
ATOM     63  O   UNK d   0     -25.747  25.822  13.075  0.00  0.00    -0.776 OA
ATOM     64  H   UNK d   0     -25.384  26.305  12.272  0.00  0.00     0.167 HD
ENDBRANCH  61  63
ENDBRANCH  60  61
ENDBRANCH  18  60
BRANCH  14  65
ATOM     65  C   UNK d   0     -23.933  22.455  16.635  0.00  0.00     0.052 C 
BRANCH  65  66
ATOM     66  C   UNK d   0     -22.909  21.643  15.924  0.00  0.00     0.115 C 
BRANCH  66  67
ATOM     67  C   UNK d   0     -23.086  21.335  14.533  0.00  0.00     0.139 C 
ATOM     68  O   UNK d   0     -23.707  20.254  14.218  0.00  0.00    -0.650 OA
BRANCH  67  69
ATOM     69  O   UNK d   0     -22.659  22.078  13.433  0.00  0.00    -0.776 OA
ATOM     70  H   UNK d   0     -22.597  21.564  12.542  0.00  0.00     0.167 HD
ENDBRANCH  67  69
ENDBRANCH  66  67
ENDBRANCH  65  66
ENDBRANCH  14  65
ENDBRANCH   6   7
ENDBRANCH   5   6
ENDBRANCH   2   5
TORSDOF 28
ENDMDL
MODEL 7
REMARK VINA RESULT:      -7.4     20.593     25.605
REMARK  28 active torsions:
REMARK  status: ('A' for Active; 'I' for Inactive)
REMARK    1  A    between atoms: C_2  and  O_3 
REMARK    2  A    between atoms: C_2  and  C_4 
REMARK    3  A    between atoms: C_4  and  C_5 
REMARK    4  A    between atoms: C_5  and  C_6 
REMARK    5  A    between atoms: C_7  and  C_8 
REMARK    6  A    between atoms: C_8  and  C_9 
REMARK    7  A    between atoms: C_9  and  O_11 
REMARK    8  A    between atoms: C_28  and  C_29 
REMARK    9  A    between atoms: C_29  and  C_30 
REMARK   10  A    between atoms: C_30  and  O_32 
REMARK   11  A    between atoms: C_33  and  C_34 
REMARK   12  A    between atoms: C_34  and  C_35 
REMARK   13  A    between atoms: C_35  and  C_36 
REMARK   14  A    between atoms: C_36  and  O_38 
REMARK   15  A    between atoms: C_39  and  C_40 
REMARK   16  A    between atoms: C_40  and  C_41 
REMARK   17  A    between atoms: C_41  and  C_42 
REMARK   18  A    between atoms: C_42  and  O_44 
REMARK   19  A    between atoms: C_45  and  C_46 
REMARK   20  A    between atoms: C_46  and  C_47 
REMARK   21  A    between atoms: C_47  and  O_49 
REMARK   22  A    between atoms: C_50  and  C_51 
REMARK   23  A    between atoms: C_51  and  C_52 
REMARK   24  A    between atoms: C_52  and  O_54 
REMARK   25  A    between atoms: C_55  and  C_56 
REMARK   26  A    between atoms: C_56  and  C_57 
REMARK   27  A    between atoms: C_57  and  C_58 
REMARK   28  A    between atoms: C_58  and  O_60 
ROOT
ATOM      1  O   UNK d   0     -29.763   3.476   9.336  0.00  0.00    -0.650 OA
ATOM      2  C   UNK d   0     -30.868   4.051   9.449  0.00  0.00     0.139 C 
ENDROOT
BRANCH   2   3
ATOM      3  O   UNK d   0     -31.849   3.479  10.223  0.00  0.00    -0.776 OA
ATOM      4  H   UNK d   0     -31.724   2.551  10.632  0.00  0.00     0.167 HD
ENDBRANCH   2   3
BRANCH   2   5
ATOM      5  C   UNK d   0     -31.115   5.344   8.749  0.00  0.00     0.115 C 
BRANCH   5   6
ATOM      6  C   UNK d   0     -31.161   5.127   7.261  0.00  0.00     0.052 C 
BRANCH   6   7
ATOM      7  C   UNK d   0     -32.038   6.131   6.554  0.00  0.00    -0.020 A 
ATOM      8  C   UNK d   0     -33.342   6.119   6.450  0.00  0.00    -0.011 A 
ATOM      9  C   UNK d   0     -33.738   7.282   5.674  0.00  0.00     0.067 A 
ATOM     10  C   UNK d   0     -34.948   7.843   5.236  0.00  0.00     0.062 C 
ATOM     11  N   UNK d   0     -32.610   7.944   5.341  0.00  0.00    -0.248 NA
ATOM     12  C   UNK d   0     -35.150   9.131   4.729  0.00  0.00     0.041 A 
ATOM     13  N   UNK d   0     -34.431   9.863   3.856  0.00  0.00    -0.355 N 
ATOM     14  C   UNK d   0     -36.241   9.885   5.199  0.00  0.00    -0.022 A 
ATOM     15  C   UNK d   0     -35.033  11.064   3.767  0.00  0.00     0.042 A 
ATOM     16  H   UNK d   0     -33.527   9.531   3.300  0.00  0.00     0.166 HD
ATOM     17  C   UNK d   0     -34.699  12.198   3.000  0.00  0.00     0.062 C 
ATOM     18  C   UNK d   0     -36.171  11.116   4.594  0.00  0.00    -0.013 A 
ATOM     19  C   UNK d   0     -33.471  12.779   2.809  0.00  0.00     0.067 A 
ATOM     20  N   UNK d   0     -32.405  12.094   3.231  0.00  0.00    -0.248 NA
ATOM     21  C   UNK d   0     -32.982  14.028   2.249  0.00  0.00    -0.011 A 
ATOM     22  C   UNK d   0     -31.255  12.804   2.988  0.00  0.00     0.066 A 
ATOM     23  C   UNK d   0     -30.064  12.188   3.343  0.00  0.00     0.062 C 
ATOM     24  C   UNK d   0     -31.685  14.038   2.360  0.00  0.00    -0.020 A 
ATOM     25  C   UNK d   0     -29.882  10.888   3.840  0.00  0.00     0.041 A 
ATOM     26  N   UNK d   0     -30.588  10.167   4.718  0.00  0.00    -0.355 N 
ATOM     27  C   UNK d   0     -28.789  10.131   3.364  0.00  0.00    -0.022 A 
ATOM     28  C   UNK d   0     -29.985   8.971   4.816  0.00  0.00     0.042 A 
ATOM     29  H   UNK d   0     -31.490  10.506   5.284  0.00  0.00     0.166 HD
ATOM     30  C   UNK d   0     -30.301   7.838   5.581  0.00  0.00     0.062 C 
ATOM     31  C   UNK d   0     -28.847   8.917   3.976  0.00  0.00    -0.013 A 
ATOM     32  C   UNK d   0     -31.553   7.304   5.841  0.00  0.00     0.066 A 
BRANCH   8  33
ATOM     33  C   UNK d   0     -34.265   5.112   7.007  0.00  0.00     0.151 C 
BRANCH  33  34
ATOM     34  C   UNK d   0     -34.452   3.954   6.115  0.00  0.00     0.143 C 
ATOM     35  O   UNK d   0     -33.820   2.904   6.294  0.00  0.00    -0.650 OA
BRANCH  34  36
ATOM     36  O   UNK d   0     -35.342   4.044   5.069  0.00  0.00    -0.776 OA
ATOM     37  H   UNK d   0     -36.253   3.568   5.101  0.00  0.00     0.167 HD
ENDBRANCH  34  36
ENDBRANCH  33  34
ENDBRANCH   8  33
BRANCH  31  38
ATOM     38  C   UNK d   0     -27.889   7.767   3.768  0.00  0.00     0.151 C 
BRANCH  38  39
ATOM     39  C   UNK d   0     -28.384   6.787   2.825  0.00  0.00     0.143 C 
ATOM     40  O   UNK d   0     -29.587   6.705   2.520  0.00  0.00    -0.650 OA
BRANCH  39  41
ATOM     41  O   UNK d   0     -27.492   5.897   2.228  0.00  0.00    -0.776 OA
ATOM     42  H   UNK d   0     -27.597   4.907   2.469  0.00  0.00     0.167 HD
ENDBRANCH  39  41
ENDBRANCH  38  39
ENDBRANCH  31  38
BRANCH  27  43
ATOM     43  C   UNK d   0     -27.717  10.513   2.375  0.00  0.00     0.052 C 
BRANCH  43  44
ATOM     44  C   UNK d   0     -28.051  10.137   0.967  0.00  0.00     0.115 C 
BRANCH  44  45
ATOM     45  C   UNK d   0     -27.134   9.028   0.596  0.00  0.00     0.139 C 
ATOM     46  O   UNK d   0     -27.609   8.055  -0.041  0.00  0.00    -0.650 OA
BRANCH  45  47
ATOM     47  O   UNK d   0     -25.794   9.028   0.915  0.00  0.00    -0.776 OA
ATOM     48  H   UNK d   0     -25.069   8.638   0.290  0.00  0.00     0.167 HD
ENDBRANCH  45  47
ENDBRANCH  44  45
ENDBRANCH  43  44
ENDBRANCH  27  43
BRANCH  24  49
ATOM     49  C   UNK d   0     -30.781  15.099   1.884  0.00  0.00     0.052 C 
BRANCH  49  50
ATOM     50  C   UNK d   0     -31.102  16.405   2.563  0.00  0.00     0.115 C 
BRANCH  50  51
ATOM     51  C   UNK d   0     -31.209  16.391   4.016  0.00  0.00     0.139 C 
ATOM     52  O   UNK d   0     -32.232  16.789   4.623  0.00  0.00    -0.650 OA
BRANCH  51  53
ATOM     53  O   UNK d   0     -30.148  15.926   4.777  0.00  0.00    -0.776 OA
ATOM     54  H   UNK d   0     -30.264  15.062   5.277  0.00  0.00     0.167 HD
ENDBRANCH  51  53
ENDBRANCH  50  51
ENDBRANCH  49  50
ENDBRANCH  24  49
BRANCH  21  55
ATOM     55  C   UNK d   0     -33.862  15.079   1.657  0.00  0.00     0.151 C 
BRANCH  55  56
ATOM     56  C   UNK d   0     -34.084  14.865   0.218  0.00  0.00     0.143 C 
ATOM     57  O   UNK d   0     -34.547  13.803  -0.243  0.00  0.00    -0.650 OA
BRANCH  56  58
ATOM     58  O   UNK d   0     -33.759  15.906  -0.650  0.00  0.00    -0.776 OA
ATOM     59  H   UNK d   0     -33.615  15.622  -1.636  0.00  0.00     0.167 HD
ENDBRANCH  56  58
ENDBRANCH  55  56
ENDBRANCH  21  55
BRANCH  18  60
ATOM     60  C   UNK d   0     -37.145  12.245   4.819  0.00  0.00     0.151 C 
BRANCH  60  61
ATOM     61  C   UNK d   0     -37.778  12.499   3.516  0.00  0.00     0.143 C 
ATOM     62  O   UNK d   0     -37.339  13.196   2.601  0.00  0.00    -0.650 OA
BRANCH  61  63
ATOM     63  O   UNK d   0     -39.025  11.859   3.317  0.00  0.00    -0.776 OA
ATOM     64  H   UNK d   0     -39.851  12.172   3.796  0.00  0.00     0.167 HD
ENDBRANCH  61  63
ENDBRANCH  60  61
ENDBRANCH  18  60
BRANCH  14  65
ATOM     65  C   UNK d   0     -37.387   9.500   6.090  0.00  0.00     0.052 C 
BRANCH  65  66
ATOM     66  C   UNK d   0     -38.490  10.499   6.084  0.00  0.00     0.115 C 
BRANCH  66  67
ATOM     67  C   UNK d   0     -39.854  10.053   6.101  0.00  0.00     0.139 C 
ATOM     68  O   UNK d   0     -40.776  10.885   5.769  0.00  0.00    -0.650 OA
BRANCH  67  69
ATOM     69  O   UNK d   0     -40.334   8.789   6.443  0.00  0.00    -0.776 OA
ATOM     70  H   UNK d   0     -39.783   8.275   7.145  0.00  0.00     0.167 HD
ENDBRANCH  67  69
ENDBRANCH  66  67
ENDBRANCH  65  66
ENDBRANCH  14  65
ENDBRANCH   6   7
ENDBRANCH   5   6
ENDBRANCH   2   5
TORSDOF 28
ENDMDL
MODEL 8
REMARK VINA RESULT:      -7.4      1.538      2.311
REMARK  28 active torsions:
REMARK  status: ('A' for Active; 'I' for Inactive)
REMARK    1  A    between atoms: C_2  and  O_3 
REMARK    2  A    between atoms: C_2  and  C_4 
REMARK    3  A    between atoms: C_4  and  C_5 
REMARK    4  A    between atoms: C_5  and  C_6 
REMARK    5  A    between atoms: C_7  and  C_8 
REMARK    6  A    between atoms: C_8  and  C_9 
REMARK    7  A    between atoms: C_9  and  O_11 
REMARK    8  A    between atoms: C_28  and  C_29 
REMARK    9  A    between atoms: C_29  and  C_30 
REMARK   10  A    between atoms: C_30  and  O_32 
REMARK   11  A    between atoms: C_33  and  C_34 
REMARK   12  A    between atoms: C_34  and  C_35 
REMARK   13  A    between atoms: C_35  and  C_36 
REMARK   14  A    between atoms: C_36  and  O_38 
REMARK   15  A    between atoms: C_39  and  C_40 
REMARK   16  A    between atoms: C_40  and  C_41 
REMARK   17  A    between atoms: C_41  and  C_42 
REMARK   18  A    between atoms: C_42  and  O_44 
REMARK   19  A    between atoms: C_45  and  C_46 
REMARK   20  A    between atoms: C_46  and  C_47 
REMARK   21  A    between atoms: C_47  and  O_49 
REMARK   22  A    between atoms: C_50  and  C_51 
REMARK   23  A    between atoms: C_51  and  C_52 
REMARK   24  A    between atoms: C_52  and  O_54 
REMARK   25  A    between atoms: C_55  and  C_56 
REMARK   26  A    between atoms: C_56  and  C_57 
REMARK   27  A    between atoms: C_57  and  C_58 
REMARK   28  A    between atoms: C_58  and  O_60 
ROOT
ATOM      1  O   UNK d   0     -19.698  26.152  23.077  0.00  0.00    -0.650 OA
ATOM      2  C   UNK d   0     -18.739  26.953  23.109  0.00  0.00     0.139 C 
ENDROOT
BRANCH   2   3
ATOM      3  O   UNK d   0     -18.645  27.851  24.145  0.00  0.00    -0.776 OA
ATOM      4  H   UNK d   0     -17.914  27.763  24.854  0.00  0.00     0.167 HD
ENDBRANCH   2   3
BRANCH   2   5
ATOM      5  C   UNK d   0     -17.710  26.932  22.030  0.00  0.00     0.115 C 
BRANCH   5   6
ATOM      6  C   UNK d   0     -17.739  28.225  21.262  0.00  0.00     0.052 C 
BRANCH   6   7
ATOM      7  C   UNK d   0     -19.097  28.520  20.671  0.00  0.00    -0.020 A 
ATOM      8  C   UNK d   0     -19.849  29.570  20.884  0.00  0.00    -0.011 A 
ATOM      9  C   UNK d   0     -21.067  29.409  20.108  0.00  0.00     0.067 A 
ATOM     10  C   UNK d   0     -22.231  30.161  19.884  0.00  0.00     0.062 C 
ATOM     11  N   UNK d   0     -20.974  28.231  19.457  0.00  0.00    -0.248 NA
ATOM     12  C   UNK d   0     -23.182  29.968  18.876  0.00  0.00     0.041 A 
ATOM     13  N   UNK d   0     -23.747  28.846  18.392  0.00  0.00    -0.355 N 
ATOM     14  C   UNK d   0     -23.644  31.084  18.154  0.00  0.00    -0.022 A 
ATOM     15  C   UNK d   0     -24.549  29.219  17.377  0.00  0.00     0.042 A 
ATOM     16  H   UNK d   0     -23.597  27.812  18.774  0.00  0.00     0.166 HD
ATOM     17  C   UNK d   0     -25.372  28.449  16.532  0.00  0.00     0.062 C 
ATOM     18  C   UNK d   0     -24.510  30.616  17.198  0.00  0.00    -0.013 A 
ATOM     19  C   UNK d   0     -25.088  27.267  15.897  0.00  0.00     0.067 A 
ATOM     20  N   UNK d   0     -23.968  26.638  16.261  0.00  0.00    -0.248 NA
ATOM     21  C   UNK d   0     -25.710  26.465  14.856  0.00  0.00    -0.011 A 
ATOM     22  C   UNK d   0     -23.811  25.484  15.532  0.00  0.00     0.066 A 
ATOM     23  C   UNK d   0     -22.701  24.710  15.836  0.00  0.00     0.062 C 
ATOM     24  C   UNK d   0     -24.955  25.426  14.644  0.00  0.00    -0.020 A 
ATOM     25  C   UNK d   0     -21.764  24.913  16.861  0.00  0.00     0.041 A 
ATOM     26  N   UNK d   0     -21.191  26.028  17.332  0.00  0.00    -0.355 N 
ATOM     27  C   UNK d   0     -21.305  23.793  17.588  0.00  0.00    -0.022 A 
ATOM     28  C   UNK d   0     -20.384  25.657  18.339  0.00  0.00     0.042 A 
ATOM     29  H   UNK d   0     -21.335  27.065  16.941  0.00  0.00     0.166 HD
ATOM     30  C   UNK d   0     -19.554  26.411  19.182  0.00  0.00     0.062 C 
ATOM     31  C   UNK d   0     -20.432  24.255  18.525  0.00  0.00    -0.013 A 
ATOM     32  C   UNK d   0     -19.812  27.647  19.753  0.00  0.00     0.066 A 
BRANCH   8  33
ATOM     33  C   UNK d   0     -19.539  30.719  21.755  0.00  0.00     0.151 C 
BRANCH  33  34
ATOM     34  C   UNK d   0     -20.378  30.759  22.967  0.00  0.00     0.143 C 
ATOM     35  O   UNK d   0     -20.898  29.727  23.415  0.00  0.00    -0.650 OA
BRANCH  34  36
ATOM     36  O   UNK d   0     -20.585  31.960  23.605  0.00  0.00    -0.776 OA
ATOM     37  H   UNK d   0     -20.611  32.845  23.082  0.00  0.00     0.167 HD
ENDBRANCH  34  36
ENDBRANCH  33  34
ENDBRANCH   8  33
BRANCH  31  38
ATOM     38  C   UNK d   0     -19.696  23.419  19.546  0.00  0.00     0.151 C 
BRANCH  38  39
ATOM     39  C   UNK d   0     -20.246  23.548  20.879  0.00  0.00     0.143 C 
ATOM     40  O   UNK d   0     -21.459  23.732  21.084  0.00  0.00    -0.650 OA
BRANCH  39  41
ATOM     41  O   UNK d   0     -19.397  23.464  21.983  0.00  0.00    -0.776 OA
ATOM     42  H   UNK d   0     -18.759  24.252  22.135  0.00  0.00     0.167 HD
ENDBRANCH  39  41
ENDBRANCH  38  39
ENDBRANCH  31  38
BRANCH  27  43
ATOM     43  C   UNK d   0     -21.656  22.336  17.426  0.00  0.00     0.052 C 
BRANCH  43  44
ATOM     44  C   UNK d   0     -23.119  22.062  17.558  0.00  0.00     0.115 C 
BRANCH  44  45
ATOM     45  C   UNK d   0     -23.414  22.022  19.014  0.00  0.00     0.139 C 
ATOM     46  O   UNK d   0     -24.365  22.721  19.445  0.00  0.00    -0.650 OA
BRANCH  45  47
ATOM     47  O   UNK d   0     -22.696  21.250  19.900  0.00  0.00    -0.776 OA
ATOM     48  H   UNK d   0     -22.903  20.252  20.070  0.00  0.00     0.167 HD
ENDBRANCH  45  47
ENDBRANCH  44  45
ENDBRANCH  43  44
ENDBRANCH  27  43
BRANCH  24  49
ATOM     49  C   UNK d   0     -25.229  24.331  13.697  0.00  0.00     0.052 C 
BRANCH  49  50
ATOM     50  C   UNK d   0     -24.984  22.997  14.352  0.00  0.00     0.115 C 
BRANCH  50  51
ATOM     51  C   UNK d   0     -23.928  22.164  13.791  0.00  0.00     0.139 C 
ATOM     52  O   UNK d   0     -23.787  20.956  14.093  0.00  0.00    -0.650 OA
BRANCH  51  53
ATOM     53  O   UNK d   0     -23.032  22.711  12.886  0.00  0.00    -0.776 OA
ATOM     54  H   UNK d   0     -23.174  23.661  12.590  0.00  0.00     0.167 HD
ENDBRANCH  51  53
ENDBRANCH  50  51
ENDBRANCH  49  50
ENDBRANCH  24  49
BRANCH  21  55
ATOM     55  C   UNK d   0     -26.995  26.819  14.184  0.00  0.00     0.151 C 
BRANCH  55  56
ATOM     56  C   UNK d   0     -26.847  27.973  13.284  0.00  0.00     0.143 C 
ATOM     57  O   UNK d   0     -27.252  29.115  13.579  0.00  0.00    -0.650 OA
BRANCH  56  58
ATOM     58  O   UNK d   0     -26.227  27.762  12.054  0.00  0.00    -0.776 OA
ATOM     59  H   UNK d   0     -26.340  26.807  11.667  0.00  0.00     0.167 HD
ENDBRANCH  56  58
ENDBRANCH  55  56
ENDBRANCH  21  55
BRANCH  18  60
ATOM     60  C   UNK d   0     -25.234  31.475  16.191  0.00  0.00     0.151 C 
BRANCH  60  61
ATOM     61  C   UNK d   0     -24.317  31.621  15.050  0.00  0.00     0.143 C 
ATOM     62  O   UNK d   0     -23.818  30.717  14.380  0.00  0.00    -0.650 OA
BRANCH  61  63
ATOM     63  O   UNK d   0     -23.990  32.954  14.707  0.00  0.00    -0.776 OA
ATOM     64  H   UNK d   0     -23.351  33.492  15.266  0.00  0.00     0.167 HD
ENDBRANCH  61  63
ENDBRANCH  60  61
ENDBRANCH  18  60
BRANCH  14  65
ATOM     65  C   UNK d   0     -23.406  32.553  18.361  0.00  0.00     0.052 C 
BRANCH  65  66
ATOM     66  C   UNK d   0     -21.966  32.922  18.315  0.00  0.00     0.115 C 
BRANCH  66  67
ATOM     67  C   UNK d   0     -21.536  34.012  17.487  0.00  0.00     0.139 C 
ATOM     68  O   UNK d   0     -22.006  34.098  16.293  0.00  0.00    -0.650 OA
BRANCH  67  69
ATOM     69  O   UNK d   0     -20.643  35.032  17.813  0.00  0.00    -0.776 OA
ATOM     70  H   UNK d   0     -19.852  35.159  17.166  0.00  0.00     0.167 HD
ENDBRANCH  67  69
ENDBRANCH  66  67
ENDBRANCH  65  66
ENDBRANCH  14  65
ENDBRANCH   6   7
ENDBRANCH   5   6
ENDBRANCH   2   5
TORSDOF 28
ENDMDL
MODEL 9
REMARK VINA RESULT:      -7.3      6.117     11.446
REMARK  28 active torsions:
REMARK  status: ('A' for Active; 'I' for Inactive)
REMARK    1  A    between atoms: C_2  and  O_3 
REMARK    2  A    between atoms: C_2  and  C_4 
REMARK    3  A    between atoms: C_4  and  C_5 
REMARK    4  A    between atoms: C_5  and  C_6 
REMARK    5  A    between atoms: C_7  and  C_8 
REMARK    6  A    between atoms: C_8  and  C_9 
REMARK    7  A    between atoms: C_9  and  O_11 
REMARK    8  A    between atoms: C_28  and  C_29 
REMARK    9  A    between atoms: C_29  and  C_30 
REMARK   10  A    between atoms: C_30  and  O_32 
REMARK   11  A    between atoms: C_33  and  C_34 
REMARK   12  A    between atoms: C_34  and  C_35 
REMARK   13  A    between atoms: C_35  and  C_36 
REMARK   14  A    between atoms: C_36  and  O_38 
REMARK   15  A    between atoms: C_39  and  C_40 
REMARK   16  A    between atoms: C_40  and  C_41 
REMARK   17  A    between atoms: C_41  and  C_42 
REMARK   18  A    between atoms: C_42  and  O_44 
REMARK   19  A    between atoms: C_45  and  C_46 
REMARK   20  A    between atoms: C_46  and  C_47 
REMARK   21  A    between atoms: C_47  and  O_49 
REMARK   22  A    between atoms: C_50  and  C_51 
REMARK   23  A    between atoms: C_51  and  C_52 
REMARK   24  A    between atoms: C_52  and  O_54 
REMARK   25  A    between atoms: C_55  and  C_56 
REMARK   26  A    between atoms: C_56  and  C_57 
REMARK   27  A    between atoms: C_57  and  C_58 
REMARK   28  A    between atoms: C_58  and  O_60 
ROOT
ATOM      1  O   UNK d   0     -19.222  19.040  23.858  0.00  0.00    -0.650 OA
ATOM      2  C   UNK d   0     -18.571  18.142  23.280  0.00  0.00     0.139 C 
ENDROOT
BRANCH   2   3
ATOM      3  O   UNK d   0     -17.261  18.375  22.936  0.00  0.00    -0.776 OA
ATOM      4  H   UNK d   0     -17.006  18.646  21.984  0.00  0.00     0.167 HD
ENDBRANCH   2   3
BRANCH   2   5
ATOM      5  C   UNK d   0     -19.214  16.834  22.968  0.00  0.00     0.115 C 
BRANCH   5   6
ATOM      6  C   UNK d   0     -20.706  16.939  23.130  0.00  0.00     0.052 C 
BRANCH   6   7
ATOM      7  C   UNK d   0     -21.439  16.884  21.811  0.00  0.00    -0.020 A 
ATOM      8  C   UNK d   0     -21.994  15.840  21.249  0.00  0.00    -0.011 A 
ATOM      9  C   UNK d   0     -22.571  16.270  19.986  0.00  0.00     0.067 A 
ATOM     10  C   UNK d   0     -23.299  15.666  18.949  0.00  0.00     0.062 C 
ATOM     11  N   UNK d   0     -22.315  17.588  19.857  0.00  0.00    -0.248 NA
ATOM     12  C   UNK d   0     -24.016  16.308  17.933  0.00  0.00     0.041 A 
ATOM     13  N   UNK d   0     -23.712  17.377  17.172  0.00  0.00    -0.355 N 
ATOM     14  C   UNK d   0     -25.311  15.855  17.624  0.00  0.00    -0.022 A 
ATOM     15  C   UNK d   0     -24.784  17.618  16.395  0.00  0.00     0.042 A 
ATOM     16  H   UNK d   0     -22.751  17.937  17.172  0.00  0.00     0.166 HD
ATOM     17  C   UNK d   0     -24.999  18.613  15.420  0.00  0.00     0.062 C 
ATOM     18  C   UNK d   0     -25.807  16.685  16.649  0.00  0.00    -0.013 A 
ATOM     19  C   UNK d   0     -24.717  19.954  15.479  0.00  0.00     0.067 A 
ATOM     20  N   UNK d   0     -23.962  20.369  16.499  0.00  0.00    -0.248 NA
ATOM     21  C   UNK d   0     -25.050  21.127  14.688  0.00  0.00    -0.011 A 
ATOM     22  C   UNK d   0     -23.778  21.728  16.434  0.00  0.00     0.066 A 
ATOM     23  C   UNK d   0     -22.977  22.289  17.418  0.00  0.00     0.062 C 
ATOM     24  C   UNK d   0     -24.501  22.163  15.255  0.00  0.00    -0.020 A 
ATOM     25  C   UNK d   0     -22.255  21.626  18.422  0.00  0.00     0.041 A 
ATOM     26  N   UNK d   0     -22.563  20.573  19.188  0.00  0.00    -0.355 N 
ATOM     27  C   UNK d   0     -20.953  22.079  18.728  0.00  0.00    -0.022 A 
ATOM     28  C   UNK d   0     -21.499  20.335  19.971  0.00  0.00     0.042 A 
ATOM     29  H   UNK d   0     -23.533  20.017  19.195  0.00  0.00     0.166 HD
ATOM     30  C   UNK d   0     -21.275  19.356  20.951  0.00  0.00     0.062 C 
ATOM     31  C   UNK d   0     -20.467  21.267  19.707  0.00  0.00    -0.013 A 
ATOM     32  C   UNK d   0     -21.638  18.019  20.922  0.00  0.00     0.066 A 
BRANCH   8  33
ATOM     33  C   UNK d   0     -22.033  14.465  21.781  0.00  0.00     0.151 C 
BRANCH  33  34
ATOM     34  C   UNK d   0     -23.250  14.192  22.567  0.00  0.00     0.143 C 
ATOM     35  O   UNK d   0     -23.661  13.033  22.720  0.00  0.00    -0.650 OA
BRANCH  34  36
ATOM     36  O   UNK d   0     -23.936  15.240  23.135  0.00  0.00    -0.776 OA
ATOM     37  H   UNK d   0     -24.861  15.525  22.786  0.00  0.00     0.167 HD
ENDBRANCH  34  36
ENDBRANCH  33  34
ENDBRANCH   8  33
BRANCH  31  38
ATOM     38  C   UNK d   0     -19.101  21.360  20.345  0.00  0.00     0.151 C 
BRANCH  38  39
ATOM     39  C   UNK d   0     -18.091  20.619  19.620  0.00  0.00     0.143 C 
ATOM     40  O   UNK d   0     -17.553  21.061  18.590  0.00  0.00    -0.650 OA
BRANCH  39  41
ATOM     41  O   UNK d   0     -17.696  19.364  20.083  0.00  0.00    -0.776 OA
ATOM     42  H   UNK d   0     -17.497  18.652  19.374  0.00  0.00     0.167 HD
ENDBRANCH  39  41
ENDBRANCH  38  39
ENDBRANCH  31  38
BRANCH  27  43
ATOM     43  C   UNK d   0     -20.175  23.229  18.140  0.00  0.00     0.052 C 
BRANCH  43  44
ATOM     44  C   UNK d   0     -20.451  24.534  18.812  0.00  0.00     0.115 C 
BRANCH  44  45
ATOM     45  C   UNK d   0     -20.089  25.597  17.839  0.00  0.00     0.139 C 
ATOM     46  O   UNK d   0     -20.324  26.791  18.151  0.00  0.00    -0.650 OA
BRANCH  45  47
ATOM     47  O   UNK d   0     -19.505  25.328  16.620  0.00  0.00    -0.776 OA
ATOM     48  H   UNK d   0     -18.627  24.792  16.525  0.00  0.00     0.167 HD
ENDBRANCH  45  47
ENDBRANCH  44  45
ENDBRANCH  43  44
ENDBRANCH  27  43
BRANCH  24  49
ATOM     49  C   UNK d   0     -24.552  23.550  14.764  0.00  0.00     0.052 C 
BRANCH  49  50
ATOM     50  C   UNK d   0     -23.375  23.833  13.866  0.00  0.00     0.115 C 
BRANCH  50  51
ATOM     51  C   UNK d   0     -22.170  24.357  14.495  0.00  0.00     0.139 C 
ATOM     52  O   UNK d   0     -22.089  25.532  14.925  0.00  0.00    -0.650 OA
BRANCH  51  53
ATOM     53  O   UNK d   0     -21.056  23.543  14.630  0.00  0.00    -0.776 OA
ATOM     54  H   UNK d   0     -20.303  23.655  13.975  0.00  0.00     0.167 HD
ENDBRANCH  51  53
ENDBRANCH  50  51
ENDBRANCH  49  50
ENDBRANCH  24  49
BRANCH  21  55
ATOM     55  C   UNK d   0     -25.878  21.090  13.447  0.00  0.00     0.151 C 
BRANCH  55  56
ATOM     56  C   UNK d   0     -27.318  21.041  13.745  0.00  0.00     0.143 C 
ATOM     57  O   UNK d   0     -27.940  19.971  13.895  0.00  0.00    -0.650 OA
BRANCH  56  58
ATOM     58  O   UNK d   0     -27.998  22.252  13.863  0.00  0.00    -0.776 OA
ATOM     59  H   UNK d   0     -28.984  22.231  13.547  0.00  0.00     0.167 HD
ENDBRANCH  56  58
ENDBRANCH  55  56
ENDBRANCH  21  55
BRANCH  18  60
ATOM     60  C   UNK d   0     -27.176  16.566  16.027  0.00  0.00     0.151 C 
BRANCH  60  61
ATOM     61  C   UNK d   0     -26.949  16.259  14.607  0.00  0.00     0.143 C 
ATOM     62  O   UNK d   0     -26.130  15.467  14.141  0.00  0.00    -0.650 OA
BRANCH  61  63
ATOM     63  O   UNK d   0     -27.775  16.964  13.698  0.00  0.00    -0.776 OA
ATOM     64  H   UNK d   0     -28.763  17.050  13.856  0.00  0.00     0.167 HD
ENDBRANCH  61  63
ENDBRANCH  60  61
ENDBRANCH  18  60
BRANCH  14  65
ATOM     65  C   UNK d   0     -26.070  14.650  18.104  0.00  0.00     0.052 C 
BRANCH  65  66
ATOM     66  C   UNK d   0     -26.999  14.957  19.225  0.00  0.00     0.115 C 
BRANCH  66  67
ATOM     67  C   UNK d   0     -26.523  14.908  20.578  0.00  0.00     0.139 C 
ATOM     68  O   UNK d   0     -26.523  13.775  21.188  0.00  0.00    -0.650 OA
BRANCH  67  69
ATOM     69  O   UNK d   0     -26.041  15.963  21.353  0.00  0.00    -0.776 OA
ATOM     70  H   UNK d   0     -26.586  16.183  22.198  0.00  0.00     0.167 HD
ENDBRANCH  67  69
ENDBRANCH  66  67
ENDBRANCH  65  66
ENDBRANCH  14  65
ENDBRANCH   6   7
ENDBRANCH   5   6
ENDBRANCH   2   5
TORSDOF 28
ENDMDL
MODEL 10
REMARK VINA RESULT:      -7.3      1.662      7.537
REMARK  28 active torsions:
REMARK  status: ('A' for Active; 'I' for Inactive)
REMARK    1  A    between atoms: C_2  and  O_3 
REMARK    2  A    between atoms: C_2  and  C_4 
REMARK    3  A    between atoms: C_4  and  C_5 
REMARK    4  A    between atoms: C_5  and  C_6 
REMARK    5  A    between atoms: C_7  and  C_8 
REMARK    6  A    between atoms: C_8  and  C_9 
REMARK    7  A    between atoms: C_9  and  O_11 
REMARK    8  A    between atoms: C_28  and  C_29 
REMARK    9  A    between atoms: C_29  and  C_30 
REMARK   10  A    between atoms: C_30  and  O_32 
REMARK   11  A    between atoms: C_33  and  C_34 
REMARK   12  A    between atoms: C_34  and  C_35 
REMARK   13  A    between atoms: C_35  and  C_36 
REMARK   14  A    between atoms: C_36  and  O_38 
REMARK   15  A    between atoms: C_39  and  C_40 
REMARK   16  A    between atoms: C_40  and  C_41 
REMARK   17  A    between atoms: C_41  and  C_42 
REMARK   18  A    between atoms: C_42  and  O_44 
REMARK   19  A    between atoms: C_45  and  C_46 
REMARK   20  A    between atoms: C_46  and  C_47 
REMARK   21  A    between atoms: C_47  and  O_49 
REMARK   22  A    between atoms: C_50  and  C_51 
REMARK   23  A    between atoms: C_51  and  C_52 
REMARK   24  A    between atoms: C_52  and  O_54 
REMARK   25  A    between atoms: C_55  and  C_56 
REMARK   26  A    between atoms: C_56  and  C_57 
REMARK   27  A    between atoms: C_57  and  C_58 
REMARK   28  A    between atoms: C_58  and  O_60 
ROOT
ATOM      1  O   UNK d   0     -20.534  32.056  24.954  0.00  0.00    -0.650 OA
ATOM      2  C   UNK d   0     -19.691  31.680  24.110  0.00  0.00     0.139 C 
ENDROOT
BRANCH   2   3
ATOM      3  O   UNK d   0     -18.637  32.504  23.797  0.00  0.00    -0.776 OA
ATOM      4  H   UNK d   0     -17.916  32.211  23.135  0.00  0.00     0.167 HD
ENDBRANCH   2   3
BRANCH   2   5
ATOM      5  C   UNK d   0     -19.833  30.350  23.452  0.00  0.00     0.115 C 
BRANCH   5   6
ATOM      6  C   UNK d   0     -18.987  30.295  22.209  0.00  0.00     0.052 C 
BRANCH   6   7
ATOM      7  C   UNK d   0     -19.524  29.325  21.183  0.00  0.00    -0.020 A 
ATOM      8  C   UNK d   0     -19.045  28.149  20.869  0.00  0.00    -0.011 A 
ATOM      9  C   UNK d   0     -19.887  27.589  19.826  0.00  0.00     0.067 A 
ATOM     10  C   UNK d   0     -19.931  26.393  19.092  0.00  0.00     0.062 C 
ATOM     11  N   UNK d   0     -20.852  28.495  19.561  0.00  0.00    -0.248 NA
ATOM     12  C   UNK d   0     -20.992  25.914  18.317  0.00  0.00     0.041 A 
ATOM     13  N   UNK d   0     -21.810  26.540  17.449  0.00  0.00    -0.355 N 
ATOM     14  C   UNK d   0     -21.372  24.565  18.443  0.00  0.00    -0.022 A 
ATOM     15  C   UNK d   0     -22.704  25.625  17.028  0.00  0.00     0.042 A 
ATOM     16  H   UNK d   0     -21.745  27.602  17.127  0.00  0.00     0.166 HD
ATOM     17  C   UNK d   0     -23.775  25.746  16.121  0.00  0.00     0.062 C 
ATOM     18  C   UNK d   0     -22.461  24.375  17.629  0.00  0.00    -0.013 A 
ATOM     19  C   UNK d   0     -24.718  26.737  16.026  0.00  0.00     0.067 A 
ATOM     20  N   UNK d   0     -24.507  27.843  16.744  0.00  0.00    -0.248 NA
ATOM     21  C   UNK d   0     -25.976  26.919  15.321  0.00  0.00    -0.011 A 
ATOM     22  C   UNK d   0     -25.536  28.734  16.561  0.00  0.00     0.066 A 
ATOM     23  C   UNK d   0     -25.425  29.948  17.223  0.00  0.00     0.062 C 
ATOM     24  C   UNK d   0     -26.451  28.088  15.642  0.00  0.00    -0.020 A 
ATOM     25  C   UNK d   0     -24.345  30.416  17.987  0.00  0.00     0.041 A 
ATOM     26  N   UNK d   0     -23.541  29.797  18.860  0.00  0.00    -0.355 N 
ATOM     27  C   UNK d   0     -23.961  31.769  17.857  0.00  0.00    -0.022 A 
ATOM     28  C   UNK d   0     -22.654  30.710  19.288  0.00  0.00     0.042 A 
ATOM     29  H   UNK d   0     -23.614  28.732  19.191  0.00  0.00     0.166 HD
ATOM     30  C   UNK d   0     -21.589  30.606  20.197  0.00  0.00     0.062 C 
ATOM     31  C   UNK d   0     -22.892  31.963  18.676  0.00  0.00    -0.013 A 
ATOM     32  C   UNK d   0     -20.690  29.562  20.345  0.00  0.00     0.066 A 
BRANCH   8  33
ATOM     33  C   UNK d   0     -17.860  27.492  21.452  0.00  0.00     0.151 C 
BRANCH  33  34
ATOM     34  C   UNK d   0     -18.198  26.593  22.570  0.00  0.00     0.143 C 
ATOM     35  O   UNK d   0     -19.286  26.688  23.155  0.00  0.00    -0.650 OA
BRANCH  34  36
ATOM     36  O   UNK d   0     -17.291  25.639  22.968  0.00  0.00    -0.776 OA
ATOM     37  H   UNK d   0     -16.631  25.817  23.738  0.00  0.00     0.167 HD
ENDBRANCH  34  36
ENDBRANCH  33  34
ENDBRANCH   8  33
BRANCH  31  38
ATOM     38  C   UNK d   0     -22.132  33.256  18.858  0.00  0.00     0.151 C 
BRANCH  38  39
ATOM     39  C   UNK d   0     -22.709  34.108  19.876  0.00  0.00     0.143 C 
ATOM     40  O   UNK d   0     -23.471  35.051  19.600  0.00  0.00    -0.650 OA
BRANCH  39  41
ATOM     41  O   UNK d   0     -22.409  33.874  21.218  0.00  0.00    -0.776 OA
ATOM     42  H   UNK d   0     -21.986  34.649  21.738  0.00  0.00     0.167 HD
ENDBRANCH  39  41
ENDBRANCH  38  39
ENDBRANCH  31  38
BRANCH  27  43
ATOM     43  C   UNK d   0     -24.563  32.857  17.003  0.00  0.00     0.052 C 
BRANCH  43  44
ATOM     44  C   UNK d   0     -24.336  32.653  15.540  0.00  0.00     0.115 C 
BRANCH  44  45
ATOM     45  C   UNK d   0     -23.928  33.971  14.986  0.00  0.00     0.139 C 
ATOM     46  O   UNK d   0     -24.583  34.435  14.020  0.00  0.00    -0.650 OA
BRANCH  45  47
ATOM     47  O   UNK d   0     -22.873  34.699  15.490  0.00  0.00    -0.776 OA
ATOM     48  H   UNK d   0     -21.936  34.293  15.646  0.00  0.00     0.167 HD
ENDBRANCH  45  47
ENDBRANCH  44  45
ENDBRANCH  43  44
ENDBRANCH  27  43
BRANCH  24  49
ATOM     49  C   UNK d   0     -27.691  28.693  15.125  0.00  0.00     0.052 C 
BRANCH  49  50
ATOM     50  C   UNK d   0     -28.883  28.186  15.895  0.00  0.00     0.115 C 
BRANCH  50  51
ATOM     51  C   UNK d   0     -29.242  28.903  17.112  0.00  0.00     0.139 C 
ATOM     52  O   UNK d   0     -28.609  28.772  18.186  0.00  0.00    -0.650 OA
BRANCH  51  53
ATOM     53  O   UNK d   0     -30.325  29.768  17.104  0.00  0.00    -0.776 OA
ATOM     54  H   UNK d   0     -31.192  29.448  17.500  0.00  0.00     0.167 HD
ENDBRANCH  51  53
ENDBRANCH  50  51
ENDBRANCH  49  50
ENDBRANCH  24  49
BRANCH  21  55
ATOM     55  C   UNK d   0     -26.569  25.907  14.398  0.00  0.00     0.151 C 
BRANCH  55  56
ATOM     56  C   UNK d   0     -26.002  25.996  13.044  0.00  0.00     0.143 C 
ATOM     57  O   UNK d   0     -26.138  27.002  12.320  0.00  0.00    -0.650 OA
BRANCH  56  58
ATOM     58  O   UNK d   0     -25.284  24.901  12.568  0.00  0.00    -0.776 OA
ATOM     59  H   UNK d   0     -24.370  25.132  12.136  0.00  0.00     0.167 HD
ENDBRANCH  56  58
ENDBRANCH  55  56
ENDBRANCH  21  55
BRANCH  18  60
ATOM     60  C   UNK d   0     -23.200  23.070  17.465  0.00  0.00     0.151 C 
BRANCH  60  61
ATOM     61  C   UNK d   0     -24.363  23.148  18.362  0.00  0.00     0.143 C 
ATOM     62  O   UNK d   0     -24.348  23.221  19.591  0.00  0.00    -0.650 OA
BRANCH  61  63
ATOM     63  O   UNK d   0     -25.623  23.135  17.717  0.00  0.00    -0.776 OA
ATOM     64  H   UNK d   0     -25.964  22.307  17.262  0.00  0.00     0.167 HD
ENDBRANCH  61  63
ENDBRANCH  60  61
ENDBRANCH  18  60
BRANCH  14  65
ATOM     65  C   UNK d   0     -20.729  23.431  19.190  0.00  0.00     0.052 C 
BRANCH  65  66
ATOM     66  C   UNK d   0     -19.719  22.699  18.380  0.00  0.00     0.115 C 
BRANCH  66  67
ATOM     67  C   UNK d   0     -19.144  21.485  18.887  0.00  0.00     0.139 C 
ATOM     68  O   UNK d   0     -19.924  20.612  19.418  0.00  0.00    -0.650 OA
BRANCH  67  69
ATOM     69  O   UNK d   0     -17.801  21.110  18.882  0.00  0.00    -0.776 OA
ATOM     70  H   UNK d   0     -17.257  21.400  18.056  0.00  0.00     0.167 HD
ENDBRANCH  67  69
ENDBRANCH  66  67
ENDBRANCH  65  66
ENDBRANCH  14  65
ENDBRANCH   6   7
ENDBRANCH   5   6
ENDBRANCH   2   5
TORSDOF 28
ENDMDL
MODEL 11
REMARK VINA RESULT:      -7.3      1.156      8.303
REMARK  28 active torsions:
REMARK  status: ('A' for Active; 'I' for Inactive)
REMARK    1  A    between atoms: C_2  and  O_3 
REMARK    2  A    between atoms: C_2  and  C_4 
REMARK    3  A    between atoms: C_4  and  C_5 
REMARK    4  A    between atoms: C_5  and  C_6 
REMARK    5  A    between atoms: C_7  and  C_8 
REMARK    6  A    between atoms: C_8  and  C_9 
REMARK    7  A    between atoms: C_9  and  O_11 
REMARK    8  A    between atoms: C_28  and  C_29 
REMARK    9  A    between atoms: C_29  and  C_30 
REMARK   10  A    between atoms: C_30  and  O_32 
REMARK   11  A    between atoms: C_33  and  C_34 
REMARK   12  A    between atoms: C_34  and  C_35 
REMARK   13  A    between atoms: C_35  and  C_36 
REMARK   14  A    between atoms: C_36  and  O_38 
REMARK   15  A    between atoms: C_39  and  C_40 
REMARK   16  A    between atoms: C_40  and  C_41 
REMARK   17  A    between atoms: C_41  and  C_42 
REMARK   18  A    between atoms: C_42  and  O_44 
REMARK   19  A    between atoms: C_45  and  C_46 
REMARK   20  A    between atoms: C_46  and  C_47 
REMARK   21  A    between atoms: C_47  and  O_49 
REMARK   22  A    between atoms: C_50  and  C_51 
REMARK   23  A    between atoms: C_51  and  C_52 
REMARK   24  A    between atoms: C_52  and  O_54 
REMARK   25  A    between atoms: C_55  and  C_56 
REMARK   26  A    between atoms: C_56  and  C_57 
REMARK   27  A    between atoms: C_57  and  C_58 
REMARK   28  A    between atoms: C_58  and  O_60 
ROOT
ATOM      1  O   UNK d   0     -18.306  20.781  18.834  0.00  0.00    -0.650 OA
ATOM      2  C   UNK d   0     -18.849  21.664  18.135  0.00  0.00     0.139 C 
ENDROOT
BRANCH   2   3
ATOM      3  O   UNK d   0     -18.509  21.777  16.809  0.00  0.00    -0.776 OA
ATOM      4  H   UNK d   0     -18.211  20.962  16.269  0.00  0.00     0.167 HD
ENDBRANCH   2   3
BRANCH   2   5
ATOM      5  C   UNK d   0     -19.854  22.584  18.740  0.00  0.00     0.115 C 
BRANCH   5   6
ATOM      6  C   UNK d   0     -21.213  22.329  18.147  0.00  0.00     0.052 C 
BRANCH   6   7
ATOM      7  C   UNK d   0     -21.753  23.522  17.395  0.00  0.00    -0.020 A 
ATOM      8  C   UNK d   0     -22.281  23.539  16.198  0.00  0.00    -0.011 A 
ATOM      9  C   UNK d   0     -22.647  24.912  15.893  0.00  0.00     0.067 A 
ATOM     10  C   UNK d   0     -23.254  25.584  14.820  0.00  0.00     0.062 C 
ATOM     11  N   UNK d   0     -22.301  25.665  16.958  0.00  0.00    -0.248 NA
ATOM     12  C   UNK d   0     -23.781  26.880  14.821  0.00  0.00     0.041 A 
ATOM     13  N   UNK d   0     -23.311  28.027  15.346  0.00  0.00    -0.355 N 
ATOM     14  C   UNK d   0     -25.043  27.101  14.241  0.00  0.00    -0.022 A 
ATOM     15  C   UNK d   0     -24.246  28.969  15.121  0.00  0.00     0.042 A 
ATOM     16  H   UNK d   0     -22.330  28.173  15.849  0.00  0.00     0.166 HD
ATOM     17  C   UNK d   0     -24.264  30.338  15.458  0.00  0.00     0.062 C 
ATOM     18  C   UNK d   0     -25.347  28.426  14.431  0.00  0.00    -0.013 A 
ATOM     19  C   UNK d   0     -23.917  30.939  16.640  0.00  0.00     0.067 A 
ATOM     20  N   UNK d   0     -23.292  30.180  17.544  0.00  0.00    -0.248 NA
ATOM     21  C   UNK d   0     -24.066  32.263  17.222  0.00  0.00    -0.011 A 
ATOM     22  C   UNK d   0     -23.023  30.911  18.676  0.00  0.00     0.066 A 
ATOM     23  C   UNK d   0     -22.339  30.252  19.687  0.00  0.00     0.062 C 
ATOM     24  C   UNK d   0     -23.545  32.238  18.415  0.00  0.00    -0.020 A 
ATOM     25  C   UNK d   0     -21.806  28.954  19.661  0.00  0.00     0.041 A 
ATOM     26  N   UNK d   0     -22.280  27.810  19.152  0.00  0.00    -0.355 N 
ATOM     27  C   UNK d   0     -20.537  28.733  20.239  0.00  0.00    -0.022 A 
ATOM     28  C   UNK d   0     -21.353  26.867  19.384  0.00  0.00     0.042 A 
ATOM     29  H   UNK d   0     -23.271  27.663  18.657  0.00  0.00     0.166 HD
ATOM     30  C   UNK d   0     -21.327  25.501  19.062  0.00  0.00     0.062 C 
ATOM     31  C   UNK d   0     -20.243  27.416  20.068  0.00  0.00    -0.013 A 
ATOM     32  C   UNK d   0     -21.758  24.888  17.897  0.00  0.00     0.066 A 
BRANCH   8  33
ATOM     33  C   UNK d   0     -22.474  22.386  15.300  0.00  0.00     0.151 C 
BRANCH  33  34
ATOM     34  C   UNK d   0     -23.533  21.472  15.764  0.00  0.00     0.143 C 
ATOM     35  O   UNK d   0     -24.719  21.831  15.787  0.00  0.00    -0.650 OA
BRANCH  34  36
ATOM     36  O   UNK d   0     -23.196  20.204  16.179  0.00  0.00    -0.776 OA
ATOM     37  H   UNK d   0     -22.973  19.462  15.501  0.00  0.00     0.167 HD
ENDBRANCH  34  36
ENDBRANCH  33  34
ENDBRANCH   8  33
BRANCH  31  38
ATOM     38  C   UNK d   0     -18.978  26.720  20.514  0.00  0.00     0.151 C 
BRANCH  38  39
ATOM     39  C   UNK d   0     -19.017  26.321  21.905  0.00  0.00     0.143 C 
ATOM     40  O   UNK d   0     -18.211  26.758  22.745  0.00  0.00    -0.650 OA
BRANCH  39  41
ATOM     41  O   UNK d   0     -19.988  25.417  22.333  0.00  0.00    -0.776 OA
ATOM     42  H   UNK d   0     -20.644  25.075  21.624  0.00  0.00     0.167 HD
ENDBRANCH  39  41
ENDBRANCH  38  39
ENDBRANCH  31  38
BRANCH  27  43
ATOM     43  C   UNK d   0     -19.619  29.707  20.935  0.00  0.00     0.052 C 
BRANCH  43  44
ATOM     44  C   UNK d   0     -19.883  29.825  22.401  0.00  0.00     0.115 C 
BRANCH  44  45
ATOM     45  C   UNK d   0     -19.452  31.190  22.801  0.00  0.00     0.139 C 
ATOM     46  O   UNK d   0     -20.139  31.799  23.658  0.00  0.00    -0.650 OA
BRANCH  45  47
ATOM     47  O   UNK d   0     -18.335  31.804  22.277  0.00  0.00    -0.776 OA
ATOM     48  H   UNK d   0     -18.298  32.815  22.068  0.00  0.00     0.167 HD
ENDBRANCH  45  47
ENDBRANCH  44  45
ENDBRANCH  43  44
ENDBRANCH  27  43
BRANCH  24  49
ATOM     49  C   UNK d   0     -23.446  33.378  19.343  0.00  0.00     0.052 C 
BRANCH  49  50
ATOM     50  C   UNK d   0     -22.045  33.492  19.887  0.00  0.00     0.115 C 
BRANCH  50  51
ATOM     51  C   UNK d   0     -20.971  33.683  18.921  0.00  0.00     0.139 C 
ATOM     52  O   UNK d   0     -21.063  34.478  17.956  0.00  0.00    -0.650 OA
BRANCH  51  53
ATOM     53  O   UNK d   0     -19.791  32.966  19.055  0.00  0.00    -0.776 OA
ATOM     54  H   UNK d   0     -19.327  32.977  19.946  0.00  0.00     0.167 HD
ENDBRANCH  51  53
ENDBRANCH  50  51
ENDBRANCH  49  50
ENDBRANCH  24  49
BRANCH  21  55
ATOM     55  C   UNK d   0     -24.710  33.414  16.524  0.00  0.00     0.151 C 
BRANCH  55  56
ATOM     56  C   UNK d   0     -23.916  33.876  15.375  0.00  0.00     0.143 C 
ATOM     57  O   UNK d   0     -24.414  34.086  14.252  0.00  0.00    -0.650 OA
BRANCH  56  58
ATOM     58  O   UNK d   0     -22.552  34.083  15.570  0.00  0.00    -0.776 OA
ATOM     59  H   UNK d   0     -21.935  33.573  14.913  0.00  0.00     0.167 HD
ENDBRANCH  56  58
ENDBRANCH  55  56
ENDBRANCH  21  55
BRANCH  18  60
ATOM     60  C   UNK d   0     -26.618  29.096  13.971  0.00  0.00     0.151 C 
BRANCH  60  61
ATOM     61  C   UNK d   0     -27.596  28.891  15.051  0.00  0.00     0.143 C 
ATOM     62  O   UNK d   0     -27.450  29.157  16.244  0.00  0.00    -0.650 OA
BRANCH  61  63
ATOM     63  O   UNK d   0     -28.830  28.327  14.648  0.00  0.00    -0.776 OA
ATOM     64  H   UNK d   0     -29.294  27.637  15.212  0.00  0.00     0.167 HD
ENDBRANCH  61  63
ENDBRANCH  60  61
ENDBRANCH  18  60
BRANCH  14  65
ATOM     65  C   UNK d   0     -25.930  26.188  13.444  0.00  0.00     0.052 C 
BRANCH  65  66
ATOM     66  C   UNK d   0     -26.000  24.811  14.002  0.00  0.00     0.115 C 
BRANCH  66  67
ATOM     67  C   UNK d   0     -26.374  23.716  13.152  0.00  0.00     0.139 C 
ATOM     68  O   UNK d   0     -25.468  22.873  12.802  0.00  0.00    -0.650 OA
BRANCH  67  69
ATOM     69  O   UNK d   0     -27.637  23.432  12.633  0.00  0.00    -0.776 OA
ATOM     70  H   UNK d   0     -28.201  24.248  12.354  0.00  0.00     0.167 HD
ENDBRANCH  67  69
ENDBRANCH  66  67
ENDBRANCH  65  66
ENDBRANCH  14  65
ENDBRANCH   6   7
ENDBRANCH   5   6
ENDBRANCH   2   5
TORSDOF 28
ENDMDL
MODEL 12
REMARK VINA RESULT:      -7.2      2.417      5.680
REMARK  28 active torsions:
REMARK  status: ('A' for Active; 'I' for Inactive)
REMARK    1  A    between atoms: C_2  and  O_3 
REMARK    2  A    between atoms: C_2  and  C_4 
REMARK    3  A    between atoms: C_4  and  C_5 
REMARK    4  A    between atoms: C_5  and  C_6 
REMARK    5  A    between atoms: C_7  and  C_8 
REMARK    6  A    between atoms: C_8  and  C_9 
REMARK    7  A    between atoms: C_9  and  O_11 
REMARK    8  A    between atoms: C_28  and  C_29 
REMARK    9  A    between atoms: C_29  and  C_30 
REMARK   10  A    between atoms: C_30  and  O_32 
REMARK   11  A    between atoms: C_33  and  C_34 
REMARK   12  A    between atoms: C_34  and  C_35 
REMARK   13  A    between atoms: C_35  and  C_36 
REMARK   14  A    between atoms: C_36  and  O_38 
REMARK   15  A    between atoms: C_39  and  C_40 
REMARK   16  A    between atoms: C_40  and  C_41 
REMARK   17  A    between atoms: C_41  and  C_42 
REMARK   18  A    between atoms: C_42  and  O_44 
REMARK   19  A    between atoms: C_45  and  C_46 
REMARK   20  A    between atoms: C_46  and  C_47 
REMARK   21  A    between atoms: C_47  and  O_49 
REMARK   22  A    between atoms: C_50  and  C_51 
REMARK   23  A    between atoms: C_51  and  C_52 
REMARK   24  A    between atoms: C_52  and  O_54 
REMARK   25  A    between atoms: C_55  and  C_56 
REMARK   26  A    between atoms: C_56  and  C_57 
REMARK   27  A    between atoms: C_57  and  C_58 
REMARK   28  A    between atoms: C_58  and  O_60 
ROOT
ATOM      1  O   UNK d   0     -18.168  18.938  20.939  0.00  0.00    -0.650 OA
ATOM      2  C   UNK d   0     -19.358  19.091  20.584  0.00  0.00     0.139 C 
ENDROOT
BRANCH   2   3
ATOM      3  O   UNK d   0     -20.362  18.520  21.328  0.00  0.00    -0.776 OA
ATOM      4  H   UNK d   0     -20.157  18.019  22.195  0.00  0.00     0.167 HD
ENDBRANCH   2   3
BRANCH   2   5
ATOM      5  C   UNK d   0     -19.678  19.885  19.363  0.00  0.00     0.115 C 
BRANCH   5   6
ATOM      6  C   UNK d   0     -18.817  21.117  19.307  0.00  0.00     0.052 C 
BRANCH   6   7
ATOM      7  C   UNK d   0     -19.582  22.376  19.642  0.00  0.00    -0.020 A 
ATOM      8  C   UNK d   0     -19.742  22.923  20.820  0.00  0.00    -0.011 A 
ATOM      9  C   UNK d   0     -20.557  24.114  20.650  0.00  0.00     0.067 A 
ATOM     10  C   UNK d   0     -21.058  25.126  21.484  0.00  0.00     0.062 C 
ATOM     11  N   UNK d   0     -20.853  24.213  19.337  0.00  0.00    -0.248 NA
ATOM     12  C   UNK d   0     -21.598  26.356  21.093  0.00  0.00     0.041 A 
ATOM     13  N   UNK d   0     -22.453  26.674  20.102  0.00  0.00    -0.355 N 
ATOM     14  C   UNK d   0     -21.191  27.522  21.766  0.00  0.00    -0.022 A 
ATOM     15  C   UNK d   0     -22.592  28.013  20.123  0.00  0.00     0.042 A 
ATOM     16  H   UNK d   0     -22.962  25.964  19.414  0.00  0.00     0.166 HD
ATOM     17  C   UNK d   0     -23.365  28.864  19.309  0.00  0.00     0.062 C 
ATOM     18  C   UNK d   0     -21.816  28.580  21.153  0.00  0.00    -0.013 A 
ATOM     19  C   UNK d   0     -23.513  28.852  17.945  0.00  0.00     0.067 A 
ATOM     20  N   UNK d   0     -23.033  27.789  17.294  0.00  0.00    -0.248 NA
ATOM     21  C   UNK d   0     -24.076  29.746  16.948  0.00  0.00    -0.011 A 
ATOM     22  C   UNK d   0     -23.239  27.925  15.943  0.00  0.00     0.066 A 
ATOM     23  C   UNK d   0     -22.820  26.870  15.146  0.00  0.00     0.062 C 
ATOM     24  C   UNK d   0     -23.909  29.200  15.778  0.00  0.00    -0.020 A 
ATOM     25  C   UNK d   0     -22.291  25.637  15.559  0.00  0.00     0.041 A 
ATOM     26  N   UNK d   0     -21.430  25.323  16.535  0.00  0.00    -0.355 N 
ATOM     27  C   UNK d   0     -22.704  24.466  14.887  0.00  0.00    -0.022 A 
ATOM     28  C   UNK d   0     -21.283  23.989  16.510  0.00  0.00     0.042 A 
ATOM     29  H   UNK d   0     -20.911  26.038  17.219  0.00  0.00     0.166 HD
ATOM     30  C   UNK d   0     -20.511  23.130  17.308  0.00  0.00     0.062 C 
ATOM     31  C   UNK d   0     -22.071  23.419  15.483  0.00  0.00    -0.013 A 
ATOM     32  C   UNK d   0     -20.295  23.198  18.676  0.00  0.00     0.066 A 
BRANCH   8  33
ATOM     33  C   UNK d   0     -19.206  22.433  22.103  0.00  0.00     0.151 C 
BRANCH  33  34
ATOM     34  C   UNK d   0     -20.247  21.860  22.975  0.00  0.00     0.143 C 
ATOM     35  O   UNK d   0     -21.205  21.235  22.497  0.00  0.00    -0.650 OA
BRANCH  34  36
ATOM     36  O   UNK d   0     -20.153  22.025  24.338  0.00  0.00    -0.776 OA
ATOM     37  H   UNK d   0     -20.074  21.217  24.969  0.00  0.00     0.167 HD
ENDBRANCH  34  36
ENDBRANCH  33  34
ENDBRANCH   8  33
BRANCH  31  38
ATOM     38  C   UNK d   0     -22.215  21.962  15.109  0.00  0.00     0.151 C 
BRANCH  38  39
ATOM     39  C   UNK d   0     -23.221  21.278  15.894  0.00  0.00     0.143 C 
ATOM     40  O   UNK d   0     -24.054  21.888  16.587  0.00  0.00    -0.650 OA
BRANCH  39  41
ATOM     41  O   UNK d   0     -23.270  19.884  15.882  0.00  0.00    -0.776 OA
ATOM     42  H   UNK d   0     -24.196  19.456  15.782  0.00  0.00     0.167 HD
ENDBRANCH  39  41
ENDBRANCH  38  39
ENDBRANCH  31  38
BRANCH  27  43
ATOM     43  C   UNK d   0     -23.653  24.313  13.725  0.00  0.00     0.052 C 
BRANCH  43  44
ATOM     44  C   UNK d   0     -25.071  24.096  14.145  0.00  0.00     0.115 C 
BRANCH  44  45
ATOM     45  C   UNK d   0     -25.656  23.129  13.180  0.00  0.00     0.139 C 
ATOM     46  O   UNK d   0     -25.000  22.093  12.909  0.00  0.00    -0.650 OA
BRANCH  45  47
ATOM     47  O   UNK d   0     -26.882  23.321  12.581  0.00  0.00    -0.776 OA
ATOM     48  H   UNK d   0     -27.079  23.042  11.606  0.00  0.00     0.167 HD
ENDBRANCH  45  47
ENDBRANCH  44  45
ENDBRANCH  43  44
ENDBRANCH  27  43
BRANCH  24  49
ATOM     49  C   UNK d   0     -24.365  29.750  14.490  0.00  0.00     0.052 C 
BRANCH  49  50
ATOM     50  C   UNK d   0     -25.859  29.606  14.358  0.00  0.00     0.115 C 
BRANCH  50  51
ATOM     51  C   UNK d   0     -26.353  28.449  13.624  0.00  0.00     0.139 C 
ATOM     52  O   UNK d   0     -25.593  27.565  13.163  0.00  0.00    -0.650 OA
BRANCH  51  53
ATOM     53  O   UNK d   0     -27.716  28.300  13.414  0.00  0.00    -0.776 OA
ATOM     54  H   UNK d   0     -28.136  27.412  13.628  0.00  0.00     0.167 HD
ENDBRANCH  51  53
ENDBRANCH  50  51
ENDBRANCH  49  50
ENDBRANCH  24  49
BRANCH  21  55
ATOM     55  C   UNK d   0     -24.726  31.051  17.268  0.00  0.00     0.151 C 
BRANCH  55  56
ATOM     56  C   UNK d   0     -23.765  32.165  17.253  0.00  0.00     0.143 C 
ATOM     57  O   UNK d   0     -23.475  32.792  16.216  0.00  0.00    -0.650 OA
BRANCH  56  58
ATOM     58  O   UNK d   0     -23.163  32.519  18.460  0.00  0.00    -0.776 OA
ATOM     59  H   UNK d   0     -23.687  33.214  19.021  0.00  0.00     0.167 HD
ENDBRANCH  56  58
ENDBRANCH  55  56
ENDBRANCH  21  55
BRANCH  18  60
ATOM     60  C   UNK d   0     -21.655  30.027  21.549  0.00  0.00     0.151 C 
BRANCH  60  61
ATOM     61  C   UNK d   0     -20.527  30.540  20.758  0.00  0.00     0.143 C 
ATOM     62  O   UNK d   0     -20.008  30.010  19.774  0.00  0.00    -0.650 OA
BRANCH  61  63
ATOM     63  O   UNK d   0     -19.998  31.778  21.195  0.00  0.00    -0.776 OA
ATOM     64  H   UNK d   0     -20.497  32.637  21.044  0.00  0.00     0.167 HD
ENDBRANCH  61  63
ENDBRANCH  60  61
ENDBRANCH  18  60
BRANCH  14  65
ATOM     65  C   UNK d   0     -20.343  27.702  22.993  0.00  0.00     0.052 C 
BRANCH  65  66
ATOM     66  C   UNK d   0     -18.966  28.174  22.684  0.00  0.00     0.115 C 
BRANCH  66  67
ATOM     67  C   UNK d   0     -18.076  27.331  21.936  0.00  0.00     0.139 C 
ATOM     68  O   UNK d   0     -17.539  26.326  22.531  0.00  0.00    -0.650 OA
BRANCH  67  69
ATOM     69  O   UNK d   0     -17.700  27.460  20.600  0.00  0.00    -0.776 OA
ATOM     70  H   UNK d   0     -18.369  27.954  19.992  0.00  0.00     0.167 HD
ENDBRANCH  67  69
ENDBRANCH  66  67
ENDBRANCH  65  66
ENDBRANCH  14  65
ENDBRANCH   6   7
ENDBRANCH   5   6
ENDBRANCH   2   5
TORSDOF 28
ENDMDL
MODEL 13
REMARK VINA RESULT:      -7.2      1.740      4.561
REMARK  28 active torsions:
REMARK  status: ('A' for Active; 'I' for Inactive)
REMARK    1  A    between atoms: C_2  and  O_3 
REMARK    2  A    between atoms: C_2  and  C_4 
REMARK    3  A    between atoms: C_4  and  C_5 
REMARK    4  A    between atoms: C_5  and  C_6 
REMARK    5  A    between atoms: C_7  and  C_8 
REMARK    6  A    between atoms: C_8  and  C_9 
REMARK    7  A    between atoms: C_9  and  O_11 
REMARK    8  A    between atoms: C_28  and  C_29 
REMARK    9  A    between atoms: C_29  and  C_30 
REMARK   10  A    between atoms: C_30  and  O_32 
REMARK   11  A    between atoms: C_33  and  C_34 
REMARK   12  A    between atoms: C_34  and  C_35 
REMARK   13  A    between atoms: C_35  and  C_36 
REMARK   14  A    between atoms: C_36  and  O_38 
REMARK   15  A    between atoms: C_39  and  C_40 
REMARK   16  A    between atoms: C_40  and  C_41 
REMARK   17  A    between atoms: C_41  and  C_42 
REMARK   18  A    between atoms: C_42  and  O_44 
REMARK   19  A    between atoms: C_45  and  C_46 
REMARK   20  A    between atoms: C_46  and  C_47 
REMARK   21  A    between atoms: C_47  and  O_49 
REMARK   22  A    between atoms: C_50  and  C_51 
REMARK   23  A    between atoms: C_51  and  C_52 
REMARK   24  A    between atoms: C_52  and  O_54 
REMARK   25  A    between atoms: C_55  and  C_56 
REMARK   26  A    between atoms: C_56  and  C_57 
REMARK   27  A    between atoms: C_57  and  C_58 
REMARK   28  A    between atoms: C_58  and  O_60 
ROOT
ATOM      1  O   UNK d   0     -18.701  31.419  24.370  0.00  0.00    -0.650 OA
ATOM      2  C   UNK d   0     -19.564  31.375  23.465  0.00  0.00     0.139 C 
ENDROOT
BRANCH   2   3
ATOM      3  O   UNK d   0     -20.558  32.324  23.435  0.00  0.00    -0.776 OA
ATOM      4  H   UNK d   0     -21.145  32.500  24.253  0.00  0.00     0.167 HD
ENDBRANCH   2   3
BRANCH   2   5
ATOM      5  C   UNK d   0     -19.512  30.300  22.434  0.00  0.00     0.115 C 
BRANCH   5   6
ATOM      6  C   UNK d   0     -19.630  30.897  21.058  0.00  0.00     0.052 C 
BRANCH   6   7
ATOM      7  C   UNK d   0     -20.852  30.412  20.316  0.00  0.00    -0.020 A 
ATOM      8  C   UNK d   0     -21.942  31.084  20.048  0.00  0.00    -0.011 A 
ATOM      9  C   UNK d   0     -22.843  30.201  19.325  0.00  0.00     0.067 A 
ATOM     10  C   UNK d   0     -24.119  30.307  18.750  0.00  0.00     0.062 C 
ATOM     11  N   UNK d   0     -22.222  29.009  19.202  0.00  0.00    -0.248 NA
ATOM     12  C   UNK d   0     -24.716  29.423  17.844  0.00  0.00     0.041 A 
ATOM     13  N   UNK d   0     -24.751  28.077  17.812  0.00  0.00    -0.355 N 
ATOM     14  C   UNK d   0     -25.367  29.946  16.712  0.00  0.00    -0.022 A 
ATOM     15  C   UNK d   0     -25.402  27.733  16.684  0.00  0.00     0.042 A 
ATOM     16  H   UNK d   0     -24.342  27.385  18.580  0.00  0.00     0.166 HD
ATOM     17  C   UNK d   0     -25.718  26.462  16.164  0.00  0.00     0.062 C 
ATOM     18  C   UNK d   0     -25.803  28.878  15.969  0.00  0.00    -0.013 A 
ATOM     19  C   UNK d   0     -24.924  25.348  16.068  0.00  0.00     0.067 A 
ATOM     20  N   UNK d   0     -23.758  25.377  16.720  0.00  0.00    -0.248 NA
ATOM     21  C   UNK d   0     -25.004  24.063  15.394  0.00  0.00    -0.011 A 
ATOM     22  C   UNK d   0     -23.070  24.206  16.520  0.00  0.00     0.066 A 
ATOM     23  C   UNK d   0     -21.853  24.086  17.174  0.00  0.00     0.062 C 
ATOM     24  C   UNK d   0     -23.914  23.401  15.659  0.00  0.00    -0.020 A 
ATOM     25  C   UNK d   0     -21.278  24.980  18.090  0.00  0.00     0.041 A 
ATOM     26  N   UNK d   0     -21.229  26.317  18.115  0.00  0.00    -0.355 N 
ATOM     27  C   UNK d   0     -20.628  24.455  19.229  0.00  0.00    -0.022 A 
ATOM     28  C   UNK d   0     -20.573  26.663  19.234  0.00  0.00     0.042 A 
ATOM     29  H   UNK d   0     -21.631  27.011  17.337  0.00  0.00     0.166 HD
ATOM     30  C   UNK d   0     -20.244  27.923  19.759  0.00  0.00     0.062 C 
ATOM     31  C   UNK d   0     -20.180  25.513  19.958  0.00  0.00    -0.013 A 
ATOM     32  C   UNK d   0     -21.020  29.071  19.777  0.00  0.00     0.066 A 
BRANCH   8  33
ATOM     33  C   UNK d   0     -22.230  32.484  20.410  0.00  0.00     0.151 C 
BRANCH  33  34
ATOM     34  C   UNK d   0     -21.958  33.426  19.309  0.00  0.00     0.143 C 
ATOM     35  O   UNK d   0     -22.622  34.464  19.181  0.00  0.00    -0.650 OA
BRANCH  34  36
ATOM     36  O   UNK d   0     -20.953  33.144  18.413  0.00  0.00    -0.776 OA
ATOM     37  H   UNK d   0     -20.499  33.890  17.868  0.00  0.00     0.167 HD
ENDBRANCH  34  36
ENDBRANCH  33  34
ENDBRANCH   8  33
BRANCH  31  38
ATOM     38  C   UNK d   0     -19.435  25.439  21.270  0.00  0.00     0.151 C 
BRANCH  38  39
ATOM     39  C   UNK d   0     -20.293  25.650  22.416  0.00  0.00     0.143 C 
ATOM     40  O   UNK d   0     -21.462  25.228  22.459  0.00  0.00    -0.650 OA
BRANCH  39  41
ATOM     41  O   UNK d   0     -19.805  26.350  23.519  0.00  0.00    -0.776 OA
ATOM     42  H   UNK d   0     -19.641  25.809  24.374  0.00  0.00     0.167 HD
ENDBRANCH  39  41
ENDBRANCH  38  39
ENDBRANCH  31  38
BRANCH  27  43
ATOM     43  C   UNK d   0     -20.421  23.017  19.636  0.00  0.00     0.052 C 
BRANCH  43  44
ATOM     44  C   UNK d   0     -19.415  22.303  18.793  0.00  0.00     0.115 C 
BRANCH  44  45
ATOM     45  C   UNK d   0     -18.833  21.232  19.643  0.00  0.00     0.139 C 
ATOM     46  O   UNK d   0     -19.606  20.586  20.393  0.00  0.00    -0.650 OA
BRANCH  45  47
ATOM     47  O   UNK d   0     -17.491  20.918  19.635  0.00  0.00    -0.776 OA
ATOM     48  H   UNK d   0     -16.866  21.147  18.845  0.00  0.00     0.167 HD
ENDBRANCH  45  47
ENDBRANCH  44  45
ENDBRANCH  43  44
ENDBRANCH  27  43
BRANCH  24  49
ATOM     49  C   UNK d   0     -23.597  22.035  15.208  0.00  0.00     0.052 C 
BRANCH  49  50
ATOM     50  C   UNK d   0     -23.885  21.041  16.303  0.00  0.00     0.115 C 
BRANCH  50  51
ATOM     51  C   UNK d   0     -23.957  19.636  15.924  0.00  0.00     0.139 C 
ATOM     52  O   UNK d   0     -24.807  18.849  16.403  0.00  0.00    -0.650 OA
BRANCH  51  53
ATOM     53  O   UNK d   0     -23.057  19.128  15.000  0.00  0.00    -0.776 OA
ATOM     54  H   UNK d   0     -23.419  18.743  14.145  0.00  0.00     0.167 HD
ENDBRANCH  51  53
ENDBRANCH  50  51
ENDBRANCH  49  50
ENDBRANCH  24  49
BRANCH  21  55
ATOM     55  C   UNK d   0     -26.163  23.629  14.559  0.00  0.00     0.151 C 
BRANCH  55  56
ATOM     56  C   UNK d   0     -26.188  24.308  13.255  0.00  0.00     0.143 C 
ATOM     57  O   UNK d   0     -27.211  24.854  12.798  0.00  0.00    -0.650 OA
BRANCH  56  58
ATOM     58  O   UNK d   0     -25.008  24.332  12.513  0.00  0.00    -0.776 OA
ATOM     59  H   UNK d   0     -24.822  23.476  11.961  0.00  0.00     0.167 HD
ENDBRANCH  56  58
ENDBRANCH  55  56
ENDBRANCH  21  55
BRANCH  18  60
ATOM     60  C   UNK d   0     -26.548  28.981  14.661  0.00  0.00     0.151 C 
BRANCH  60  61
ATOM     61  C   UNK d   0     -25.606  28.539  13.623  0.00  0.00     0.143 C 
ATOM     62  O   UNK d   0     -25.814  27.711  12.735  0.00  0.00    -0.650 OA
BRANCH  61  63
ATOM     63  O   UNK d   0     -24.328  29.146  13.670  0.00  0.00    -0.776 OA
ATOM     64  H   UNK d   0     -24.112  29.845  14.359  0.00  0.00     0.167 HD
ENDBRANCH  61  63
ENDBRANCH  60  61
ENDBRANCH  18  60
BRANCH  14  65
ATOM     65  C   UNK d   0     -25.691  31.363  16.335  0.00  0.00     0.052 C 
BRANCH  65  66
ATOM     66  C   UNK d   0     -24.555  32.066  15.681  0.00  0.00     0.115 C 
BRANCH  66  67
ATOM     67  C   UNK d   0     -24.071  33.301  16.230  0.00  0.00     0.139 C 
ATOM     68  O   UNK d   0     -22.884  33.687  15.922  0.00  0.00    -0.650 OA
BRANCH  67  69
ATOM     69  O   UNK d   0     -24.741  34.174  17.087  0.00  0.00    -0.776 OA
ATOM     70  H   UNK d   0     -24.160  34.901  17.530  0.00  0.00     0.167 HD
ENDBRANCH  67  69
ENDBRANCH  66  67
ENDBRANCH  65  66
ENDBRANCH  14  65
ENDBRANCH   6   7
ENDBRANCH   5   6
ENDBRANCH   2   5
TORSDOF 28
ENDMDL
MODEL 14
REMARK VINA RESULT:      -7.1      6.632     10.466
REMARK  28 active torsions:
REMARK  status: ('A' for Active; 'I' for Inactive)
REMARK    1  A    between atoms: C_2  and  O_3 
REMARK    2  A    between atoms: C_2  and  C_4 
REMARK    3  A    between atoms: C_4  and  C_5 
REMARK    4  A    between atoms: C_5  and  C_6 
REMARK    5  A    between atoms: C_7  and  C_8 
REMARK    6  A    between atoms: C_8  and  C_9 
REMARK    7  A    between atoms: C_9  and  O_11 
REMARK    8  A    between atoms: C_28  and  C_29 
REMARK    9  A    between atoms: C_29  and  C_30 
REMARK   10  A    between atoms: C_30  and  O_32 
REMARK   11  A    between atoms: C_33  and  C_34 
REMARK   12  A    between atoms: C_34  and  C_35 
REMARK   13  A    between atoms: C_35  and  C_36 
REMARK   14  A    between atoms: C_36  and  O_38 
REMARK   15  A    between atoms: C_39  and  C_40 
REMARK   16  A    between atoms: C_40  and  C_41 
REMARK   17  A    between atoms: C_41  and  C_42 
REMARK   18  A    between atoms: C_42  and  O_44 
REMARK   19  A    between atoms: C_45  and  C_46 
REMARK   20  A    between atoms: C_46  and  C_47 
REMARK   21  A    between atoms: C_47  and  O_49 
REMARK   22  A    between atoms: C_50  and  C_51 
REMARK   23  A    between atoms: C_51  and  C_52 
REMARK   24  A    between atoms: C_52  and  O_54 
REMARK   25  A    between atoms: C_55  and  C_56 
REMARK   26  A    between atoms: C_56  and  C_57 
REMARK   27  A    between atoms: C_57  and  C_58 
REMARK   28  A    between atoms: C_58  and  O_60 
ROOT
ATOM      1  O   UNK d   0     -25.107  14.403  22.621  0.00  0.00    -0.650 OA
ATOM      2  C   UNK d   0     -23.987  14.019  22.216  0.00  0.00     0.139 C 
ENDROOT
BRANCH   2   3
ATOM      3  O   UNK d   0     -23.919  13.073  21.221  0.00  0.00    -0.776 OA
ATOM      4  H   UNK d   0     -23.309  13.203  20.411  0.00  0.00     0.167 HD
ENDBRANCH   2   3
BRANCH   2   5
ATOM      5  C   UNK d   0     -22.742  14.584  22.809  0.00  0.00     0.115 C 
BRANCH   5   6
ATOM      6  C   UNK d   0     -21.772  14.955  21.721  0.00  0.00     0.052 C 
BRANCH   6   7
ATOM      7  C   UNK d   0     -22.041  16.324  21.144  0.00  0.00    -0.020 A 
ATOM      8  C   UNK d   0     -21.633  17.479  21.605  0.00  0.00    -0.011 A 
ATOM      9  C   UNK d   0     -22.146  18.515  20.724  0.00  0.00     0.067 A 
ATOM     10  C   UNK d   0     -22.057  19.914  20.648  0.00  0.00     0.062 C 
ATOM     11  N   UNK d   0     -22.861  17.902  19.757  0.00  0.00    -0.248 NA
ATOM     12  C   UNK d   0     -22.392  20.726  19.559  0.00  0.00     0.041 A 
ATOM     13  N   UNK d   0     -23.443  20.691  18.717  0.00  0.00    -0.355 N 
ATOM     14  C   UNK d   0     -21.505  21.748  19.174  0.00  0.00    -0.022 A 
ATOM     15  C   UNK d   0     -23.242  21.660  17.804  0.00  0.00     0.042 A 
ATOM     16  H   UNK d   0     -24.319  20.009  18.780  0.00  0.00     0.166 HD
ATOM     17  C   UNK d   0     -24.029  22.056  16.704  0.00  0.00     0.062 C 
ATOM     18  C   UNK d   0     -22.037  22.343  18.057  0.00  0.00    -0.013 A 
ATOM     19  C   UNK d   0     -24.655  21.276  15.766  0.00  0.00     0.067 A 
ATOM     20  N   UNK d   0     -24.708  19.963  16.009  0.00  0.00    -0.248 NA
ATOM     21  C   UNK d   0     -25.308  21.501  14.487  0.00  0.00    -0.011 A 
ATOM     22  C   UNK d   0     -25.347  19.314  14.981  0.00  0.00     0.066 A 
ATOM     23  C   UNK d   0     -25.506  17.943  15.122  0.00  0.00     0.062 C 
ATOM     24  C   UNK d   0     -25.706  20.349  14.031  0.00  0.00    -0.020 A 
ATOM     25  C   UNK d   0     -25.174  17.148  16.230  0.00  0.00     0.041 A 
ATOM     26  N   UNK d   0     -24.122  17.173  17.057  0.00  0.00    -0.355 N 
ATOM     27  C   UNK d   0     -26.067  16.126  16.618  0.00  0.00    -0.022 A 
ATOM     28  C   UNK d   0     -24.316  16.202  17.964  0.00  0.00     0.042 A 
ATOM     29  H   UNK d   0     -23.237  17.852  16.987  0.00  0.00     0.166 HD
ATOM     30  C   UNK d   0     -23.537  15.791  19.057  0.00  0.00     0.062 C 
ATOM     31  C   UNK d   0     -25.532  15.523  17.715  0.00  0.00    -0.013 A 
ATOM     32  C   UNK d   0     -22.836  16.583  19.953  0.00  0.00     0.066 A 
BRANCH   8  33
ATOM     33  C   UNK d   0     -20.806  17.711  22.803  0.00  0.00     0.151 C 
BRANCH  33  34
ATOM     34  C   UNK d   0     -19.362  17.728  22.505  0.00  0.00     0.143 C 
ATOM     35  O   UNK d   0     -18.947  17.527  21.354  0.00  0.00    -0.650 OA
BRANCH  34  36
ATOM     36  O   UNK d   0     -18.466  17.968  23.520  0.00  0.00    -0.776 OA
ATOM     37  H   UNK d   0     -17.991  18.877  23.610  0.00  0.00     0.167 HD
ENDBRANCH  34  36
ENDBRANCH  33  34
ENDBRANCH   8  33
BRANCH  31  38
ATOM     38  C   UNK d   0     -26.143  14.379  18.490  0.00  0.00     0.151 C 
BRANCH  38  39
ATOM     39  C   UNK d   0     -27.118  14.819  19.466  0.00  0.00     0.143 C 
ATOM     40  O   UNK d   0     -28.320  14.506  19.393  0.00  0.00    -0.650 OA
BRANCH  39  41
ATOM     41  O   UNK d   0     -26.709  15.621  20.530  0.00  0.00    -0.776 OA
ATOM     42  H   UNK d   0     -26.862  15.250  21.473  0.00  0.00     0.167 HD
ENDBRANCH  39  41
ENDBRANCH  38  39
ENDBRANCH  31  38
BRANCH  27  43
ATOM     43  C   UNK d   0     -27.377  15.711  15.997  0.00  0.00     0.052 C 
BRANCH  43  44
ATOM     44  C   UNK d   0     -28.541  16.513  16.481  0.00  0.00     0.115 C 
BRANCH  44  45
ATOM     45  C   UNK d   0     -29.745  15.967  15.802  0.00  0.00     0.139 C 
ATOM     46  O   UNK d   0     -30.240  14.900  16.243  0.00  0.00    -0.650 OA
BRANCH  45  47
ATOM     47  O   UNK d   0     -30.337  16.583  14.721  0.00  0.00    -0.776 OA
ATOM     48  H   UNK d   0     -31.247  16.285  14.336  0.00  0.00     0.167 HD
ENDBRANCH  45  47
ENDBRANCH  44  45
ENDBRANCH  43  44
ENDBRANCH  27  43
BRANCH  24  49
ATOM     49  C   UNK d   0     -26.449  20.120  12.780  0.00  0.00     0.052 C 
BRANCH  49  50
ATOM     50  C   UNK d   0     -27.924  20.347  12.996  0.00  0.00     0.115 C 
BRANCH  50  51
ATOM     51  C   UNK d   0     -28.769  19.166  13.111  0.00  0.00     0.139 C 
ATOM     52  O   UNK d   0     -30.020  19.230  13.139  0.00  0.00    -0.650 OA
BRANCH  51  53
ATOM     53  O   UNK d   0     -28.186  17.911  13.196  0.00  0.00    -0.776 OA
ATOM     54  H   UNK d   0     -27.734  17.540  12.378  0.00  0.00     0.167 HD
ENDBRANCH  51  53
ENDBRANCH  50  51
ENDBRANCH  49  50
ENDBRANCH  24  49
BRANCH  21  55
ATOM     55  C   UNK d   0     -25.468  22.844  13.857  0.00  0.00     0.151 C 
BRANCH  55  56
ATOM     56  C   UNK d   0     -24.181  23.408  13.423  0.00  0.00     0.143 C 
ATOM     57  O   UNK d   0     -23.894  24.614  13.551  0.00  0.00    -0.650 OA
BRANCH  56  58
ATOM     58  O   UNK d   0     -23.253  22.540  12.847  0.00  0.00    -0.776 OA
ATOM     59  H   UNK d   0     -22.290  22.622  13.220  0.00  0.00     0.167 HD
ENDBRANCH  56  58
ENDBRANCH  55  56
ENDBRANCH  21  55
BRANCH  18  60
ATOM     60  C   UNK d   0     -21.405  23.488  17.304  0.00  0.00     0.151 C 
BRANCH  60  61
ATOM     61  C   UNK d   0     -20.550  22.873  16.278  0.00  0.00     0.143 C 
ATOM     62  O   UNK d   0     -19.342  22.648  16.355  0.00  0.00    -0.650 OA
BRANCH  61  63
ATOM     63  O   UNK d   0     -21.212  22.509  15.080  0.00  0.00    -0.776 OA
ATOM     64  H   UNK d   0     -21.630  21.602  14.974  0.00  0.00     0.167 HD
ENDBRANCH  61  63
ENDBRANCH  60  61
ENDBRANCH  18  60
BRANCH  14  65
ATOM     65  C   UNK d   0     -20.257  22.263  19.832  0.00  0.00     0.052 C 
BRANCH  65  66
ATOM     66  C   UNK d   0     -19.030  21.542  19.396  0.00  0.00     0.115 C 
BRANCH  66  67
ATOM     67  C   UNK d   0     -18.303  20.741  20.340  0.00  0.00     0.139 C 
ATOM     68  O   UNK d   0     -18.297  21.101  21.575  0.00  0.00    -0.650 OA
BRANCH  67  69
ATOM     69  O   UNK d   0     -17.572  19.581  20.089  0.00  0.00    -0.776 OA
ATOM     70  H   UNK d   0     -18.098  18.697  20.151  0.00  0.00     0.167 HD
ENDBRANCH  67  69
ENDBRANCH  66  67
ENDBRANCH  65  66
ENDBRANCH  14  65
ENDBRANCH   6   7
ENDBRANCH   5   6
ENDBRANCH   2   5
TORSDOF 28
ENDMDL
MODEL 15
REMARK VINA RESULT:      -7.1      1.681      7.323
REMARK  28 active torsions:
REMARK  status: ('A' for Active; 'I' for Inactive)
REMARK    1  A    between atoms: C_2  and  O_3 
REMARK    2  A    between atoms: C_2  and  C_4 
REMARK    3  A    between atoms: C_4  and  C_5 
REMARK    4  A    between atoms: C_5  and  C_6 
REMARK    5  A    between atoms: C_7  and  C_8 
REMARK    6  A    between atoms: C_8  and  C_9 
REMARK    7  A    between atoms: C_9  and  O_11 
REMARK    8  A    between atoms: C_28  and  C_29 
REMARK    9  A    between atoms: C_29  and  C_30 
REMARK   10  A    between atoms: C_30  and  O_32 
REMARK   11  A    between atoms: C_33  and  C_34 
REMARK   12  A    between atoms: C_34  and  C_35 
REMARK   13  A    between atoms: C_35  and  C_36 
REMARK   14  A    between atoms: C_36  and  O_38 
REMARK   15  A    between atoms: C_39  and  C_40 
REMARK   16  A    between atoms: C_40  and  C_41 
REMARK   17  A    between atoms: C_41  and  C_42 
REMARK   18  A    between atoms: C_42  and  O_44 
REMARK   19  A    between atoms: C_45  and  C_46 
REMARK   20  A    between atoms: C_46  and  C_47 
REMARK   21  A    between atoms: C_47  and  O_49 
REMARK   22  A    between atoms: C_50  and  C_51 
REMARK   23  A    between atoms: C_51  and  C_52 
REMARK   24  A    between atoms: C_52  and  O_54 
REMARK   25  A    between atoms: C_55  and  C_56 
REMARK   26  A    between atoms: C_56  and  C_57 
REMARK   27  A    between atoms: C_57  and  C_58 
REMARK   28  A    between atoms: C_58  and  O_60 
ROOT
ATOM      1  O   UNK d   0     -24.093  32.003  14.741  0.00  0.00    -0.650 OA
ATOM      2  C   UNK d   0     -24.200  33.191  15.116  0.00  0.00     0.139 C 
ENDROOT
BRANCH   2   3
ATOM      3  O   UNK d   0     -24.636  34.142  14.225  0.00  0.00    -0.776 OA
ATOM      4  H   UNK d   0     -24.449  34.053  13.225  0.00  0.00     0.167 HD
ENDBRANCH   2   3
BRANCH   2   5
ATOM      5  C   UNK d   0     -23.855  33.568  16.517  0.00  0.00     0.115 C 
BRANCH   5   6
ATOM      6  C   UNK d   0     -24.656  32.742  17.487  0.00  0.00     0.052 C 
BRANCH   6   7
ATOM      7  C   UNK d   0     -23.837  31.652  18.136  0.00  0.00    -0.020 A 
ATOM      8  C   UNK d   0     -22.897  31.789  19.036  0.00  0.00    -0.011 A 
ATOM      9  C   UNK d   0     -22.390  30.465  19.354  0.00  0.00     0.067 A 
ATOM     10  C   UNK d   0     -21.426  29.932  20.225  0.00  0.00     0.062 C 
ATOM     11  N   UNK d   0     -23.073  29.581  18.596  0.00  0.00    -0.248 NA
ATOM     12  C   UNK d   0     -21.268  28.592  20.596  0.00  0.00     0.041 A 
ATOM     13  N   UNK d   0     -21.319  27.459  19.870  0.00  0.00    -0.355 N 
ATOM     14  C   UNK d   0     -21.072  28.280  21.953  0.00  0.00    -0.022 A 
ATOM     15  C   UNK d   0     -21.168  26.437  20.733  0.00  0.00     0.042 A 
ATOM     16  H   UNK d   0     -21.440  27.384  18.766  0.00  0.00     0.166 HD
ATOM     17  C   UNK d   0     -21.143  25.046  20.506  0.00  0.00     0.062 C 
ATOM     18  C   UNK d   0     -21.010  26.912  22.049  0.00  0.00    -0.013 A 
ATOM     19  C   UNK d   0     -21.971  24.285  19.721  0.00  0.00     0.067 A 
ATOM     20  N   UNK d   0     -22.796  24.939  18.900  0.00  0.00    -0.248 NA
ATOM     21  C   UNK d   0     -22.223  22.865  19.538  0.00  0.00    -0.011 A 
ATOM     22  C   UNK d   0     -23.569  24.051  18.194  0.00  0.00     0.066 A 
ATOM     23  C   UNK d   0     -24.449  24.598  17.271  0.00  0.00     0.062 C 
ATOM     24  C   UNK d   0     -23.162  22.735  18.646  0.00  0.00    -0.020 A 
ATOM     25  C   UNK d   0     -24.583  25.945  16.904  0.00  0.00     0.041 A 
ATOM     26  N   UNK d   0     -24.547  27.071  17.627  0.00  0.00    -0.355 N 
ATOM     27  C   UNK d   0     -24.776  26.257  15.540  0.00  0.00    -0.022 A 
ATOM     28  C   UNK d   0     -24.707  28.091  16.770  0.00  0.00     0.042 A 
ATOM     29  H   UNK d   0     -24.436  27.144  18.737  0.00  0.00     0.166 HD
ATOM     30  C   UNK d   0     -24.743  29.478  16.983  0.00  0.00     0.062 C 
ATOM     31  C   UNK d   0     -24.854  27.613  15.446  0.00  0.00    -0.013 A 
ATOM     32  C   UNK d   0     -23.959  30.232  17.842  0.00  0.00     0.066 A 
BRANCH   8  33
ATOM     33  C   UNK d   0     -22.419  33.050  19.632  0.00  0.00     0.151 C 
BRANCH  33  34
ATOM     34  C   UNK d   0     -21.153  33.517  19.039  0.00  0.00     0.143 C 
ATOM     35  O   UNK d   0     -21.141  34.427  18.199  0.00  0.00    -0.650 OA
BRANCH  34  36
ATOM     36  O   UNK d   0     -19.970  32.930  19.426  0.00  0.00    -0.776 OA
ATOM     37  H   UNK d   0     -19.911  31.921  19.615  0.00  0.00     0.167 HD
ENDBRANCH  34  36
ENDBRANCH  33  34
ENDBRANCH   8  33
BRANCH  31  38
ATOM     38  C   UNK d   0     -25.045  28.409  14.177  0.00  0.00     0.151 C 
BRANCH  38  39
ATOM     39  C   UNK d   0     -26.437  28.549  13.805  0.00  0.00     0.143 C 
ATOM     40  O   UNK d   0     -26.955  27.874  12.898  0.00  0.00    -0.650 OA
BRANCH  39  41
ATOM     41  O   UNK d   0     -27.238  29.469  14.481  0.00  0.00    -0.776 OA
ATOM     42  H   UNK d   0     -26.755  30.184  15.034  0.00  0.00     0.167 HD
ENDBRANCH  39  41
ENDBRANCH  38  39
ENDBRANCH  31  38
BRANCH  27  43
ATOM     43  C   UNK d   0     -24.887  25.334  14.352  0.00  0.00     0.052 C 
BRANCH  43  44
ATOM     44  C   UNK d   0     -23.568  24.813  13.883  0.00  0.00     0.115 C 
BRANCH  44  45
ATOM     45  C   UNK d   0     -23.812  23.440  13.371  0.00  0.00     0.139 C 
ATOM     46  O   UNK d   0     -24.991  23.006  13.378  0.00  0.00    -0.650 OA
BRANCH  45  47
ATOM     47  O   UNK d   0     -22.805  22.633  12.887  0.00  0.00    -0.776 OA
ATOM     48  H   UNK d   0     -22.263  21.992  13.489  0.00  0.00     0.167 HD
ENDBRANCH  45  47
ENDBRANCH  44  45
ENDBRANCH  43  44
ENDBRANCH  27  43
BRANCH  24  49
ATOM     49  C   UNK d   0     -23.700  21.465  18.130  0.00  0.00     0.052 C 
BRANCH  49  50
ATOM     50  C   UNK d   0     -24.024  21.589  16.663  0.00  0.00     0.115 C 
BRANCH  50  51
ATOM     51  C   UNK d   0     -23.004  21.154  15.718  0.00  0.00     0.139 C 
ATOM     52  O   UNK d   0     -23.200  20.235  14.888  0.00  0.00    -0.650 OA
BRANCH  51  53
ATOM     53  O   UNK d   0     -21.760  21.766  15.721  0.00  0.00    -0.776 OA
ATOM     54  H   UNK d   0     -20.960  21.213  15.975  0.00  0.00     0.167 HD
ENDBRANCH  51  53
ENDBRANCH  50  51
ENDBRANCH  49  50
ENDBRANCH  24  49
BRANCH  21  55
ATOM     55  C   UNK d   0     -21.495  21.787  20.270  0.00  0.00     0.151 C 
BRANCH  55  56
ATOM     56  C   UNK d   0     -20.465  21.151  19.435  0.00  0.00     0.143 C 
ATOM     57  O   UNK d   0     -19.865  20.113  19.777  0.00  0.00    -0.650 OA
BRANCH  56  58
ATOM     58  O   UNK d   0     -20.162  21.747  18.212  0.00  0.00    -0.776 OA
ATOM     59  H   UNK d   0     -19.256  21.461  17.800  0.00  0.00     0.167 HD
ENDBRANCH  56  58
ENDBRANCH  55  56
ENDBRANCH  21  55
BRANCH  18  60
ATOM     60  C   UNK d   0     -20.816  26.143  23.332  0.00  0.00     0.151 C 
BRANCH  60  61
ATOM     61  C   UNK d   0     -19.362  25.996  23.498  0.00  0.00     0.143 C 
ATOM     62  O   UNK d   0     -18.589  25.385  22.759  0.00  0.00    -0.650 OA
BRANCH  61  63
ATOM     63  O   UNK d   0     -18.818  26.636  24.637  0.00  0.00    -0.776 OA
ATOM     64  H   UNK d   0     -18.973  26.271  25.560  0.00  0.00     0.167 HD
ENDBRANCH  61  63
ENDBRANCH  60  61
ENDBRANCH  18  60
BRANCH  14  65
ATOM     65  C   UNK d   0     -20.841  29.172  23.141  0.00  0.00     0.052 C 
BRANCH  65  66
ATOM     66  C   UNK d   0     -19.465  29.733  23.188  0.00  0.00     0.115 C 
BRANCH  66  67
ATOM     67  C   UNK d   0     -19.268  31.148  23.039  0.00  0.00     0.139 C 
ATOM     68  O   UNK d   0     -19.569  31.916  24.026  0.00  0.00    -0.650 OA
BRANCH  67  69
ATOM     69  O   UNK d   0     -18.775  31.829  21.927  0.00  0.00    -0.776 OA
ATOM     70  H   UNK d   0     -17.755  31.966  21.901  0.00  0.00     0.167 HD
ENDBRANCH  67  69
ENDBRANCH  66  67
ENDBRANCH  65  66
ENDBRANCH  14  65
ENDBRANCH   6   7
ENDBRANCH   5   6
ENDBRANCH   2   5
TORSDOF 28
ENDMDL
MODEL 16
REMARK VINA RESULT:      -7.1      1.413      8.087
REMARK  28 active torsions:
REMARK  status: ('A' for Active; 'I' for Inactive)
REMARK    1  A    between atoms: C_2  and  O_3 
REMARK    2  A    between atoms: C_2  and  C_4 
REMARK    3  A    between atoms: C_4  and  C_5 
REMARK    4  A    between atoms: C_5  and  C_6 
REMARK    5  A    between atoms: C_7  and  C_8 
REMARK    6  A    between atoms: C_8  and  C_9 
REMARK    7  A    between atoms: C_9  and  O_11 
REMARK    8  A    between atoms: C_28  and  C_29 
REMARK    9  A    between atoms: C_29  and  C_30 
REMARK   10  A    between atoms: C_30  and  O_32 
REMARK   11  A    between atoms: C_33  and  C_34 
REMARK   12  A    between atoms: C_34  and  C_35 
REMARK   13  A    between atoms: C_35  and  C_36 
REMARK   14  A    between atoms: C_36  and  O_38 
REMARK   15  A    between atoms: C_39  and  C_40 
REMARK   16  A    between atoms: C_40  and  C_41 
REMARK   17  A    between atoms: C_41  and  C_42 
REMARK   18  A    between atoms: C_42  and  O_44 
REMARK   19  A    between atoms: C_45  and  C_46 
REMARK   20  A    between atoms: C_46  and  C_47 
REMARK   21  A    between atoms: C_47  and  O_49 
REMARK   22  A    between atoms: C_50  and  C_51 
REMARK   23  A    between atoms: C_51  and  C_52 
REMARK   24  A    between atoms: C_52  and  O_54 
REMARK   25  A    between atoms: C_55  and  C_56 
REMARK   26  A    between atoms: C_56  and  C_57 
REMARK   27  A    between atoms: C_57  and  C_58 
REMARK   28  A    between atoms: C_58  and  O_60 
ROOT
ATOM      1  O   UNK d   0     -21.120  34.874  17.447  0.00  0.00    -0.650 OA
ATOM      2  C   UNK d   0     -20.508  34.043  18.154  0.00  0.00     0.139 C 
ENDROOT
BRANCH   2   3
ATOM      3  O   UNK d   0     -19.213  33.711  17.835  0.00  0.00    -0.776 OA
ATOM      4  H   UNK d   0     -18.539  34.427  17.556  0.00  0.00     0.167 HD
ENDBRANCH   2   3
BRANCH   2   5
ATOM      5  C   UNK d   0     -21.181  33.420  19.329  0.00  0.00     0.115 C 
BRANCH   5   6
ATOM      6  C   UNK d   0     -22.673  33.425  19.133  0.00  0.00     0.052 C 
BRANCH   6   7
ATOM      7  C   UNK d   0     -23.191  32.118  18.583  0.00  0.00    -0.020 A 
ATOM      8  C   UNK d   0     -24.126  31.945  17.683  0.00  0.00    -0.011 A 
ATOM      9  C   UNK d   0     -24.289  30.515  17.480  0.00  0.00     0.067 A 
ATOM     10  C   UNK d   0     -25.082  29.692  16.666  0.00  0.00     0.062 C 
ATOM     11  N   UNK d   0     -23.417  29.892  18.301  0.00  0.00    -0.248 NA
ATOM     12  C   UNK d   0     -24.901  28.329  16.407  0.00  0.00     0.041 A 
ATOM     13  N   UNK d   0     -24.581  27.307  17.223  0.00  0.00    -0.355 N 
ATOM     14  C   UNK d   0     -25.000  27.869  15.081  0.00  0.00    -0.022 A 
ATOM     15  C   UNK d   0     -24.467  26.212  16.448  0.00  0.00     0.042 A 
ATOM     16  H   UNK d   0     -24.458  27.355  18.327  0.00  0.00     0.166 HD
ATOM     17  C   UNK d   0     -24.152  24.881  16.788  0.00  0.00     0.062 C 
ATOM     18  C   UNK d   0     -24.722  26.525  15.099  0.00  0.00    -0.013 A 
ATOM     19  C   UNK d   0     -23.170  24.414  17.624  0.00  0.00     0.067 A 
ATOM     20  N   UNK d   0     -22.541  25.316  18.382  0.00  0.00    -0.248 NA
ATOM     21  C   UNK d   0     -22.579  23.119  17.921  0.00  0.00    -0.011 A 
ATOM     22  C   UNK d   0     -21.581  24.706  19.151  0.00  0.00     0.066 A 
ATOM     23  C   UNK d   0     -20.873  25.526  20.017  0.00  0.00     0.062 C 
ATOM     24  C   UNK d   0     -21.647  23.298  18.811  0.00  0.00    -0.020 A 
ATOM     25  C   UNK d   0     -21.078  26.890  20.272  0.00  0.00     0.041 A 
ATOM     26  N   UNK d   0     -21.382  27.909  19.458  0.00  0.00    -0.355 N 
ATOM     27  C   UNK d   0     -20.983  27.350  21.603  0.00  0.00    -0.022 A 
ATOM     28  C   UNK d   0     -21.487  29.004  20.228  0.00  0.00     0.042 A 
ATOM     29  H   UNK d   0     -21.495  27.862  18.347  0.00  0.00     0.166 HD
ATOM     30  C   UNK d   0     -21.791  30.335  19.901  0.00  0.00     0.062 C 
ATOM     31  C   UNK d   0     -21.241  28.687  21.584  0.00  0.00    -0.013 A 
ATOM     32  C   UNK d   0     -22.727  30.800  18.991  0.00  0.00     0.066 A 
BRANCH   8  33
ATOM     33  C   UNK d   0     -24.893  32.997  16.991  0.00  0.00     0.151 C 
BRANCH  33  34
ATOM     34  C   UNK d   0     -24.272  33.415  15.722  0.00  0.00     0.143 C 
ATOM     35  O   UNK d   0     -24.555  32.846  14.657  0.00  0.00    -0.650 OA
BRANCH  34  36
ATOM     36  O   UNK d   0     -23.364  34.449  15.722  0.00  0.00    -0.776 OA
ATOM     37  H   UNK d   0     -22.974  34.818  14.844  0.00  0.00     0.167 HD
ENDBRANCH  34  36
ENDBRANCH  33  34
ENDBRANCH   8  33
BRANCH  31  38
ATOM     38  C   UNK d   0     -21.266  29.606  22.783  0.00  0.00     0.151 C 
BRANCH  38  39
ATOM     39  C   UNK d   0     -20.135  30.509  22.822  0.00  0.00     0.143 C 
ATOM     40  O   UNK d   0     -18.964  30.115  22.677  0.00  0.00    -0.650 OA
BRANCH  39  41
ATOM     41  O   UNK d   0     -20.351  31.871  23.028  0.00  0.00    -0.776 OA
ATOM     42  H   UNK d   0     -21.231  32.258  22.673  0.00  0.00     0.167 HD
ENDBRANCH  39  41
ENDBRANCH  38  39
ENDBRANCH  31  38
BRANCH  27  43
ATOM     43  C   UNK d   0     -20.661  26.584  22.861  0.00  0.00     0.052 C 
BRANCH  43  44
ATOM     44  C   UNK d   0     -19.198  26.530  23.162  0.00  0.00     0.115 C 
BRANCH  44  45
ATOM     45  C   UNK d   0     -19.058  26.737  24.627  0.00  0.00     0.139 C 
ATOM     46  O   UNK d   0     -19.678  27.695  25.151  0.00  0.00    -0.650 OA
BRANCH  45  47
ATOM     47  O   UNK d   0     -18.285  25.923  25.426  0.00  0.00    -0.776 OA
ATOM     48  H   UNK d   0     -18.316  25.958  26.458  0.00  0.00     0.167 HD
ENDBRANCH  45  47
ENDBRANCH  44  45
ENDBRANCH  43  44
ENDBRANCH  27  43
BRANCH  24  49
ATOM     49  C   UNK d   0     -20.819  22.245  19.425  0.00  0.00     0.052 C 
BRANCH  49  50
ATOM     50  C   UNK d   0     -19.526  22.086  18.666  0.00  0.00     0.115 C 
BRANCH  50  51
ATOM     51  C   UNK d   0     -18.707  20.925  18.984  0.00  0.00     0.139 C 
ATOM     52  O   UNK d   0     -17.493  21.016  19.283  0.00  0.00    -0.650 OA
BRANCH  51  53
ATOM     53  O   UNK d   0     -19.271  19.659  18.959  0.00  0.00    -0.776 OA
ATOM     54  H   UNK d   0     -20.246  19.568  19.188  0.00  0.00     0.167 HD
ENDBRANCH  51  53
ENDBRANCH  50  51
ENDBRANCH  49  50
ENDBRANCH  24  49
BRANCH  21  55
ATOM     55  C   UNK d   0     -23.011  21.839  17.286  0.00  0.00     0.151 C 
BRANCH  55  56
ATOM     56  C   UNK d   0     -22.418  21.657  15.953  0.00  0.00     0.143 C 
ATOM     57  O   UNK d   0     -21.586  22.451  15.470  0.00  0.00    -0.650 OA
BRANCH  56  58
ATOM     58  O   UNK d   0     -22.814  20.544  15.212  0.00  0.00    -0.776 OA
ATOM     59  H   UNK d   0     -23.479  19.913  15.695  0.00  0.00     0.167 HD
ENDBRANCH  56  58
ENDBRANCH  55  56
ENDBRANCH  21  55
BRANCH  18  60
ATOM     60  C   UNK d   0     -24.708  25.629  13.885  0.00  0.00     0.151 C 
BRANCH  60  61
ATOM     61  C   UNK d   0     -26.116  25.319  13.595  0.00  0.00     0.143 C 
ATOM     62  O   UNK d   0     -26.667  25.329  12.494  0.00  0.00    -0.650 OA
BRANCH  61  63
ATOM     63  O   UNK d   0     -26.901  24.973  14.722  0.00  0.00    -0.776 OA
ATOM     64  H   UNK d   0     -26.639  25.268  15.646  0.00  0.00     0.167 HD
ENDBRANCH  61  63
ENDBRANCH  60  61
ENDBRANCH  18  60
BRANCH  14  65
ATOM     65  C   UNK d   0     -25.430  28.576  13.827  0.00  0.00     0.052 C 
BRANCH  65  66
ATOM     66  C   UNK d   0     -26.776  29.199  13.943  0.00  0.00     0.115 C 
BRANCH  66  67
ATOM     67  C   UNK d   0     -27.951  28.381  13.836  0.00  0.00     0.139 C 
ATOM     68  O   UNK d   0     -28.596  28.376  12.724  0.00  0.00    -0.650 OA
BRANCH  67  69
ATOM     69  O   UNK d   0     -28.509  27.558  14.814  0.00  0.00    -0.776 OA
ATOM     70  H   UNK d   0     -27.846  27.148  15.486  0.00  0.00     0.167 HD
ENDBRANCH  67  69
ENDBRANCH  66  67
ENDBRANCH  65  66
ENDBRANCH  14  65
ENDBRANCH   6   7
ENDBRANCH   5   6
ENDBRANCH   2   5
TORSDOF 28
ENDMDL
MODEL 17
REMARK VINA RESULT:      -7.1      5.064     11.287
REMARK  28 active torsions:
REMARK  status: ('A' for Active; 'I' for Inactive)
REMARK    1  A    between atoms: C_2  and  O_3 
REMARK    2  A    between atoms: C_2  and  C_4 
REMARK    3  A    between atoms: C_4  and  C_5 
REMARK    4  A    between atoms: C_5  and  C_6 
REMARK    5  A    between atoms: C_7  and  C_8 
REMARK    6  A    between atoms: C_8  and  C_9 
REMARK    7  A    between atoms: C_9  and  O_11 
REMARK    8  A    between atoms: C_28  and  C_29 
REMARK    9  A    between atoms: C_29  and  C_30 
REMARK   10  A    between atoms: C_30  and  O_32 
REMARK   11  A    between atoms: C_33  and  C_34 
REMARK   12  A    between atoms: C_34  and  C_35 
REMARK   13  A    between atoms: C_35  and  C_36 
REMARK   14  A    between atoms: C_36  and  O_38 
REMARK   15  A    between atoms: C_39  and  C_40 
REMARK   16  A    between atoms: C_40  and  C_41 
REMARK   17  A    between atoms: C_41  and  C_42 
REMARK   18  A    between atoms: C_42  and  O_44 
REMARK   19  A    between atoms: C_45  and  C_46 
REMARK   20  A    between atoms: C_46  and  C_47 
REMARK   21  A    between atoms: C_47  and  O_49 
REMARK   22  A    between atoms: C_50  and  C_51 
REMARK   23  A    between atoms: C_51  and  C_52 
REMARK   24  A    between atoms: C_52  and  O_54 
REMARK   25  A    between atoms: C_55  and  C_56 
REMARK   26  A    between atoms: C_56  and  C_57 
REMARK   27  A    between atoms: C_57  and  C_58 
REMARK   28  A    between atoms: C_58  and  O_60 
ROOT
ATOM      1  O   UNK d   0     -27.896  16.162  15.456  0.00  0.00    -0.650 OA
ATOM      2  C   UNK d   0     -26.776  15.625  15.315  0.00  0.00     0.139 C 
ENDROOT
BRANCH   2   3
ATOM      3  O   UNK d   0     -26.158  15.666  14.088  0.00  0.00    -0.776 OA
ATOM      4  H   UNK d   0     -25.654  14.855  13.723  0.00  0.00     0.167 HD
ENDBRANCH   2   3
BRANCH   2   5
ATOM      5  C   UNK d   0     -26.120  14.946  16.469  0.00  0.00     0.115 C 
BRANCH   5   6
ATOM      6  C   UNK d   0     -24.627  14.934  16.283  0.00  0.00     0.052 C 
BRANCH   6   7
ATOM      7  C   UNK d   0     -23.940  16.057  17.021  0.00  0.00    -0.020 A 
ATOM      8  C   UNK d   0     -23.334  15.998  18.179  0.00  0.00    -0.011 A 
ATOM      9  C   UNK d   0     -22.835  17.327  18.489  0.00  0.00     0.067 A 
ATOM     10  C   UNK d   0     -22.103  17.917  19.532  0.00  0.00     0.062 C 
ATOM     11  N   UNK d   0     -23.187  18.136  17.467  0.00  0.00    -0.248 NA
ATOM     12  C   UNK d   0     -21.471  19.165  19.524  0.00  0.00     0.041 A 
ATOM     13  N   UNK d   0     -21.877  20.361  19.058  0.00  0.00    -0.355 N 
ATOM     14  C   UNK d   0     -20.159  19.266  20.020  0.00  0.00    -0.022 A 
ATOM     15  C   UNK d   0     -20.853  21.217  19.239  0.00  0.00     0.042 A 
ATOM     16  H   UNK d   0     -22.874  20.601  18.628  0.00  0.00     0.166 HD
ATOM     17  C   UNK d   0     -20.744  22.588  18.933  0.00  0.00     0.062 C 
ATOM     18  C   UNK d   0     -19.758  20.566  19.840  0.00  0.00    -0.013 A 
ATOM     19  C   UNK d   0     -21.118  23.249  17.790  0.00  0.00     0.067 A 
ATOM     20  N   UNK d   0     -21.863  22.569  16.915  0.00  0.00    -0.248 NA
ATOM     21  C   UNK d   0     -20.898  24.571  17.229  0.00  0.00    -0.011 A 
ATOM     22  C   UNK d   0     -22.145  23.350  15.821  0.00  0.00     0.066 A 
ATOM     23  C   UNK d   0     -22.948  22.778  14.845  0.00  0.00     0.062 C 
ATOM     24  C   UNK d   0     -21.498  24.623  16.075  0.00  0.00    -0.020 A 
ATOM     25  C   UNK d   0     -23.584  21.528  14.879  0.00  0.00     0.041 A 
ATOM     26  N   UNK d   0     -23.175  20.335  15.328  0.00  0.00    -0.355 N 
ATOM     27  C   UNK d   0     -24.903  21.428  14.385  0.00  0.00    -0.022 A 
ATOM     28  C   UNK d   0     -24.191  19.478  15.140  0.00  0.00     0.042 A 
ATOM     29  H   UNK d   0     -22.169  20.094  15.750  0.00  0.00     0.166 HD
ATOM     30  C   UNK d   0     -24.310  18.110  15.432  0.00  0.00     0.062 C 
ATOM     31  C   UNK d   0     -25.295  20.135  14.547  0.00  0.00    -0.013 A 
ATOM     32  C   UNK d   0     -23.854  17.432  16.551  0.00  0.00     0.066 A 
BRANCH   8  33
ATOM     33  C   UNK d   0     -23.178  14.808  19.037  0.00  0.00     0.151 C 
BRANCH  33  34
ATOM     34  C   UNK d   0     -24.321  14.607  19.946  0.00  0.00     0.143 C 
ATOM     35  O   UNK d   0     -24.676  13.467  20.279  0.00  0.00    -0.650 OA
BRANCH  34  36
ATOM     36  O   UNK d   0     -25.001  15.701  20.429  0.00  0.00    -0.776 OA
ATOM     37  H   UNK d   0     -25.998  15.845  20.220  0.00  0.00     0.167 HD
ENDBRANCH  34  36
ENDBRANCH  33  34
ENDBRANCH   8  33
BRANCH  31  38
ATOM     38  C   UNK d   0     -26.640  19.558  14.174  0.00  0.00     0.151 C 
BRANCH  38  39
ATOM     39  C   UNK d   0     -27.635  19.738  15.209  0.00  0.00     0.143 C 
ATOM     40  O   UNK d   0     -28.526  20.603  15.133  0.00  0.00    -0.650 OA
BRANCH  39  41
ATOM     41  O   UNK d   0     -27.608  18.920  16.338  0.00  0.00    -0.776 OA
ATOM     42  H   UNK d   0     -26.690  18.577  16.637  0.00  0.00     0.167 HD
ENDBRANCH  39  41
ENDBRANCH  38  39
ENDBRANCH  31  38
BRANCH  27  43
ATOM     43  C   UNK d   0     -25.781  22.493  13.776  0.00  0.00     0.052 C 
BRANCH  43  44
ATOM     44  C   UNK d   0     -26.292  23.479  14.775  0.00  0.00     0.115 C 
BRANCH  44  45
ATOM     45  C   UNK d   0     -26.285  24.805  14.104  0.00  0.00     0.139 C 
ATOM     46  O   UNK d   0     -25.961  24.853  12.892  0.00  0.00    -0.650 OA
BRANCH  45  47
ATOM     47  O   UNK d   0     -26.621  25.973  14.754  0.00  0.00    -0.776 OA
ATOM     48  H   UNK d   0     -27.458  26.060  15.353  0.00  0.00     0.167 HD
ENDBRANCH  45  47
ENDBRANCH  44  45
ENDBRANCH  43  44
ENDBRANCH  27  43
BRANCH  24  49
ATOM     49  C   UNK d   0     -21.563  25.792  15.181  0.00  0.00     0.052 C 
BRANCH  49  50
ATOM     50  C   UNK d   0     -22.996  26.196  14.949  0.00  0.00     0.115 C 
BRANCH  50  51
ATOM     51  C   UNK d   0     -23.451  27.425  15.584  0.00  0.00     0.139 C 
ATOM     52  O   UNK d   0     -24.469  28.049  15.199  0.00  0.00    -0.650 OA
BRANCH  51  53
ATOM     53  O   UNK d   0     -22.744  27.947  16.657  0.00  0.00    -0.776 OA
ATOM     54  H   UNK d   0     -21.763  27.741  16.724  0.00  0.00     0.167 HD
ENDBRANCH  51  53
ENDBRANCH  50  51
ENDBRANCH  49  50
ENDBRANCH  24  49
BRANCH  21  55
ATOM     55  C   UNK d   0     -20.114  25.646  17.906  0.00  0.00     0.151 C 
BRANCH  55  56
ATOM     56  C   UNK d   0     -20.809  26.170  19.092  0.00  0.00     0.143 C 
ATOM     57  O   UNK d   0     -21.960  26.647  19.045  0.00  0.00    -0.650 OA
BRANCH  56  58
ATOM     58  O   UNK d   0     -20.135  26.124  20.312  0.00  0.00    -0.776 OA
ATOM     59  H   UNK d   0     -19.154  25.797  20.256  0.00  0.00     0.167 HD
ENDBRANCH  56  58
ENDBRANCH  55  56
ENDBRANCH  21  55
BRANCH  18  60
ATOM     60  C   UNK d   0     -18.407  21.116  20.225  0.00  0.00     0.151 C 
BRANCH  60  61
ATOM     61  C   UNK d   0     -18.538  21.567  21.619  0.00  0.00     0.143 C 
ATOM     62  O   UNK d   0     -19.404  22.311  22.081  0.00  0.00    -0.650 OA
BRANCH  61  63
ATOM     63  O   UNK d   0     -17.548  21.078  22.506  0.00  0.00    -0.776 OA
ATOM     64  H   UNK d   0     -16.589  21.362  22.419  0.00  0.00     0.167 HD
ENDBRANCH  61  63
ENDBRANCH  60  61
ENDBRANCH  18  60
BRANCH  14  65
ATOM     65  C   UNK d   0     -19.300  18.261  20.734  0.00  0.00     0.052 C 
BRANCH  65  66
ATOM     66  C   UNK d   0     -19.600  18.168  22.188  0.00  0.00     0.115 C 
BRANCH  66  67
ATOM     67  C   UNK d   0     -18.527  17.997  23.127  0.00  0.00     0.139 C 
ATOM     68  O   UNK d   0     -18.799  17.517  24.289  0.00  0.00    -0.650 OA
BRANCH  67  69
ATOM     69  O   UNK d   0     -17.177  18.291  22.942  0.00  0.00    -0.776 OA
ATOM     70  H   UNK d   0     -16.605  17.536  22.537  0.00  0.00     0.167 HD
ENDBRANCH  67  69
ENDBRANCH  66  67
ENDBRANCH  65  66
ENDBRANCH  14  65
ENDBRANCH   6   7
ENDBRANCH   5   6
ENDBRANCH   2   5
TORSDOF 28
ENDMDL
MODEL 18
REMARK VINA RESULT:      -7.1      2.540      8.461
REMARK  28 active torsions:
REMARK  status: ('A' for Active; 'I' for Inactive)
REMARK    1  A    between atoms: C_2  and  O_3 
REMARK    2  A    between atoms: C_2  and  C_4 
REMARK    3  A    between atoms: C_4  and  C_5 
REMARK    4  A    between atoms: C_5  and  C_6 
REMARK    5  A    between atoms: C_7  and  C_8 
REMARK    6  A    between atoms: C_8  and  C_9 
REMARK    7  A    between atoms: C_9  and  O_11 
REMARK    8  A    between atoms: C_28  and  C_29 
REMARK    9  A    between atoms: C_29  and  C_30 
REMARK   10  A    between atoms: C_30  and  O_32 
REMARK   11  A    between atoms: C_33  and  C_34 
REMARK   12  A    between atoms: C_34  and  C_35 
REMARK   13  A    between atoms: C_35  and  C_36 
REMARK   14  A    between atoms: C_36  and  O_38 
REMARK   15  A    between atoms: C_39  and  C_40 
REMARK   16  A    between atoms: C_40  and  C_41 
REMARK   17  A    between atoms: C_41  and  C_42 
REMARK   18  A    between atoms: C_42  and  O_44 
REMARK   19  A    between atoms: C_45  and  C_46 
REMARK   20  A    between atoms: C_46  and  C_47 
REMARK   21  A    between atoms: C_47  and  O_49 
REMARK   22  A    between atoms: C_50  and  C_51 
REMARK   23  A    between atoms: C_51  and  C_52 
REMARK   24  A    between atoms: C_52  and  O_54 
REMARK   25  A    between atoms: C_55  and  C_56 
REMARK   26  A    between atoms: C_56  and  C_57 
REMARK   27  A    between atoms: C_57  and  C_58 
REMARK   28  A    between atoms: C_58  and  O_60 
ROOT
ATOM      1  O   UNK d   0     -20.421  22.633  25.416  0.00  0.00    -0.650 OA
ATOM      2  C   UNK d   0     -19.549  22.515  24.528  0.00  0.00     0.139 C 
ENDROOT
BRANCH   2   3
ATOM      3  O   UNK d   0     -18.443  23.331  24.557  0.00  0.00    -0.776 OA
ATOM      4  H   UNK d   0     -18.537  24.343  24.661  0.00  0.00     0.167 HD
ENDBRANCH   2   3
BRANCH   2   5
ATOM      5  C   UNK d   0     -19.711  21.499  23.449  0.00  0.00     0.115 C 
BRANCH   5   6
ATOM      6  C   UNK d   0     -18.681  21.715  22.375  0.00  0.00     0.052 C 
BRANCH   6   7
ATOM      7  C   UNK d   0     -19.285  22.202  21.080  0.00  0.00    -0.020 A 
ATOM      8  C   UNK d   0     -19.348  21.565  19.939  0.00  0.00    -0.011 A 
ATOM      9  C   UNK d   0     -20.009  22.434  18.979  0.00  0.00     0.067 A 
ATOM     10  C   UNK d   0     -20.395  22.347  17.633  0.00  0.00     0.062 C 
ATOM     11  N   UNK d   0     -20.309  23.583  19.620  0.00  0.00    -0.248 NA
ATOM     12  C   UNK d   0     -21.278  23.190  16.949  0.00  0.00     0.041 A 
ATOM     13  N   UNK d   0     -21.411  24.530  16.958  0.00  0.00    -0.355 N 
ATOM     14  C   UNK d   0     -22.266  22.618  16.127  0.00  0.00    -0.022 A 
ATOM     15  C   UNK d   0     -22.464  24.822  16.170  0.00  0.00     0.042 A 
ATOM     16  H   UNK d   0     -20.763  25.256  17.495  0.00  0.00     0.166 HD
ATOM     17  C   UNK d   0     -23.034  26.065  15.832  0.00  0.00     0.062 C 
ATOM     18  C   UNK d   0     -23.026  23.648  15.632  0.00  0.00    -0.013 A 
ATOM     19  C   UNK d   0     -23.324  27.131  16.645  0.00  0.00     0.067 A 
ATOM     20  N   UNK d   0     -22.837  27.093  17.888  0.00  0.00    -0.248 NA
ATOM     21  C   UNK d   0     -24.081  28.365  16.519  0.00  0.00    -0.011 A 
ATOM     22  C   UNK d   0     -23.220  28.214  18.584  0.00  0.00     0.066 A 
ATOM     23  C   UNK d   0     -22.749  28.323  19.884  0.00  0.00     0.062 C 
ATOM     24  C   UNK d   0     -24.019  28.993  17.658  0.00  0.00    -0.020 A 
ATOM     25  C   UNK d   0     -21.852  27.472  20.548  0.00  0.00     0.041 A 
ATOM     26  N   UNK d   0     -21.729  26.139  20.550  0.00  0.00    -0.355 N 
ATOM     27  C   UNK d   0     -20.858  28.048  21.369  0.00  0.00    -0.022 A 
ATOM     28  C   UNK d   0     -20.686  25.845  21.343  0.00  0.00     0.042 A 
ATOM     29  H   UNK d   0     -22.389  25.410  20.019  0.00  0.00     0.166 HD
ATOM     30  C   UNK d   0     -20.114  24.613  21.695  0.00  0.00     0.062 C 
ATOM     31  C   UNK d   0     -20.115  27.026  21.875  0.00  0.00    -0.013 A 
ATOM     32  C   UNK d   0     -19.900  23.507  20.888  0.00  0.00     0.066 A 
BRANCH   8  33
ATOM     33  C   UNK d   0     -18.841  20.210  19.653  0.00  0.00     0.151 C 
BRANCH  33  34
ATOM     34  C   UNK d   0     -19.767  19.150  20.092  0.00  0.00     0.143 C 
ATOM     35  O   UNK d   0     -19.662  18.640  21.217  0.00  0.00    -0.650 OA
BRANCH  34  36
ATOM     36  O   UNK d   0     -20.758  18.723  19.240  0.00  0.00    -0.776 OA
ATOM     37  H   UNK d   0     -21.674  18.416  19.596  0.00  0.00     0.167 HD
ENDBRANCH  34  36
ENDBRANCH  33  34
ENDBRANCH   8  33
BRANCH  31  38
ATOM     38  C   UNK d   0     -18.927  27.159  22.798  0.00  0.00     0.151 C 
BRANCH  38  39
ATOM     39  C   UNK d   0     -19.262  26.914  24.184  0.00  0.00     0.143 C 
ATOM     40  O   UNK d   0     -20.306  27.347  24.703  0.00  0.00    -0.650 OA
BRANCH  39  41
ATOM     41  O   UNK d   0     -18.393  26.167  24.979  0.00  0.00    -0.776 OA
ATOM     42  H   UNK d   0     -18.358  25.158  24.802  0.00  0.00     0.167 HD
ENDBRANCH  39  41
ENDBRANCH  38  39
ENDBRANCH  31  38
BRANCH  27  43
ATOM     43  C   UNK d   0     -20.597  29.500  21.683  0.00  0.00     0.052 C 
BRANCH  43  44
ATOM     44  C   UNK d   0     -20.013  30.257  20.535  0.00  0.00     0.115 C 
BRANCH  44  45
ATOM     45  C   UNK d   0     -20.698  31.575  20.503  0.00  0.00     0.139 C 
ATOM     46  O   UNK d   0     -21.738  31.718  21.193  0.00  0.00    -0.650 OA
BRANCH  45  47
ATOM     47  O   UNK d   0     -20.237  32.639  19.758  0.00  0.00    -0.776 OA
ATOM     48  H   UNK d   0     -19.748  33.447  20.177  0.00  0.00     0.167 HD
ENDBRANCH  45  47
ENDBRANCH  44  45
ENDBRANCH  43  44
ENDBRANCH  27  43
BRANCH  24  49
ATOM     49  C   UNK d   0     -24.615  30.305  17.960  0.00  0.00     0.052 C 
BRANCH  49  50
ATOM     50  C   UNK d   0     -23.548  31.369  17.999  0.00  0.00     0.115 C 
BRANCH  50  51
ATOM     51  C   UNK d   0     -23.783  32.576  17.219  0.00  0.00     0.139 C 
ATOM     52  O   UNK d   0     -22.851  33.284  16.770  0.00  0.00    -0.650 OA
BRANCH  51  53
ATOM     53  O   UNK d   0     -25.083  32.978  16.951  0.00  0.00    -0.776 OA
ATOM     54  H   UNK d   0     -25.802  32.732  17.608  0.00  0.00     0.167 HD
ENDBRANCH  51  53
ENDBRANCH  50  51
ENDBRANCH  49  50
ENDBRANCH  24  49
BRANCH  21  55
ATOM     55  C   UNK d   0     -24.782  28.792  15.272  0.00  0.00     0.151 C 
BRANCH  55  56
ATOM     56  C   UNK d   0     -24.000  29.778  14.509  0.00  0.00     0.143 C 
ATOM     57  O   UNK d   0     -22.964  29.480  13.884  0.00  0.00    -0.650 OA
BRANCH  56  58
ATOM     58  O   UNK d   0     -24.454  31.096  14.497  0.00  0.00    -0.776 OA
ATOM     59  H   UNK d   0     -23.820  31.771  14.032  0.00  0.00     0.167 HD
ENDBRANCH  56  58
ENDBRANCH  55  56
ENDBRANCH  21  55
BRANCH  18  60
ATOM     60  C   UNK d   0     -24.207  23.485  14.708  0.00  0.00     0.151 C 
BRANCH  60  61
ATOM     61  C   UNK d   0     -23.674  22.891  13.472  0.00  0.00     0.143 C 
ATOM     62  O   UNK d   0     -24.150  21.951  12.835  0.00  0.00    -0.650 OA
BRANCH  61  63
ATOM     63  O   UNK d   0     -22.486  23.484  12.983  0.00  0.00    -0.776 OA
ATOM     64  H   UNK d   0     -21.854  22.971  12.394  0.00  0.00     0.167 HD
ENDBRANCH  61  63
ENDBRANCH  60  61
ENDBRANCH  18  60
BRANCH  14  65
ATOM     65  C   UNK d   0     -22.484  21.193  15.701  0.00  0.00     0.052 C 
BRANCH  65  66
ATOM     66  C   UNK d   0     -23.611  20.538  16.418  0.00  0.00     0.115 C 
BRANCH  66  67
ATOM     67  C   UNK d   0     -23.353  19.783  17.612  0.00  0.00     0.139 C 
ATOM     68  O   UNK d   0     -23.199  20.420  18.718  0.00  0.00    -0.650 OA
BRANCH  67  69
ATOM     69  O   UNK d   0     -23.241  18.399  17.739  0.00  0.00    -0.776 OA
ATOM     70  H   UNK d   0     -22.407  17.975  17.307  0.00  0.00     0.167 HD
ENDBRANCH  67  69
ENDBRANCH  66  67
ENDBRANCH  65  66
ENDBRANCH  14  65
ENDBRANCH   6   7
ENDBRANCH   5   6
ENDBRANCH   2   5
TORSDOF 28
ENDMDL
MODEL 19
REMARK VINA RESULT:      -7.1      2.190      7.928
REMARK  28 active torsions:
REMARK  status: ('A' for Active; 'I' for Inactive)
REMARK    1  A    between atoms: C_2  and  O_3 
REMARK    2  A    between atoms: C_2  and  C_4 
REMARK    3  A    between atoms: C_4  and  C_5 
REMARK    4  A    between atoms: C_5  and  C_6 
REMARK    5  A    between atoms: C_7  and  C_8 
REMARK    6  A    between atoms: C_8  and  C_9 
REMARK    7  A    between atoms: C_9  and  O_11 
REMARK    8  A    between atoms: C_28  and  C_29 
REMARK    9  A    between atoms: C_29  and  C_30 
REMARK   10  A    between atoms: C_30  and  O_32 
REMARK   11  A    between atoms: C_33  and  C_34 
REMARK   12  A    between atoms: C_34  and  C_35 
REMARK   13  A    between atoms: C_35  and  C_36 
REMARK   14  A    between atoms: C_36  and  O_38 
REMARK   15  A    between atoms: C_39  and  C_40 
REMARK   16  A    between atoms: C_40  and  C_41 
REMARK   17  A    between atoms: C_41  and  C_42 
REMARK   18  A    between atoms: C_42  and  O_44 
REMARK   19  A    between atoms: C_45  and  C_46 
REMARK   20  A    between atoms: C_46  and  C_47 
REMARK   21  A    between atoms: C_47  and  O_49 
REMARK   22  A    between atoms: C_50  and  C_51 
REMARK   23  A    between atoms: C_51  and  C_52 
REMARK   24  A    between atoms: C_52  and  O_54 
REMARK   25  A    between atoms: C_55  and  C_56 
REMARK   26  A    between atoms: C_56  and  C_57 
REMARK   27  A    between atoms: C_57  and  C_58 
REMARK   28  A    between atoms: C_58  and  O_60 
ROOT
ATOM      1  O   UNK d   0     -17.196  22.846  24.760  0.00  0.00    -0.650 OA
ATOM      2  C   UNK d   0     -17.629  24.020  24.759  0.00  0.00     0.139 C 
ENDROOT
BRANCH   2   3
ATOM      3  O   UNK d   0     -17.551  24.768  25.910  0.00  0.00    -0.776 OA
ATOM      4  H   UNK d   0     -18.355  24.859  26.535  0.00  0.00     0.167 HD
ENDBRANCH   2   3
BRANCH   2   5
ATOM      5  C   UNK d   0     -18.224  24.597  23.521  0.00  0.00     0.115 C 
BRANCH   5   6
ATOM      6  C   UNK d   0     -19.504  23.884  23.180  0.00  0.00     0.052 C 
BRANCH   6   7
ATOM      7  C   UNK d   0     -19.923  24.095  21.745  0.00  0.00    -0.020 A 
ATOM      8  C   UNK d   0     -19.798  23.259  20.746  0.00  0.00    -0.011 A 
ATOM      9  C   UNK d   0     -20.333  23.903  19.557  0.00  0.00     0.067 A 
ATOM     10  C   UNK d   0     -20.512  23.553  18.210  0.00  0.00     0.062 C 
ATOM     11  N   UNK d   0     -20.757  25.131  19.924  0.00  0.00    -0.248 NA
ATOM     12  C   UNK d   0     -21.307  24.209  17.263  0.00  0.00     0.041 A 
ATOM     13  N   UNK d   0     -21.478  25.519  17.003  0.00  0.00    -0.355 N 
ATOM     14  C   UNK d   0     -22.146  23.444  16.432  0.00  0.00    -0.022 A 
ATOM     15  C   UNK d   0     -22.409  25.605  16.034  0.00  0.00     0.042 A 
ATOM     16  H   UNK d   0     -20.937  26.365  17.481  0.00  0.00     0.166 HD
ATOM     17  C   UNK d   0     -22.957  26.733  15.393  0.00  0.00     0.062 C 
ATOM     18  C   UNK d   0     -22.852  24.324  15.651  0.00  0.00    -0.013 A 
ATOM     19  C   UNK d   0     -23.395  27.911  15.943  0.00  0.00     0.067 A 
ATOM     20  N   UNK d   0     -23.097  28.126  17.227  0.00  0.00    -0.248 NA
ATOM     21  C   UNK d   0     -24.158  29.059  15.484  0.00  0.00    -0.011 A 
ATOM     22  C   UNK d   0     -23.610  29.330  17.641  0.00  0.00     0.066 A 
ATOM     23  C   UNK d   0     -23.341  29.699  18.951  0.00  0.00     0.062 C 
ATOM     24  C   UNK d   0     -24.284  29.884  16.483  0.00  0.00    -0.020 A 
ATOM     25  C   UNK d   0     -22.529  29.032  19.882  0.00  0.00     0.041 A 
ATOM     26  N   UNK d   0     -22.371  27.731  20.151  0.00  0.00    -0.355 N 
ATOM     27  C   UNK d   0     -21.684  29.801  20.712  0.00  0.00    -0.022 A 
ATOM     28  C   UNK d   0     -21.449  27.643  21.122  0.00  0.00     0.042 A 
ATOM     29  H   UNK d   0     -22.923  26.882  19.677  0.00  0.00     0.166 HD
ATOM     30  C   UNK d   0     -20.901  26.528  21.776  0.00  0.00     0.062 C 
ATOM     31  C   UNK d   0     -20.997  28.929  21.500  0.00  0.00    -0.013 A 
ATOM     32  C   UNK d   0     -20.539  25.308  21.228  0.00  0.00     0.066 A 
BRANCH   8  33
ATOM     33  C   UNK d   0     -19.217  21.905  20.792  0.00  0.00     0.151 C 
BRANCH  33  34
ATOM     34  C   UNK d   0     -20.225  20.859  21.039  0.00  0.00     0.143 C 
ATOM     35  O   UNK d   0     -21.144  20.657  20.231  0.00  0.00    -0.650 OA
BRANCH  34  36
ATOM     36  O   UNK d   0     -20.145  20.100  22.183  0.00  0.00    -0.776 OA
ATOM     37  H   UNK d   0     -19.903  19.100  22.145  0.00  0.00     0.167 HD
ENDBRANCH  34  36
ENDBRANCH  33  34
ENDBRANCH   8  33
BRANCH  31  38
ATOM     38  C   UNK d   0     -19.963  29.293  22.540  0.00  0.00     0.151 C 
BRANCH  38  39
ATOM     39  C   UNK d   0     -20.540  29.537  23.844  0.00  0.00     0.143 C 
ATOM     40  O   UNK d   0     -20.923  30.664  24.202  0.00  0.00    -0.650 OA
BRANCH  39  41
ATOM     41  O   UNK d   0     -20.677  28.479  24.743  0.00  0.00    -0.776 OA
ATOM     42  H   UNK d   0     -19.943  27.764  24.730  0.00  0.00     0.167 HD
ENDBRANCH  39  41
ENDBRANCH  38  39
ENDBRANCH  31  38
BRANCH  27  43
ATOM     43  C   UNK d   0     -21.514  31.298  20.783  0.00  0.00     0.052 C 
BRANCH  43  44
ATOM     44  C   UNK d   0     -20.859  31.876  19.571  0.00  0.00     0.115 C 
BRANCH  44  45
ATOM     45  C   UNK d   0     -21.571  33.145  19.268  0.00  0.00     0.139 C 
ATOM     46  O   UNK d   0     -22.817  33.175  19.422  0.00  0.00    -0.650 OA
BRANCH  45  47
ATOM     47  O   UNK d   0     -20.923  34.280  18.834  0.00  0.00    -0.776 OA
ATOM     48  H   UNK d   0     -20.683  34.445  17.843  0.00  0.00     0.167 HD
ENDBRANCH  45  47
ENDBRANCH  44  45
ENDBRANCH  43  44
ENDBRANCH  27  43
BRANCH  24  49
ATOM     49  C   UNK d   0     -24.955  31.195  16.447  0.00  0.00     0.052 C 
BRANCH  49  50
ATOM     50  C   UNK d   0     -23.946  32.295  16.238  0.00  0.00     0.115 C 
BRANCH  50  51
ATOM     51  C   UNK d   0     -24.443  33.664  16.252  0.00  0.00     0.139 C 
ATOM     52  O   UNK d   0     -24.673  34.311  15.203  0.00  0.00    -0.650 OA
BRANCH  51  53
ATOM     53  O   UNK d   0     -24.674  34.298  17.463  0.00  0.00    -0.776 OA
ATOM     54  H   UNK d   0     -24.621  33.751  18.304  0.00  0.00     0.167 HD
ENDBRANCH  51  53
ENDBRANCH  50  51
ENDBRANCH  49  50
ENDBRANCH  24  49
BRANCH  21  55
ATOM     55  C   UNK d   0     -24.678  29.214  14.093  0.00  0.00     0.151 C 
BRANCH  55  56
ATOM     56  C   UNK d   0     -25.877  28.395  13.858  0.00  0.00     0.143 C 
ATOM     57  O   UNK d   0     -26.944  28.566  14.480  0.00  0.00    -0.650 OA
BRANCH  56  58
ATOM     58  O   UNK d   0     -25.798  27.389  12.895  0.00  0.00    -0.776 OA
ATOM     59  H   UNK d   0     -26.234  26.490  13.167  0.00  0.00     0.167 HD
ENDBRANCH  56  58
ENDBRANCH  55  56
ENDBRANCH  21  55
BRANCH  18  60
ATOM     60  C   UNK d   0     -23.878  23.932  14.617  0.00  0.00     0.151 C 
BRANCH  60  61
ATOM     61  C   UNK d   0     -23.140  23.209  13.570  0.00  0.00     0.143 C 
ATOM     62  O   UNK d   0     -23.371  22.076  13.147  0.00  0.00    -0.650 OA
BRANCH  61  63
ATOM     63  O   UNK d   0     -22.051  23.915  13.003  0.00  0.00    -0.776 OA
ATOM     64  H   UNK d   0     -22.159  24.435  12.150  0.00  0.00     0.167 HD
ENDBRANCH  61  63
ENDBRANCH  60  61
ENDBRANCH  18  60
BRANCH  14  65
ATOM     65  C   UNK d   0     -22.258  21.956  16.254  0.00  0.00     0.052 C 
BRANCH  65  66
ATOM     66  C   UNK d   0     -23.172  21.319  17.239  0.00  0.00     0.115 C 
BRANCH  66  67
ATOM     67  C   UNK d   0     -23.906  22.139  18.162  0.00  0.00     0.139 C 
ATOM     68  O   UNK d   0     -25.035  22.627  17.786  0.00  0.00    -0.650 OA
BRANCH  67  69
ATOM     69  O   UNK d   0     -23.546  22.491  19.462  0.00  0.00    -0.776 OA
ATOM     70  H   UNK d   0     -24.240  23.044  19.985  0.00  0.00     0.167 HD
ENDBRANCH  67  69
ENDBRANCH  66  67
ENDBRANCH  65  66
ENDBRANCH  14  65
ENDBRANCH   6   7
ENDBRANCH   5   6
ENDBRANCH   2   5
TORSDOF 28
ENDMDL
MODEL 20
REMARK VINA RESULT:      -7.0      1.743      7.157
REMARK  28 active torsions:
REMARK  status: ('A' for Active; 'I' for Inactive)
REMARK    1  A    between atoms: C_2  and  O_3 
REMARK    2  A    between atoms: C_2  and  C_4 
REMARK    3  A    between atoms: C_4  and  C_5 
REMARK    4  A    between atoms: C_5  and  C_6 
REMARK    5  A    between atoms: C_7  and  C_8 
REMARK    6  A    between atoms: C_8  and  C_9 
REMARK    7  A    between atoms: C_9  and  O_11 
REMARK    8  A    between atoms: C_28  and  C_29 
REMARK    9  A    between atoms: C_29  and  C_30 
REMARK   10  A    between atoms: C_30  and  O_32 
REMARK   11  A    between atoms: C_33  and  C_34 
REMARK   12  A    between atoms: C_34  and  C_35 
REMARK   13  A    between atoms: C_35  and  C_36 
REMARK   14  A    between atoms: C_36  and  O_38 
REMARK   15  A    between atoms: C_39  and  C_40 
REMARK   16  A    between atoms: C_40  and  C_41 
REMARK   17  A    between atoms: C_41  and  C_42 
REMARK   18  A    between atoms: C_42  and  O_44 
REMARK   19  A    between atoms: C_45  and  C_46 
REMARK   20  A    between atoms: C_46  and  C_47 
REMARK   21  A    between atoms: C_47  and  O_49 
REMARK   22  A    between atoms: C_50  and  C_51 
REMARK   23  A    between atoms: C_51  and  C_52 
REMARK   24  A    between atoms: C_52  and  O_54 
REMARK   25  A    between atoms: C_55  and  C_56 
REMARK   26  A    between atoms: C_56  and  C_57 
REMARK   27  A    between atoms: C_57  and  C_58 
REMARK   28  A    between atoms: C_58  and  O_60 
ROOT
ATOM      1  O   UNK d   0     -23.775  33.822  17.959  0.00  0.00    -0.650 OA
ATOM      2  C   UNK d   0     -22.525  33.868  17.982  0.00  0.00     0.139 C 
ENDROOT
BRANCH   2   3
ATOM      3  O   UNK d   0     -21.833  33.982  16.801  0.00  0.00    -0.776 OA
ATOM      4  H   UNK d   0     -21.026  33.387  16.603  0.00  0.00     0.167 HD
ENDBRANCH   2   3
BRANCH   2   5
ATOM      5  C   UNK d   0     -21.798  33.799  19.282  0.00  0.00     0.115 C 
BRANCH   5   6
ATOM      6  C   UNK d   0     -22.452  32.791  20.187  0.00  0.00     0.052 C 
BRANCH   6   7
ATOM      7  C   UNK d   0     -22.000  31.378  19.906  0.00  0.00    -0.020 A 
ATOM      8  C   UNK d   0     -20.881  30.809  20.275  0.00  0.00    -0.011 A 
ATOM      9  C   UNK d   0     -20.885  29.448  19.767  0.00  0.00     0.067 A 
ATOM     10  C   UNK d   0     -20.023  28.342  19.828  0.00  0.00     0.062 C 
ATOM     11  N   UNK d   0     -22.042  29.274  19.094  0.00  0.00    -0.248 NA
ATOM     12  C   UNK d   0     -20.325  27.013  19.508  0.00  0.00     0.041 A 
ATOM     13  N   UNK d   0     -21.021  26.485  18.484  0.00  0.00    -0.355 N 
ATOM     14  C   UNK d   0     -19.914  25.992  20.384  0.00  0.00    -0.022 A 
ATOM     15  C   UNK d   0     -21.069  25.155  18.691  0.00  0.00     0.042 A 
ATOM     16  H   UNK d   0     -21.453  27.038  17.621  0.00  0.00     0.166 HD
ATOM     17  C   UNK d   0     -21.668  24.133  17.929  0.00  0.00     0.062 C 
ATOM     18  C   UNK d   0     -20.386  24.809  19.873  0.00  0.00    -0.013 A 
ATOM     19  C   UNK d   0     -22.910  24.105  17.348  0.00  0.00     0.067 A 
ATOM     20  N   UNK d   0     -23.588  25.255  17.316  0.00  0.00    -0.248 NA
ATOM     21  C   UNK d   0     -23.751  23.094  16.729  0.00  0.00    -0.011 A 
ATOM     22  C   UNK d   0     -24.813  25.069  16.722  0.00  0.00     0.066 A 
ATOM     23  C   UNK d   0     -25.610  26.196  16.589  0.00  0.00     0.062 C 
ATOM     24  C   UNK d   0     -24.865  23.664  16.369  0.00  0.00    -0.020 A 
ATOM     25  C   UNK d   0     -25.283  27.524  16.904  0.00  0.00     0.041 A 
ATOM     26  N   UNK d   0     -24.604  28.051  17.930  0.00  0.00    -0.355 N 
ATOM     27  C   UNK d   0     -25.692  28.548  16.022  0.00  0.00    -0.022 A 
ATOM     28  C   UNK d   0     -24.562  29.378  17.730  0.00  0.00     0.042 A 
ATOM     29  H   UNK d   0     -24.179  27.495  18.802  0.00  0.00     0.166 HD
ATOM     30  C   UNK d   0     -23.978  30.407  18.485  0.00  0.00     0.062 C 
ATOM     31  C   UNK d   0     -25.240  29.724  16.537  0.00  0.00    -0.013 A 
ATOM     32  C   UNK d   0     -22.758  30.399  19.141  0.00  0.00     0.066 A 
BRANCH   8  33
ATOM     33  C   UNK d   0     -19.794  31.422  21.061  0.00  0.00     0.151 C 
BRANCH  33  34
ATOM     34  C   UNK d   0     -19.875  31.097  22.497  0.00  0.00     0.143 C 
ATOM     35  O   UNK d   0     -20.923  30.658  22.992  0.00  0.00    -0.650 OA
BRANCH  34  36
ATOM     36  O   UNK d   0     -18.771  31.286  23.296  0.00  0.00    -0.776 OA
ATOM     37  H   UNK d   0     -18.047  31.976  23.052  0.00  0.00     0.167 HD
ENDBRANCH  34  36
ENDBRANCH  33  34
ENDBRANCH   8  33
BRANCH  31  38
ATOM     38  C   UNK d   0     -25.427  31.094  15.928  0.00  0.00     0.151 C 
BRANCH  38  39
ATOM     39  C   UNK d   0     -24.286  31.522  15.147  0.00  0.00     0.143 C 
ATOM     40  O   UNK d   0     -23.549  30.718  14.549  0.00  0.00    -0.650 OA
BRANCH  39  41
ATOM     41  O   UNK d   0     -23.990  32.881  15.053  0.00  0.00    -0.776 OA
ATOM     42  H   UNK d   0     -24.711  33.534  15.374  0.00  0.00     0.167 HD
ENDBRANCH  39  41
ENDBRANCH  38  39
ENDBRANCH  31  38
BRANCH  27  43
ATOM     43  C   UNK d   0     -26.481  28.450  14.740  0.00  0.00     0.052 C 
BRANCH  43  44
ATOM     44  C   UNK d   0     -25.661  27.999  13.575  0.00  0.00     0.115 C 
BRANCH  44  45
ATOM     45  C   UNK d   0     -26.558  27.183  12.716  0.00  0.00     0.139 C 
ATOM     46  O   UNK d   0     -26.171  26.905  11.554  0.00  0.00    -0.650 OA
BRANCH  45  47
ATOM     47  O   UNK d   0     -27.783  26.719  13.143  0.00  0.00    -0.776 OA
ATOM     48  H   UNK d   0     -27.904  26.173  14.011  0.00  0.00     0.167 HD
ENDBRANCH  45  47
ENDBRANCH  44  45
ENDBRANCH  43  44
ENDBRANCH  27  43
BRANCH  24  49
ATOM     49  C   UNK d   0     -25.986  23.014  15.669  0.00  0.00     0.052 C 
BRANCH  49  50
ATOM     50  C   UNK d   0     -26.335  23.776  14.416  0.00  0.00     0.115 C 
BRANCH  50  51
ATOM     51  C   UNK d   0     -25.479  23.574  13.255  0.00  0.00     0.139 C 
ATOM     52  O   UNK d   0     -25.757  22.759  12.344  0.00  0.00    -0.650 OA
BRANCH  51  53
ATOM     53  O   UNK d   0     -24.304  24.300  13.134  0.00  0.00    -0.776 OA
ATOM     54  H   UNK d   0     -23.473  23.814  12.845  0.00  0.00     0.167 HD
ENDBRANCH  51  53
ENDBRANCH  50  51
ENDBRANCH  49  50
ENDBRANCH  24  49
BRANCH  21  55
ATOM     55  C   UNK d   0     -23.353  21.666  16.558  0.00  0.00     0.151 C 
BRANCH  55  56
ATOM     56  C   UNK d   0     -22.850  21.392  15.204  0.00  0.00     0.143 C 
ATOM     57  O   UNK d   0     -22.435  22.288  14.443  0.00  0.00    -0.650 OA
BRANCH  56  58
ATOM     58  O   UNK d   0     -22.845  20.067  14.769  0.00  0.00    -0.776 OA
ATOM     59  H   UNK d   0     -22.097  19.833  14.092  0.00  0.00     0.167 HD
ENDBRANCH  56  58
ENDBRANCH  55  56
ENDBRANCH  21  55
BRANCH  18  60
ATOM     60  C   UNK d   0     -20.181  23.453  20.502  0.00  0.00     0.151 C 
BRANCH  60  61
ATOM     61  C   UNK d   0     -21.237  23.315  21.516  0.00  0.00     0.143 C 
ATOM     62  O   UNK d   0     -22.404  23.699  21.430  0.00  0.00    -0.650 OA
BRANCH  61  63
ATOM     63  O   UNK d   0     -20.844  22.665  22.711  0.00  0.00    -0.776 OA
ATOM     64  H   UNK d   0     -20.928  21.669  22.811  0.00  0.00     0.167 HD
ENDBRANCH  61  63
ENDBRANCH  60  61
ENDBRANCH  18  60
BRANCH  14  65
ATOM     65  C   UNK d   0     -19.034  26.039  21.601  0.00  0.00     0.052 C 
BRANCH  65  66
ATOM     66  C   UNK d   0     -19.776  26.391  22.841  0.00  0.00     0.115 C 
BRANCH  66  67
ATOM     67  C   UNK d   0     -19.317  25.897  24.109  0.00  0.00     0.139 C 
ATOM     68  O   UNK d   0     -19.625  24.695  24.448  0.00  0.00    -0.650 OA
BRANCH  67  69
ATOM     69  O   UNK d   0     -18.552  26.571  25.061  0.00  0.00    -0.776 OA
ATOM     70  H   UNK d   0     -17.543  26.364  25.053  0.00  0.00     0.167 HD
ENDBRANCH  67  69
ENDBRANCH  66  67
ENDBRANCH  65  66
ENDBRANCH  14  65
ENDBRANCH   6   7
ENDBRANCH   5   6
ENDBRANCH   2   5
TORSDOF 28
ENDMDL
