MODEL 1
REMARK VINA RESULT:      -9.0      0.000      0.000
REMARK  16 active torsions:
REMARK  status: ('A' for Active; 'I' for Inactive)
REMARK    1  A    between atoms: C_6  and  C_7 
REMARK    2  A    between atoms: C_7  and  C_8 
REMARK    3  A    between atoms: C_8  and  C_9 
REMARK    4  A    between atoms: C_9  and  O_11 
REMARK    5  A    between atoms: C_16  and  C_17 
REMARK    6  A    between atoms: C_17  and  C_18 
REMARK    7  A    between atoms: C_18  and  C_19 
REMARK    8  A    between atoms: C_19  and  O_21 
REMARK    9  A    between atoms: C_28  and  C_29 
REMARK   10  A    between atoms: C_29  and  C_30 
REMARK   11  A    between atoms: C_30  and  C_31 
REMARK   12  A    between atoms: C_31  and  O_33 
REMARK   13  A    between atoms: C_42  and  C_43 
REMARK   14  A    between atoms: C_43  and  C_44 
REMARK   15  A    between atoms: C_44  and  C_45 
REMARK   16  A    between atoms: C_45  and  O_47 
ROOT
HETATM    1  C   UNK     0      -5.084  12.187 -36.995  0.00  0.00     0.051 C 
HETATM    2  C   UNK     0      -4.099  11.342 -36.213  0.00  0.00    -0.031 A 
HETATM    3  C   UNK     0      -4.297  10.133 -35.566  0.00  0.00     0.021 A 
HETATM    4  N   UNK     0      -3.141   9.757 -34.969  0.00  0.00    -0.361 N 
HETATM    5  C   UNK     0      -2.208  10.696 -35.229  0.00  0.00     0.022 A 
HETATM    6  C   UNK     0      -2.774  11.704 -36.003  0.00  0.00    -0.027 A 
HETATM    7  C   UNK     0      -0.752  10.714 -34.882  0.00  0.00     0.115 C 
HETATM    8  C   UNK     0       0.008   9.412 -35.067  0.00  0.00     0.021 A 
HETATM    9  N   UNK     0      -0.153   8.477 -36.016  0.00  0.00    -0.361 N 
HETATM   10  C   UNK     0       0.675   7.449 -35.736  0.00  0.00     0.022 A 
HETATM   11  C   UNK     0       1.396   7.733 -34.580  0.00  0.00    -0.027 A 
HETATM   12  C   UNK     0       0.981   8.969 -34.154  0.00  0.00    -0.031 A 
HETATM   13  C   UNK     0       1.499   9.691 -32.930  0.00  0.00     0.051 C 
HETATM   14  C   UNK     0       0.781   6.139 -36.512  0.00  0.00     0.115 C 
HETATM   15  C   UNK     0      -0.510   5.336 -36.543  0.00  0.00     0.021 A 
HETATM   16  N   UNK     0      -1.708   5.725 -37.017  0.00  0.00    -0.361 N 
HETATM   17  C   UNK     0      -2.602   4.757 -36.797  0.00  0.00     0.022 A 
HETATM   18  C   UNK     0      -1.951   3.682 -36.159  0.00  0.00    -0.027 A 
HETATM   19  C   UNK     0      -0.642   4.057 -36.007  0.00  0.00    -0.031 A 
HETATM   20  C   UNK     0       0.424   3.168 -35.392  0.00  0.00     0.051 C 
HETATM   21  C   UNK     0      -4.088   4.727 -37.071  0.00  0.00     0.115 C 
HETATM   22  C   UNK     0      -4.850   6.024 -36.934  0.00  0.00     0.022 A 
HETATM   23  N   UNK     0      -4.707   6.976 -36.002  0.00  0.00    -0.361 N 
HETATM   24  C   UNK     0      -5.484   8.023 -36.344  0.00  0.00     0.021 A 
HETATM   25  C   UNK     0      -6.151   7.735 -37.519  0.00  0.00    -0.031 A 
HETATM   26  C   UNK     0      -7.161   8.576 -38.273  0.00  0.00     0.051 C 
HETATM   27  C   UNK     0      -5.762   6.461 -37.916  0.00  0.00    -0.027 A 
HETATM   28  C   UNK     0      -5.589   9.369 -35.648  0.00  0.00     0.115 C 
HETATM   29  H   UNK     0      -3.003   8.851 -34.335  0.00  0.00     0.165 HD
HETATM   30  H   UNK     0      -0.815   8.561 -36.912  0.00  0.00     0.165 HD
HETATM   31  H   UNK     0      -1.919   6.683 -37.559  0.00  0.00     0.165 HD
HETATM   32  H   UNK     0      -4.089   6.899 -35.070  0.00  0.00     0.165 HD
ENDROOT
BRANCH   6  33
HETATM   33  C   UNK     0      -2.161  12.969 -36.549  0.00  0.00     0.051 C 
BRANCH  33  34
HETATM   34  C   UNK     0      -2.123  14.045 -35.489  0.00  0.00     0.114 C 
BRANCH  34  35
HETATM   35  C   UNK     0      -1.475  15.244 -36.094  0.00  0.00     0.139 C 
HETATM   36  O   UNK     0      -0.806  15.135 -37.163  0.00  0.00    -0.650 OA
BRANCH  35  37
HETATM   37  O   UNK     0      -1.570  16.511 -35.532  0.00  0.00    -0.776 OA
HETATM   38  H   UNK     0      -1.105  16.750 -34.672  0.00  0.00     0.167 HD
ENDBRANCH  35  37
ENDBRANCH  34  35
ENDBRANCH  33  34
ENDBRANCH   6  33
BRANCH  27  39
HETATM   39  C   UNK     0      -6.328   5.775 -39.109  0.00  0.00     0.051 C 
BRANCH  39  40
HETATM   40  C   UNK     0      -5.424   5.433 -40.207  0.00  0.00     0.114 C 
BRANCH  40  41
HETATM   41  C   UNK     0      -5.191   6.325 -41.320  0.00  0.00     0.139 C 
HETATM   42  O   UNK     0      -5.069   7.552 -41.199  0.00  0.00    -0.650 OA
BRANCH  41  43
HETATM   43  O   UNK     0      -5.093   5.782 -42.632  0.00  0.00    -0.776 OA
HETATM   44  H   UNK     0      -5.307   6.438 -43.374  0.00  0.00     0.167 HD
ENDBRANCH  41  43
ENDBRANCH  40  41
ENDBRANCH  39  40
ENDBRANCH  27  39
BRANCH  11  45
HETATM   45  C   UNK     0       2.439   6.895 -33.890  0.00  0.00     0.051 C 
BRANCH  45  46
HETATM   46  C   UNK     0       3.836   7.302 -34.185  0.00  0.00     0.114 C 
BRANCH  46  47
HETATM   47  C   UNK     0       4.432   6.243 -35.048  0.00  0.00     0.139 C 
HETATM   48  O   UNK     0       3.862   5.145 -35.118  0.00  0.00    -0.650 OA
BRANCH  47  49
HETATM   49  O   UNK     0       5.587   6.476 -35.751  0.00  0.00    -0.776 OA
HETATM   50  H   UNK     0       5.577   6.827 -36.716  0.00  0.00     0.167 HD
ENDBRANCH  47  49
ENDBRANCH  46  47
ENDBRANCH  45  46
ENDBRANCH  11  45
BRANCH  18  51
HETATM   51  C   UNK     0      -2.542   2.362 -35.737  0.00  0.00     0.051 C 
BRANCH  51  52
HETATM   52  C   UNK     0      -2.733   2.443 -34.230  0.00  0.00     0.114 C 
BRANCH  52  53
HETATM   53  C   UNK     0      -4.053   2.998 -33.872  0.00  0.00     0.139 C 
HETATM   54  O   UNK     0      -5.064   2.280 -33.928  0.00  0.00    -0.650 OA
BRANCH  53  55
HETATM   55  O   UNK     0      -4.155   4.311 -33.481  0.00  0.00    -0.776 OA
HETATM   56  H   UNK     0      -4.886   4.937 -33.724  0.00  0.00     0.167 HD
ENDBRANCH  53  55
ENDBRANCH  52  53
ENDBRANCH  51  52
ENDBRANCH  18  51
TORSDOF 16
ENDMDL
MODEL 2
REMARK VINA RESULT:      -8.8      4.950     10.220
REMARK  16 active torsions:
REMARK  status: ('A' for Active; 'I' for Inactive)
REMARK    1  A    between atoms: C_6  and  C_7 
REMARK    2  A    between atoms: C_7  and  C_8 
REMARK    3  A    between atoms: C_8  and  C_9 
REMARK    4  A    between atoms: C_9  and  O_11 
REMARK    5  A    between atoms: C_16  and  C_17 
REMARK    6  A    between atoms: C_17  and  C_18 
REMARK    7  A    between atoms: C_18  and  C_19 
REMARK    8  A    between atoms: C_19  and  O_21 
REMARK    9  A    between atoms: C_28  and  C_29 
REMARK   10  A    between atoms: C_29  and  C_30 
REMARK   11  A    between atoms: C_30  and  C_31 
REMARK   12  A    between atoms: C_31  and  O_33 
REMARK   13  A    between atoms: C_42  and  C_43 
REMARK   14  A    between atoms: C_43  and  C_44 
REMARK   15  A    between atoms: C_44  and  C_45 
REMARK   16  A    between atoms: C_45  and  O_47 
ROOT
HETATM    1  C   UNK     0     -12.076   7.003 -39.339  0.00  0.00     0.051 C 
HETATM    2  C   UNK     0     -11.654   8.112 -38.396  0.00  0.00    -0.031 A 
HETATM    3  C   UNK     0     -10.747   8.078 -37.349  0.00  0.00     0.021 A 
HETATM    4  N   UNK     0     -10.709   9.296 -36.759  0.00  0.00    -0.361 N 
HETATM    5  C   UNK     0     -11.566  10.108 -37.412  0.00  0.00     0.022 A 
HETATM    6  C   UNK     0     -12.176   9.398 -38.441  0.00  0.00    -0.027 A 
HETATM    7  C   UNK     0     -11.828  11.569 -37.219  0.00  0.00     0.115 C 
HETATM    8  C   UNK     0     -10.616  12.455 -36.996  0.00  0.00     0.021 A 
HETATM    9  N   UNK     0      -9.392  12.349 -37.536  0.00  0.00    -0.361 N 
HETATM   10  C   UNK     0      -8.606  13.297 -36.982  0.00  0.00     0.022 A 
HETATM   11  C   UNK     0      -9.347  14.040 -36.068  0.00  0.00    -0.027 A 
HETATM   12  C   UNK     0     -10.614  13.515 -36.072  0.00  0.00    -0.031 A 
HETATM   13  C   UNK     0     -11.768  14.012 -35.231  0.00  0.00     0.051 C 
HETATM   14  C   UNK     0      -7.119  13.505 -37.253  0.00  0.00     0.115 C 
HETATM   15  C   UNK     0      -6.253  12.309 -36.888  0.00  0.00     0.021 A 
HETATM   16  N   UNK     0      -6.345  11.054 -37.364  0.00  0.00    -0.361 N 
HETATM   17  C   UNK     0      -5.450  10.283 -36.742  0.00  0.00     0.022 A 
HETATM   18  C   UNK     0      -4.735  11.076 -35.823  0.00  0.00    -0.027 A 
HETATM   19  C   UNK     0      -5.247  12.344 -35.925  0.00  0.00    -0.031 A 
HETATM   20  C   UNK     0      -4.731  13.529 -35.129  0.00  0.00     0.051 C 
HETATM   21  C   UNK     0      -5.199   8.796 -36.859  0.00  0.00     0.115 C 
HETATM   22  C   UNK     0      -6.390   7.907 -37.125  0.00  0.00     0.022 A 
HETATM   23  N   UNK     0      -7.622   7.991 -36.605  0.00  0.00    -0.361 N 
HETATM   24  C   UNK     0      -8.407   7.089 -37.227  0.00  0.00     0.021 A 
HETATM   25  C   UNK     0      -7.661   6.400 -38.163  0.00  0.00    -0.031 A 
HETATM   26  C   UNK     0      -8.087   5.269 -39.077  0.00  0.00     0.051 C 
HETATM   27  C   UNK     0      -6.367   6.905 -38.116  0.00  0.00    -0.027 A 
HETATM   28  C   UNK     0      -9.900   6.874 -37.046  0.00  0.00     0.115 C 
HETATM   29  H   UNK     0     -10.107   9.563 -35.859  0.00  0.00     0.165 HD
HETATM   30  H   UNK     0      -9.092  11.639 -38.345  0.00  0.00     0.165 HD
HETATM   31  H   UNK     0      -7.022  10.713 -38.190  0.00  0.00     0.165 HD
HETATM   32  H   UNK     0      -7.938   8.660 -35.762  0.00  0.00     0.165 HD
ENDROOT
BRANCH   6  33
HETATM   33  C   UNK     0     -13.206   9.842 -39.448  0.00  0.00     0.051 C 
BRANCH  33  34
HETATM   34  C   UNK     0     -14.267  10.692 -38.789  0.00  0.00     0.114 C 
BRANCH  34  35
HETATM   35  C   UNK     0     -14.439  11.917 -39.623  0.00  0.00     0.139 C 
HETATM   36  O   UNK     0     -15.596  12.371 -39.856  0.00  0.00    -0.650 OA
BRANCH  35  37
HETATM   37  O   UNK     0     -13.364  12.608 -40.170  0.00  0.00    -0.776 OA
HETATM   38  H   UNK     0     -13.008  12.401 -41.089  0.00  0.00     0.167 HD
ENDBRANCH  35  37
ENDBRANCH  34  35
ENDBRANCH  33  34
ENDBRANCH   6  33
BRANCH  27  39
HETATM   39  C   UNK     0      -5.253   6.358 -38.937  0.00  0.00     0.051 C 
BRANCH  39  40
HETATM   40  C   UNK     0      -5.082   6.862 -40.300  0.00  0.00     0.114 C 
BRANCH  40  41
HETATM   41  C   UNK     0      -4.787   8.250 -40.576  0.00  0.00     0.139 C 
HETATM   42  O   UNK     0      -5.629   9.156 -40.500  0.00  0.00    -0.650 OA
BRANCH  41  43
HETATM   43  O   UNK     0      -3.465   8.613 -40.958  0.00  0.00    -0.776 OA
HETATM   44  H   UNK     0      -3.389   9.525 -41.394  0.00  0.00     0.167 HD
ENDBRANCH  41  43
ENDBRANCH  40  41
ENDBRANCH  39  40
ENDBRANCH  27  39
BRANCH  11  45
HETATM   45  C   UNK     0      -8.903  15.200 -35.218  0.00  0.00     0.051 C 
BRANCH  45  46
HETATM   46  C   UNK     0      -9.099  16.527 -35.854  0.00  0.00     0.114 C 
BRANCH  46  47
HETATM   47  C   UNK     0     -10.212  17.204 -35.128  0.00  0.00     0.139 C 
HETATM   48  O   UNK     0     -10.131  17.323 -33.898  0.00  0.00    -0.650 OA
BRANCH  47  49
HETATM   49  O   UNK     0     -11.304  17.685 -35.807  0.00  0.00    -0.776 OA
HETATM   50  H   UNK     0     -12.058  18.195 -35.334  0.00  0.00     0.167 HD
ENDBRANCH  47  49
ENDBRANCH  46  47
ENDBRANCH  45  46
ENDBRANCH  11  45
BRANCH  18  51
HETATM   51  C   UNK     0      -3.611  10.654 -34.913  0.00  0.00     0.051 C 
BRANCH  51  52
HETATM   52  C   UNK     0      -2.409  10.399 -35.810  0.00  0.00     0.114 C 
BRANCH  52  53
HETATM   53  C   UNK     0      -1.793  11.657 -36.274  0.00  0.00     0.139 C 
HETATM   54  O   UNK     0      -1.683  11.884 -37.490  0.00  0.00    -0.650 OA
BRANCH  53  55
HETATM   55  O   UNK     0      -1.340  12.572 -35.355  0.00  0.00    -0.776 OA
HETATM   56  H   UNK     0      -0.416  12.929 -35.292  0.00  0.00     0.167 HD
ENDBRANCH  53  55
ENDBRANCH  52  53
ENDBRANCH  51  52
ENDBRANCH  18  51
TORSDOF 16
ENDMDL
MODEL 3
REMARK VINA RESULT:      -8.8      4.951     10.104
REMARK  16 active torsions:
REMARK  status: ('A' for Active; 'I' for Inactive)
REMARK    1  A    between atoms: C_6  and  C_7 
REMARK    2  A    between atoms: C_7  and  C_8 
REMARK    3  A    between atoms: C_8  and  C_9 
REMARK    4  A    between atoms: C_9  and  O_11 
REMARK    5  A    between atoms: C_16  and  C_17 
REMARK    6  A    between atoms: C_17  and  C_18 
REMARK    7  A    between atoms: C_18  and  C_19 
REMARK    8  A    between atoms: C_19  and  O_21 
REMARK    9  A    between atoms: C_28  and  C_29 
REMARK   10  A    between atoms: C_29  and  C_30 
REMARK   11  A    between atoms: C_30  and  C_31 
REMARK   12  A    between atoms: C_31  and  O_33 
REMARK   13  A    between atoms: C_42  and  C_43 
REMARK   14  A    between atoms: C_43  and  C_44 
REMARK   15  A    between atoms: C_44  and  C_45 
REMARK   16  A    between atoms: C_45  and  O_47 
ROOT
HETATM    1  C   UNK     0      -8.780  14.874 -35.075  0.00  0.00     0.051 C 
HETATM    2  C   UNK     0      -9.183  13.771 -36.033  0.00  0.00    -0.031 A 
HETATM    3  C   UNK     0      -8.438  13.152 -37.025  0.00  0.00     0.021 A 
HETATM    4  N   UNK     0      -9.216  12.240 -37.656  0.00  0.00    -0.361 N 
HETATM    5  C   UNK     0     -10.437  12.259 -37.082  0.00  0.00     0.022 A 
HETATM    6  C   UNK     0     -10.451  13.207 -36.065  0.00  0.00    -0.027 A 
HETATM    7  C   UNK     0     -11.624  11.386 -37.343  0.00  0.00     0.115 C 
HETATM    8  C   UNK     0     -11.353   9.903 -37.528  0.00  0.00     0.021 A 
HETATM    9  N   UNK     0     -10.436   9.138 -36.916  0.00  0.00    -0.361 N 
HETATM   10  C   UNK     0     -10.491   7.903 -37.458  0.00  0.00     0.022 A 
HETATM   11  C   UNK     0     -11.477   7.869 -38.440  0.00  0.00    -0.027 A 
HETATM   12  C   UNK     0     -12.024   9.126 -38.489  0.00  0.00    -0.031 A 
HETATM   13  C   UNK     0     -13.142   9.557 -39.412  0.00  0.00     0.051 C 
HETATM   14  C   UNK     0      -9.585   6.725 -37.112  0.00  0.00     0.115 C 
HETATM   15  C   UNK     0      -8.111   6.981 -37.383  0.00  0.00     0.021 A 
HETATM   16  N   UNK     0      -7.338   7.956 -36.867  0.00  0.00    -0.361 N 
HETATM   17  C   UNK     0      -6.121   7.882 -37.409  0.00  0.00     0.022 A 
HETATM   18  C   UNK     0      -6.096   6.802 -38.314  0.00  0.00    -0.027 A 
HETATM   19  C   UNK     0      -7.348   6.246 -38.287  0.00  0.00    -0.031 A 
HETATM   20  C   UNK     0      -7.746   5.024 -39.095  0.00  0.00     0.051 C 
HETATM   21  C   UNK     0      -4.919   8.781 -37.224  0.00  0.00     0.115 C 
HETATM   22  C   UNK     0      -5.176  10.251 -36.994  0.00  0.00     0.022 A 
HETATM   23  N   UNK     0      -6.085  11.037 -37.586  0.00  0.00    -0.361 N 
HETATM   24  C   UNK     0      -6.065  12.240 -36.977  0.00  0.00     0.021 A 
HETATM   25  C   UNK     0      -5.114  12.232 -35.975  0.00  0.00    -0.031 A 
HETATM   26  C   UNK     0      -4.697  13.354 -35.047  0.00  0.00     0.051 C 
HETATM   27  C   UNK     0      -4.531  10.970 -35.967  0.00  0.00    -0.027 A 
HETATM   28  C   UNK     0      -6.976  13.428 -37.235  0.00  0.00     0.115 C 
HETATM   29  H   UNK     0      -8.909  11.618 -38.528  0.00  0.00     0.165 HD
HETATM   30  H   UNK     0      -9.782   9.453 -36.066  0.00  0.00     0.165 HD
HETATM   31  H   UNK     0      -7.644   8.681 -36.069  0.00  0.00     0.165 HD
HETATM   32  H   UNK     0      -6.719  10.764 -38.469  0.00  0.00     0.165 HD
ENDROOT
BRANCH   6  33
HETATM   33  C   UNK     0     -11.566  13.614 -35.134  0.00  0.00     0.051 C 
BRANCH  33  34
HETATM   34  C   UNK     0     -12.345  14.773 -35.709  0.00  0.00     0.114 C 
BRANCH  34  35
HETATM   35  C   UNK     0     -12.220  15.912 -34.754  0.00  0.00     0.139 C 
HETATM   36  O   UNK     0     -12.479  17.092 -35.132  0.00  0.00    -0.650 OA
BRANCH  35  37
HETATM   37  O   UNK     0     -11.825  15.742 -33.433  0.00  0.00    -0.776 OA
HETATM   38  H   UNK     0     -11.762  14.832 -33.007  0.00  0.00     0.167 HD
ENDBRANCH  35  37
ENDBRANCH  34  35
ENDBRANCH  33  34
ENDBRANCH   6  33
BRANCH  27  39
HETATM   39  C   UNK     0      -3.406  10.602 -35.065  0.00  0.00     0.051 C 
BRANCH  39  40
HETATM   40  C   UNK     0      -2.048  10.610 -35.609  0.00  0.00     0.114 C 
BRANCH  40  41
HETATM   41  C   UNK     0      -1.478  11.778 -36.241  0.00  0.00     0.139 C 
HETATM   42  O   UNK     0      -1.122  11.808 -37.427  0.00  0.00    -0.650 OA
BRANCH  41  43
HETATM   43  O   UNK     0      -1.310  12.966 -35.475  0.00  0.00    -0.776 OA
HETATM   44  H   UNK     0      -0.345  13.246 -35.342  0.00  0.00     0.167 HD
ENDBRANCH  41  43
ENDBRANCH  40  41
ENDBRANCH  39  40
ENDBRANCH  27  39
BRANCH  11  45
HETATM   45  C   UNK     0     -11.905   6.714 -39.305  0.00  0.00     0.051 C 
BRANCH  45  46
HETATM   46  C   UNK     0     -12.664   5.663 -38.581  0.00  0.00     0.114 C 
BRANCH  46  47
HETATM   47  C   UNK     0     -14.108   5.864 -38.896  0.00  0.00     0.139 C 
HETATM   48  O   UNK     0     -14.773   6.618 -38.172  0.00  0.00    -0.650 OA
BRANCH  47  49
HETATM   49  O   UNK     0     -14.689   5.228 -39.963  0.00  0.00    -0.776 OA
HETATM   50  H   UNK     0     -15.611   4.781 -39.896  0.00  0.00     0.167 HD
ENDBRANCH  47  49
ENDBRANCH  46  47
ENDBRANCH  45  46
ENDBRANCH  11  45
BRANCH  18  51
HETATM   51  C   UNK     0      -4.936   6.315 -39.143  0.00  0.00     0.051 C 
BRANCH  51  52
HETATM   52  C   UNK     0      -5.190   6.805 -40.561  0.00  0.00     0.114 C 
BRANCH  52  53
HETATM   53  C   UNK     0      -4.760   8.205 -40.743  0.00  0.00     0.139 C 
HETATM   54  O   UNK     0      -5.590   9.125 -40.664  0.00  0.00    -0.650 OA
BRANCH  53  55
HETATM   55  O   UNK     0      -3.441   8.482 -41.005  0.00  0.00    -0.776 OA
HETATM   56  H   UNK     0      -3.041   8.627 -41.902  0.00  0.00     0.167 HD
ENDBRANCH  53  55
ENDBRANCH  52  53
ENDBRANCH  51  52
ENDBRANCH  18  51
TORSDOF 16
ENDMDL
MODEL 4
REMARK VINA RESULT:      -8.3      2.764      9.936
REMARK  16 active torsions:
REMARK  status: ('A' for Active; 'I' for Inactive)
REMARK    1  A    between atoms: C_6  and  C_7 
REMARK    2  A    between atoms: C_7  and  C_8 
REMARK    3  A    between atoms: C_8  and  C_9 
REMARK    4  A    between atoms: C_9  and  O_11 
REMARK    5  A    between atoms: C_16  and  C_17 
REMARK    6  A    between atoms: C_17  and  C_18 
REMARK    7  A    between atoms: C_18  and  C_19 
REMARK    8  A    between atoms: C_19  and  O_21 
REMARK    9  A    between atoms: C_28  and  C_29 
REMARK   10  A    between atoms: C_29  and  C_30 
REMARK   11  A    between atoms: C_30  and  C_31 
REMARK   12  A    between atoms: C_31  and  O_33 
REMARK   13  A    between atoms: C_42  and  C_43 
REMARK   14  A    between atoms: C_43  and  C_44 
REMARK   15  A    between atoms: C_44  and  C_45 
REMARK   16  A    between atoms: C_45  and  O_47 
ROOT
HETATM    1  C   UNK     0      -0.039   0.829 -34.589  0.00  0.00     0.051 C 
HETATM    2  C   UNK     0      -1.178   1.787 -34.307  0.00  0.00    -0.031 A 
HETATM    3  C   UNK     0      -1.142   3.060 -33.760  0.00  0.00     0.021 A 
HETATM    4  N   UNK     0      -2.407   3.535 -33.663  0.00  0.00    -0.361 N 
HETATM    5  C   UNK     0      -3.247   2.596 -34.144  0.00  0.00     0.022 A 
HETATM    6  C   UNK     0      -2.512   1.488 -34.553  0.00  0.00    -0.027 A 
HETATM    7  C   UNK     0      -4.729   2.658 -34.346  0.00  0.00     0.115 C 
HETATM    8  C   UNK     0      -5.284   3.947 -34.926  0.00  0.00     0.021 A 
HETATM    9  N   UNK     0      -4.733   4.756 -35.844  0.00  0.00    -0.361 N 
HETATM   10  C   UNK     0      -5.535   5.832 -35.990  0.00  0.00     0.022 A 
HETATM   11  C   UNK     0      -6.638   5.708 -35.150  0.00  0.00    -0.027 A 
HETATM   12  C   UNK     0      -6.486   4.522 -34.477  0.00  0.00    -0.031 A 
HETATM   13  C   UNK     0      -7.453   3.966 -33.455  0.00  0.00     0.051 C 
HETATM   14  C   UNK     0      -5.269   7.041 -36.883  0.00  0.00     0.115 C 
HETATM   15  C   UNK     0      -4.001   7.801 -36.528  0.00  0.00     0.021 A 
HETATM   16  N   UNK     0      -2.742   7.327 -36.494  0.00  0.00    -0.361 N 
HETATM   17  C   UNK     0      -1.922   8.290 -36.068  0.00  0.00     0.022 A 
HETATM   18  C   UNK     0      -2.683   9.451 -35.822  0.00  0.00    -0.027 A 
HETATM   19  C   UNK     0      -3.983   9.132 -36.116  0.00  0.00    -0.031 A 
HETATM   20  C   UNK     0      -5.135  10.115 -36.022  0.00  0.00     0.051 C 
HETATM   21  C   UNK     0      -0.437   8.249 -35.788  0.00  0.00     0.115 C 
HETATM   22  C   UNK     0       0.136   6.959 -35.252  0.00  0.00     0.022 A 
HETATM   23  N   UNK     0      -0.392   6.130 -34.342  0.00  0.00    -0.361 N 
HETATM   24  C   UNK     0       0.384   5.030 -34.270  0.00  0.00     0.021 A 
HETATM   25  C   UNK     0       1.443   5.157 -35.148  0.00  0.00    -0.031 A 
HETATM   26  C   UNK     0       2.595   4.205 -35.396  0.00  0.00     0.051 C 
HETATM   27  C   UNK     0       1.306   6.383 -35.788  0.00  0.00    -0.027 A 
HETATM   28  C   UNK     0       0.143   3.775 -33.449  0.00  0.00     0.115 C 
HETATM   29  H   UNK     0      -2.700   4.514 -33.219  0.00  0.00     0.165 HD
HETATM   30  H   UNK     0      -3.803   4.548 -36.427  0.00  0.00     0.165 HD
HETATM   31  H   UNK     0      -2.417   6.305 -36.822  0.00  0.00     0.165 HD
HETATM   32  H   UNK     0      -1.295   6.334 -33.709  0.00  0.00     0.165 HD
ENDROOT
BRANCH   6  33
HETATM   33  C   UNK     0      -2.975   0.183 -35.150  0.00  0.00     0.051 C 
BRANCH  33  34
HETATM   34  C   UNK     0      -3.494   0.390 -36.553  0.00  0.00     0.114 C 
BRANCH  34  35
HETATM   35  C   UNK     0      -2.335   0.252 -37.482  0.00  0.00     0.139 C 
HETATM   36  O   UNK     0      -1.770   1.281 -37.953  0.00  0.00    -0.650 OA
BRANCH  35  37
HETATM   37  O   UNK     0      -1.828  -0.983 -37.867  0.00  0.00    -0.776 OA
HETATM   38  H   UNK     0      -2.411  -1.800 -37.946  0.00  0.00     0.167 HD
ENDBRANCH  35  37
ENDBRANCH  34  35
ENDBRANCH  33  34
ENDBRANCH   6  33
BRANCH  27  39
HETATM   39  C   UNK     0       2.305   6.906 -36.761  0.00  0.00     0.051 C 
BRANCH  39  40
HETATM   40  C   UNK     0       3.356   7.794 -36.266  0.00  0.00     0.114 C 
BRANCH  40  41
HETATM   41  C   UNK     0       4.349   7.357 -35.311  0.00  0.00     0.139 C 
HETATM   42  O   UNK     0       4.287   7.604 -34.099  0.00  0.00    -0.650 OA
BRANCH  41  43
HETATM   43  O   UNK     0       5.464   6.600 -35.770  0.00  0.00    -0.776 OA
HETATM   44  H   UNK     0       6.177   7.146 -36.238  0.00  0.00     0.167 HD
ENDBRANCH  41  43
ENDBRANCH  40  41
ENDBRANCH  39  40
ENDBRANCH  27  39
BRANCH  11  45
HETATM   45  C   UNK     0      -7.799   6.650 -34.973  0.00  0.00     0.051 C 
BRANCH  45  46
HETATM   46  C   UNK     0      -7.513   7.803 -34.081  0.00  0.00     0.114 C 
BRANCH  46  47
HETATM   47  C   UNK     0      -8.700   8.703 -34.130  0.00  0.00     0.139 C 
HETATM   48  O   UNK     0      -8.552   9.857 -34.558  0.00  0.00    -0.650 OA
BRANCH  47  49
HETATM   49  O   UNK     0      -9.931   8.267 -33.709  0.00  0.00    -0.776 OA
HETATM   50  H   UNK     0     -10.212   8.300 -32.722  0.00  0.00     0.167 HD
ENDBRANCH  47  49
ENDBRANCH  46  47
ENDBRANCH  45  46
ENDBRANCH  11  45
BRANCH  18  51
HETATM   51  C   UNK     0      -2.193  10.797 -35.354  0.00  0.00     0.051 C 
BRANCH  51  52
HETATM   52  C   UNK     0      -2.065  11.661 -36.600  0.00  0.00     0.114 C 
BRANCH  52  53
HETATM   53  C   UNK     0      -1.480  12.980 -36.296  0.00  0.00     0.139 C 
HETATM   54  O   UNK     0      -1.627  13.481 -35.169  0.00  0.00    -0.650 OA
BRANCH  53  55
HETATM   55  O   UNK     0      -0.774  13.651 -37.265  0.00  0.00    -0.776 OA
HETATM   56  H   UNK     0      -0.701  14.636 -37.358  0.00  0.00     0.167 HD
ENDBRANCH  53  55
ENDBRANCH  52  53
ENDBRANCH  51  52
ENDBRANCH  18  51
TORSDOF 16
ENDMDL
MODEL 5
REMARK VINA RESULT:      -8.2      1.682      2.057
REMARK  16 active torsions:
REMARK  status: ('A' for Active; 'I' for Inactive)
REMARK    1  A    between atoms: C_6  and  C_7 
REMARK    2  A    between atoms: C_7  and  C_8 
REMARK    3  A    between atoms: C_8  and  C_9 
REMARK    4  A    between atoms: C_9  and  O_11 
REMARK    5  A    between atoms: C_16  and  C_17 
REMARK    6  A    between atoms: C_17  and  C_18 
REMARK    7  A    between atoms: C_18  and  C_19 
REMARK    8  A    between atoms: C_19  and  O_21 
REMARK    9  A    between atoms: C_28  and  C_29 
REMARK   10  A    between atoms: C_29  and  C_30 
REMARK   11  A    between atoms: C_30  and  C_31 
REMARK   12  A    between atoms: C_31  and  O_33 
REMARK   13  A    between atoms: C_42  and  C_43 
REMARK   14  A    between atoms: C_43  and  C_44 
REMARK   15  A    between atoms: C_44  and  C_45 
REMARK   16  A    between atoms: C_45  and  O_47 
ROOT
HETATM    1  C   UNK     0      -6.093  11.705 -37.277  0.00  0.00     0.051 C 
HETATM    2  C   UNK     0      -5.056  10.956 -36.465  0.00  0.00    -0.031 A 
HETATM    3  C   UNK     0      -5.229   9.931 -35.548  0.00  0.00     0.021 A 
HETATM    4  N   UNK     0      -4.022   9.585 -35.041  0.00  0.00    -0.361 N 
HETATM    5  C   UNK     0      -3.083  10.360 -35.621  0.00  0.00     0.022 A 
HETATM    6  C   UNK     0      -3.696  11.231 -36.516  0.00  0.00    -0.027 A 
HETATM    7  C   UNK     0      -1.593  10.317 -35.482  0.00  0.00     0.115 C 
HETATM    8  C   UNK     0      -0.949   8.942 -35.475  0.00  0.00     0.021 A 
HETATM    9  N   UNK     0      -1.305   7.848 -36.166  0.00  0.00    -0.361 N 
HETATM   10  C   UNK     0      -0.509   6.829 -35.779  0.00  0.00     0.022 A 
HETATM   11  C   UNK     0       0.392   7.282 -34.819  0.00  0.00    -0.027 A 
HETATM   12  C   UNK     0       0.121   8.612 -34.623  0.00  0.00    -0.031 A 
HETATM   13  C   UNK     0       0.857   9.523 -33.667  0.00  0.00     0.051 C 
HETATM   14  C   UNK     0      -0.599   5.383 -36.257  0.00  0.00     0.115 C 
HETATM   15  C   UNK     0      -1.925   4.711 -35.940  0.00  0.00     0.021 A 
HETATM   16  N   UNK     0      -3.155   5.101 -36.325  0.00  0.00    -0.361 N 
HETATM   17  C   UNK     0      -4.063   4.286 -35.783  0.00  0.00     0.022 A 
HETATM   18  C   UNK     0      -3.391   3.313 -35.016  0.00  0.00    -0.027 A 
HETATM   19  C   UNK     0      -2.053   3.590 -35.124  0.00  0.00    -0.031 A 
HETATM   20  C   UNK     0      -0.964   2.756 -34.475  0.00  0.00     0.051 C 
HETATM   21  C   UNK     0      -5.573   4.334 -35.845  0.00  0.00     0.115 C 
HETATM   22  C   UNK     0      -6.226   5.695 -35.896  0.00  0.00     0.022 A 
HETATM   23  N   UNK     0      -5.889   6.803 -35.223  0.00  0.00    -0.361 N 
HETATM   24  C   UNK     0      -6.644   7.822 -35.681  0.00  0.00     0.021 A 
HETATM   25  C   UNK     0      -7.494   7.357 -36.666  0.00  0.00    -0.031 A 
HETATM   26  C   UNK     0      -8.551   8.111 -37.446  0.00  0.00     0.051 C 
HETATM   27  C   UNK     0      -7.245   5.999 -36.821  0.00  0.00    -0.027 A 
HETATM   28  C   UNK     0      -6.562   9.288 -35.290  0.00  0.00     0.115 C 
HETATM   29  H   UNK     0      -3.846   8.822 -34.247  0.00  0.00     0.165 HD
HETATM   30  H   UNK     0      -2.086   7.803 -36.964  0.00  0.00     0.165 HD
HETATM   31  H   UNK     0      -3.386   5.940 -37.032  0.00  0.00     0.165 HD
HETATM   32  H   UNK     0      -5.145   6.867 -34.387  0.00  0.00     0.165 HD
ENDROOT
BRANCH   6  33
HETATM   33  C   UNK     0      -3.095  12.293 -37.402  0.00  0.00     0.051 C 
BRANCH  33  34
HETATM   34  C   UNK     0      -2.285  13.274 -36.587  0.00  0.00     0.114 C 
BRANCH  34  35
HETATM   35  C   UNK     0      -1.221  13.821 -37.476  0.00  0.00     0.139 C 
HETATM   36  O   UNK     0      -0.485  14.771 -37.080  0.00  0.00    -0.650 OA
BRANCH  35  37
HETATM   37  O   UNK     0      -0.984  13.327 -38.754  0.00  0.00    -0.776 OA
HETATM   38  H   UNK     0      -1.427  12.488 -39.093  0.00  0.00     0.167 HD
ENDBRANCH  35  37
ENDBRANCH  34  35
ENDBRANCH  33  34
ENDBRANCH   6  33
BRANCH  27  39
HETATM   39  C   UNK     0      -8.022   5.133 -37.750  0.00  0.00     0.051 C 
BRANCH  39  40
HETATM   40  C   UNK     0      -7.546   4.987 -39.125  0.00  0.00     0.114 C 
BRANCH  40  41
HETATM   41  C   UNK     0      -6.207   5.363 -39.521  0.00  0.00     0.139 C 
HETATM   42  O   UNK     0      -5.924   6.463 -40.013  0.00  0.00    -0.650 OA
BRANCH  41  43
HETATM   43  O   UNK     0      -5.147   4.430 -39.342  0.00  0.00    -0.776 OA
HETATM   44  H   UNK     0      -5.444   3.464 -39.279  0.00  0.00     0.167 HD
ENDBRANCH  41  43
ENDBRANCH  40  41
ENDBRANCH  39  40
ENDBRANCH  27  39
BRANCH  11  45
HETATM   45  C   UNK     0       1.473   6.515 -34.106  0.00  0.00     0.051 C 
BRANCH  45  46
HETATM   46  C   UNK     0       2.649   6.194 -34.954  0.00  0.00     0.114 C 
BRANCH  46  47
HETATM   47  C   UNK     0       3.835   6.848 -34.330  0.00  0.00     0.139 C 
HETATM   48  O   UNK     0       3.670   7.513 -33.298  0.00  0.00    -0.650 OA
BRANCH  47  49
HETATM   49  O   UNK     0       5.082   6.720 -34.887  0.00  0.00    -0.776 OA
HETATM   50  H   UNK     0       5.828   7.406 -34.718  0.00  0.00     0.167 HD
ENDBRANCH  47  49
ENDBRANCH  46  47
ENDBRANCH  45  46
ENDBRANCH  11  45
BRANCH  18  51
HETATM   51  C   UNK     0      -3.991   2.169 -34.240  0.00  0.00     0.051 C 
BRANCH  51  52
HETATM   52  C   UNK     0      -4.123   1.012 -35.220  0.00  0.00     0.114 C 
BRANCH  52  53
HETATM   53  C   UNK     0      -3.330  -0.159 -34.798  0.00  0.00     0.139 C 
HETATM   54  O   UNK     0      -2.799  -0.178 -33.676  0.00  0.00    -0.650 OA
BRANCH  53  55
HETATM   55  O   UNK     0      -3.180  -1.223 -35.653  0.00  0.00    -0.776 OA
HETATM   56  H   UNK     0      -3.099  -2.177 -35.390  0.00  0.00     0.167 HD
ENDBRANCH  53  55
ENDBRANCH  52  53
ENDBRANCH  51  52
ENDBRANCH  18  51
TORSDOF 16
ENDMDL
MODEL 6
REMARK VINA RESULT:      -8.1     22.489     25.289
REMARK  16 active torsions:
REMARK  status: ('A' for Active; 'I' for Inactive)
REMARK    1  A    between atoms: C_6  and  C_7 
REMARK    2  A    between atoms: C_7  and  C_8 
REMARK    3  A    between atoms: C_8  and  C_9 
REMARK    4  A    between atoms: C_9  and  O_11 
REMARK    5  A    between atoms: C_16  and  C_17 
REMARK    6  A    between atoms: C_17  and  C_18 
REMARK    7  A    between atoms: C_18  and  C_19 
REMARK    8  A    between atoms: C_19  and  O_21 
REMARK    9  A    between atoms: C_28  and  C_29 
REMARK   10  A    between atoms: C_29  and  C_30 
REMARK   11  A    between atoms: C_30  and  C_31 
REMARK   12  A    between atoms: C_31  and  O_33 
REMARK   13  A    between atoms: C_42  and  C_43 
REMARK   14  A    between atoms: C_43  and  C_44 
REMARK   15  A    between atoms: C_44  and  C_45 
REMARK   16  A    between atoms: C_45  and  O_47 
ROOT
HETATM    1  C   UNK     0     -11.347  13.256 -13.386  0.00  0.00     0.051 C 
HETATM    2  C   UNK     0     -12.041  11.955 -13.733  0.00  0.00    -0.031 A 
HETATM    3  C   UNK     0     -13.297  11.502 -13.362  0.00  0.00     0.021 A 
HETATM    4  N   UNK     0     -13.491  10.265 -13.878  0.00  0.00    -0.361 N 
HETATM    5  C   UNK     0     -12.389   9.924 -14.578  0.00  0.00     0.022 A 
HETATM    6  C   UNK     0     -11.461  10.957 -14.505  0.00  0.00    -0.027 A 
HETATM    7  C   UNK     0     -12.130   8.709 -15.413  0.00  0.00     0.115 C 
HETATM    8  C   UNK     0     -13.265   8.244 -16.309  0.00  0.00     0.021 A 
HETATM    9  N   UNK     0     -14.165   8.986 -16.972  0.00  0.00    -0.361 N 
HETATM   10  C   UNK     0     -15.042   8.150 -17.566  0.00  0.00     0.022 A 
HETATM   11  C   UNK     0     -14.692   6.832 -17.285  0.00  0.00    -0.027 A 
HETATM   12  C   UNK     0     -13.573   6.884 -16.494  0.00  0.00    -0.031 A 
HETATM   13  C   UNK     0     -12.833   5.684 -15.947  0.00  0.00     0.051 C 
HETATM   14  C   UNK     0     -16.271   8.558 -18.373  0.00  0.00     0.115 C 
HETATM   15  C   UNK     0     -17.289   9.363 -17.581  0.00  0.00     0.021 A 
HETATM   16  N   UNK     0     -17.096  10.536 -16.950  0.00  0.00    -0.361 N 
HETATM   17  C   UNK     0     -18.217  10.880 -16.311  0.00  0.00     0.022 A 
HETATM   18  C   UNK     0     -19.190   9.888 -16.546  0.00  0.00    -0.027 A 
HETATM   19  C   UNK     0     -18.596   8.945 -17.344  0.00  0.00    -0.031 A 
HETATM   20  C   UNK     0     -19.311   7.712 -17.867  0.00  0.00     0.051 C 
HETATM   21  C   UNK     0     -18.497  12.059 -15.407  0.00  0.00     0.115 C 
HETATM   22  C   UNK     0     -17.365  12.560 -14.543  0.00  0.00     0.022 A 
HETATM   23  N   UNK     0     -16.451  11.844 -13.874  0.00  0.00    -0.361 N 
HETATM   24  C   UNK     0     -15.543  12.695 -13.356  0.00  0.00     0.021 A 
HETATM   25  C   UNK     0     -15.886  13.991 -13.690  0.00  0.00    -0.031 A 
HETATM   26  C   UNK     0     -15.201  15.287 -13.307  0.00  0.00     0.051 C 
HETATM   27  C   UNK     0     -17.048  13.931 -14.449  0.00  0.00    -0.027 A 
HETATM   28  C   UNK     0     -14.273  12.350 -12.596  0.00  0.00     0.115 C 
HETATM   29  H   UNK     0     -14.389   9.626 -13.712  0.00  0.00     0.165 HD
HETATM   30  H   UNK     0     -14.155  10.100 -17.064  0.00  0.00     0.165 HD
HETATM   31  H   UNK     0     -16.165  11.159 -16.994  0.00  0.00     0.165 HD
HETATM   32  H   UNK     0     -16.463  10.733 -13.725  0.00  0.00     0.165 HD
ENDROOT
BRANCH   6  33
HETATM   33  C   UNK     0     -10.081  11.066 -15.104  0.00  0.00     0.051 C 
BRANCH  33  34
HETATM   34  C   UNK     0     -10.148  11.630 -16.503  0.00  0.00     0.114 C 
BRANCH  34  35
HETATM   35  C   UNK     0      -8.878  12.373 -16.747  0.00  0.00     0.139 C 
HETATM   36  O   UNK     0      -8.532  13.313 -15.974  0.00  0.00    -0.650 OA
BRANCH  35  37
HETATM   37  O   UNK     0      -8.029  12.077 -17.806  0.00  0.00    -0.776 OA
HETATM   38  H   UNK     0      -7.027  12.073 -17.702  0.00  0.00     0.167 HD
ENDBRANCH  35  37
ENDBRANCH  34  35
ENDBRANCH  33  34
ENDBRANCH   6  33
BRANCH  27  39
HETATM   39  C   UNK     0     -17.763  15.142 -14.935  0.00  0.00     0.051 C 
BRANCH  39  40
HETATM   40  C   UNK     0     -17.572  15.550 -16.326  0.00  0.00     0.114 C 
BRANCH  40  41
HETATM   41  C   UNK     0     -16.281  15.949 -16.842  0.00  0.00     0.139 C 
HETATM   42  O   UNK     0     -15.380  15.147 -17.124  0.00  0.00    -0.650 OA
BRANCH  41  43
HETATM   43  O   UNK     0     -16.015  17.333 -17.041  0.00  0.00    -0.776 OA
HETATM   44  H   UNK     0     -16.532  17.754 -17.804  0.00  0.00     0.167 HD
ENDBRANCH  41  43
ENDBRANCH  40  41
ENDBRANCH  39  40
ENDBRANCH  27  39
BRANCH  11  45
HETATM   45  C   UNK     0     -15.366   5.563 -17.734  0.00  0.00     0.051 C 
BRANCH  45  46
HETATM   46  C   UNK     0     -15.015   5.147 -19.116  0.00  0.00     0.114 C 
BRANCH  46  47
HETATM   47  C   UNK     0     -16.080   4.211 -19.578  0.00  0.00     0.139 C 
HETATM   48  O   UNK     0     -17.141   4.686 -20.006  0.00  0.00    -0.650 OA
BRANCH  47  49
HETATM   49  O   UNK     0     -15.891   2.853 -19.531  0.00  0.00    -0.776 OA
HETATM   50  H   UNK     0     -14.966   2.437 -19.367  0.00  0.00     0.167 HD
ENDBRANCH  47  49
ENDBRANCH  46  47
ENDBRANCH  45  46
ENDBRANCH  11  45
BRANCH  18  51
HETATM   51  C   UNK     0     -20.613   9.853 -16.055  0.00  0.00     0.051 C 
BRANCH  51  52
HETATM   52  C   UNK     0     -20.649   8.835 -14.924  0.00  0.00     0.114 C 
BRANCH  52  53
HETATM   53  C   UNK     0     -20.389   9.461 -13.613  0.00  0.00     0.139 C 
HETATM   54  O   UNK     0     -21.326   9.950 -12.962  0.00  0.00    -0.650 OA
BRANCH  53  55
HETATM   55  O   UNK     0     -19.107   9.501 -13.121  0.00  0.00    -0.776 OA
HETATM   56  H   UNK     0     -18.562   8.718 -12.847  0.00  0.00     0.167 HD
ENDBRANCH  53  55
ENDBRANCH  52  53
ENDBRANCH  51  52
ENDBRANCH  18  51
TORSDOF 16
ENDMDL
MODEL 7
REMARK VINA RESULT:      -8.1     32.259     35.578
REMARK  16 active torsions:
REMARK  status: ('A' for Active; 'I' for Inactive)
REMARK    1  A    between atoms: C_6  and  C_7 
REMARK    2  A    between atoms: C_7  and  C_8 
REMARK    3  A    between atoms: C_8  and  C_9 
REMARK    4  A    between atoms: C_9  and  O_11 
REMARK    5  A    between atoms: C_16  and  C_17 
REMARK    6  A    between atoms: C_17  and  C_18 
REMARK    7  A    between atoms: C_18  and  C_19 
REMARK    8  A    between atoms: C_19  and  O_21 
REMARK    9  A    between atoms: C_28  and  C_29 
REMARK   10  A    between atoms: C_29  and  C_30 
REMARK   11  A    between atoms: C_30  and  C_31 
REMARK   12  A    between atoms: C_31  and  O_33 
REMARK   13  A    between atoms: C_42  and  C_43 
REMARK   14  A    between atoms: C_43  and  C_44 
REMARK   15  A    between atoms: C_44  and  C_45 
REMARK   16  A    between atoms: C_45  and  O_47 
ROOT
HETATM    1  C   UNK     0      -9.383  17.023  -3.279  0.00  0.00     0.051 C 
HETATM    2  C   UNK     0      -8.367  18.028  -2.776  0.00  0.00    -0.031 A 
HETATM    3  C   UNK     0      -7.065  17.823  -2.345  0.00  0.00     0.021 A 
HETATM    4  N   UNK     0      -6.538  19.007  -1.955  0.00  0.00    -0.361 N 
HETATM    5  C   UNK     0      -7.472  19.964  -2.135  0.00  0.00     0.022 A 
HETATM    6  C   UNK     0      -8.629  19.385  -2.645  0.00  0.00    -0.027 A 
HETATM    7  C   UNK     0      -7.366  21.445  -1.948  0.00  0.00     0.115 C 
HETATM    8  C   UNK     0      -6.094  22.106  -2.450  0.00  0.00     0.021 A 
HETATM    9  N   UNK     0      -5.362  21.798  -3.532  0.00  0.00    -0.361 N 
HETATM   10  C   UNK     0      -4.267  22.588  -3.537  0.00  0.00     0.022 A 
HETATM   11  C   UNK     0      -4.299  23.434  -2.432  0.00  0.00    -0.027 A 
HETATM   12  C   UNK     0      -5.447  23.136  -1.743  0.00  0.00    -0.031 A 
HETATM   13  C   UNK     0      -5.903  23.812  -0.470  0.00  0.00     0.051 C 
HETATM   14  C   UNK     0      -3.126  22.540  -4.549  0.00  0.00     0.115 C 
HETATM   15  C   UNK     0      -2.395  21.208  -4.590  0.00  0.00     0.021 A 
HETATM   16  N   UNK     0      -2.914  19.994  -4.852  0.00  0.00    -0.361 N 
HETATM   17  C   UNK     0      -1.958  19.071  -4.721  0.00  0.00     0.022 A 
HETATM   18  C   UNK     0      -0.757  19.715  -4.365  0.00  0.00    -0.027 A 
HETATM   19  C   UNK     0      -1.043  21.054  -4.288  0.00  0.00    -0.031 A 
HETATM   20  C   UNK     0      -0.013  22.120  -3.964  0.00  0.00     0.051 C 
HETATM   21  C   UNK     0      -2.039  17.565  -4.835  0.00  0.00     0.115 C 
HETATM   22  C   UNK     0      -3.316  16.899  -4.381  0.00  0.00     0.022 A 
HETATM   23  N   UNK     0      -4.067  17.187  -3.310  0.00  0.00    -0.361 N 
HETATM   24  C   UNK     0      -5.190  16.443  -3.368  0.00  0.00     0.021 A 
HETATM   25  C   UNK     0      -5.157  15.649  -4.498  0.00  0.00    -0.031 A 
HETATM   26  C   UNK     0      -6.164  14.622  -4.972  0.00  0.00     0.051 C 
HETATM   27  C   UNK     0      -3.966  15.923  -5.162  0.00  0.00    -0.027 A 
HETATM   28  C   UNK     0      -6.383  16.487  -2.428  0.00  0.00     0.115 C 
HETATM   29  H   UNK     0      -5.523  19.153  -1.517  0.00  0.00     0.165 HD
HETATM   30  H   UNK     0      -5.641  21.058  -4.322  0.00  0.00     0.165 HD
HETATM   31  H   UNK     0      -3.965  19.788  -5.183  0.00  0.00     0.165 HD
HETATM   32  H   UNK     0      -3.791  17.887  -2.479  0.00  0.00     0.165 HD
ENDROOT
BRANCH   6  33
HETATM   33  C   UNK     0      -9.949  20.016  -3.010  0.00  0.00     0.051 C 
BRANCH  33  34
HETATM   34  C   UNK     0      -9.911  20.559  -4.419  0.00  0.00     0.114 C 
BRANCH  34  35
HETATM   35  C   UNK     0     -10.590  21.887  -4.404  0.00  0.00     0.139 C 
HETATM   36  O   UNK     0     -11.428  22.184  -5.304  0.00  0.00    -0.650 OA
BRANCH  35  37
HETATM   37  O   UNK     0     -10.346  22.842  -3.425  0.00  0.00    -0.776 OA
HETATM   38  H   UNK     0     -11.041  23.097  -2.742  0.00  0.00     0.167 HD
ENDBRANCH  35  37
ENDBRANCH  34  35
ENDBRANCH  33  34
ENDBRANCH   6  33
BRANCH  27  39
HETATM   39  C   UNK     0      -3.542  15.203  -6.394  0.00  0.00     0.051 C 
BRANCH  39  40
HETATM   40  C   UNK     0      -2.299  14.434  -6.355  0.00  0.00     0.114 C 
BRANCH  40  41
HETATM   41  C   UNK     0      -1.940  13.607  -5.224  0.00  0.00     0.139 C 
HETATM   42  O   UNK     0      -2.198  12.398  -5.153  0.00  0.00    -0.650 OA
BRANCH  41  43
HETATM   43  O   UNK     0      -1.253  14.198  -4.126  0.00  0.00    -0.776 OA
HETATM   44  H   UNK     0      -0.884  13.534  -3.456  0.00  0.00     0.167 HD
ENDBRANCH  41  43
ENDBRANCH  40  41
ENDBRANCH  39  40
ENDBRANCH  27  39
BRANCH  11  45
HETATM   45  C   UNK     0      -3.304  24.487  -2.024  0.00  0.00     0.051 C 
BRANCH  45  46
HETATM   46  C   UNK     0      -3.429  25.762  -2.775  0.00  0.00     0.114 C 
BRANCH  46  47
HETATM   47  C   UNK     0      -4.249  26.688  -1.941  0.00  0.00     0.139 C 
HETATM   48  O   UNK     0      -5.323  27.103  -2.398  0.00  0.00    -0.650 OA
BRANCH  47  49
HETATM   49  O   UNK     0      -3.823  27.073  -0.695  0.00  0.00    -0.776 OA
HETATM   50  H   UNK     0      -4.457  27.104   0.112  0.00  0.00     0.167 HD
ENDBRANCH  47  49
ENDBRANCH  46  47
ENDBRANCH  45  46
ENDBRANCH  11  45
BRANCH  18  51
HETATM   51  C   UNK     0       0.595  19.092  -4.133  0.00  0.00     0.051 C 
BRANCH  51  52
HETATM   52  C   UNK     0       0.698  18.843  -2.636  0.00  0.00     0.114 C 
BRANCH  52  53
HETATM   53  C   UNK     0       0.887  17.412  -2.328  0.00  0.00     0.139 C 
HETATM   54  O   UNK     0       2.009  16.988  -2.010  0.00  0.00    -0.650 OA
BRANCH  53  55
HETATM   55  O   UNK     0      -0.184  16.555  -2.399  0.00  0.00    -0.776 OA
HETATM   56  H   UNK     0      -1.079  16.769  -2.773  0.00  0.00     0.167 HD
ENDBRANCH  53  55
ENDBRANCH  52  53
ENDBRANCH  51  52
ENDBRANCH  18  51
TORSDOF 16
ENDMDL
MODEL 8
REMARK VINA RESULT:      -8.1      1.702      1.997
REMARK  16 active torsions:
REMARK  status: ('A' for Active; 'I' for Inactive)
REMARK    1  A    between atoms: C_6  and  C_7 
REMARK    2  A    between atoms: C_7  and  C_8 
REMARK    3  A    between atoms: C_8  and  C_9 
REMARK    4  A    between atoms: C_9  and  O_11 
REMARK    5  A    between atoms: C_16  and  C_17 
REMARK    6  A    between atoms: C_17  and  C_18 
REMARK    7  A    between atoms: C_18  and  C_19 
REMARK    8  A    between atoms: C_19  and  O_21 
REMARK    9  A    between atoms: C_28  and  C_29 
REMARK   10  A    between atoms: C_29  and  C_30 
REMARK   11  A    between atoms: C_30  and  C_31 
REMARK   12  A    between atoms: C_31  and  O_33 
REMARK   13  A    between atoms: C_42  and  C_43 
REMARK   14  A    between atoms: C_43  and  C_44 
REMARK   15  A    between atoms: C_44  and  C_45 
REMARK   16  A    between atoms: C_45  and  O_47 
ROOT
HETATM    1  C   UNK     0      -5.529  11.942 -36.937  0.00  0.00     0.051 C 
HETATM    2  C   UNK     0      -4.483  11.171 -36.158  0.00  0.00    -0.031 A 
HETATM    3  C   UNK     0      -4.582   9.938 -35.534  0.00  0.00     0.021 A 
HETATM    4  N   UNK     0      -3.404   9.653 -34.930  0.00  0.00    -0.361 N 
HETATM    5  C   UNK     0      -2.554  10.674 -35.162  0.00  0.00     0.022 A 
HETATM    6  C   UNK     0      -3.197  11.643 -35.925  0.00  0.00    -0.027 A 
HETATM    7  C   UNK     0      -1.108  10.811 -34.797  0.00  0.00     0.115 C 
HETATM    8  C   UNK     0      -0.236   9.584 -34.995  0.00  0.00     0.021 A 
HETATM    9  N   UNK     0      -0.305   8.656 -35.962  0.00  0.00    -0.361 N 
HETATM   10  C   UNK     0       0.606   7.698 -35.690  0.00  0.00     0.022 A 
HETATM   11  C   UNK     0       1.288   8.023 -34.521  0.00  0.00    -0.027 A 
HETATM   12  C   UNK     0       0.762   9.210 -34.078  0.00  0.00    -0.031 A 
HETATM   13  C   UNK     0       1.203   9.952 -32.836  0.00  0.00     0.051 C 
HETATM   14  C   UNK     0       0.833   6.418 -36.488  0.00  0.00     0.115 C 
HETATM   15  C   UNK     0      -0.382   5.506 -36.549  0.00  0.00     0.021 A 
HETATM   16  N   UNK     0      -1.605   5.798 -37.029  0.00  0.00    -0.361 N 
HETATM   17  C   UNK     0      -2.413   4.753 -36.838  0.00  0.00     0.022 A 
HETATM   18  C   UNK     0      -1.678   3.727 -36.211  0.00  0.00    -0.027 A 
HETATM   19  C   UNK     0      -0.408   4.211 -36.036  0.00  0.00    -0.031 A 
HETATM   20  C   UNK     0       0.725   3.407 -35.424  0.00  0.00     0.051 C 
HETATM   21  C   UNK     0      -3.888   4.599 -37.130  0.00  0.00     0.115 C 
HETATM   22  C   UNK     0      -4.761   5.823 -36.979  0.00  0.00     0.022 A 
HETATM   23  N   UNK     0      -4.711   6.766 -36.030  0.00  0.00    -0.361 N 
HETATM   24  C   UNK     0      -5.573   7.748 -36.363  0.00  0.00     0.021 A 
HETATM   25  C   UNK     0      -6.200   7.424 -37.551  0.00  0.00    -0.031 A 
HETATM   26  C   UNK     0      -7.270   8.188 -38.302  0.00  0.00     0.051 C 
HETATM   27  C   UNK     0      -5.697   6.196 -37.965  0.00  0.00    -0.027 A 
HETATM   28  C   UNK     0      -5.801   9.067 -35.645  0.00  0.00     0.115 C 
HETATM   29  H   UNK     0      -3.194   8.751 -34.310  0.00  0.00     0.165 HD
HETATM   30  H   UNK     0      -0.962   8.699 -36.865  0.00  0.00     0.165 HD
HETATM   31  H   UNK     0      -1.892   6.744 -37.558  0.00  0.00     0.165 HD
HETATM   32  H   UNK     0      -4.099   6.726 -35.092  0.00  0.00     0.165 HD
ENDROOT
BRANCH   6  33
HETATM   33  C   UNK     0      -2.690  12.966 -36.441  0.00  0.00     0.051 C 
BRANCH  33  34
HETATM   34  C   UNK     0      -2.856  14.046 -35.399  0.00  0.00     0.114 C 
BRANCH  34  35
HETATM   35  C   UNK     0      -1.575  14.805 -35.335  0.00  0.00     0.139 C 
HETATM   36  O   UNK     0      -0.784  14.804 -36.322  0.00  0.00    -0.650 OA
BRANCH  35  37
HETATM   37  O   UNK     0      -1.192  15.537 -34.217  0.00  0.00    -0.776 OA
HETATM   38  H   UNK     0      -0.371  16.120 -34.215  0.00  0.00     0.167 HD
ENDBRANCH  35  37
ENDBRANCH  34  35
ENDBRANCH  33  34
ENDBRANCH   6  33
BRANCH  27  39
HETATM   39  C   UNK     0      -6.189   5.486 -39.176  0.00  0.00     0.051 C 
BRANCH  39  40
HETATM   40  C   UNK     0      -7.257   4.500 -39.017  0.00  0.00     0.114 C 
BRANCH  40  41
HETATM   41  C   UNK     0      -7.061   3.097 -39.307  0.00  0.00     0.139 C 
HETATM   42  O   UNK     0      -7.991   2.305 -39.511  0.00  0.00    -0.650 OA
BRANCH  41  43
HETATM   43  O   UNK     0      -5.735   2.583 -39.366  0.00  0.00    -0.776 OA
HETATM   44  H   UNK     0      -5.656   1.679 -39.816  0.00  0.00     0.167 HD
ENDBRANCH  41  43
ENDBRANCH  40  41
ENDBRANCH  39  40
ENDBRANCH  27  39
BRANCH  11  45
HETATM   45  C   UNK     0       2.392   7.266 -33.833  0.00  0.00     0.051 C 
BRANCH  45  46
HETATM   46  C   UNK     0       3.757   7.653 -34.271  0.00  0.00     0.114 C 
BRANCH  46  47
HETATM   47  C   UNK     0       4.352   6.471 -34.958  0.00  0.00     0.139 C 
HETATM   48  O   UNK     0       3.812   5.366 -34.809  0.00  0.00    -0.650 OA
BRANCH  47  49
HETATM   49  O   UNK     0       5.474   6.602 -35.737  0.00  0.00    -0.776 OA
HETATM   50  H   UNK     0       5.430   6.588 -36.762  0.00  0.00     0.167 HD
ENDBRANCH  47  49
ENDBRANCH  46  47
ENDBRANCH  45  46
ENDBRANCH  11  45
BRANCH  18  51
HETATM   51  C   UNK     0      -2.156   2.353 -35.818  0.00  0.00     0.051 C 
BRANCH  51  52
HETATM   52  C   UNK     0      -1.618   1.397 -36.873  0.00  0.00     0.114 C 
BRANCH  52  53
HETATM   53  C   UNK     0      -2.348   1.520 -38.150  0.00  0.00     0.139 C 
HETATM   54  O   UNK     0      -3.476   1.017 -38.271  0.00  0.00    -0.650 OA
BRANCH  53  55
HETATM   55  O   UNK     0      -1.771   2.189 -39.201  0.00  0.00    -0.776 OA
HETATM   56  H   UNK     0      -1.613   1.823 -40.110  0.00  0.00     0.167 HD
ENDBRANCH  53  55
ENDBRANCH  52  53
ENDBRANCH  51  52
ENDBRANCH  18  51
TORSDOF 16
ENDMDL
MODEL 9
REMARK VINA RESULT:      -7.8     32.789     35.587
REMARK  16 active torsions:
REMARK  status: ('A' for Active; 'I' for Inactive)
REMARK    1  A    between atoms: C_6  and  C_7 
REMARK    2  A    between atoms: C_7  and  C_8 
REMARK    3  A    between atoms: C_8  and  C_9 
REMARK    4  A    between atoms: C_9  and  O_11 
REMARK    5  A    between atoms: C_16  and  C_17 
REMARK    6  A    between atoms: C_17  and  C_18 
REMARK    7  A    between atoms: C_18  and  C_19 
REMARK    8  A    between atoms: C_19  and  O_21 
REMARK    9  A    between atoms: C_28  and  C_29 
REMARK   10  A    between atoms: C_29  and  C_30 
REMARK   11  A    between atoms: C_30  and  C_31 
REMARK   12  A    between atoms: C_31  and  O_33 
REMARK   13  A    between atoms: C_42  and  C_43 
REMARK   14  A    between atoms: C_43  and  C_44 
REMARK   15  A    between atoms: C_44  and  C_45 
REMARK   16  A    between atoms: C_45  and  O_47 
ROOT
HETATM    1  C   UNK     0       0.061  17.510  -4.289  0.00  0.00     0.051 C 
HETATM    2  C   UNK     0      -0.837  18.706  -4.528  0.00  0.00    -0.031 A 
HETATM    3  C   UNK     0      -2.109  18.756  -5.076  0.00  0.00     0.021 A 
HETATM    4  N   UNK     0      -2.519  20.046  -5.125  0.00  0.00    -0.361 N 
HETATM    5  C   UNK     0      -1.539  20.818  -4.613  0.00  0.00     0.022 A 
HETATM    6  C   UNK     0      -0.471  20.013  -4.232  0.00  0.00    -0.027 A 
HETATM    7  C   UNK     0      -1.526  22.293  -4.355  0.00  0.00     0.115 C 
HETATM    8  C   UNK     0      -2.786  22.891  -3.755  0.00  0.00     0.021 A 
HETATM    9  N   UNK     0      -3.624  22.348  -2.858  0.00  0.00    -0.361 N 
HETATM   10  C   UNK     0      -4.658  23.198  -2.682  0.00  0.00     0.022 A 
HETATM   11  C   UNK     0      -4.476  24.323  -3.480  0.00  0.00    -0.027 A 
HETATM   12  C   UNK     0      -3.298  24.137  -4.158  0.00  0.00    -0.031 A 
HETATM   13  C   UNK     0      -2.692  25.112  -5.143  0.00  0.00     0.051 C 
HETATM   14  C   UNK     0      -5.880  22.960  -1.800  0.00  0.00     0.115 C 
HETATM   15  C   UNK     0      -6.703  21.747  -2.201  0.00  0.00     0.021 A 
HETATM   16  N   UNK     0      -6.293  20.467  -2.283  0.00  0.00    -0.361 N 
HETATM   17  C   UNK     0      -7.297  19.714  -2.740  0.00  0.00     0.022 A 
HETATM   18  C   UNK     0      -8.417  20.541  -2.956  0.00  0.00    -0.027 A 
HETATM   19  C   UNK     0      -8.032  21.812  -2.614  0.00  0.00    -0.031 A 
HETATM   20  C   UNK     0      -8.955  23.015  -2.664  0.00  0.00     0.051 C 
HETATM   21  C   UNK     0      -7.331  18.240  -3.075  0.00  0.00     0.115 C 
HETATM   22  C   UNK     0      -6.070  17.622  -3.632  0.00  0.00     0.022 A 
HETATM   23  N   UNK     0      -5.215  18.142  -4.522  0.00  0.00    -0.361 N 
HETATM   24  C   UNK     0      -4.155  17.314  -4.623  0.00  0.00     0.021 A 
HETATM   25  C   UNK     0      -4.337  16.231  -3.786  0.00  0.00    -0.031 A 
HETATM   26  C   UNK     0      -3.446  15.023  -3.582  0.00  0.00     0.051 C 
HETATM   27  C   UNK     0      -5.556  16.405  -3.141  0.00  0.00    -0.027 A 
HETATM   28  C   UNK     0      -2.888  17.522  -5.435  0.00  0.00     0.115 C 
HETATM   29  H   UNK     0      -3.481  20.405  -5.558  0.00  0.00     0.165 HD
HETATM   30  H   UNK     0      -3.464  21.387  -2.310  0.00  0.00     0.165 HD
HETATM   31  H   UNK     0      -5.290  20.078  -1.968  0.00  0.00     0.165 HD
HETATM   32  H   UNK     0      -5.371  19.077  -5.121  0.00  0.00     0.165 HD
ENDROOT
BRANCH   6  33
HETATM   33  C   UNK     0       0.855  20.386  -3.619  0.00  0.00     0.051 C 
BRANCH  33  34
HETATM   34  C   UNK     0       0.693  20.717  -2.154  0.00  0.00     0.114 C 
BRANCH  34  35
HETATM   35  C   UNK     0       1.422  19.673  -1.377  0.00  0.00     0.139 C 
HETATM   36  O   UNK     0       2.289  18.947  -1.944  0.00  0.00    -0.650 OA
BRANCH  35  37
HETATM   37  O   UNK     0       1.194  19.451  -0.025  0.00  0.00    -0.776 OA
HETATM   38  H   UNK     0       0.453  18.850   0.301  0.00  0.00     0.167 HD
ENDBRANCH  35  37
ENDBRANCH  34  35
ENDBRANCH  33  34
ENDBRANCH   6  33
BRANCH  27  39
HETATM   39  C   UNK     0      -6.131  15.399  -2.207  0.00  0.00     0.051 C 
BRANCH  39  40
HETATM   40  C   UNK     0      -7.042  14.391  -2.748  0.00  0.00     0.114 C 
BRANCH  40  41
HETATM   41  C   UNK     0      -7.818  14.617  -3.946  0.00  0.00     0.139 C 
HETATM   42  O   UNK     0      -8.983  15.037  -3.937  0.00  0.00    -0.650 OA
BRANCH  41  43
HETATM   43  O   UNK     0      -7.227  14.348  -5.213  0.00  0.00    -0.776 OA
HETATM   44  H   UNK     0      -7.640  13.568  -5.711  0.00  0.00     0.167 HD
ENDBRANCH  41  43
ENDBRANCH  40  41
ENDBRANCH  39  40
ENDBRANCH  27  39
BRANCH  11  45
HETATM   45  C   UNK     0      -5.357  25.536  -3.613  0.00  0.00     0.051 C 
BRANCH  45  46
HETATM   46  C   UNK     0      -6.668  25.265  -4.255  0.00  0.00     0.114 C 
BRANCH  46  47
HETATM   47  C   UNK     0      -6.398  24.898  -5.675  0.00  0.00     0.139 C 
HETATM   48  O   UNK     0      -5.944  25.766  -6.434  0.00  0.00    -0.650 OA
BRANCH  47  49
HETATM   49  O   UNK     0      -6.646  23.629  -6.133  0.00  0.00    -0.776 OA
HETATM   50  H   UNK     0      -6.389  23.332  -7.082  0.00  0.00     0.167 HD
ENDBRANCH  47  49
ENDBRANCH  46  47
ENDBRANCH  45  46
ENDBRANCH  11  45
BRANCH  18  51
HETATM   51  C   UNK     0      -9.785  20.139  -3.443  0.00  0.00     0.051 C 
BRANCH  51  52
HETATM   52  C   UNK     0      -9.690  20.054  -4.959  0.00  0.00     0.114 C 
BRANCH  52  53
HETATM   53  C   UNK     0      -9.913  21.365  -5.598  0.00  0.00     0.139 C 
HETATM   54  O   UNK     0      -9.007  21.895  -6.262  0.00  0.00    -0.650 OA
BRANCH  53  55
HETATM   55  O   UNK     0     -11.124  21.996  -5.451  0.00  0.00    -0.776 OA
HETATM   56  H   UNK     0     -11.798  21.809  -4.747  0.00  0.00     0.167 HD
ENDBRANCH  53  55
ENDBRANCH  52  53
ENDBRANCH  51  52
ENDBRANCH  18  51
TORSDOF 16
ENDMDL
MODEL 10
REMARK VINA RESULT:      -7.8      2.904      7.758
REMARK  16 active torsions:
REMARK  status: ('A' for Active; 'I' for Inactive)
REMARK    1  A    between atoms: C_6  and  C_7 
REMARK    2  A    between atoms: C_7  and  C_8 
REMARK    3  A    between atoms: C_8  and  C_9 
REMARK    4  A    between atoms: C_9  and  O_11 
REMARK    5  A    between atoms: C_16  and  C_17 
REMARK    6  A    between atoms: C_17  and  C_18 
REMARK    7  A    between atoms: C_18  and  C_19 
REMARK    8  A    between atoms: C_19  and  O_21 
REMARK    9  A    between atoms: C_28  and  C_29 
REMARK   10  A    between atoms: C_29  and  C_30 
REMARK   11  A    between atoms: C_30  and  C_31 
REMARK   12  A    between atoms: C_31  and  O_33 
REMARK   13  A    between atoms: C_42  and  C_43 
REMARK   14  A    between atoms: C_43  and  C_44 
REMARK   15  A    between atoms: C_44  and  C_45 
REMARK   16  A    between atoms: C_45  and  O_47 
ROOT
HETATM    1  C   UNK     0      -8.427   7.346 -37.680  0.00  0.00     0.051 C 
HETATM    2  C   UNK     0      -7.457   6.182 -37.646  0.00  0.00    -0.031 A 
HETATM    3  C   UNK     0      -6.133   6.129 -38.053  0.00  0.00     0.021 A 
HETATM    4  N   UNK     0      -5.664   4.872 -37.866  0.00  0.00    -0.361 N 
HETATM    5  C   UNK     0      -6.658   4.126 -37.341  0.00  0.00     0.022 A 
HETATM    6  C   UNK     0      -7.795   4.914 -37.193  0.00  0.00    -0.027 A 
HETATM    7  C   UNK     0      -6.634   2.707 -36.865  0.00  0.00     0.115 C 
HETATM    8  C   UNK     0      -5.419   2.279 -36.060  0.00  0.00     0.021 A 
HETATM    9  N   UNK     0      -4.705   2.996 -35.179  0.00  0.00    -0.361 N 
HETATM   10  C   UNK     0      -3.659   2.243 -34.776  0.00  0.00     0.022 A 
HETATM   11  C   UNK     0      -3.707   1.004 -35.408  0.00  0.00    -0.027 A 
HETATM   12  C   UNK     0      -4.813   1.020 -36.218  0.00  0.00    -0.031 A 
HETATM   13  C   UNK     0      -5.268  -0.123 -37.098  0.00  0.00     0.051 C 
HETATM   14  C   UNK     0      -2.549   2.679 -33.824  0.00  0.00     0.115 C 
HETATM   15  C   UNK     0      -1.742   3.867 -34.322  0.00  0.00     0.021 A 
HETATM   16  N   UNK     0      -2.196   5.095 -34.637  0.00  0.00    -0.361 N 
HETATM   17  C   UNK     0      -1.184   5.831 -35.102  0.00  0.00     0.022 A 
HETATM   18  C   UNK     0      -0.013   5.049 -35.080  0.00  0.00    -0.027 A 
HETATM   19  C   UNK     0      -0.375   3.821 -34.589  0.00  0.00    -0.031 A 
HETATM   20  C   UNK     0       0.600   2.680 -34.365  0.00  0.00     0.051 C 
HETATM   21  C   UNK     0      -1.179   7.239 -35.652  0.00  0.00     0.115 C 
HETATM   22  C   UNK     0      -2.400   7.693 -36.417  0.00  0.00     0.022 A 
HETATM   23  N   UNK     0      -3.133   7.000 -37.298  0.00  0.00    -0.361 N 
HETATM   24  C   UNK     0      -4.212   7.739 -37.626  0.00  0.00     0.021 A 
HETATM   25  C   UNK     0      -4.167   8.942 -36.949  0.00  0.00    -0.031 A 
HETATM   26  C   UNK     0      -5.126  10.112 -37.018  0.00  0.00     0.051 C 
HETATM   27  C   UNK     0      -3.016   8.937 -36.169  0.00  0.00    -0.027 A 
HETATM   28  C   UNK     0      -5.376   7.341 -38.517  0.00  0.00     0.115 C 
HETATM   29  H   UNK     0      -4.647   4.511 -38.143  0.00  0.00     0.165 HD
HETATM   30  H   UNK     0      -4.964   4.015 -34.801  0.00  0.00     0.165 HD
HETATM   31  H   UNK     0      -3.243   5.466 -34.484  0.00  0.00     0.165 HD
HETATM   32  H   UNK     0      -2.874   5.998 -37.729  0.00  0.00     0.165 HD
ENDROOT
BRANCH   6  33
HETATM   33  C   UNK     0      -9.160   4.557 -36.663  0.00  0.00     0.051 C 
BRANCH  33  34
HETATM   34  C   UNK     0      -9.378   5.160 -35.295  0.00  0.00     0.114 C 
BRANCH  34  35
HETATM   35  C   UNK     0      -8.932   4.154 -34.288  0.00  0.00     0.139 C 
HETATM   36  O   UNK     0      -9.164   2.924 -34.471  0.00  0.00    -0.650 OA
BRANCH  35  37
HETATM   37  O   UNK     0      -8.254   4.506 -33.128  0.00  0.00    -0.776 OA
HETATM   38  H   UNK     0      -8.725   4.606 -32.243  0.00  0.00     0.167 HD
ENDBRANCH  35  37
ENDBRANCH  34  35
ENDBRANCH  33  34
ENDBRANCH   6  33
BRANCH  27  39
HETATM   39  C   UNK     0      -2.588  10.101 -35.346  0.00  0.00     0.051 C 
BRANCH  39  40
HETATM   40  C   UNK     0      -1.461  10.906 -35.816  0.00  0.00     0.114 C 
BRANCH  40  41
HETATM   41  C   UNK     0      -1.633  12.013 -36.730  0.00  0.00     0.139 C 
HETATM   42  O   UNK     0      -2.652  12.717 -36.767  0.00  0.00    -0.650 OA
BRANCH  41  43
HETATM   43  O   UNK     0      -0.586  12.324 -37.644  0.00  0.00    -0.776 OA
HETATM   44  H   UNK     0      -0.390  13.314 -37.735  0.00  0.00     0.167 HD
ENDBRANCH  41  43
ENDBRANCH  40  41
ENDBRANCH  39  40
ENDBRANCH  27  39
BRANCH  11  45
HETATM   45  C   UNK     0      -2.764  -0.161 -35.268  0.00  0.00     0.051 C 
BRANCH  45  46
HETATM   46  C   UNK     0      -1.604  -0.116 -36.195  0.00  0.00     0.114 C 
BRANCH  46  47
HETATM   47  C   UNK     0      -0.547  -0.999 -35.623  0.00  0.00     0.139 C 
HETATM   48  O   UNK     0       0.634  -0.633 -35.696  0.00  0.00    -0.650 OA
BRANCH  47  49
HETATM   49  O   UNK     0      -0.874  -2.192 -35.030  0.00  0.00    -0.776 OA
HETATM   50  H   UNK     0      -0.226  -2.686 -34.405  0.00  0.00     0.167 HD
ENDBRANCH  47  49
ENDBRANCH  46  47
ENDBRANCH  45  46
ENDBRANCH  11  45
BRANCH  18  51
HETATM   51  C   UNK     0       1.381   5.455 -35.485  0.00  0.00     0.051 C 
BRANCH  51  52
HETATM   52  C   UNK     0       1.575   4.950 -36.907  0.00  0.00     0.114 C 
BRANCH  52  53
HETATM   53  C   UNK     0       1.940   6.040 -37.833  0.00  0.00     0.139 C 
HETATM   54  O   UNK     0       2.627   6.992 -37.431  0.00  0.00    -0.650 OA
BRANCH  53  55
HETATM   55  O   UNK     0       1.512   5.994 -39.137  0.00  0.00    -0.776 OA
HETATM   56  H   UNK     0       2.064   5.745 -39.924  0.00  0.00     0.167 HD
ENDBRANCH  53  55
ENDBRANCH  52  53
ENDBRANCH  51  52
ENDBRANCH  18  51
TORSDOF 16
ENDMDL
MODEL 11
REMARK VINA RESULT:      -7.7      2.864     10.404
REMARK  16 active torsions:
REMARK  status: ('A' for Active; 'I' for Inactive)
REMARK    1  A    between atoms: C_6  and  C_7 
REMARK    2  A    between atoms: C_7  and  C_8 
REMARK    3  A    between atoms: C_8  and  C_9 
REMARK    4  A    between atoms: C_9  and  O_11 
REMARK    5  A    between atoms: C_16  and  C_17 
REMARK    6  A    between atoms: C_17  and  C_18 
REMARK    7  A    between atoms: C_18  and  C_19 
REMARK    8  A    between atoms: C_19  and  O_21 
REMARK    9  A    between atoms: C_28  and  C_29 
REMARK   10  A    between atoms: C_29  and  C_30 
REMARK   11  A    between atoms: C_30  and  C_31 
REMARK   12  A    between atoms: C_31  and  O_33 
REMARK   13  A    between atoms: C_42  and  C_43 
REMARK   14  A    between atoms: C_43  and  C_44 
REMARK   15  A    between atoms: C_44  and  C_45 
REMARK   16  A    between atoms: C_45  and  O_47 
ROOT
HETATM    1  C   UNK     0       0.549   0.564 -34.897  0.00  0.00     0.051 C 
HETATM    2  C   UNK     0      -0.743   1.335 -34.722  0.00  0.00    -0.031 A 
HETATM    3  C   UNK     0      -0.961   2.561 -34.112  0.00  0.00     0.021 A 
HETATM    4  N   UNK     0      -2.283   2.849 -34.161  0.00  0.00    -0.361 N 
HETATM    5  C   UNK     0      -2.912   1.838 -34.796  0.00  0.00     0.022 A 
HETATM    6  C   UNK     0      -1.978   0.873 -35.158  0.00  0.00    -0.027 A 
HETATM    7  C   UNK     0      -4.350   1.710 -35.191  0.00  0.00     0.115 C 
HETATM    8  C   UNK     0      -5.009   2.947 -35.775  0.00  0.00     0.021 A 
HETATM    9  N   UNK     0      -4.471   3.886 -36.569  0.00  0.00    -0.361 N 
HETATM   10  C   UNK     0      -5.397   4.848 -36.766  0.00  0.00     0.022 A 
HETATM   11  C   UNK     0      -6.566   4.516 -36.089  0.00  0.00    -0.027 A 
HETATM   12  C   UNK     0      -6.329   3.319 -35.462  0.00  0.00    -0.031 A 
HETATM   13  C   UNK     0      -7.325   2.567 -34.608  0.00  0.00     0.051 C 
HETATM   14  C   UNK     0      -5.199   6.140 -37.554  0.00  0.00     0.115 C 
HETATM   15  C   UNK     0      -4.109   7.042 -36.996  0.00  0.00     0.021 A 
HETATM   16  N   UNK     0      -2.809   6.744 -36.817  0.00  0.00    -0.361 N 
HETATM   17  C   UNK     0      -2.197   7.779 -36.238  0.00  0.00     0.022 A 
HETATM   18  C   UNK     0      -3.143   8.805 -36.038  0.00  0.00    -0.027 A 
HETATM   19  C   UNK     0      -4.336   8.331 -36.519  0.00  0.00    -0.031 A 
HETATM   20  C   UNK     0      -5.622   9.138 -36.531  0.00  0.00     0.051 C 
HETATM   21  C   UNK     0      -0.769   7.924 -35.765  0.00  0.00     0.115 C 
HETATM   22  C   UNK     0      -0.086   6.691 -35.222  0.00  0.00     0.022 A 
HETATM   23  N   UNK     0      -0.598   5.737 -34.433  0.00  0.00    -0.361 N 
HETATM   24  C   UNK     0       0.314   4.751 -34.314  0.00  0.00     0.021 A 
HETATM   25  C   UNK     0       1.445   5.083 -35.035  0.00  0.00    -0.031 A 
HETATM   26  C   UNK     0       2.745   4.318 -35.174  0.00  0.00     0.051 C 
HETATM   27  C   UNK     0       1.213   6.320 -35.625  0.00  0.00    -0.027 A 
HETATM   28  C   UNK     0       0.157   3.422 -33.596  0.00  0.00     0.115 C 
HETATM   29  H   UNK     0      -2.769   3.746 -33.711  0.00  0.00     0.165 HD
HETATM   30  H   UNK     0      -3.455   3.847 -37.033  0.00  0.00     0.165 HD
HETATM   31  H   UNK     0      -2.300   5.802 -37.150  0.00  0.00     0.165 HD
HETATM   32  H   UNK     0      -1.593   5.771 -33.917  0.00  0.00     0.165 HD
ENDROOT
BRANCH   6  33
HETATM   33  C   UNK     0      -2.168  -0.439 -35.876  0.00  0.00     0.051 C 
BRANCH  33  34
HETATM   34  C   UNK     0      -2.493  -1.542 -34.897  0.00  0.00     0.114 C 
BRANCH  34  35
HETATM   35  C   UNK     0      -1.386  -2.539 -34.964  0.00  0.00     0.139 C 
HETATM   36  O   UNK     0      -0.563  -2.643 -34.008  0.00  0.00    -0.650 OA
BRANCH  35  37
HETATM   37  O   UNK     0      -1.205  -3.386 -36.051  0.00  0.00    -0.776 OA
HETATM   38  H   UNK     0      -1.359  -3.080 -36.998  0.00  0.00     0.167 HD
ENDBRANCH  35  37
ENDBRANCH  34  35
ENDBRANCH  33  34
ENDBRANCH   6  33
BRANCH  27  39
HETATM   39  C   UNK     0       2.239   7.040 -36.428  0.00  0.00     0.051 C 
BRANCH  39  40
HETATM   40  C   UNK     0       3.190   7.902 -35.726  0.00  0.00     0.114 C 
BRANCH  40  41
HETATM   41  C   UNK     0       4.354   7.375 -35.050  0.00  0.00     0.139 C 
HETATM   42  O   UNK     0       4.495   7.390 -33.820  0.00  0.00    -0.650 OA
BRANCH  41  43
HETATM   43  O   UNK     0       5.404   6.806 -35.825  0.00  0.00    -0.776 OA
HETATM   44  H   UNK     0       6.235   7.382 -35.891  0.00  0.00     0.167 HD
ENDBRANCH  41  43
ENDBRANCH  40  41
ENDBRANCH  39  40
ENDBRANCH  27  39
BRANCH  11  45
HETATM   45  C   UNK     0      -7.864   5.275 -36.022  0.00  0.00     0.051 C 
BRANCH  45  46
HETATM   46  C   UNK     0      -8.772   5.026 -37.170  0.00  0.00     0.114 C 
BRANCH  46  47
HETATM   47  C   UNK     0      -9.011   6.338 -37.837  0.00  0.00     0.139 C 
HETATM   48  O   UNK     0      -8.499   7.354 -37.346  0.00  0.00    -0.650 OA
BRANCH  47  49
HETATM   49  O   UNK     0      -9.782   6.422 -38.968  0.00  0.00    -0.776 OA
HETATM   50  H   UNK     0     -10.109   5.586 -39.468  0.00  0.00     0.167 HD
ENDBRANCH  47  49
ENDBRANCH  46  47
ENDBRANCH  45  46
ENDBRANCH  11  45
BRANCH  18  51
HETATM   51  C   UNK     0      -2.917  10.170 -35.442  0.00  0.00     0.051 C 
BRANCH  51  52
HETATM   52  C   UNK     0      -2.799  11.133 -36.614  0.00  0.00     0.114 C 
BRANCH  52  53
HETATM   53  C   UNK     0      -1.593  11.977 -36.513  0.00  0.00     0.139 C 
HETATM   54  O   UNK     0      -1.388  12.646 -35.488  0.00  0.00    -0.650 OA
BRANCH  53  55
HETATM   55  O   UNK     0      -0.704  12.020 -37.559  0.00  0.00    -0.776 OA
HETATM   56  H   UNK     0      -0.152  12.801 -37.824  0.00  0.00     0.167 HD
ENDBRANCH  53  55
ENDBRANCH  52  53
ENDBRANCH  51  52
ENDBRANCH  18  51
TORSDOF 16
ENDMDL
MODEL 12
REMARK VINA RESULT:      -7.7      3.470      5.535
REMARK  16 active torsions:
REMARK  status: ('A' for Active; 'I' for Inactive)
REMARK    1  A    between atoms: C_6  and  C_7 
REMARK    2  A    between atoms: C_7  and  C_8 
REMARK    3  A    between atoms: C_8  and  C_9 
REMARK    4  A    between atoms: C_9  and  O_11 
REMARK    5  A    between atoms: C_16  and  C_17 
REMARK    6  A    between atoms: C_17  and  C_18 
REMARK    7  A    between atoms: C_18  and  C_19 
REMARK    8  A    between atoms: C_19  and  O_21 
REMARK    9  A    between atoms: C_28  and  C_29 
REMARK   10  A    between atoms: C_29  and  C_30 
REMARK   11  A    between atoms: C_30  and  C_31 
REMARK   12  A    between atoms: C_31  and  O_33 
REMARK   13  A    between atoms: C_42  and  C_43 
REMARK   14  A    between atoms: C_43  and  C_44 
REMARK   15  A    between atoms: C_44  and  C_45 
REMARK   16  A    between atoms: C_45  and  O_47 
ROOT
HETATM    1  C   UNK     0      -8.010   6.390 -36.949  0.00  0.00     0.051 C 
HETATM    2  C   UNK     0      -6.603   6.291 -36.395  0.00  0.00    -0.031 A 
HETATM    3  C   UNK     0      -6.123   5.522 -35.347  0.00  0.00     0.021 A 
HETATM    4  N   UNK     0      -4.803   5.777 -35.182  0.00  0.00    -0.361 N 
HETATM    5  C   UNK     0      -4.430   6.685 -36.107  0.00  0.00     0.022 A 
HETATM    6  C   UNK     0      -5.533   7.031 -36.881  0.00  0.00    -0.027 A 
HETATM    7  C   UNK     0      -3.070   7.232 -36.411  0.00  0.00     0.115 C 
HETATM    8  C   UNK     0      -1.923   6.236 -36.424  0.00  0.00     0.021 A 
HETATM    9  N   UNK     0      -1.929   4.959 -36.835  0.00  0.00    -0.361 N 
HETATM   10  C   UNK     0      -0.715   4.430 -36.578  0.00  0.00     0.022 A 
HETATM   11  C   UNK     0       0.099   5.395 -35.993  0.00  0.00    -0.027 A 
HETATM   12  C   UNK     0      -0.656   6.536 -35.894  0.00  0.00    -0.031 A 
HETATM   13  C   UNK     0      -0.180   7.852 -35.321  0.00  0.00     0.051 C 
HETATM   14  C   UNK     0      -0.291   2.984 -36.822  0.00  0.00     0.115 C 
HETATM   15  C   UNK     0      -1.107   1.963 -36.045  0.00  0.00     0.021 A 
HETATM   16  N   UNK     0      -2.438   1.767 -36.093  0.00  0.00    -0.361 N 
HETATM   17  C   UNK     0      -2.774   0.826 -35.209  0.00  0.00     0.022 A 
HETATM   18  C   UNK     0      -1.605   0.380 -34.560  0.00  0.00    -0.027 A 
HETATM   19  C   UNK     0      -0.568   1.100 -35.094  0.00  0.00    -0.031 A 
HETATM   20  C   UNK     0       0.885   0.906 -34.698  0.00  0.00     0.051 C 
HETATM   21  C   UNK     0      -4.137   0.295 -34.826  0.00  0.00     0.115 C 
HETATM   22  C   UNK     0      -5.295   1.265 -34.851  0.00  0.00     0.022 A 
HETATM   23  N   UNK     0      -5.317   2.543 -34.452  0.00  0.00    -0.361 N 
HETATM   24  C   UNK     0      -6.510   3.072 -34.789  0.00  0.00     0.021 A 
HETATM   25  C   UNK     0      -7.280   2.108 -35.411  0.00  0.00    -0.031 A 
HETATM   26  C   UNK     0      -8.699   2.210 -35.931  0.00  0.00     0.051 C 
HETATM   27  C   UNK     0      -6.524   0.942 -35.462  0.00  0.00    -0.027 A 
HETATM   28  C   UNK     0      -6.969   4.511 -34.627  0.00  0.00     0.115 C 
HETATM   29  H   UNK     0      -4.153   5.343 -34.387  0.00  0.00     0.165 HD
HETATM   30  H   UNK     0      -2.774   4.442 -37.354  0.00  0.00     0.165 HD
HETATM   31  H   UNK     0      -3.149   2.269 -36.799  0.00  0.00     0.165 HD
HETATM   32  H   UNK     0      -4.505   3.072 -33.889  0.00  0.00     0.165 HD
ENDROOT
BRANCH   6  33
HETATM   33  C   UNK     0      -5.646   8.000 -38.031  0.00  0.00     0.051 C 
BRANCH  33  34
HETATM   34  C   UNK     0      -5.435   7.294 -39.349  0.00  0.00     0.114 C 
BRANCH  34  35
HETATM   35  C   UNK     0      -4.680   8.223 -40.238  0.00  0.00     0.139 C 
HETATM   36  O   UNK     0      -4.329   7.852 -41.396  0.00  0.00    -0.650 OA
BRANCH  35  37
HETATM   37  O   UNK     0      -4.334   9.512 -39.852  0.00  0.00    -0.776 OA
HETATM   38  H   UNK     0      -4.187  10.249 -40.523  0.00  0.00     0.167 HD
ENDBRANCH  35  37
ENDBRANCH  34  35
ENDBRANCH  33  34
ENDBRANCH   6  33
BRANCH  27  39
HETATM   39  C   UNK     0      -7.049  -0.341 -36.002  0.00  0.00     0.051 C 
BRANCH  39  40
HETATM   40  C   UNK     0      -6.629  -0.754 -37.341  0.00  0.00     0.114 C 
BRANCH  40  41
HETATM   41  C   UNK     0      -5.990   0.157 -38.264  0.00  0.00     0.139 C 
HETATM   42  O   UNK     0      -4.763   0.221 -38.422  0.00  0.00    -0.650 OA
BRANCH  41  43
HETATM   43  O   UNK     0      -6.799   1.034 -39.040  0.00  0.00    -0.776 OA
HETATM   44  H   UNK     0      -7.444   1.598 -38.500  0.00  0.00     0.167 HD
ENDBRANCH  41  43
ENDBRANCH  40  41
ENDBRANCH  39  40
ENDBRANCH  27  39
BRANCH  11  45
HETATM   45  C   UNK     0       1.530   5.274 -35.542  0.00  0.00     0.051 C 
BRANCH  45  46
HETATM   46  C   UNK     0       2.498   5.057 -36.648  0.00  0.00     0.114 C 
BRANCH  46  47
HETATM   47  C   UNK     0       2.329   6.184 -37.609  0.00  0.00     0.139 C 
HETATM   48  O   UNK     0       2.759   7.302 -37.293  0.00  0.00    -0.650 OA
BRANCH  47  49
HETATM   49  O   UNK     0       1.711   5.989 -38.819  0.00  0.00    -0.776 OA
HETATM   50  H   UNK     0       1.996   5.243 -39.463  0.00  0.00     0.167 HD
ENDBRANCH  47  49
ENDBRANCH  46  47
ENDBRANCH  45  46
ENDBRANCH  11  45
BRANCH  18  51
HETATM   51  C   UNK     0      -1.481  -0.688 -33.505  0.00  0.00     0.051 C 
BRANCH  51  52
HETATM   52  C   UNK     0      -1.347  -2.008 -34.249  0.00  0.00     0.114 C 
BRANCH  52  53
HETATM   53  C   UNK     0      -1.059  -3.129 -33.332  0.00  0.00     0.139 C 
HETATM   54  O   UNK     0      -1.989  -3.715 -32.756  0.00  0.00    -0.650 OA
BRANCH  53  55
HETATM   55  O   UNK     0       0.242  -3.515 -33.119  0.00  0.00    -0.776 OA
HETATM   56  H   UNK     0       1.053  -3.016 -33.400  0.00  0.00     0.167 HD
ENDBRANCH  53  55
ENDBRANCH  52  53
ENDBRANCH  51  52
ENDBRANCH  18  51
TORSDOF 16
ENDMDL
MODEL 13
REMARK VINA RESULT:      -7.7      4.538      6.966
REMARK  16 active torsions:
REMARK  status: ('A' for Active; 'I' for Inactive)
REMARK    1  A    between atoms: C_6  and  C_7 
REMARK    2  A    between atoms: C_7  and  C_8 
REMARK    3  A    between atoms: C_8  and  C_9 
REMARK    4  A    between atoms: C_9  and  O_11 
REMARK    5  A    between atoms: C_16  and  C_17 
REMARK    6  A    between atoms: C_17  and  C_18 
REMARK    7  A    between atoms: C_18  and  C_19 
REMARK    8  A    between atoms: C_19  and  O_21 
REMARK    9  A    between atoms: C_28  and  C_29 
REMARK   10  A    between atoms: C_29  and  C_30 
REMARK   11  A    between atoms: C_30  and  C_31 
REMARK   12  A    between atoms: C_31  and  O_33 
REMARK   13  A    between atoms: C_42  and  C_43 
REMARK   14  A    between atoms: C_43  and  C_44 
REMARK   15  A    between atoms: C_44  and  C_45 
REMARK   16  A    between atoms: C_45  and  O_47 
ROOT
HETATM    1  C   UNK     0     -12.724  12.944 -36.049  0.00  0.00     0.051 C 
HETATM    2  C   UNK     0     -11.276  12.598 -35.771  0.00  0.00    -0.031 A 
HETATM    3  C   UNK     0     -10.730  11.420 -35.285  0.00  0.00     0.021 A 
HETATM    4  N   UNK     0      -9.390  11.572 -35.164  0.00  0.00    -0.361 N 
HETATM    5  C   UNK     0      -9.068  12.817 -35.571  0.00  0.00     0.022 A 
HETATM    6  C   UNK     0     -10.225  13.488 -35.955  0.00  0.00    -0.027 A 
HETATM    7  C   UNK     0      -7.721  13.451 -35.723  0.00  0.00     0.115 C 
HETATM    8  C   UNK     0      -6.630  12.594 -36.341  0.00  0.00     0.021 A 
HETATM    9  N   UNK     0      -6.739  11.676 -37.314  0.00  0.00    -0.361 N 
HETATM   10  C   UNK     0      -5.531  11.096 -37.480  0.00  0.00     0.022 A 
HETATM   11  C   UNK     0      -4.617  11.662 -36.597  0.00  0.00    -0.027 A 
HETATM   12  C   UNK     0      -5.303  12.607 -35.876  0.00  0.00    -0.031 A 
HETATM   13  C   UNK     0      -4.709  13.483 -34.796  0.00  0.00     0.051 C 
HETATM   14  C   UNK     0      -5.204   9.953 -38.437  0.00  0.00     0.115 C 
HETATM   15  C   UNK     0      -5.987   8.679 -38.164  0.00  0.00     0.021 A 
HETATM   16  N   UNK     0      -7.324   8.522 -38.153  0.00  0.00    -0.361 N 
HETATM   17  C   UNK     0      -7.615   7.267 -37.802  0.00  0.00     0.022 A 
HETATM   18  C   UNK     0      -6.410   6.571 -37.583  0.00  0.00    -0.027 A 
HETATM   19  C   UNK     0      -5.398   7.465 -37.814  0.00  0.00    -0.031 A 
HETATM   20  C   UNK     0      -3.924   7.114 -37.725  0.00  0.00     0.051 C 
HETATM   21  C   UNK     0      -8.957   6.609 -37.574  0.00  0.00     0.115 C 
HETATM   22  C   UNK     0     -10.064   7.462 -37.000  0.00  0.00     0.022 A 
HETATM   23  N   UNK     0      -9.984   8.386 -36.034  0.00  0.00    -0.361 N 
HETATM   24  C   UNK     0     -11.178   9.004 -35.939  0.00  0.00     0.021 A 
HETATM   25  C   UNK     0     -12.051   8.458 -36.860  0.00  0.00    -0.031 A 
HETATM   26  C   UNK     0     -13.509   8.790 -37.104  0.00  0.00     0.051 C 
HETATM   27  C   UNK     0     -11.361   7.468 -37.550  0.00  0.00    -0.027 A 
HETATM   28  C   UNK     0     -11.548  10.181 -35.053  0.00  0.00     0.115 C 
HETATM   29  H   UNK     0      -8.685  10.811 -34.755  0.00  0.00     0.165 HD
HETATM   30  H   UNK     0      -7.655  11.470 -37.921  0.00  0.00     0.165 HD
HETATM   31  H   UNK     0      -8.077   9.299 -38.445  0.00  0.00     0.165 HD
HETATM   32  H   UNK     0      -9.095   8.581 -35.379  0.00  0.00     0.165 HD
ENDROOT
BRANCH   6  33
HETATM   33  C   UNK     0     -10.405  14.892 -36.473  0.00  0.00     0.051 C 
BRANCH  33  34
HETATM   34  C   UNK     0     -10.689  15.849 -35.340  0.00  0.00     0.114 C 
BRANCH  34  35
HETATM   35  C   UNK     0      -9.529  16.780 -35.242  0.00  0.00     0.139 C 
HETATM   36  O   UNK     0      -8.638  16.598 -34.361  0.00  0.00    -0.650 OA
BRANCH  35  37
HETATM   37  O   UNK     0      -9.367  17.868 -36.091  0.00  0.00    -0.776 OA
HETATM   38  H   UNK     0      -9.253  18.806 -35.743  0.00  0.00     0.167 HD
ENDBRANCH  35  37
ENDBRANCH  34  35
ENDBRANCH  33  34
ENDBRANCH   6  33
BRANCH  27  39
HETATM   39  C   UNK     0     -11.999   6.604 -38.580  0.00  0.00     0.051 C 
BRANCH  39  40
HETATM   40  C   UNK     0     -12.127   7.125 -39.941  0.00  0.00     0.114 C 
BRANCH  40  41
HETATM   41  C   UNK     0     -12.898   6.446 -40.958  0.00  0.00     0.139 C 
HETATM   42  O   UNK     0     -13.462   7.030 -41.892  0.00  0.00    -0.650 OA
BRANCH  41  43
HETATM   43  O   UNK     0     -13.025   5.029 -40.896  0.00  0.00    -0.776 OA
HETATM   44  H   UNK     0     -13.389   4.679 -40.018  0.00  0.00     0.167 HD
ENDBRANCH  41  43
ENDBRANCH  40  41
ENDBRANCH  39  40
ENDBRANCH  27  39
BRANCH  11  45
HETATM   45  C   UNK     0      -3.156  11.346 -36.422  0.00  0.00     0.051 C 
BRANCH  45  46
HETATM   46  C   UNK     0      -2.262  12.077 -37.357  0.00  0.00     0.114 C 
BRANCH  46  47
HETATM   47  C   UNK     0      -1.429  13.003 -36.538  0.00  0.00     0.139 C 
HETATM   48  O   UNK     0      -1.375  12.825 -35.313  0.00  0.00    -0.650 OA
BRANCH  47  49
HETATM   49  O   UNK     0      -0.739  14.033 -37.126  0.00  0.00    -0.776 OA
HETATM   50  H   UNK     0      -0.970  14.379 -38.065  0.00  0.00     0.167 HD
ENDBRANCH  47  49
ENDBRANCH  46  47
ENDBRANCH  45  46
ENDBRANCH  11  45
BRANCH  18  51
HETATM   51  C   UNK     0      -6.233   5.126 -37.195  0.00  0.00     0.051 C 
BRANCH  51  52
HETATM   52  C   UNK     0      -6.353   5.074 -35.679  0.00  0.00     0.114 C 
BRANCH  52  53
HETATM   53  C   UNK     0      -5.043   4.864 -35.031  0.00  0.00     0.139 C 
HETATM   54  O   UNK     0      -4.134   4.280 -35.642  0.00  0.00    -0.650 OA
BRANCH  53  55
HETATM   55  O   UNK     0      -4.839   5.315 -33.750  0.00  0.00    -0.776 OA
HETATM   56  H   UNK     0      -3.963   5.383 -33.287  0.00  0.00     0.167 HD
ENDBRANCH  53  55
ENDBRANCH  52  53
ENDBRANCH  51  52
ENDBRANCH  18  51
TORSDOF 16
ENDMDL
MODEL 14
REMARK VINA RESULT:      -7.6      3.740      6.418
REMARK  16 active torsions:
REMARK  status: ('A' for Active; 'I' for Inactive)
REMARK    1  A    between atoms: C_6  and  C_7 
REMARK    2  A    between atoms: C_7  and  C_8 
REMARK    3  A    between atoms: C_8  and  C_9 
REMARK    4  A    between atoms: C_9  and  O_11 
REMARK    5  A    between atoms: C_16  and  C_17 
REMARK    6  A    between atoms: C_17  and  C_18 
REMARK    7  A    between atoms: C_18  and  C_19 
REMARK    8  A    between atoms: C_19  and  O_21 
REMARK    9  A    between atoms: C_28  and  C_29 
REMARK   10  A    between atoms: C_29  and  C_30 
REMARK   11  A    between atoms: C_30  and  C_31 
REMARK   12  A    between atoms: C_31  and  O_33 
REMARK   13  A    between atoms: C_42  and  C_43 
REMARK   14  A    between atoms: C_43  and  C_44 
REMARK   15  A    between atoms: C_44  and  C_45 
REMARK   16  A    between atoms: C_45  and  O_47 
ROOT
HETATM    1  C   UNK     0      -7.535   6.608 -36.270  0.00  0.00     0.051 C 
HETATM    2  C   UNK     0      -6.092   6.335 -35.895  0.00  0.00    -0.031 A 
HETATM    3  C   UNK     0      -5.582   5.594 -34.841  0.00  0.00     0.021 A 
HETATM    4  N   UNK     0      -4.229   5.649 -34.877  0.00  0.00    -0.361 N 
HETATM    5  C   UNK     0      -3.866   6.401 -35.937  0.00  0.00     0.022 A 
HETATM    6  C   UNK     0      -5.007   6.849 -36.594  0.00  0.00    -0.027 A 
HETATM    7  C   UNK     0      -2.500   6.693 -36.473  0.00  0.00     0.115 C 
HETATM    8  C   UNK     0      -1.525   5.530 -36.526  0.00  0.00     0.021 A 
HETATM    9  N   UNK     0      -1.778   4.239 -36.791  0.00  0.00    -0.361 N 
HETATM   10  C   UNK     0      -0.629   3.547 -36.637  0.00  0.00     0.022 A 
HETATM   11  C   UNK     0       0.394   4.417 -36.272  0.00  0.00    -0.027 A 
HETATM   12  C   UNK     0      -0.164   5.669 -36.201  0.00  0.00    -0.031 A 
HETATM   13  C   UNK     0       0.577   6.937 -35.842  0.00  0.00     0.051 C 
HETATM   14  C   UNK     0      -0.461   2.036 -36.774  0.00  0.00     0.115 C 
HETATM   15  C   UNK     0      -1.296   1.232 -35.791  0.00  0.00     0.021 A 
HETATM   16  N   UNK     0      -2.634   1.248 -35.644  0.00  0.00    -0.361 N 
HETATM   17  C   UNK     0      -2.972   0.454 -34.626  0.00  0.00     0.022 A 
HETATM   18  C   UNK     0      -1.799  -0.114 -34.089  0.00  0.00    -0.027 A 
HETATM   19  C   UNK     0      -0.757   0.380 -34.829  0.00  0.00    -0.031 A 
HETATM   20  C   UNK     0       0.694  -0.008 -34.607  0.00  0.00     0.051 C 
HETATM   21  C   UNK     0      -4.328   0.184 -34.013  0.00  0.00     0.115 C 
HETATM   22  C   UNK     0      -5.323   1.320 -33.994  0.00  0.00     0.022 A 
HETATM   23  N   UNK     0      -5.099   2.615 -33.737  0.00  0.00    -0.361 N 
HETATM   24  C   UNK     0      -6.239   3.297 -33.972  0.00  0.00     0.021 A 
HETATM   25  C   UNK     0      -7.223   2.417 -34.380  0.00  0.00    -0.031 A 
HETATM   26  C   UNK     0      -8.673   2.699 -34.719  0.00  0.00     0.051 C 
HETATM   27  C   UNK     0      -6.661   1.146 -34.401  0.00  0.00    -0.027 A 
HETATM   28  C   UNK     0      -6.453   4.799 -33.910  0.00  0.00     0.115 C 
HETATM   29  H   UNK     0      -3.541   5.188 -34.131  0.00  0.00     0.165 HD
HETATM   30  H   UNK     0      -2.755   3.820 -37.135  0.00  0.00     0.165 HD
HETATM   31  H   UNK     0      -3.359   1.793 -36.302  0.00  0.00     0.165 HD
HETATM   32  H   UNK     0      -4.145   3.056 -33.346  0.00  0.00     0.165 HD
ENDROOT
BRANCH   6  33
HETATM   33  C   UNK     0      -5.143   7.718 -37.819  0.00  0.00     0.051 C 
BRANCH  33  34
HETATM   34  C   UNK     0      -5.064   6.886 -39.077  0.00  0.00     0.114 C 
BRANCH  34  35
HETATM   35  C   UNK     0      -4.751   7.811 -40.204  0.00  0.00     0.139 C 
HETATM   36  O   UNK     0      -4.965   7.454 -41.399  0.00  0.00    -0.650 OA
BRANCH  35  37
HETATM   37  O   UNK     0      -4.223   9.081 -40.007  0.00  0.00    -0.776 OA
HETATM   38  H   UNK     0      -3.257   9.294 -40.195  0.00  0.00     0.167 HD
ENDBRANCH  35  37
ENDBRANCH  34  35
ENDBRANCH  33  34
ENDBRANCH   6  33
BRANCH  27  39
HETATM   39  C   UNK     0      -7.441  -0.080 -34.724  0.00  0.00     0.051 C 
BRANCH  39  40
HETATM   40  C   UNK     0      -7.734  -1.021 -33.644  0.00  0.00     0.114 C 
BRANCH  40  41
HETATM   41  C   UNK     0      -8.824  -0.814 -32.716  0.00  0.00     0.139 C 
HETATM   42  O   UNK     0      -9.851  -0.184 -32.998  0.00  0.00    -0.650 OA
BRANCH  41  43
HETATM   43  O   UNK     0      -8.726  -1.358 -31.404  0.00  0.00    -0.776 OA
HETATM   44  H   UNK     0      -9.514  -1.931 -31.128  0.00  0.00     0.167 HD
ENDBRANCH  41  43
ENDBRANCH  40  41
ENDBRANCH  39  40
ENDBRANCH  27  39
BRANCH  11  45
HETATM   45  C   UNK     0       1.842   4.109 -36.000  0.00  0.00     0.051 C 
BRANCH  45  46
HETATM   46  C   UNK     0       2.097   3.535 -34.654  0.00  0.00     0.114 C 
BRANCH  46  47
HETATM   47  C   UNK     0       3.545   3.731 -34.357  0.00  0.00     0.139 C 
HETATM   48  O   UNK     0       3.877   4.032 -33.202  0.00  0.00    -0.650 OA
BRANCH  47  49
HETATM   49  O   UNK     0       4.490   3.584 -35.341  0.00  0.00    -0.776 OA
HETATM   50  H   UNK     0       5.495   3.575 -35.134  0.00  0.00     0.167 HD
ENDBRANCH  47  49
ENDBRANCH  46  47
ENDBRANCH  45  46
ENDBRANCH  11  45
BRANCH  18  51
HETATM   51  C   UNK     0      -1.681  -1.091 -32.948  0.00  0.00     0.051 C 
BRANCH  51  52
HETATM   52  C   UNK     0      -1.218  -2.406 -33.559  0.00  0.00     0.114 C 
BRANCH  52  53
HETATM   53  C   UNK     0      -0.089  -2.992 -32.811  0.00  0.00     0.139 C 
HETATM   54  O   UNK     0       0.448  -2.351 -31.894  0.00  0.00    -0.650 OA
BRANCH  53  55
HETATM   55  O   UNK     0       0.364  -4.246 -33.139  0.00  0.00    -0.776 OA
HETATM   56  H   UNK     0      -0.199  -5.022 -33.397  0.00  0.00     0.167 HD
ENDBRANCH  53  55
ENDBRANCH  52  53
ENDBRANCH  51  52
ENDBRANCH  18  51
TORSDOF 16
ENDMDL
MODEL 15
REMARK VINA RESULT:      -7.6      2.683      7.284
REMARK  16 active torsions:
REMARK  status: ('A' for Active; 'I' for Inactive)
REMARK    1  A    between atoms: C_6  and  C_7 
REMARK    2  A    between atoms: C_7  and  C_8 
REMARK    3  A    between atoms: C_8  and  C_9 
REMARK    4  A    between atoms: C_9  and  O_11 
REMARK    5  A    between atoms: C_16  and  C_17 
REMARK    6  A    between atoms: C_17  and  C_18 
REMARK    7  A    between atoms: C_18  and  C_19 
REMARK    8  A    between atoms: C_19  and  O_21 
REMARK    9  A    between atoms: C_28  and  C_29 
REMARK   10  A    between atoms: C_29  and  C_30 
REMARK   11  A    between atoms: C_30  and  C_31 
REMARK   12  A    between atoms: C_31  and  O_33 
REMARK   13  A    between atoms: C_42  and  C_43 
REMARK   14  A    between atoms: C_43  and  C_44 
REMARK   15  A    between atoms: C_44  and  C_45 
REMARK   16  A    between atoms: C_45  and  O_47 
ROOT
HETATM    1  C   UNK     0       2.053   8.782 -36.057  0.00  0.00     0.051 C 
HETATM    2  C   UNK     0       1.065   7.665 -35.786  0.00  0.00    -0.031 A 
HETATM    3  C   UNK     0      -0.161   7.713 -35.142  0.00  0.00     0.021 A 
HETATM    4  N   UNK     0      -0.686   6.465 -35.101  0.00  0.00    -0.361 N 
HETATM    5  C   UNK     0       0.175   5.625 -35.712  0.00  0.00     0.022 A 
HETATM    6  C   UNK     0       1.283   6.343 -36.150  0.00  0.00    -0.027 A 
HETATM    7  C   UNK     0       0.029   4.167 -36.015  0.00  0.00     0.115 C 
HETATM    8  C   UNK     0      -1.323   3.711 -36.534  0.00  0.00     0.021 A 
HETATM    9  N   UNK     0      -2.171   4.362 -37.345  0.00  0.00    -0.361 N 
HETATM   10  C   UNK     0      -3.291   3.618 -37.465  0.00  0.00     0.022 A 
HETATM   11  C   UNK     0      -3.157   2.451 -36.719  0.00  0.00    -0.027 A 
HETATM   12  C   UNK     0      -1.920   2.503 -36.130  0.00  0.00    -0.031 A 
HETATM   13  C   UNK     0      -1.337   1.439 -35.226  0.00  0.00     0.051 C 
HETATM   14  C   UNK     0      -4.548   4.001 -38.242  0.00  0.00     0.115 C 
HETATM   15  C   UNK     0      -5.220   5.269 -37.740  0.00  0.00     0.021 A 
HETATM   16  N   UNK     0      -4.686   6.501 -37.651  0.00  0.00    -0.361 N 
HETATM   17  C   UNK     0      -5.576   7.326 -37.095  0.00  0.00     0.022 A 
HETATM   18  C   UNK     0      -6.750   6.598 -36.817  0.00  0.00    -0.027 A 
HETATM   19  C   UNK     0      -6.514   5.311 -37.227  0.00  0.00    -0.031 A 
HETATM   20  C   UNK     0      -7.541   4.197 -37.142  0.00  0.00     0.051 C 
HETATM   21  C   UNK     0      -5.445   8.783 -36.713  0.00  0.00     0.115 C 
HETATM   22  C   UNK     0      -4.094   9.260 -36.237  0.00  0.00     0.022 A 
HETATM   23  N   UNK     0      -3.227   8.631 -35.433  0.00  0.00    -0.361 N 
HETATM   24  C   UNK     0      -2.089   9.352 -35.389  0.00  0.00     0.021 A 
HETATM   25  C   UNK     0      -2.230  10.479 -36.176  0.00  0.00    -0.031 A 
HETATM   26  C   UNK     0      -1.246  11.607 -36.412  0.00  0.00     0.051 C 
HETATM   27  C   UNK     0      -3.505  10.443 -36.729  0.00  0.00    -0.027 A 
HETATM   28  C   UNK     0      -0.790   8.998 -34.685  0.00  0.00     0.115 C 
HETATM   29  H   UNK     0      -1.643   6.180 -34.606  0.00  0.00     0.165 HD
HETATM   30  H   UNK     0      -1.962   5.324 -37.874  0.00  0.00     0.165 HD
HETATM   31  H   UNK     0      -3.677   6.808 -38.032  0.00  0.00     0.165 HD
HETATM   32  H   UNK     0      -3.426   7.692 -34.853  0.00  0.00     0.165 HD
ENDROOT
BRANCH   6  33
HETATM   33  C   UNK     0       2.518   5.873 -36.876  0.00  0.00     0.051 C 
BRANCH  33  34
HETATM   34  C   UNK     0       3.381   5.026 -35.971  0.00  0.00     0.114 C 
BRANCH  34  35
HETATM   35  C   UNK     0       4.270   5.949 -35.209  0.00  0.00     0.139 C 
HETATM   36  O   UNK     0       4.022   6.218 -33.998  0.00  0.00    -0.650 OA
BRANCH  35  37
HETATM   37  O   UNK     0       5.391   6.546 -35.774  0.00  0.00    -0.776 OA
HETATM   38  H   UNK     0       5.317   7.294 -36.445  0.00  0.00     0.167 HD
ENDBRANCH  35  37
ENDBRANCH  34  35
ENDBRANCH  33  34
ENDBRANCH   6  33
BRANCH  27  39
HETATM   39  C   UNK     0      -4.049  11.532 -37.584  0.00  0.00     0.051 C 
BRANCH  39  40
HETATM   40  C   UNK     0      -4.815  12.601 -36.942  0.00  0.00     0.114 C 
BRANCH  40  41
HETATM   41  C   UNK     0      -6.253  12.544 -36.808  0.00  0.00     0.139 C 
HETATM   42  O   UNK     0      -6.835  11.838 -35.974  0.00  0.00    -0.650 OA
BRANCH  41  43
HETATM   43  O   UNK     0      -7.060  13.336 -37.674  0.00  0.00    -0.776 OA
HETATM   44  H   UNK     0      -7.070  13.025 -38.638  0.00  0.00     0.167 HD
ENDBRANCH  41  43
ENDBRANCH  40  41
ENDBRANCH  39  40
ENDBRANCH  27  39
BRANCH  11  45
HETATM   45  C   UNK     0      -4.137   1.321 -36.555  0.00  0.00     0.051 C 
BRANCH  45  46
HETATM   46  C   UNK     0      -5.295   1.644 -35.682  0.00  0.00     0.114 C 
BRANCH  46  47
HETATM   47  C   UNK     0      -4.837   1.501 -34.271  0.00  0.00     0.139 C 
HETATM   48  O   UNK     0      -4.799   2.511 -33.555  0.00  0.00    -0.650 OA
BRANCH  47  49
HETATM   49  O   UNK     0      -4.464   0.277 -33.774  0.00  0.00    -0.776 OA
HETATM   50  H   UNK     0      -4.635   0.011 -32.797  0.00  0.00     0.167 HD
ENDBRANCH  47  49
ENDBRANCH  46  47
ENDBRANCH  45  46
ENDBRANCH  11  45
BRANCH  18  51
HETATM   51  C   UNK     0      -8.034   7.105 -36.213  0.00  0.00     0.051 C 
BRANCH  51  52
HETATM   52  C   UNK     0      -8.012   6.686 -34.751  0.00  0.00     0.114 C 
BRANCH  52  53
HETATM   53  C   UNK     0      -7.714   7.823 -33.858  0.00  0.00     0.139 C 
HETATM   54  O   UNK     0      -6.544   8.050 -33.510  0.00  0.00    -0.650 OA
BRANCH  53  55
HETATM   55  O   UNK     0      -8.737   8.624 -33.414  0.00  0.00    -0.776 OA
HETATM   56  H   UNK     0      -9.132   9.393 -33.903  0.00  0.00     0.167 HD
ENDBRANCH  53  55
ENDBRANCH  52  53
ENDBRANCH  51  52
ENDBRANCH  18  51
TORSDOF 16
ENDMDL
MODEL 16
REMARK VINA RESULT:      -7.6      2.889      9.730
REMARK  16 active torsions:
REMARK  status: ('A' for Active; 'I' for Inactive)
REMARK    1  A    between atoms: C_6  and  C_7 
REMARK    2  A    between atoms: C_7  and  C_8 
REMARK    3  A    between atoms: C_8  and  C_9 
REMARK    4  A    between atoms: C_9  and  O_11 
REMARK    5  A    between atoms: C_16  and  C_17 
REMARK    6  A    between atoms: C_17  and  C_18 
REMARK    7  A    between atoms: C_18  and  C_19 
REMARK    8  A    between atoms: C_19  and  O_21 
REMARK    9  A    between atoms: C_28  and  C_29 
REMARK   10  A    between atoms: C_29  and  C_30 
REMARK   11  A    between atoms: C_30  and  C_31 
REMARK   12  A    between atoms: C_31  and  O_33 
REMARK   13  A    between atoms: C_42  and  C_43 
REMARK   14  A    between atoms: C_43  and  C_44 
REMARK   15  A    between atoms: C_44  and  C_45 
REMARK   16  A    between atoms: C_45  and  O_47 
ROOT
HETATM    1  C   UNK     0      -0.427   0.252 -35.206  0.00  0.00     0.051 C 
HETATM    2  C   UNK     0      -1.701   1.055 -35.369  0.00  0.00    -0.031 A 
HETATM    3  C   UNK     0      -2.097   2.218 -34.727  0.00  0.00     0.021 A 
HETATM    4  N   UNK     0      -3.330   2.566 -35.165  0.00  0.00    -0.361 N 
HETATM    5  C   UNK     0      -3.725   1.656 -36.078  0.00  0.00     0.022 A 
HETATM    6  C   UNK     0      -2.731   0.695 -36.228  0.00  0.00    -0.027 A 
HETATM    7  C   UNK     0      -4.959   1.631 -36.926  0.00  0.00     0.115 C 
HETATM    8  C   UNK     0      -5.385   2.950 -37.546  0.00  0.00     0.021 A 
HETATM    9  N   UNK     0      -4.613   3.943 -38.014  0.00  0.00    -0.361 N 
HETATM   10  C   UNK     0      -5.418   4.960 -38.388  0.00  0.00     0.022 A 
HETATM   11  C   UNK     0      -6.746   4.609 -38.163  0.00  0.00    -0.027 A 
HETATM   12  C   UNK     0      -6.733   3.343 -37.634  0.00  0.00    -0.031 A 
HETATM   13  C   UNK     0      -7.957   2.549 -37.235  0.00  0.00     0.051 C 
HETATM   14  C   UNK     0      -4.968   6.318 -38.919  0.00  0.00     0.115 C 
HETATM   15  C   UNK     0      -4.112   7.108 -37.942  0.00  0.00     0.021 A 
HETATM   16  N   UNK     0      -2.941   6.738 -37.390  0.00  0.00    -0.361 N 
HETATM   17  C   UNK     0      -2.544   7.679 -36.532  0.00  0.00     0.022 A 
HETATM   18  C   UNK     0      -3.496   8.718 -36.532  0.00  0.00    -0.027 A 
HETATM   19  C   UNK     0      -4.473   8.348 -37.420  0.00  0.00    -0.031 A 
HETATM   20  C   UNK     0      -5.680   9.206 -37.752  0.00  0.00     0.051 C 
HETATM   21  C   UNK     0      -1.344   7.712 -35.612  0.00  0.00     0.115 C 
HETATM   22  C   UNK     0      -0.882   6.400 -35.022  0.00  0.00     0.022 A 
HETATM   23  N   UNK     0      -1.628   5.392 -34.553  0.00  0.00    -0.361 N 
HETATM   24  C   UNK     0      -0.810   4.361 -34.259  0.00  0.00     0.021 A 
HETATM   25  C   UNK     0       0.495   4.718 -34.537  0.00  0.00    -0.031 A 
HETATM   26  C   UNK     0       1.765   3.917 -34.337  0.00  0.00     0.051 C 
HETATM   27  C   UNK     0       0.475   6.019 -35.026  0.00  0.00    -0.027 A 
HETATM   28  C   UNK     0      -1.200   2.972 -33.785  0.00  0.00     0.115 C 
HETATM   29  H   UNK     0      -3.929   3.431 -34.796  0.00  0.00     0.165 HD
HETATM   30  H   UNK     0      -3.502   3.910 -38.128  0.00  0.00     0.165 HD
HETATM   31  H   UNK     0      -2.359   5.815 -37.647  0.00  0.00     0.165 HD
HETATM   32  H   UNK     0      -2.736   5.414 -34.383  0.00  0.00     0.165 HD
ENDROOT
BRANCH   6  33
HETATM   33  C   UNK     0      -2.687  -0.526 -37.113  0.00  0.00     0.051 C 
BRANCH  33  34
HETATM   34  C   UNK     0      -1.932  -0.235 -38.388  0.00  0.00     0.114 C 
BRANCH  34  35
HETATM   35  C   UNK     0      -2.898   0.368 -39.351  0.00  0.00     0.139 C 
HETATM   36  O   UNK     0      -2.824   1.597 -39.643  0.00  0.00    -0.650 OA
BRANCH  35  37
HETATM   37  O   UNK     0      -3.902  -0.370 -39.966  0.00  0.00    -0.776 OA
HETATM   38  H   UNK     0      -4.111  -1.318 -39.696  0.00  0.00     0.167 HD
ENDBRANCH  35  37
ENDBRANCH  34  35
ENDBRANCH  33  34
ENDBRANCH   6  33
BRANCH  27  39
HETATM   39  C   UNK     0       1.710   6.774 -35.370  0.00  0.00     0.051 C 
BRANCH  39  40
HETATM   40  C   UNK     0       2.032   6.972 -36.783  0.00  0.00     0.114 C 
BRANCH  40  41
HETATM   41  C   UNK     0       2.102   5.872 -37.718  0.00  0.00     0.139 C 
HETATM   42  O   UNK     0       2.575   4.763 -37.435  0.00  0.00    -0.650 OA
BRANCH  41  43
HETATM   43  O   UNK     0       1.605   6.056 -39.040  0.00  0.00    -0.776 OA
HETATM   44  H   UNK     0       1.227   5.218 -39.466  0.00  0.00     0.167 HD
ENDBRANCH  41  43
ENDBRANCH  40  41
ENDBRANCH  39  40
ENDBRANCH  27  39
BRANCH  11  45
HETATM   45  C   UNK     0      -7.991   5.411 -38.431  0.00  0.00     0.051 C 
BRANCH  45  46
HETATM   46  C   UNK     0      -8.814   5.674 -37.223  0.00  0.00     0.114 C 
BRANCH  46  47
HETATM   47  C   UNK     0      -8.410   7.008 -36.694  0.00  0.00     0.139 C 
HETATM   48  O   UNK     0      -7.557   7.056 -35.796  0.00  0.00    -0.650 OA
BRANCH  47  49
HETATM   49  O   UNK     0      -8.969   8.159 -37.189  0.00  0.00    -0.776 OA
HETATM   50  H   UNK     0      -8.398   8.965 -37.471  0.00  0.00     0.167 HD
ENDBRANCH  47  49
ENDBRANCH  46  47
ENDBRANCH  45  46
ENDBRANCH  11  45
BRANCH  18  51
HETATM   51  C   UNK     0      -3.467  10.002 -35.744  0.00  0.00     0.051 C 
BRANCH  51  52
HETATM   52  C   UNK     0      -2.921  11.066 -36.684  0.00  0.00     0.114 C 
BRANCH  52  53
HETATM   53  C   UNK     0      -1.581  11.528 -36.272  0.00  0.00     0.139 C 
HETATM   54  O   UNK     0      -1.156  11.268 -35.136  0.00  0.00    -0.650 OA
BRANCH  53  55
HETATM   55  O   UNK     0      -0.812  12.250 -37.152  0.00  0.00    -0.776 OA
HETATM   56  H   UNK     0       0.028  11.942 -37.582  0.00  0.00     0.167 HD
ENDBRANCH  53  55
ENDBRANCH  52  53
ENDBRANCH  51  52
ENDBRANCH  18  51
TORSDOF 16
ENDMDL
MODEL 17
REMARK VINA RESULT:      -7.6      4.803      7.250
REMARK  16 active torsions:
REMARK  status: ('A' for Active; 'I' for Inactive)
REMARK    1  A    between atoms: C_6  and  C_7 
REMARK    2  A    between atoms: C_7  and  C_8 
REMARK    3  A    between atoms: C_8  and  C_9 
REMARK    4  A    between atoms: C_9  and  O_11 
REMARK    5  A    between atoms: C_16  and  C_17 
REMARK    6  A    between atoms: C_17  and  C_18 
REMARK    7  A    between atoms: C_18  and  C_19 
REMARK    8  A    between atoms: C_19  and  O_21 
REMARK    9  A    between atoms: C_28  and  C_29 
REMARK   10  A    between atoms: C_29  and  C_30 
REMARK   11  A    between atoms: C_30  and  C_31 
REMARK   12  A    between atoms: C_31  and  O_33 
REMARK   13  A    between atoms: C_42  and  C_43 
REMARK   14  A    between atoms: C_43  and  C_44 
REMARK   15  A    between atoms: C_44  and  C_45 
REMARK   16  A    between atoms: C_45  and  O_47 
ROOT
HETATM    1  C   UNK     0     -12.028  13.885 -36.260  0.00  0.00     0.051 C 
HETATM    2  C   UNK     0     -10.652  13.356 -35.911  0.00  0.00    -0.031 A 
HETATM    3  C   UNK     0     -10.279  12.094 -35.477  0.00  0.00     0.021 A 
HETATM    4  N   UNK     0      -8.943  12.081 -35.255  0.00  0.00    -0.361 N 
HETATM    5  C   UNK     0      -8.456  13.304 -35.546  0.00  0.00     0.022 A 
HETATM    6  C   UNK     0      -9.499  14.128 -35.957  0.00  0.00    -0.027 A 
HETATM    7  C   UNK     0      -7.039  13.787 -35.559  0.00  0.00     0.115 C 
HETATM    8  C   UNK     0      -6.006  12.852 -36.164  0.00  0.00     0.021 A 
HETATM    9  N   UNK     0      -6.142  12.018 -37.207  0.00  0.00    -0.361 N 
HETATM   10  C   UNK     0      -4.997  11.315 -37.333  0.00  0.00     0.022 A 
HETATM   11  C   UNK     0      -4.095  11.713 -36.350  0.00  0.00    -0.027 A 
HETATM   12  C   UNK     0      -4.725  12.681 -35.610  0.00  0.00    -0.031 A 
HETATM   13  C   UNK     0      -4.121  13.410 -34.431  0.00  0.00     0.051 C 
HETATM   14  C   UNK     0      -4.727  10.207 -38.348  0.00  0.00     0.115 C 
HETATM   15  C   UNK     0      -5.664   9.016 -38.223  0.00  0.00     0.021 A 
HETATM   16  N   UNK     0      -7.007   9.015 -38.314  0.00  0.00    -0.361 N 
HETATM   17  C   UNK     0      -7.461   7.782 -38.077  0.00  0.00     0.022 A 
HETATM   18  C   UNK     0      -6.361   6.938 -37.828  0.00  0.00    -0.027 A 
HETATM   19  C   UNK     0      -5.241   7.723 -37.924  0.00  0.00    -0.031 A 
HETATM   20  C   UNK     0      -3.826   7.198 -37.761  0.00  0.00     0.051 C 
HETATM   21  C   UNK     0      -8.881   7.270 -37.989  0.00  0.00     0.115 C 
HETATM   22  C   UNK     0      -9.927   8.206 -37.430  0.00  0.00     0.022 A 
HETATM   23  N   UNK     0      -9.818   9.049 -36.396  0.00  0.00    -0.361 N 
HETATM   24  C   UNK     0     -10.940   9.794 -36.337  0.00  0.00     0.021 A 
HETATM   25  C   UNK     0     -11.797   9.414 -37.352  0.00  0.00    -0.031 A 
HETATM   26  C   UNK     0     -13.186   9.928 -37.670  0.00  0.00     0.051 C 
HETATM   27  C   UNK     0     -11.170   8.398 -38.065  0.00  0.00    -0.027 A 
HETATM   28  C   UNK     0     -11.244  10.945 -35.393  0.00  0.00     0.115 C 
HETATM   29  H   UNK     0      -8.360  11.218 -34.857  0.00  0.00     0.165 HD
HETATM   30  H   UNK     0      -7.026  11.960 -37.888  0.00  0.00     0.165 HD
HETATM   31  H   UNK     0      -7.645   9.891 -38.599  0.00  0.00     0.165 HD
HETATM   32  H   UNK     0      -8.965   9.097 -35.670  0.00  0.00     0.165 HD
ENDROOT
BRANCH   6  33
HETATM   33  C   UNK     0      -9.483  15.575 -36.382  0.00  0.00     0.051 C 
BRANCH  33  34
HETATM   34  C   UNK     0      -9.302  16.481 -35.188  0.00  0.00     0.114 C 
BRANCH  34  35
HETATM   35  C   UNK     0     -10.660  16.875 -34.716  0.00  0.00     0.139 C 
HETATM   36  O   UNK     0     -11.431  17.535 -35.472  0.00  0.00    -0.650 OA
BRANCH  35  37
HETATM   37  O   UNK     0     -11.141  16.544 -33.455  0.00  0.00    -0.776 OA
HETATM   38  H   UNK     0     -11.906  17.039 -33.027  0.00  0.00     0.167 HD
ENDBRANCH  35  37
ENDBRANCH  34  35
ENDBRANCH  33  34
ENDBRANCH   6  33
BRANCH  27  39
HETATM   39  C   UNK     0     -11.820   7.683 -39.198  0.00  0.00     0.051 C 
BRANCH  39  40
HETATM   40  C   UNK     0     -12.407   6.369 -38.942  0.00  0.00     0.114 C 
BRANCH  40  41
HETATM   41  C   UNK     0     -13.618   6.203 -38.170  0.00  0.00     0.139 C 
HETATM   42  O   UNK     0     -13.637   6.139 -36.933  0.00  0.00    -0.650 OA
BRANCH  41  43
HETATM   43  O   UNK     0     -14.865   6.105 -38.851  0.00  0.00    -0.776 OA
HETATM   44  H   UNK     0     -15.365   5.239 -38.689  0.00  0.00     0.167 HD
ENDBRANCH  41  43
ENDBRANCH  40  41
ENDBRANCH  39  40
ENDBRANCH  27  39
BRANCH  11  45
HETATM   45  C   UNK     0      -2.695  11.219 -36.101  0.00  0.00     0.051 C 
BRANCH  45  46
HETATM   46  C   UNK     0      -1.673  12.295 -36.052  0.00  0.00     0.114 C 
BRANCH  46  47
HETATM   47  C   UNK     0      -1.463  12.769 -37.450  0.00  0.00     0.139 C 
HETATM   48  O   UNK     0      -1.064  13.928 -37.629  0.00  0.00    -0.650 OA
BRANCH  47  49
HETATM   49  O   UNK     0      -1.707  11.941 -38.517  0.00  0.00    -0.776 OA
HETATM   50  H   UNK     0      -2.259  12.244 -39.327  0.00  0.00     0.167 HD
ENDBRANCH  47  49
ENDBRANCH  46  47
ENDBRANCH  45  46
ENDBRANCH  11  45
BRANCH  18  51
HETATM   51  C   UNK     0      -6.374   5.460 -37.537  0.00  0.00     0.051 C 
BRANCH  51  52
HETATM   52  C   UNK     0      -6.527   4.762 -38.880  0.00  0.00     0.114 C 
BRANCH  52  53
HETATM   53  C   UNK     0      -5.282   4.086 -39.293  0.00  0.00     0.139 C 
HETATM   54  O   UNK     0      -4.414   3.811 -38.448  0.00  0.00    -0.650 OA
BRANCH  53  55
HETATM   55  O   UNK     0      -5.088   3.765 -40.614  0.00  0.00    -0.776 OA
HETATM   56  H   UNK     0      -4.296   3.302 -40.993  0.00  0.00     0.167 HD
ENDBRANCH  53  55
ENDBRANCH  52  53
ENDBRANCH  51  52
ENDBRANCH  18  51
TORSDOF 16
ENDMDL
MODEL 18
REMARK VINA RESULT:      -7.6      3.279      9.227
REMARK  16 active torsions:
REMARK  status: ('A' for Active; 'I' for Inactive)
REMARK    1  A    between atoms: C_6  and  C_7 
REMARK    2  A    between atoms: C_7  and  C_8 
REMARK    3  A    between atoms: C_8  and  C_9 
REMARK    4  A    between atoms: C_9  and  O_11 
REMARK    5  A    between atoms: C_16  and  C_17 
REMARK    6  A    between atoms: C_17  and  C_18 
REMARK    7  A    between atoms: C_18  and  C_19 
REMARK    8  A    between atoms: C_19  and  O_21 
REMARK    9  A    between atoms: C_28  and  C_29 
REMARK   10  A    between atoms: C_29  and  C_30 
REMARK   11  A    between atoms: C_30  and  C_31 
REMARK   12  A    between atoms: C_31  and  O_33 
REMARK   13  A    between atoms: C_42  and  C_43 
REMARK   14  A    between atoms: C_43  and  C_44 
REMARK   15  A    between atoms: C_44  and  C_45 
REMARK   16  A    between atoms: C_45  and  O_47 
ROOT
HETATM    1  C   UNK     0      -6.666   1.093 -34.282  0.00  0.00     0.051 C 
HETATM    2  C   UNK     0      -6.545   2.596 -34.133  0.00  0.00    -0.031 A 
HETATM    3  C   UNK     0      -5.588   3.338 -33.459  0.00  0.00     0.021 A 
HETATM    4  N   UNK     0      -5.894   4.653 -33.565  0.00  0.00    -0.361 N 
HETATM    5  C   UNK     0      -7.021   4.765 -34.299  0.00  0.00     0.022 A 
HETATM    6  C   UNK     0      -7.456   3.497 -34.668  0.00  0.00    -0.027 A 
HETATM    7  C   UNK     0      -7.723   5.995 -34.783  0.00  0.00     0.115 C 
HETATM    8  C   UNK     0      -6.848   7.112 -35.323  0.00  0.00     0.021 A 
HETATM    9  N   UNK     0      -5.707   7.016 -36.023  0.00  0.00    -0.361 N 
HETATM   10  C   UNK     0      -5.224   8.262 -36.211  0.00  0.00     0.022 A 
HETATM   11  C   UNK     0      -6.082   9.187 -35.624  0.00  0.00    -0.027 A 
HETATM   12  C   UNK     0      -7.107   8.469 -35.063  0.00  0.00    -0.031 A 
HETATM   13  C   UNK     0      -8.283   9.060 -34.317  0.00  0.00     0.051 C 
HETATM   14  C   UNK     0      -3.913   8.626 -36.902  0.00  0.00     0.115 C 
HETATM   15  C   UNK     0      -2.680   8.049 -36.226  0.00  0.00     0.021 A 
HETATM   16  N   UNK     0      -2.402   6.753 -35.993  0.00  0.00    -0.361 N 
HETATM   17  C   UNK     0      -1.255   6.666 -35.315  0.00  0.00     0.022 A 
HETATM   18  C   UNK     0      -0.758   7.967 -35.104  0.00  0.00    -0.027 A 
HETATM   19  C   UNK     0      -1.658   8.824 -35.681  0.00  0.00    -0.031 A 
HETATM   20  C   UNK     0      -1.486  10.332 -35.715  0.00  0.00     0.051 C 
HETATM   21  C   UNK     0      -0.549   5.453 -34.752  0.00  0.00     0.115 C 
HETATM   22  C   UNK     0      -1.408   4.315 -34.252  0.00  0.00     0.022 A 
HETATM   23  N   UNK     0      -2.550   4.382 -33.556  0.00  0.00    -0.361 N 
HETATM   24  C   UNK     0      -3.053   3.135 -33.447  0.00  0.00     0.021 A 
HETATM   25  C   UNK     0      -2.209   2.244 -34.080  0.00  0.00    -0.031 A 
HETATM   26  C   UNK     0      -2.324   0.738 -34.193  0.00  0.00     0.051 C 
HETATM   27  C   UNK     0      -1.148   2.975 -34.602  0.00  0.00    -0.027 A 
HETATM   28  C   UNK     0      -4.375   2.717 -32.826  0.00  0.00     0.115 C 
HETATM   29  H   UNK     0      -5.334   5.490 -33.087  0.00  0.00     0.165 HD
HETATM   30  H   UNK     0      -5.266   6.073 -36.430  0.00  0.00     0.165 HD
HETATM   31  H   UNK     0      -3.002   5.878 -36.356  0.00  0.00     0.165 HD
HETATM   32  H   UNK     0      -2.991   5.305 -33.096  0.00  0.00     0.165 HD
ENDROOT
BRANCH   6  33
HETATM   33  C   UNK     0      -8.658   3.081 -35.478  0.00  0.00     0.051 C 
BRANCH  33  34
HETATM   34  C   UNK     0      -9.926   3.648 -34.883  0.00  0.00     0.114 C 
BRANCH  34  35
HETATM   35  C   UNK     0     -10.164   2.948 -33.589  0.00  0.00     0.139 C 
HETATM   36  O   UNK     0     -10.237   1.685 -33.551  0.00  0.00    -0.650 OA
BRANCH  35  37
HETATM   37  O   UNK     0     -10.313   3.627 -32.386  0.00  0.00    -0.776 OA
HETATM   38  H   UNK     0     -10.906   4.437 -32.298  0.00  0.00     0.167 HD
ENDBRANCH  35  37
ENDBRANCH  34  35
ENDBRANCH  33  34
ENDBRANCH   6  33
BRANCH  27  39
HETATM   39  C   UNK     0       0.007   2.345 -35.297  0.00  0.00     0.051 C 
BRANCH  39  40
HETATM   40  C   UNK     0       1.234   2.115 -34.536  0.00  0.00     0.114 C 
BRANCH  40  41
HETATM   41  C   UNK     0       2.204   3.162 -34.304  0.00  0.00     0.139 C 
HETATM   42  O   UNK     0       3.030   3.528 -35.151  0.00  0.00    -0.650 OA
BRANCH  41  43
HETATM   43  O   UNK     0       2.225   3.818 -33.040  0.00  0.00    -0.776 OA
HETATM   44  H   UNK     0       1.566   4.581 -32.953  0.00  0.00     0.167 HD
ENDBRANCH  41  43
ENDBRANCH  40  41
ENDBRANCH  39  40
ENDBRANCH  27  39
BRANCH  11  45
HETATM   45  C   UNK     0      -5.965  10.687 -35.583  0.00  0.00     0.051 C 
BRANCH  45  46
HETATM   46  C   UNK     0      -6.339  11.360 -36.853  0.00  0.00     0.114 C 
BRANCH  46  47
HETATM   47  C   UNK     0      -6.408  12.823 -36.575  0.00  0.00     0.139 C 
HETATM   48  O   UNK     0      -7.119  13.531 -37.301  0.00  0.00    -0.650 OA
BRANCH  47  49
HETATM   49  O   UNK     0      -5.698  13.375 -35.538  0.00  0.00    -0.776 OA
HETATM   50  H   UNK     0      -5.094  12.810 -34.930  0.00  0.00     0.167 HD
ENDBRANCH  47  49
ENDBRANCH  46  47
ENDBRANCH  45  46
ENDBRANCH  11  45
BRANCH  18  51
HETATM   51  C   UNK     0       0.517   8.370 -34.410  0.00  0.00     0.051 C 
BRANCH  51  52
HETATM   52  C   UNK     0       1.644   8.090 -35.393  0.00  0.00     0.114 C 
BRANCH  52  53
HETATM   53  C   UNK     0       2.899   7.732 -34.703  0.00  0.00     0.139 C 
HETATM   54  O   UNK     0       3.806   8.572 -34.587  0.00  0.00    -0.650 OA
BRANCH  53  55
HETATM   55  O   UNK     0       3.057   6.466 -34.194  0.00  0.00    -0.776 OA
HETATM   56  H   UNK     0       2.329   5.821 -33.997  0.00  0.00     0.167 HD
ENDBRANCH  53  55
ENDBRANCH  52  53
ENDBRANCH  51  52
ENDBRANCH  18  51
TORSDOF 16
ENDMDL
MODEL 19
REMARK VINA RESULT:      -7.5      2.783      7.973
REMARK  16 active torsions:
REMARK  status: ('A' for Active; 'I' for Inactive)
REMARK    1  A    between atoms: C_6  and  C_7 
REMARK    2  A    between atoms: C_7  and  C_8 
REMARK    3  A    between atoms: C_8  and  C_9 
REMARK    4  A    between atoms: C_9  and  O_11 
REMARK    5  A    between atoms: C_16  and  C_17 
REMARK    6  A    between atoms: C_17  and  C_18 
REMARK    7  A    between atoms: C_18  and  C_19 
REMARK    8  A    between atoms: C_19  and  O_21 
REMARK    9  A    between atoms: C_28  and  C_29 
REMARK   10  A    between atoms: C_29  and  C_30 
REMARK   11  A    between atoms: C_30  and  C_31 
REMARK   12  A    between atoms: C_31  and  O_33 
REMARK   13  A    between atoms: C_42  and  C_43 
REMARK   14  A    between atoms: C_43  and  C_44 
REMARK   15  A    between atoms: C_44  and  C_45 
REMARK   16  A    between atoms: C_45  and  O_47 
ROOT
HETATM    1  C   UNK     0      -7.652   5.661 -36.907  0.00  0.00     0.051 C 
HETATM    2  C   UNK     0      -6.436   4.762 -36.998  0.00  0.00    -0.031 A 
HETATM    3  C   UNK     0      -5.195   5.014 -37.563  0.00  0.00     0.021 A 
HETATM    4  N   UNK     0      -4.423   3.908 -37.442  0.00  0.00    -0.361 N 
HETATM    5  C   UNK     0      -5.140   2.961 -36.804  0.00  0.00     0.022 A 
HETATM    6  C   UNK     0      -6.406   3.460 -36.514  0.00  0.00    -0.027 A 
HETATM    7  C   UNK     0      -4.722   1.599 -36.343  0.00  0.00     0.115 C 
HETATM    8  C   UNK     0      -3.354   1.490 -35.694  0.00  0.00     0.021 A 
HETATM    9  N   UNK     0      -2.730   2.376 -34.903  0.00  0.00    -0.361 N 
HETATM   10  C   UNK     0      -1.495   1.902 -34.634  0.00  0.00     0.022 A 
HETATM   11  C   UNK     0      -1.321   0.672 -35.263  0.00  0.00    -0.027 A 
HETATM   12  C   UNK     0      -2.489   0.407 -35.932  0.00  0.00    -0.031 A 
HETATM   13  C   UNK     0      -2.761  -0.831 -36.757  0.00  0.00     0.051 C 
HETATM   14  C   UNK     0      -0.414   2.611 -33.822  0.00  0.00     0.115 C 
HETATM   15  C   UNK     0       0.021   3.944 -34.408  0.00  0.00     0.021 A 
HETATM   16  N   UNK     0      -0.746   5.021 -34.658  0.00  0.00    -0.361 N 
HETATM   17  C   UNK     0      -0.002   5.965 -35.239  0.00  0.00     0.022 A 
HETATM   18  C   UNK     0       1.317   5.483 -35.364  0.00  0.00    -0.027 A 
HETATM   19  C   UNK     0       1.318   4.217 -34.839  0.00  0.00    -0.031 A 
HETATM   20  C   UNK     0       2.556   3.345 -34.743  0.00  0.00     0.051 C 
HETATM   21  C   UNK     0      -0.398   7.321 -35.777  0.00  0.00     0.115 C 
HETATM   22  C   UNK     0      -1.774   7.455 -36.385  0.00  0.00     0.022 A 
HETATM   23  N   UNK     0      -2.421   6.587 -37.174  0.00  0.00    -0.361 N 
HETATM   24  C   UNK     0      -3.676   7.043 -37.364  0.00  0.00     0.021 A 
HETATM   25  C   UNK     0      -3.837   8.238 -36.691  0.00  0.00    -0.031 A 
HETATM   26  C   UNK     0      -5.049   9.145 -36.636  0.00  0.00     0.051 C 
HETATM   27  C   UNK     0      -2.633   8.523 -36.057  0.00  0.00    -0.027 A 
HETATM   28  C   UNK     0      -4.809   6.359 -38.109  0.00  0.00     0.115 C 
HETATM   29  H   UNK     0      -3.389   3.792 -37.843  0.00  0.00     0.165 HD
HETATM   30  H   UNK     0      -3.177   3.313 -34.490  0.00  0.00     0.165 HD
HETATM   31  H   UNK     0      -1.825   5.137 -34.377  0.00  0.00     0.165 HD
HETATM   32  H   UNK     0      -1.984   5.666 -37.640  0.00  0.00     0.165 HD
ENDROOT
BRANCH   6  33
HETATM   33  C   UNK     0      -7.574   2.803 -35.824  0.00  0.00     0.051 C 
BRANCH  33  34
HETATM   34  C   UNK     0      -7.412   2.864 -34.323  0.00  0.00     0.114 C 
BRANCH  34  35
HETATM   35  C   UNK     0      -8.381   3.875 -33.811  0.00  0.00     0.139 C 
HETATM   36  O   UNK     0      -9.610   3.589 -33.718  0.00  0.00    -0.650 OA
BRANCH  35  37
HETATM   37  O   UNK     0      -7.995   5.150 -33.417  0.00  0.00    -0.776 OA
HETATM   38  H   UNK     0      -7.698   5.848 -34.080  0.00  0.00     0.167 HD
ENDBRANCH  35  37
ENDBRANCH  34  35
ENDBRANCH  33  34
ENDBRANCH   6  33
BRANCH  27  39
HETATM   39  C   UNK     0      -2.400   9.774 -35.286  0.00  0.00     0.051 C 
BRANCH  39  40
HETATM   40  C   UNK     0      -1.377  10.703 -35.765  0.00  0.00     0.114 C 
BRANCH  40  41
HETATM   41  C   UNK     0      -1.705  11.879 -36.539  0.00  0.00     0.139 C 
HETATM   42  O   UNK     0      -1.366  13.026 -36.218  0.00  0.00    -0.650 OA
BRANCH  41  43
HETATM   43  O   UNK     0      -2.458  11.729 -37.738  0.00  0.00    -0.776 OA
HETATM   44  H   UNK     0      -2.293  12.450 -38.430  0.00  0.00     0.167 HD
ENDBRANCH  41  43
ENDBRANCH  40  41
ENDBRANCH  39  40
ENDBRANCH  27  39
BRANCH  11  45
HETATM   45  C   UNK     0      -0.119  -0.232 -35.246  0.00  0.00     0.051 C 
BRANCH  45  46
HETATM   46  C   UNK     0       0.240  -0.739 -33.897  0.00  0.00     0.114 C 
BRANCH  46  47
HETATM   47  C   UNK     0      -0.689  -1.863 -33.586  0.00  0.00     0.139 C 
HETATM   48  O   UNK     0      -0.761  -2.809 -34.383  0.00  0.00    -0.650 OA
BRANCH  47  49
HETATM   49  O   UNK     0      -1.449  -1.851 -32.444  0.00  0.00    -0.776 OA
HETATM   50  H   UNK     0      -1.912  -0.999 -32.105  0.00  0.00     0.167 HD
ENDBRANCH  47  49
ENDBRANCH  46  47
ENDBRANCH  45  46
ENDBRANCH  11  45
BRANCH  18  51
HETATM   51  C   UNK     0       2.514   6.198 -35.934  0.00  0.00     0.051 C 
BRANCH  51  52
HETATM   52  C   UNK     0       3.196   6.888 -34.762  0.00  0.00     0.114 C 
BRANCH  52  53
HETATM   53  C   UNK     0       4.547   6.349 -34.516  0.00  0.00     0.139 C 
HETATM   54  O   UNK     0       4.827   5.852 -33.414  0.00  0.00    -0.650 OA
BRANCH  53  55
HETATM   55  O   UNK     0       5.492   6.403 -35.512  0.00  0.00    -0.776 OA
HETATM   56  H   UNK     0       5.495   7.032 -36.280  0.00  0.00     0.167 HD
ENDBRANCH  53  55
ENDBRANCH  52  53
ENDBRANCH  51  52
ENDBRANCH  18  51
TORSDOF 16
ENDMDL
MODEL 20
REMARK VINA RESULT:      -7.5     31.951     35.193
REMARK  16 active torsions:
REMARK  status: ('A' for Active; 'I' for Inactive)
REMARK    1  A    between atoms: C_6  and  C_7 
REMARK    2  A    between atoms: C_7  and  C_8 
REMARK    3  A    between atoms: C_8  and  C_9 
REMARK    4  A    between atoms: C_9  and  O_11 
REMARK    5  A    between atoms: C_16  and  C_17 
REMARK    6  A    between atoms: C_17  and  C_18 
REMARK    7  A    between atoms: C_18  and  C_19 
REMARK    8  A    between atoms: C_19  and  O_21 
REMARK    9  A    between atoms: C_28  and  C_29 
REMARK   10  A    between atoms: C_29  and  C_30 
REMARK   11  A    between atoms: C_30  and  C_31 
REMARK   12  A    between atoms: C_31  and  O_33 
REMARK   13  A    between atoms: C_42  and  C_43 
REMARK   14  A    between atoms: C_43  and  C_44 
REMARK   15  A    between atoms: C_44  and  C_45 
REMARK   16  A    between atoms: C_45  and  O_47 
ROOT
HETATM    1  C   UNK     0      -7.936  24.695  -2.684  0.00  0.00     0.051 C 
HETATM    2  C   UNK     0      -7.935  23.220  -3.032  0.00  0.00    -0.031 A 
HETATM    3  C   UNK     0      -7.633  22.601  -4.235  0.00  0.00     0.021 A 
HETATM    4  N   UNK     0      -7.795  21.264  -4.096  0.00  0.00    -0.361 N 
HETATM    5  C   UNK     0      -8.185  21.016  -2.828  0.00  0.00     0.022 A 
HETATM    6  C   UNK     0      -8.285  22.219  -2.136  0.00  0.00    -0.027 A 
HETATM    7  C   UNK     0      -8.407  19.706  -2.139  0.00  0.00     0.115 C 
HETATM    8  C   UNK     0      -7.385  18.615  -2.404  0.00  0.00     0.021 A 
HETATM    9  N   UNK     0      -6.062  18.735  -2.591  0.00  0.00    -0.361 N 
HETATM   10  C   UNK     0      -5.567  17.515  -2.886  0.00  0.00     0.022 A 
HETATM   11  C   UNK     0      -6.599  16.581  -2.881  0.00  0.00    -0.027 A 
HETATM   12  C   UNK     0      -7.747  17.267  -2.578  0.00  0.00    -0.031 A 
HETATM   13  C   UNK     0      -9.125  16.655  -2.456  0.00  0.00     0.051 C 
HETATM   14  C   UNK     0      -4.118  17.190  -3.237  0.00  0.00     0.115 C 
HETATM   15  C   UNK     0      -3.610  17.903  -4.480  0.00  0.00     0.021 A 
HETATM   16  N   UNK     0      -3.552  19.230  -4.700  0.00  0.00    -0.361 N 
HETATM   17  C   UNK     0      -3.111  19.450  -5.941  0.00  0.00     0.022 A 
HETATM   18  C   UNK     0      -2.861  18.206  -6.555  0.00  0.00    -0.027 A 
HETATM   19  C   UNK     0      -3.177  17.246  -5.630  0.00  0.00    -0.031 A 
HETATM   20  C   UNK     0      -3.018  15.756  -5.872  0.00  0.00     0.051 C 
HETATM   21  C   UNK     0      -2.936  20.749  -6.694  0.00  0.00     0.115 C 
HETATM   22  C   UNK     0      -3.920  21.859  -6.407  0.00  0.00     0.022 A 
HETATM   23  N   UNK     0      -5.242  21.767  -6.214  0.00  0.00    -0.361 N 
HETATM   24  C   UNK     0      -5.701  22.980  -5.844  0.00  0.00     0.021 A 
HETATM   25  C   UNK     0      -4.650  23.877  -5.809  0.00  0.00    -0.031 A 
HETATM   26  C   UNK     0      -4.671  25.358  -5.492  0.00  0.00     0.051 C 
HETATM   27  C   UNK     0      -3.500  23.183  -6.166  0.00  0.00    -0.027 A 
HETATM   28  C   UNK     0      -7.113  23.352  -5.428  0.00  0.00     0.115 C 
HETATM   29  H   UNK     0      -7.671  20.507  -4.905  0.00  0.00     0.165 HD
HETATM   30  H   UNK     0      -5.466  19.672  -2.465  0.00  0.00     0.165 HD
HETATM   31  H   UNK     0      -3.781  20.030  -3.949  0.00  0.00     0.165 HD
HETATM   32  H   UNK     0      -5.871  20.855  -6.378  0.00  0.00     0.165 HD
ENDROOT
BRANCH   6  33
HETATM   33  C   UNK     0      -8.685  22.485  -0.707  0.00  0.00     0.051 C 
BRANCH  33  34
HETATM   34  C   UNK     0      -7.572  22.106   0.240  0.00  0.00     0.114 C 
BRANCH  34  35
HETATM   35  C   UNK     0      -6.960  23.371   0.740  0.00  0.00     0.139 C 
HETATM   36  O   UNK     0      -7.652  24.428   0.810  0.00  0.00    -0.650 OA
BRANCH  35  37
HETATM   37  O   UNK     0      -5.634  23.453   1.146  0.00  0.00    -0.776 OA
HETATM   38  H   UNK     0      -4.889  23.014   0.630  0.00  0.00     0.167 HD
ENDBRANCH  35  37
ENDBRANCH  34  35
ENDBRANCH  33  34
ENDBRANCH   6  33
BRANCH  27  39
HETATM   39  C   UNK     0      -2.170  23.836  -6.310  0.00  0.00     0.051 C 
BRANCH  39  40
HETATM   40  C   UNK     0      -1.210  23.704  -5.214  0.00  0.00     0.114 C 
BRANCH  40  41
HETATM   41  C   UNK     0      -1.586  23.187  -3.918  0.00  0.00     0.139 C 
HETATM   42  O   UNK     0      -1.925  23.905  -2.967  0.00  0.00    -0.650 OA
BRANCH  41  43
HETATM   43  O   UNK     0      -1.572  21.779  -3.705  0.00  0.00    -0.776 OA
HETATM   44  H   UNK     0      -0.651  21.359  -3.737  0.00  0.00     0.167 HD
ENDBRANCH  41  43
ENDBRANCH  40  41
ENDBRANCH  39  40
ENDBRANCH  27  39
BRANCH  11  45
HETATM   45  C   UNK     0      -6.530  15.100  -3.145  0.00  0.00     0.051 C 
BRANCH  45  46
HETATM   46  C   UNK     0      -6.435  14.270  -1.917  0.00  0.00     0.114 C 
BRANCH  46  47
HETATM   47  C   UNK     0      -5.024  14.346  -1.440  0.00  0.00     0.139 C 
HETATM   48  O   UNK     0      -4.116  14.047  -2.228  0.00  0.00    -0.650 OA
BRANCH  47  49
HETATM   49  O   UNK     0      -4.736  14.738  -0.157  0.00  0.00    -0.776 OA
HETATM   50  H   UNK     0      -5.165  15.568   0.269  0.00  0.00     0.167 HD
ENDBRANCH  47  49
ENDBRANCH  46  47
ENDBRANCH  45  46
ENDBRANCH  11  45
BRANCH  18  51
HETATM   51  C   UNK     0      -2.331  17.949  -7.942  0.00  0.00     0.051 C 
BRANCH  51  52
HETATM   52  C   UNK     0      -0.817  17.875  -7.812  0.00  0.00     0.114 C 
BRANCH  52  53
HETATM   53  C   UNK     0      -0.270  16.655  -8.437  0.00  0.00     0.139 C 
HETATM   54  O   UNK     0      -0.268  15.583  -7.810  0.00  0.00    -0.650 OA
BRANCH  53  55
HETATM   55  O   UNK     0       0.239  16.714  -9.711  0.00  0.00    -0.776 OA
HETATM   56  H   UNK     0       0.143  16.017 -10.411  0.00  0.00     0.167 HD
ENDBRANCH  53  55
ENDBRANCH  52  53
ENDBRANCH  51  52
ENDBRANCH  18  51
TORSDOF 16
ENDMDL
