MODEL 1
REMARK VINA RESULT:     -10.5      0.000      0.000
REMARK  28 active torsions:
REMARK  status: ('A' for Active; 'I' for Inactive)
REMARK    1  A    between atoms: C_2  and  O_3 
REMARK    2  A    between atoms: C_2  and  C_4 
REMARK    3  A    between atoms: C_4  and  C_5 
REMARK    4  A    between atoms: C_5  and  C_6 
REMARK    5  A    between atoms: C_7  and  C_8 
REMARK    6  A    between atoms: C_8  and  C_9 
REMARK    7  A    between atoms: C_9  and  O_11 
REMARK    8  A    between atoms: C_28  and  C_29 
REMARK    9  A    between atoms: C_29  and  C_30 
REMARK   10  A    between atoms: C_30  and  O_32 
REMARK   11  A    between atoms: C_33  and  C_34 
REMARK   12  A    between atoms: C_34  and  C_35 
REMARK   13  A    between atoms: C_35  and  C_36 
REMARK   14  A    between atoms: C_36  and  O_38 
REMARK   15  A    between atoms: C_39  and  C_40 
REMARK   16  A    between atoms: C_40  and  C_41 
REMARK   17  A    between atoms: C_41  and  C_42 
REMARK   18  A    between atoms: C_42  and  O_44 
REMARK   19  A    between atoms: C_45  and  C_46 
REMARK   20  A    between atoms: C_46  and  C_47 
REMARK   21  A    between atoms: C_47  and  O_49 
REMARK   22  A    between atoms: C_50  and  C_51 
REMARK   23  A    between atoms: C_51  and  C_52 
REMARK   24  A    between atoms: C_52  and  O_54 
REMARK   25  A    between atoms: C_55  and  C_56 
REMARK   26  A    between atoms: C_56  and  C_57 
REMARK   27  A    between atoms: C_57  and  C_58 
REMARK   28  A    between atoms: C_58  and  O_60 
ROOT
ATOM      1  O   UNK d   0       0.838   7.460  -6.452  0.00  0.00    -0.650 OA
ATOM      2  C   UNK d   0       0.050   6.498  -6.311  0.00  0.00     0.139 C 
ENDROOT
BRANCH   2   3
ATOM      3  O   UNK d   0      -1.286   6.746  -6.109  0.00  0.00    -0.776 OA
ATOM      4  H   UNK d   0      -1.705   7.637  -6.384  0.00  0.00     0.167 HD
ENDBRANCH   2   3
BRANCH   2   5
ATOM      5  C   UNK d   0       0.561   5.099  -6.363  0.00  0.00     0.115 C 
BRANCH   5   6
ATOM      6  C   UNK d   0       1.445   4.915  -7.565  0.00  0.00     0.052 C 
BRANCH   6   7
ATOM      7  C   UNK d   0       0.807   4.055  -8.630  0.00  0.00    -0.020 A 
ATOM      8  C   UNK d   0       1.196   2.877  -9.045  0.00  0.00    -0.011 A 
ATOM      9  C   UNK d   0       0.279   2.446 -10.086  0.00  0.00     0.067 A 
ATOM     10  C   UNK d   0       0.128   1.309 -10.896  0.00  0.00     0.062 C 
ATOM     11  N   UNK d   0      -0.636   3.426 -10.245  0.00  0.00    -0.248 NA
ATOM     12  C   UNK d   0      -0.991   0.953 -11.656  0.00  0.00     0.041 A 
ATOM     13  N   UNK d   0      -1.801   1.688 -12.442  0.00  0.00    -0.355 N 
ATOM     14  C   UNK d   0      -1.452  -0.376 -11.606  0.00  0.00    -0.022 A 
ATOM     15  C   UNK d   0      -2.768   0.863 -12.885  0.00  0.00     0.042 A 
ATOM     16  H   UNK d   0      -1.679   2.765 -12.694  0.00  0.00     0.166 HD
ATOM     17  C   UNK d   0      -3.864   1.113 -13.734  0.00  0.00     0.062 C 
ATOM     18  C   UNK d   0      -2.583  -0.439 -12.381  0.00  0.00    -0.013 A 
ATOM     19  C   UNK d   0      -4.744   2.166 -13.719  0.00  0.00     0.067 A 
ATOM     20  N   UNK d   0      -4.433   3.203 -12.937  0.00  0.00    -0.248 NA
ATOM     21  C   UNK d   0      -6.014   2.474 -14.354  0.00  0.00    -0.011 A 
ATOM     22  C   UNK d   0      -5.408   4.167 -13.014  0.00  0.00     0.066 A 
ATOM     23  C   UNK d   0      -5.193   5.321 -12.276  0.00  0.00     0.062 C 
ATOM     24  C   UNK d   0      -6.399   3.645 -13.934  0.00  0.00    -0.020 A 
ATOM     25  C   UNK d   0      -4.055   5.666 -11.530  0.00  0.00     0.041 A 
ATOM     26  N   UNK d   0      -3.259   4.938 -10.737  0.00  0.00    -0.355 N 
ATOM     27  C   UNK d   0      -3.590   6.998 -11.585  0.00  0.00    -0.022 A 
ATOM     28  C   UNK d   0      -2.299   5.761 -10.287  0.00  0.00     0.042 A 
ATOM     29  H   UNK d   0      -3.389   3.859 -10.476  0.00  0.00     0.166 HD
ATOM     30  C   UNK d   0      -1.208   5.528  -9.435  0.00  0.00     0.062 C 
ATOM     31  C   UNK d   0      -2.479   7.067 -10.802  0.00  0.00    -0.013 A 
ATOM     32  C   UNK d   0      -0.374   4.422  -9.398  0.00  0.00     0.066 A 
BRANCH   8  33
ATOM     33  C   UNK d   0       2.358   2.108  -8.561  0.00  0.00     0.151 C 
BRANCH  33  34
ATOM     34  C   UNK d   0       3.603   2.446  -9.273  0.00  0.00     0.143 C 
ATOM     35  O   UNK d   0       3.614   2.587 -10.504  0.00  0.00    -0.650 OA
BRANCH  34  36
ATOM     36  O   UNK d   0       4.768   2.606  -8.559  0.00  0.00    -0.776 OA
ATOM     37  H   UNK d   0       4.950   3.463  -8.018  0.00  0.00     0.167 HD
ENDBRANCH  34  36
ENDBRANCH  33  34
ENDBRANCH   8  33
BRANCH  31  38
ATOM     38  C   UNK d   0      -1.630   8.294 -10.565  0.00  0.00     0.151 C 
BRANCH  38  39
ATOM     39  C   UNK d   0      -1.554   8.664  -9.168  0.00  0.00     0.143 C 
ATOM     40  O   UNK d   0      -2.537   8.600  -8.408  0.00  0.00    -0.650 OA
BRANCH  39  41
ATOM     41  O   UNK d   0      -0.342   9.109  -8.640  0.00  0.00    -0.776 OA
ATOM     42  H   UNK d   0       0.281   8.395  -8.250  0.00  0.00     0.167 HD
ENDBRANCH  39  41
ENDBRANCH  38  39
ENDBRANCH  31  38
BRANCH  27  43
ATOM     43  C   UNK d   0      -4.153   8.180 -12.335  0.00  0.00     0.052 C 
BRANCH  43  44
ATOM     44  C   UNK d   0      -4.255   9.415 -11.501  0.00  0.00     0.115 C 
BRANCH  44  45
ATOM     45  C   UNK d   0      -5.528  10.080 -11.881  0.00  0.00     0.139 C 
ATOM     46  O   UNK d   0      -6.237   9.540 -12.766  0.00  0.00    -0.650 OA
BRANCH  45  47
ATOM     47  O   UNK d   0      -5.960  11.254 -11.303  0.00  0.00    -0.776 OA
ATOM     48  H   UNK d   0      -6.163  12.107 -11.850  0.00  0.00     0.167 HD
ENDBRANCH  45  47
ENDBRANCH  44  45
ENDBRANCH  43  44
ENDBRANCH  27  43
BRANCH  24  49
ATOM     49  C   UNK d   0      -7.616   4.361 -14.354  0.00  0.00     0.052 C 
BRANCH  49  50
ATOM     50  C   UNK d   0      -8.777   3.986 -13.468  0.00  0.00     0.115 C 
BRANCH  50  51
ATOM     51  C   UNK d   0      -9.532   5.077 -12.866  0.00  0.00     0.139 C 
ATOM     52  O   UNK d   0      -9.072   6.237 -12.754  0.00  0.00    -0.650 OA
BRANCH  51  53
ATOM     53  O   UNK d   0     -10.812   4.842 -12.387  0.00  0.00    -0.776 OA
ATOM     54  H   UNK d   0     -11.030   3.924 -12.043  0.00  0.00     0.167 HD
ENDBRANCH  51  53
ENDBRANCH  50  51
ENDBRANCH  49  50
ENDBRANCH  24  49
BRANCH  21  55
ATOM     55  C   UNK d   0      -6.708   1.570 -15.317  0.00  0.00     0.151 C 
BRANCH  55  56
ATOM     56  C   UNK d   0      -6.644   2.079 -16.696  0.00  0.00     0.143 C 
ATOM     57  O   UNK d   0      -5.628   1.969 -17.410  0.00  0.00    -0.650 OA
BRANCH  56  58
ATOM     58  O   UNK d   0      -7.777   2.708 -17.208  0.00  0.00    -0.776 OA
ATOM     59  H   UNK d   0      -7.588   3.556 -17.772  0.00  0.00     0.167 HD
ENDBRANCH  56  58
ENDBRANCH  55  56
ENDBRANCH  21  55
BRANCH  18  60
ATOM     60  C   UNK d   0      -3.411  -1.681 -12.602  0.00  0.00     0.151 C 
BRANCH  60  61
ATOM     61  C   UNK d   0      -4.480  -1.639 -11.594  0.00  0.00     0.143 C 
ATOM     62  O   UNK d   0      -4.645  -0.784 -10.722  0.00  0.00    -0.650 OA
BRANCH  61  63
ATOM     63  O   UNK d   0      -5.408  -2.707 -11.654  0.00  0.00    -0.776 OA
ATOM     64  H   UNK d   0      -6.396  -2.533 -11.702  0.00  0.00     0.167 HD
ENDBRANCH  61  63
ENDBRANCH  60  61
ENDBRANCH  18  60
BRANCH  14  65
ATOM     65  C   UNK d   0      -0.856  -1.597 -10.966  0.00  0.00     0.052 C 
BRANCH  65  66
ATOM     66  C   UNK d   0      -1.446  -1.904  -9.636  0.00  0.00     0.115 C 
BRANCH  66  67
ATOM     67  C   UNK d   0      -1.726  -0.836  -8.718  0.00  0.00     0.139 C 
ATOM     68  O   UNK d   0      -0.763  -0.375  -8.001  0.00  0.00    -0.650 OA
BRANCH  67  69
ATOM     69  O   UNK d   0      -2.949  -0.206  -8.489  0.00  0.00    -0.776 OA
ATOM     70  H   UNK d   0      -3.351   0.297  -9.293  0.00  0.00     0.167 HD
ENDBRANCH  67  69
ENDBRANCH  66  67
ENDBRANCH  65  66
ENDBRANCH  14  65
ENDBRANCH   6   7
ENDBRANCH   5   6
ENDBRANCH   2   5
TORSDOF 28
ENDMDL
MODEL 2
REMARK VINA RESULT:     -10.1      1.900     10.311
REMARK  28 active torsions:
REMARK  status: ('A' for Active; 'I' for Inactive)
REMARK    1  A    between atoms: C_2  and  O_3 
REMARK    2  A    between atoms: C_2  and  C_4 
REMARK    3  A    between atoms: C_4  and  C_5 
REMARK    4  A    between atoms: C_5  and  C_6 
REMARK    5  A    between atoms: C_7  and  C_8 
REMARK    6  A    between atoms: C_8  and  C_9 
REMARK    7  A    between atoms: C_9  and  O_11 
REMARK    8  A    between atoms: C_28  and  C_29 
REMARK    9  A    between atoms: C_29  and  C_30 
REMARK   10  A    between atoms: C_30  and  O_32 
REMARK   11  A    between atoms: C_33  and  C_34 
REMARK   12  A    between atoms: C_34  and  C_35 
REMARK   13  A    between atoms: C_35  and  C_36 
REMARK   14  A    between atoms: C_36  and  O_38 
REMARK   15  A    between atoms: C_39  and  C_40 
REMARK   16  A    between atoms: C_40  and  C_41 
REMARK   17  A    between atoms: C_41  and  C_42 
REMARK   18  A    between atoms: C_42  and  O_44 
REMARK   19  A    between atoms: C_45  and  C_46 
REMARK   20  A    between atoms: C_46  and  C_47 
REMARK   21  A    between atoms: C_47  and  O_49 
REMARK   22  A    between atoms: C_50  and  C_51 
REMARK   23  A    between atoms: C_51  and  C_52 
REMARK   24  A    between atoms: C_52  and  O_54 
REMARK   25  A    between atoms: C_55  and  C_56 
REMARK   26  A    between atoms: C_56  and  C_57 
REMARK   27  A    between atoms: C_57  and  C_58 
REMARK   28  A    between atoms: C_58  and  O_60 
ROOT
ATOM      1  O   UNK d   0     -10.090   5.566 -13.562  0.00  0.00    -0.650 OA
ATOM      2  C   UNK d   0      -9.089   5.033 -14.089  0.00  0.00     0.139 C 
ENDROOT
BRANCH   2   3
ATOM      3  O   UNK d   0      -8.785   5.318 -15.399  0.00  0.00    -0.776 OA
ATOM      4  H   UNK d   0      -7.835   5.203 -15.757  0.00  0.00     0.167 HD
ENDBRANCH   2   3
BRANCH   2   5
ATOM      5  C   UNK d   0      -8.238   4.096 -13.302  0.00  0.00     0.115 C 
BRANCH   5   6
ATOM      6  C   UNK d   0      -6.896   3.935 -13.964  0.00  0.00     0.052 C 
BRANCH   6   7
ATOM      7  C   UNK d   0      -5.767   4.496 -13.134  0.00  0.00    -0.020 A 
ATOM      8  C   UNK d   0      -5.532   5.751 -12.849  0.00  0.00    -0.011 A 
ATOM      9  C   UNK d   0      -4.332   5.806 -12.031  0.00  0.00     0.067 A 
ATOM     10  C   UNK d   0      -3.583   6.810 -11.399  0.00  0.00     0.062 C 
ATOM     11  N   UNK d   0      -3.898   4.538 -11.872  0.00  0.00    -0.248 NA
ATOM     12  C   UNK d   0      -2.603   6.642 -10.414  0.00  0.00     0.041 A 
ATOM     13  N   UNK d   0      -1.603   5.748 -10.302  0.00  0.00    -0.355 N 
ATOM     14  C   UNK d   0      -2.626   7.477  -9.282  0.00  0.00    -0.022 A 
ATOM     15  C   UNK d   0      -0.995   5.989  -9.124  0.00  0.00     0.042 A 
ATOM     16  H   UNK d   0      -1.319   4.974 -11.049  0.00  0.00     0.166 HD
ATOM     17  C   UNK d   0       0.104   5.351  -8.516  0.00  0.00     0.062 C 
ATOM     18  C   UNK d   0      -1.610   7.066  -8.456  0.00  0.00    -0.013 A 
ATOM     19  C   UNK d   0       0.365   4.009  -8.397  0.00  0.00     0.067 A 
ATOM     20  N   UNK d   0      -0.401   3.179  -9.109  0.00  0.00    -0.248 NA
ATOM     21  C   UNK d   0       1.302   3.190  -7.647  0.00  0.00    -0.011 A 
ATOM     22  C   UNK d   0      -0.034   1.876  -8.877  0.00  0.00     0.066 A 
ATOM     23  C   UNK d   0      -0.727   0.905  -9.585  0.00  0.00     0.062 C 
ATOM     24  C   UNK d   0       1.061   1.942  -7.929  0.00  0.00    -0.020 A 
ATOM     25  C   UNK d   0      -1.698   1.094 -10.580  0.00  0.00     0.041 A 
ATOM     26  N   UNK d   0      -2.702   1.974 -10.684  0.00  0.00    -0.355 N 
ATOM     27  C   UNK d   0      -1.672   0.259 -11.718  0.00  0.00    -0.022 A 
ATOM     28  C   UNK d   0      -3.315   1.730 -11.853  0.00  0.00     0.042 A 
ATOM     29  H   UNK d   0      -2.992   2.744  -9.927  0.00  0.00     0.166 HD
ATOM     30  C   UNK d   0      -4.415   2.350 -12.466  0.00  0.00     0.062 C 
ATOM     31  C   UNK d   0      -2.690   0.654 -12.529  0.00  0.00    -0.013 A 
ATOM     32  C   UNK d   0      -4.719   3.702 -12.510  0.00  0.00     0.066 A 
BRANCH   8  33
ATOM     33  C   UNK d   0      -6.326   6.918 -13.276  0.00  0.00     0.151 C 
BRANCH  33  34
ATOM     34  C   UNK d   0      -5.500   8.118 -13.505  0.00  0.00     0.143 C 
ATOM     35  O   UNK d   0      -5.650   9.135 -12.813  0.00  0.00    -0.650 OA
BRANCH  34  36
ATOM     36  O   UNK d   0      -4.551   8.104 -14.501  0.00  0.00    -0.776 OA
ATOM     37  H   UNK d   0      -3.550   8.204 -14.286  0.00  0.00     0.167 HD
ENDBRANCH  34  36
ENDBRANCH  33  34
ENDBRANCH   8  33
BRANCH  31  38
ATOM     38  C   UNK d   0      -3.044   0.058 -13.871  0.00  0.00     0.151 C 
BRANCH  38  39
ATOM     39  C   UNK d   0      -2.358   0.703 -14.971  0.00  0.00     0.143 C 
ATOM     40  O   UNK d   0      -2.917   1.532 -15.709  0.00  0.00    -0.650 OA
BRANCH  39  41
ATOM     41  O   UNK d   0      -1.021   0.394 -15.222  0.00  0.00    -0.776 OA
ATOM     42  H   UNK d   0      -0.839  -0.444 -15.783  0.00  0.00     0.167 HD
ENDBRANCH  39  41
ENDBRANCH  38  39
ENDBRANCH  31  38
BRANCH  27  43
ATOM     43  C   UNK d   0      -0.736  -0.876 -12.051  0.00  0.00     0.052 C 
BRANCH  43  44
ATOM     44  C   UNK d   0      -1.406  -2.212 -12.057  0.00  0.00     0.115 C 
BRANCH  44  45
ATOM     45  C   UNK d   0      -1.945  -2.422 -10.688  0.00  0.00     0.139 C 
ATOM     46  O   UNK d   0      -1.128  -2.545  -9.743  0.00  0.00    -0.650 OA
BRANCH  45  47
ATOM     47  O   UNK d   0      -3.295  -2.480 -10.418  0.00  0.00    -0.776 OA
ATOM     48  H   UNK d   0      -3.906  -1.647 -10.430  0.00  0.00     0.167 HD
ENDBRANCH  45  47
ENDBRANCH  44  45
ENDBRANCH  43  44
ENDBRANCH  27  43
BRANCH  24  49
ATOM     49  C   UNK d   0       1.802   0.777  -7.417  0.00  0.00     0.052 C 
BRANCH  49  50
ATOM     50  C   UNK d   0       1.184   0.285  -6.133  0.00  0.00     0.115 C 
BRANCH  50  51
ATOM     51  C   UNK d   0       0.398  -0.939  -6.201  0.00  0.00     0.139 C 
ATOM     52  O   UNK d   0      -0.287  -1.357  -5.238  0.00  0.00    -0.650 OA
BRANCH  51  53
ATOM     53  O   UNK d   0       0.394  -1.689  -7.368  0.00  0.00    -0.776 OA
ATOM     54  H   UNK d   0      -0.439  -1.689  -7.930  0.00  0.00     0.167 HD
ENDBRANCH  51  53
ENDBRANCH  50  51
ENDBRANCH  49  50
ENDBRANCH  24  49
BRANCH  21  55
ATOM     55  C   UNK d   0       2.344   3.740  -6.730  0.00  0.00     0.151 C 
BRANCH  55  56
ATOM     56  C   UNK d   0       3.706   3.467  -7.215  0.00  0.00     0.143 C 
ATOM     57  O   UNK d   0       4.552   2.849  -6.539  0.00  0.00    -0.650 OA
BRANCH  56  58
ATOM     58  O   UNK d   0       4.046   3.927  -8.486  0.00  0.00    -0.776 OA
ATOM     59  H   UNK d   0       4.815   3.407  -8.947  0.00  0.00     0.167 HD
ENDBRANCH  56  58
ENDBRANCH  55  56
ENDBRANCH  21  55
BRANCH  18  60
ATOM     60  C   UNK d   0      -1.277   7.683  -7.120  0.00  0.00     0.151 C 
BRANCH  60  61
ATOM     61  C   UNK d   0      -2.363   7.286  -6.211  0.00  0.00     0.143 C 
ATOM     62  O   UNK d   0      -2.952   6.205  -6.186  0.00  0.00    -0.650 OA
BRANCH  61  63
ATOM     63  O   UNK d   0      -2.753   8.272  -5.273  0.00  0.00    -0.776 OA
ATOM     64  H   UNK d   0      -3.120   8.015  -4.373  0.00  0.00     0.167 HD
ENDBRANCH  61  63
ENDBRANCH  60  61
ENDBRANCH  18  60
BRANCH  14  65
ATOM     65  C   UNK d   0      -3.465   8.684  -8.970  0.00  0.00     0.052 C 
BRANCH  65  66
ATOM     66  C   UNK d   0      -2.948   9.929  -9.599  0.00  0.00     0.115 C 
BRANCH  66  67
ATOM     67  C   UNK d   0      -3.700  10.564 -10.644  0.00  0.00     0.139 C 
ATOM     68  O   UNK d   0      -3.122  10.778 -11.773  0.00  0.00    -0.650 OA
BRANCH  67  69
ATOM     69  O   UNK d   0      -5.025  10.997 -10.601  0.00  0.00    -0.776 OA
ATOM     70  H   UNK d   0      -5.227  11.752  -9.930  0.00  0.00     0.167 HD
ENDBRANCH  67  69
ENDBRANCH  66  67
ENDBRANCH  65  66
ENDBRANCH  14  65
ENDBRANCH   6   7
ENDBRANCH   5   6
ENDBRANCH   2   5
TORSDOF 28
ENDMDL
MODEL 3
REMARK VINA RESULT:      -9.8      1.980      8.177
REMARK  28 active torsions:
REMARK  status: ('A' for Active; 'I' for Inactive)
REMARK    1  A    between atoms: C_2  and  O_3 
REMARK    2  A    between atoms: C_2  and  C_4 
REMARK    3  A    between atoms: C_4  and  C_5 
REMARK    4  A    between atoms: C_5  and  C_6 
REMARK    5  A    between atoms: C_7  and  C_8 
REMARK    6  A    between atoms: C_8  and  C_9 
REMARK    7  A    between atoms: C_9  and  O_11 
REMARK    8  A    between atoms: C_28  and  C_29 
REMARK    9  A    between atoms: C_29  and  C_30 
REMARK   10  A    between atoms: C_30  and  O_32 
REMARK   11  A    between atoms: C_33  and  C_34 
REMARK   12  A    between atoms: C_34  and  C_35 
REMARK   13  A    between atoms: C_35  and  C_36 
REMARK   14  A    between atoms: C_36  and  O_38 
REMARK   15  A    between atoms: C_39  and  C_40 
REMARK   16  A    between atoms: C_40  and  C_41 
REMARK   17  A    between atoms: C_41  and  C_42 
REMARK   18  A    between atoms: C_42  and  O_44 
REMARK   19  A    between atoms: C_45  and  C_46 
REMARK   20  A    between atoms: C_46  and  C_47 
REMARK   21  A    between atoms: C_47  and  O_49 
REMARK   22  A    between atoms: C_50  and  C_51 
REMARK   23  A    between atoms: C_51  and  C_52 
REMARK   24  A    between atoms: C_52  and  O_54 
REMARK   25  A    between atoms: C_55  and  C_56 
REMARK   26  A    between atoms: C_56  and  C_57 
REMARK   27  A    between atoms: C_57  and  C_58 
REMARK   28  A    between atoms: C_58  and  O_60 
ROOT
ATOM      1  O   UNK d   0      -4.193  13.247 -10.875  0.00  0.00    -0.650 OA
ATOM      2  C   UNK d   0      -4.106  12.433 -11.821  0.00  0.00     0.139 C 
ENDROOT
BRANCH   2   3
ATOM      3  O   UNK d   0      -3.143  12.619 -12.783  0.00  0.00    -0.776 OA
ATOM      4  H   UNK d   0      -3.266  13.311 -13.525  0.00  0.00     0.167 HD
ENDBRANCH   2   3
BRANCH   2   5
ATOM      5  C   UNK d   0      -5.039  11.273 -11.898  0.00  0.00     0.115 C 
BRANCH   5   6
ATOM      6  C   UNK d   0      -4.740  10.449 -13.121  0.00  0.00     0.052 C 
BRANCH   6   7
ATOM      7  C   UNK d   0      -4.805   8.965 -12.851  0.00  0.00    -0.020 A 
ATOM      8  C   UNK d   0      -5.675   8.106 -13.317  0.00  0.00    -0.011 A 
ATOM      9  C   UNK d   0      -5.342   6.798 -12.777  0.00  0.00     0.067 A 
ATOM     10  C   UNK d   0      -5.849   5.495 -12.897  0.00  0.00     0.062 C 
ATOM     11  N   UNK d   0      -4.258   6.954 -11.989  0.00  0.00    -0.248 NA
ATOM     12  C   UNK d   0      -5.221   4.303 -12.516  0.00  0.00     0.041 A 
ATOM     13  N   UNK d   0      -4.514   3.987 -11.415  0.00  0.00    -0.355 N 
ATOM     14  C   UNK d   0      -5.238   3.212 -13.403  0.00  0.00    -0.022 A 
ATOM     15  C   UNK d   0      -4.075   2.725 -11.584  0.00  0.00     0.042 A 
ATOM     16  H   UNK d   0      -4.345   4.635 -10.527  0.00  0.00     0.166 HD
ATOM     17  C   UNK d   0      -3.295   1.909 -10.740  0.00  0.00     0.062 C 
ATOM     18  C   UNK d   0      -4.508   2.206 -12.819  0.00  0.00    -0.013 A 
ATOM     19  C   UNK d   0      -2.161   2.229 -10.038  0.00  0.00     0.067 A 
ATOM     20  N   UNK d   0      -1.839   3.523  -9.966  0.00  0.00    -0.248 NA
ATOM     21  C   UNK d   0      -1.138   1.493  -9.314  0.00  0.00    -0.011 A 
ATOM     22  C   UNK d   0      -0.679   3.687  -9.249  0.00  0.00     0.066 A 
ATOM     23  C   UNK d   0      -0.248   4.992  -9.064  0.00  0.00     0.062 C 
ATOM     24  C   UNK d   0      -0.272   2.351  -8.858  0.00  0.00    -0.020 A 
ATOM     25  C   UNK d   0      -0.900   6.175  -9.443  0.00  0.00     0.041 A 
ATOM     26  N   UNK d   0      -1.590   6.495 -10.544  0.00  0.00    -0.355 N 
ATOM     27  C   UNK d   0      -0.886   7.269  -8.550  0.00  0.00    -0.022 A 
ATOM     28  C   UNK d   0      -2.022   7.756 -10.382  0.00  0.00     0.042 A 
ATOM     29  H   UNK d   0      -1.750   5.846 -11.440  0.00  0.00     0.166 HD
ATOM     30  C   UNK d   0      -2.790   8.583 -11.216  0.00  0.00     0.062 C 
ATOM     31  C   UNK d   0      -1.595   8.273  -9.136  0.00  0.00    -0.013 A 
ATOM     32  C   UNK d   0      -3.885   8.235 -11.991  0.00  0.00     0.066 A 
BRANCH   8  33
ATOM     33  C   UNK d   0      -6.803   8.392 -14.222  0.00  0.00     0.151 C 
BRANCH  33  34
ATOM     34  C   UNK d   0      -8.049   7.721 -13.811  0.00  0.00     0.143 C 
ATOM     35  O   UNK d   0      -8.429   6.683 -14.373  0.00  0.00    -0.650 OA
BRANCH  34  36
ATOM     36  O   UNK d   0      -8.800   8.256 -12.790  0.00  0.00    -0.776 OA
ATOM     37  H   UNK d   0      -8.725   7.900 -11.828  0.00  0.00     0.167 HD
ENDBRANCH  34  36
ENDBRANCH  33  34
ENDBRANCH   8  33
BRANCH  31  38
ATOM     38  C   UNK d   0      -1.863   9.637  -8.545  0.00  0.00     0.151 C 
BRANCH  38  39
ATOM     39  C   UNK d   0      -3.077   9.680  -7.759  0.00  0.00     0.143 C 
ATOM     40  O   UNK d   0      -3.127  10.218  -6.639  0.00  0.00    -0.650 OA
BRANCH  39  41
ATOM     41  O   UNK d   0      -4.242   9.102  -8.264  0.00  0.00    -0.776 OA
ATOM     42  H   UNK d   0      -5.122   9.368  -7.812  0.00  0.00     0.167 HD
ENDBRANCH  39  41
ENDBRANCH  38  39
ENDBRANCH  31  38
BRANCH  27  43
ATOM     43  C   UNK d   0      -0.238   7.391  -7.194  0.00  0.00     0.052 C 
BRANCH  43  44
ATOM     44  C   UNK d   0      -0.806   6.451  -6.181  0.00  0.00     0.115 C 
BRANCH  44  45
ATOM     45  C   UNK d   0      -2.232   6.831  -6.002  0.00  0.00     0.139 C 
ATOM     46  O   UNK d   0      -3.104   6.158  -6.605  0.00  0.00    -0.650 OA
BRANCH  45  47
ATOM     47  O   UNK d   0      -2.630   7.880  -5.201  0.00  0.00    -0.776 OA
ATOM     48  H   UNK d   0      -3.397   8.522  -5.460  0.00  0.00     0.167 HD
ENDBRANCH  45  47
ENDBRANCH  44  45
ENDBRANCH  43  44
ENDBRANCH  27  43
BRANCH  24  49
ATOM     49  C   UNK d   0       0.908   2.040  -8.034  0.00  0.00     0.052 C 
BRANCH  49  50
ATOM     50  C   UNK d   0       2.173   2.285  -8.815  0.00  0.00     0.115 C 
BRANCH  50  51
ATOM     51  C   UNK d   0       3.249   2.993  -8.134  0.00  0.00     0.139 C 
ATOM     52  O   UNK d   0       3.097   4.133  -7.634  0.00  0.00    -0.650 OA
BRANCH  51  53
ATOM     53  O   UNK d   0       4.499   2.403  -8.026  0.00  0.00    -0.776 OA
ATOM     54  H   UNK d   0       5.226   2.714  -8.645  0.00  0.00     0.167 HD
ENDBRANCH  51  53
ENDBRANCH  50  51
ENDBRANCH  49  50
ENDBRANCH  24  49
BRANCH  21  55
ATOM     55  C   UNK d   0      -1.136   0.009  -9.149  0.00  0.00     0.151 C 
BRANCH  55  56
ATOM     56  C   UNK d   0      -0.860  -0.686 -10.415  0.00  0.00     0.143 C 
ATOM     57  O   UNK d   0       0.295  -0.875 -10.843  0.00  0.00    -0.650 OA
BRANCH  56  58
ATOM     58  O   UNK d   0      -1.949  -1.145 -11.154  0.00  0.00    -0.776 OA
ATOM     59  H   UNK d   0      -2.877  -0.900 -10.762  0.00  0.00     0.167 HD
ENDBRANCH  56  58
ENDBRANCH  55  56
ENDBRANCH  21  55
BRANCH  18  60
ATOM     60  C   UNK d   0      -4.259   0.851 -13.432  0.00  0.00     0.151 C 
BRANCH  60  61
ATOM     61  C   UNK d   0      -2.942   0.937 -14.082  0.00  0.00     0.143 C 
ATOM     62  O   UNK d   0      -1.845   0.728 -13.565  0.00  0.00    -0.650 OA
BRANCH  61  63
ATOM     63  O   UNK d   0      -2.968   1.301 -15.450  0.00  0.00    -0.776 OA
ATOM     64  H   UNK d   0      -3.834   1.514 -15.913  0.00  0.00     0.167 HD
ENDBRANCH  61  63
ENDBRANCH  60  61
ENDBRANCH  18  60
BRANCH  14  65
ATOM     65  C   UNK d   0      -5.965   3.015 -14.703  0.00  0.00     0.052 C 
BRANCH  65  66
ATOM     66  C   UNK d   0      -7.442   2.950 -14.538  0.00  0.00     0.115 C 
BRANCH  66  67
ATOM     67  C   UNK d   0      -8.281   2.795 -15.693  0.00  0.00     0.139 C 
ATOM     68  O   UNK d   0      -9.480   2.360 -15.527  0.00  0.00    -0.650 OA
BRANCH  67  69
ATOM     69  O   UNK d   0      -7.959   3.060 -17.024  0.00  0.00    -0.776 OA
ATOM     70  H   UNK d   0      -7.119   3.638 -17.174  0.00  0.00     0.167 HD
ENDBRANCH  67  69
ENDBRANCH  66  67
ENDBRANCH  65  66
ENDBRANCH  14  65
ENDBRANCH   6   7
ENDBRANCH   5   6
ENDBRANCH   2   5
TORSDOF 28
ENDMDL
MODEL 4
REMARK VINA RESULT:      -9.5      1.979      7.901
REMARK  28 active torsions:
REMARK  status: ('A' for Active; 'I' for Inactive)
REMARK    1  A    between atoms: C_2  and  O_3 
REMARK    2  A    between atoms: C_2  and  C_4 
REMARK    3  A    between atoms: C_4  and  C_5 
REMARK    4  A    between atoms: C_5  and  C_6 
REMARK    5  A    between atoms: C_7  and  C_8 
REMARK    6  A    between atoms: C_8  and  C_9 
REMARK    7  A    between atoms: C_9  and  O_11 
REMARK    8  A    between atoms: C_28  and  C_29 
REMARK    9  A    between atoms: C_29  and  C_30 
REMARK   10  A    between atoms: C_30  and  O_32 
REMARK   11  A    between atoms: C_33  and  C_34 
REMARK   12  A    between atoms: C_34  and  C_35 
REMARK   13  A    between atoms: C_35  and  C_36 
REMARK   14  A    between atoms: C_36  and  O_38 
REMARK   15  A    between atoms: C_39  and  C_40 
REMARK   16  A    between atoms: C_40  and  C_41 
REMARK   17  A    between atoms: C_41  and  C_42 
REMARK   18  A    between atoms: C_42  and  O_44 
REMARK   19  A    between atoms: C_45  and  C_46 
REMARK   20  A    between atoms: C_46  and  C_47 
REMARK   21  A    between atoms: C_47  and  O_49 
REMARK   22  A    between atoms: C_50  and  C_51 
REMARK   23  A    between atoms: C_51  and  C_52 
REMARK   24  A    between atoms: C_52  and  O_54 
REMARK   25  A    between atoms: C_55  and  C_56 
REMARK   26  A    between atoms: C_56  and  C_57 
REMARK   27  A    between atoms: C_57  and  C_58 
REMARK   28  A    between atoms: C_58  and  O_60 
ROOT
ATOM      1  O   UNK d   0      -1.493  -1.296  -6.407  0.00  0.00    -0.650 OA
ATOM      2  C   UNK d   0      -0.614  -2.086  -6.818  0.00  0.00     0.139 C 
ENDROOT
BRANCH   2   3
ATOM      3  O   UNK d   0       0.472  -2.358  -6.022  0.00  0.00    -0.776 OA
ATOM      4  H   UNK d   0       1.423  -2.166  -6.344  0.00  0.00     0.167 HD
ENDBRANCH   2   3
BRANCH   2   5
ATOM      5  C   UNK d   0      -0.748  -2.721  -8.160  0.00  0.00     0.115 C 
BRANCH   5   6
ATOM      6  C   UNK d   0       0.270  -2.148  -9.108  0.00  0.00     0.052 C 
BRANCH   6   7
ATOM      7  C   UNK d   0      -0.261  -0.968  -9.886  0.00  0.00    -0.020 A 
ATOM      8  C   UNK d   0      -0.914  -0.987 -11.020  0.00  0.00    -0.011 A 
ATOM      9  C   UNK d   0      -1.210   0.387 -11.387  0.00  0.00     0.067 A 
ATOM     10  C   UNK d   0      -1.880   1.033 -12.438  0.00  0.00     0.062 C 
ATOM     11  N   UNK d   0      -0.694   1.179 -10.423  0.00  0.00    -0.248 NA
ATOM     12  C   UNK d   0      -2.307   2.365 -12.479  0.00  0.00     0.041 A 
ATOM     13  N   UNK d   0      -1.699   3.503 -12.093  0.00  0.00    -0.355 N 
ATOM     14  C   UNK d   0      -3.606   2.649 -12.939  0.00  0.00    -0.022 A 
ATOM     15  C   UNK d   0      -2.582   4.501 -12.289  0.00  0.00     0.042 A 
ATOM     16  H   UNK d   0      -0.661   3.602 -11.708  0.00  0.00     0.166 HD
ATOM     17  C   UNK d   0      -2.462   5.885 -12.056  0.00  0.00     0.062 C 
ATOM     18  C   UNK d   0      -3.789   4.004 -12.818  0.00  0.00    -0.013 A 
ATOM     19  C   UNK d   0      -1.944   6.534 -10.964  0.00  0.00     0.067 A 
ATOM     20  N   UNK d   0      -1.281   5.789 -10.076  0.00  0.00    -0.248 NA
ATOM     21  C   UNK d   0      -1.931   7.901 -10.470  0.00  0.00    -0.011 A 
ATOM     22  C   UNK d   0      -0.836   6.569  -9.037  0.00  0.00     0.066 A 
ATOM     23  C   UNK d   0      -0.096   5.925  -8.056  0.00  0.00     0.062 C 
ATOM     24  C   UNK d   0      -1.285   7.914  -9.340  0.00  0.00    -0.020 A 
ATOM     25  C   UNK d   0       0.334   4.589  -8.040  0.00  0.00     0.041 A 
ATOM     26  N   UNK d   0      -0.275   3.456  -8.409  0.00  0.00    -0.355 N 
ATOM     27  C   UNK d   0       1.639   4.305  -7.582  0.00  0.00    -0.022 A 
ATOM     28  C   UNK d   0       0.599   2.459  -8.206  0.00  0.00     0.042 A 
ATOM     29  H   UNK d   0      -1.323   3.358  -8.786  0.00  0.00     0.166 HD
ATOM     30  C   UNK d   0       0.490   1.076  -8.425  0.00  0.00     0.062 C 
ATOM     31  C   UNK d   0       1.816   2.960  -7.684  0.00  0.00    -0.013 A 
ATOM     32  C   UNK d   0      -0.111   0.425  -9.491  0.00  0.00     0.066 A 
BRANCH   8  33
ATOM     33  C   UNK d   0      -1.289  -2.178 -11.805  0.00  0.00     0.151 C 
BRANCH  33  34
ATOM     34  C   UNK d   0      -2.716  -2.523 -11.672  0.00  0.00     0.143 C 
ATOM     35  O   UNK d   0      -3.541  -2.157 -12.522  0.00  0.00    -0.650 OA
BRANCH  34  36
ATOM     36  O   UNK d   0      -3.135  -3.259 -10.588  0.00  0.00    -0.776 OA
ATOM     37  H   UNK d   0      -4.113  -3.231 -10.269  0.00  0.00     0.167 HD
ENDBRANCH  34  36
ENDBRANCH  33  34
ENDBRANCH   8  33
BRANCH  31  38
ATOM     38  C   UNK d   0       3.067   2.195  -7.322  0.00  0.00     0.151 C 
BRANCH  38  39
ATOM     39  C   UNK d   0       4.005   2.099  -8.421  0.00  0.00     0.143 C 
ATOM     40  O   UNK d   0       3.669   2.298  -9.601  0.00  0.00    -0.650 OA
BRANCH  39  41
ATOM     41  O   UNK d   0       5.336   1.774  -8.160  0.00  0.00    -0.776 OA
ATOM     42  H   UNK d   0       5.606   1.688  -7.175  0.00  0.00     0.167 HD
ENDBRANCH  39  41
ENDBRANCH  38  39
ENDBRANCH  31  38
BRANCH  27  43
ATOM     43  C   UNK d   0       2.697   5.245  -7.061  0.00  0.00     0.052 C 
BRANCH  43  44
ATOM     44  C   UNK d   0       3.645   4.597  -6.105  0.00  0.00     0.115 C 
BRANCH  44  45
ATOM     45  C   UNK d   0       4.441   5.690  -5.489  0.00  0.00     0.139 C 
ATOM     46  O   UNK d   0       5.533   5.392  -4.944  0.00  0.00    -0.650 OA
BRANCH  45  47
ATOM     47  O   UNK d   0       4.036   7.007  -5.499  0.00  0.00    -0.776 OA
ATOM     48  H   UNK d   0       3.450   7.407  -6.249  0.00  0.00     0.167 HD
ENDBRANCH  45  47
ENDBRANCH  44  45
ENDBRANCH  43  44
ENDBRANCH  27  43
BRANCH  24  49
ATOM     49  C   UNK d   0      -1.001   9.101  -8.515  0.00  0.00     0.052 C 
BRANCH  49  50
ATOM     50  C   UNK d   0      -1.773   9.037  -7.222  0.00  0.00     0.115 C 
BRANCH  50  51
ATOM     51  C   UNK d   0      -2.649  10.160  -6.915  0.00  0.00     0.139 C 
ATOM     52  O   UNK d   0      -3.160  10.329  -5.783  0.00  0.00    -0.650 OA
BRANCH  51  53
ATOM     53  O   UNK d   0      -2.945  11.089  -7.901  0.00  0.00    -0.776 OA
ATOM     54  H   UNK d   0      -2.709  12.051  -7.733  0.00  0.00     0.167 HD
ENDBRANCH  51  53
ENDBRANCH  50  51
ENDBRANCH  49  50
ENDBRANCH  24  49
BRANCH  21  55
ATOM     55  C   UNK d   0      -2.561   9.052 -11.181  0.00  0.00     0.151 C 
BRANCH  55  56
ATOM     56  C   UNK d   0      -4.022   9.072 -11.012  0.00  0.00     0.143 C 
ATOM     57  O   UNK d   0      -4.812   8.765 -11.927  0.00  0.00    -0.650 OA
BRANCH  56  58
ATOM     58  O   UNK d   0      -4.526   9.452  -9.769  0.00  0.00    -0.776 OA
ATOM     59  H   UNK d   0      -3.816   9.550  -9.022  0.00  0.00     0.167 HD
ENDBRANCH  56  58
ENDBRANCH  55  56
ENDBRANCH  21  55
BRANCH  18  60
ATOM     60  C   UNK d   0      -5.050   4.742 -13.192  0.00  0.00     0.151 C 
BRANCH  60  61
ATOM     61  C   UNK d   0      -6.074   4.304 -12.231  0.00  0.00     0.143 C 
ATOM     62  O   UNK d   0      -7.295   4.312 -12.393  0.00  0.00    -0.650 OA
BRANCH  61  63
ATOM     63  O   UNK d   0      -5.576   3.824 -10.996  0.00  0.00    -0.776 OA
ATOM     64  H   UNK d   0      -5.979   3.018 -10.553  0.00  0.00     0.167 HD
ENDBRANCH  61  63
ENDBRANCH  60  61
ENDBRANCH  18  60
BRANCH  14  65
ATOM     65  C   UNK d   0      -4.639   1.760 -13.569  0.00  0.00     0.052 C 
BRANCH  65  66
ATOM     66  C   UNK d   0      -4.587   1.769 -15.056  0.00  0.00     0.115 C 
BRANCH  66  67
ATOM     67  C   UNK d   0      -5.778   2.046 -15.808  0.00  0.00     0.139 C 
ATOM     68  O   UNK d   0      -6.855   2.333 -15.168  0.00  0.00    -0.650 OA
BRANCH  67  69
ATOM     69  O   UNK d   0      -5.931   2.044 -17.194  0.00  0.00    -0.776 OA
ATOM     70  H   UNK d   0      -5.927   1.118 -17.645  0.00  0.00     0.167 HD
ENDBRANCH  67  69
ENDBRANCH  66  67
ENDBRANCH  65  66
ENDBRANCH  14  65
ENDBRANCH   6   7
ENDBRANCH   5   6
ENDBRANCH   2   5
TORSDOF 28
ENDMDL
MODEL 5
REMARK VINA RESULT:      -9.4      1.462      7.677
REMARK  28 active torsions:
REMARK  status: ('A' for Active; 'I' for Inactive)
REMARK    1  A    between atoms: C_2  and  O_3 
REMARK    2  A    between atoms: C_2  and  C_4 
REMARK    3  A    between atoms: C_4  and  C_5 
REMARK    4  A    between atoms: C_5  and  C_6 
REMARK    5  A    between atoms: C_7  and  C_8 
REMARK    6  A    between atoms: C_8  and  C_9 
REMARK    7  A    between atoms: C_9  and  O_11 
REMARK    8  A    between atoms: C_28  and  C_29 
REMARK    9  A    between atoms: C_29  and  C_30 
REMARK   10  A    between atoms: C_30  and  O_32 
REMARK   11  A    between atoms: C_33  and  C_34 
REMARK   12  A    between atoms: C_34  and  C_35 
REMARK   13  A    between atoms: C_35  and  C_36 
REMARK   14  A    between atoms: C_36  and  O_38 
REMARK   15  A    between atoms: C_39  and  C_40 
REMARK   16  A    between atoms: C_40  and  C_41 
REMARK   17  A    between atoms: C_41  and  C_42 
REMARK   18  A    between atoms: C_42  and  O_44 
REMARK   19  A    between atoms: C_45  and  C_46 
REMARK   20  A    between atoms: C_46  and  C_47 
REMARK   21  A    between atoms: C_47  and  O_49 
REMARK   22  A    between atoms: C_50  and  C_51 
REMARK   23  A    between atoms: C_51  and  C_52 
REMARK   24  A    between atoms: C_52  and  O_54 
REMARK   25  A    between atoms: C_55  and  C_56 
REMARK   26  A    between atoms: C_56  and  C_57 
REMARK   27  A    between atoms: C_57  and  C_58 
REMARK   28  A    between atoms: C_58  and  O_60 
ROOT
ATOM      1  O   UNK d   0       0.321  -1.214 -11.238  0.00  0.00    -0.650 OA
ATOM      2  C   UNK d   0      -0.050  -1.599 -10.107  0.00  0.00     0.139 C 
ENDROOT
BRANCH   2   3
ATOM      3  O   UNK d   0       0.593  -1.123  -8.989  0.00  0.00    -0.776 OA
ATOM      4  H   UNK d   0       0.080  -0.939  -8.125  0.00  0.00     0.167 HD
ENDBRANCH   2   3
BRANCH   2   5
ATOM      5  C   UNK d   0      -1.178  -2.565  -9.978  0.00  0.00     0.115 C 
BRANCH   5   6
ATOM      6  C   UNK d   0      -2.403  -1.863  -9.458  0.00  0.00     0.052 C 
BRANCH   6   7
ATOM      7  C   UNK d   0      -2.832  -0.714 -10.337  0.00  0.00    -0.020 A 
ATOM      8  C   UNK d   0      -3.470  -0.776 -11.478  0.00  0.00    -0.011 A 
ATOM      9  C   UNK d   0      -3.656   0.583 -11.959  0.00  0.00     0.067 A 
ATOM     10  C   UNK d   0      -4.262   1.189 -13.070  0.00  0.00     0.062 C 
ATOM     11  N   UNK d   0      -3.095   1.409 -11.051  0.00  0.00    -0.248 NA
ATOM     12  C   UNK d   0      -4.587   2.541 -13.225  0.00  0.00     0.041 A 
ATOM     13  N   UNK d   0      -3.900   3.659 -12.920  0.00  0.00    -0.355 N 
ATOM     14  C   UNK d   0      -5.854   2.883 -13.731  0.00  0.00    -0.022 A 
ATOM     15  C   UNK d   0      -4.702   4.700 -13.211  0.00  0.00     0.042 A 
ATOM     16  H   UNK d   0      -2.862   3.711 -12.524  0.00  0.00     0.166 HD
ATOM     17  C   UNK d   0      -4.481   6.086 -13.087  0.00  0.00     0.062 C 
ATOM     18  C   UNK d   0      -5.936   4.253 -13.722  0.00  0.00    -0.013 A 
ATOM     19  C   UNK d   0      -3.930   6.781 -12.040  0.00  0.00     0.067 A 
ATOM     20  N   UNK d   0      -3.336   6.063 -11.084  0.00  0.00    -0.248 NA
ATOM     21  C   UNK d   0      -3.820   8.178 -11.657  0.00  0.00    -0.011 A 
ATOM     22  C   UNK d   0      -2.848   6.889 -10.101  0.00  0.00     0.066 A 
ATOM     23  C   UNK d   0      -2.171   6.274  -9.059  0.00  0.00     0.062 C 
ATOM     24  C   UNK d   0      -3.189   8.234 -10.519  0.00  0.00    -0.020 A 
ATOM     25  C   UNK d   0      -1.843   4.915  -8.928  0.00  0.00     0.041 A 
ATOM     26  N   UNK d   0      -2.532   3.804  -9.218  0.00  0.00    -0.355 N 
ATOM     27  C   UNK d   0      -0.569   4.573  -8.425  0.00  0.00    -0.022 A 
ATOM     28  C   UNK d   0      -1.737   2.764  -8.919  0.00  0.00     0.042 A 
ATOM     29  H   UNK d   0      -3.579   3.754  -9.605  0.00  0.00     0.166 HD
ATOM     30  C   UNK d   0      -1.948   1.381  -9.030  0.00  0.00     0.062 C 
ATOM     31  C   UNK d   0      -0.494   3.214  -8.416  0.00  0.00    -0.013 A 
ATOM     32  C   UNK d   0      -2.582   0.691 -10.051  0.00  0.00     0.066 A 
BRANCH   8  33
ATOM     33  C   UNK d   0      -3.924  -1.995 -12.172  0.00  0.00     0.151 C 
BRANCH  33  34
ATOM     34  C   UNK d   0      -5.165  -2.549 -11.601  0.00  0.00     0.143 C 
ATOM     35  O   UNK d   0      -5.665  -3.589 -12.053  0.00  0.00    -0.650 OA
BRANCH  34  36
ATOM     36  O   UNK d   0      -5.775  -1.899 -10.553  0.00  0.00    -0.776 OA
ATOM     37  H   UNK d   0      -6.750  -2.101 -10.295  0.00  0.00     0.167 HD
ENDBRANCH  34  36
ENDBRANCH  33  34
ENDBRANCH   8  33
BRANCH  31  38
ATOM     38  C   UNK d   0       0.692   2.390  -7.970  0.00  0.00     0.151 C 
BRANCH  38  39
ATOM     39  C   UNK d   0       1.674   2.208  -9.017  0.00  0.00     0.143 C 
ATOM     40  O   UNK d   0       2.850   2.597  -8.902  0.00  0.00    -0.650 OA
BRANCH  39  41
ATOM     41  O   UNK d   0       1.304   1.573 -10.203  0.00  0.00    -0.776 OA
ATOM     42  H   UNK d   0       0.300   1.447 -10.365  0.00  0.00     0.167 HD
ENDBRANCH  39  41
ENDBRANCH  38  39
ENDBRANCH  31  38
BRANCH  27  43
ATOM     43  C   UNK d   0       0.550   5.471  -7.960  0.00  0.00     0.052 C 
BRANCH  43  44
ATOM     44  C   UNK d   0       0.585   5.653  -6.477  0.00  0.00     0.115 C 
BRANCH  44  45
ATOM     45  C   UNK d   0       0.009   6.995  -6.201  0.00  0.00     0.139 C 
ATOM     46  O   UNK d   0       0.734   8.002  -6.396  0.00  0.00    -0.650 OA
BRANCH  45  47
ATOM     47  O   UNK d   0      -1.280   7.176  -5.749  0.00  0.00    -0.776 OA
ATOM     48  H   UNK d   0      -2.109   6.849  -6.272  0.00  0.00     0.167 HD
ENDBRANCH  45  47
ENDBRANCH  44  45
ENDBRANCH  43  44
ENDBRANCH  27  43
BRANCH  24  49
ATOM     49  C   UNK d   0      -2.828   9.460  -9.786  0.00  0.00     0.052 C 
BRANCH  49  50
ATOM     50  C   UNK d   0      -3.431   9.442  -8.405  0.00  0.00     0.115 C 
BRANCH  50  51
ATOM     51  C   UNK d   0      -2.570   9.840  -7.299  0.00  0.00     0.139 C 
ATOM     52  O   UNK d   0      -3.022  10.193  -6.184  0.00  0.00    -0.650 OA
BRANCH  51  53
ATOM     53  O   UNK d   0      -1.194   9.839  -7.465  0.00  0.00    -0.776 OA
ATOM     54  H   UNK d   0      -0.790  10.515  -8.089  0.00  0.00     0.167 HD
ENDBRANCH  51  53
ENDBRANCH  50  51
ENDBRANCH  49  50
ENDBRANCH  24  49
BRANCH  21  55
ATOM     55  C   UNK d   0      -4.352   9.312 -12.469  0.00  0.00     0.151 C 
BRANCH  55  56
ATOM     56  C   UNK d   0      -5.764   9.591 -12.167  0.00  0.00     0.143 C 
ATOM     57  O   UNK d   0      -6.705   8.993 -12.726  0.00  0.00    -0.650 OA
BRANCH  56  58
ATOM     58  O   UNK d   0      -6.043  10.569 -11.213  0.00  0.00    -0.776 OA
ATOM     59  H   UNK d   0      -6.877  10.382 -10.628  0.00  0.00     0.167 HD
ENDBRANCH  56  58
ENDBRANCH  55  56
ENDBRANCH  21  55
BRANCH  18  60
ATOM     60  C   UNK d   0      -7.133   5.051 -14.177  0.00  0.00     0.151 C 
BRANCH  60  61
ATOM     61  C   UNK d   0      -8.201   4.766 -13.206  0.00  0.00     0.143 C 
ATOM     62  O   UNK d   0      -8.124   4.830 -11.978  0.00  0.00    -0.650 OA
BRANCH  61  63
ATOM     63  O   UNK d   0      -9.441   4.380 -13.769  0.00  0.00    -0.776 OA
ATOM     64  H   UNK d   0     -10.272   4.331 -13.208  0.00  0.00     0.167 HD
ENDBRANCH  61  63
ENDBRANCH  60  61
ENDBRANCH  18  60
BRANCH  14  65
ATOM     65  C   UNK d   0      -6.944   2.025 -14.308  0.00  0.00     0.052 C 
BRANCH  65  66
ATOM     66  C   UNK d   0      -6.997   2.073 -15.794  0.00  0.00     0.115 C 
BRANCH  66  67
ATOM     67  C   UNK d   0      -8.179   2.558 -16.449  0.00  0.00     0.139 C 
ATOM     68  O   UNK d   0      -8.043   3.289 -17.498  0.00  0.00    -0.650 OA
BRANCH  67  69
ATOM     69  O   UNK d   0      -9.507   2.335 -16.087  0.00  0.00    -0.776 OA
ATOM     70  H   UNK d   0     -10.014   3.152 -15.719  0.00  0.00     0.167 HD
ENDBRANCH  67  69
ENDBRANCH  66  67
ENDBRANCH  65  66
ENDBRANCH  14  65
ENDBRANCH   6   7
ENDBRANCH   5   6
ENDBRANCH   2   5
TORSDOF 28
ENDMDL
MODEL 6
REMARK VINA RESULT:      -9.3      2.243      8.411
REMARK  28 active torsions:
REMARK  status: ('A' for Active; 'I' for Inactive)
REMARK    1  A    between atoms: C_2  and  O_3 
REMARK    2  A    between atoms: C_2  and  C_4 
REMARK    3  A    between atoms: C_4  and  C_5 
REMARK    4  A    between atoms: C_5  and  C_6 
REMARK    5  A    between atoms: C_7  and  C_8 
REMARK    6  A    between atoms: C_8  and  C_9 
REMARK    7  A    between atoms: C_9  and  O_11 
REMARK    8  A    between atoms: C_28  and  C_29 
REMARK    9  A    between atoms: C_29  and  C_30 
REMARK   10  A    between atoms: C_30  and  O_32 
REMARK   11  A    between atoms: C_33  and  C_34 
REMARK   12  A    between atoms: C_34  and  C_35 
REMARK   13  A    between atoms: C_35  and  C_36 
REMARK   14  A    between atoms: C_36  and  O_38 
REMARK   15  A    between atoms: C_39  and  C_40 
REMARK   16  A    between atoms: C_40  and  C_41 
REMARK   17  A    between atoms: C_41  and  C_42 
REMARK   18  A    between atoms: C_42  and  O_44 
REMARK   19  A    between atoms: C_45  and  C_46 
REMARK   20  A    between atoms: C_46  and  C_47 
REMARK   21  A    between atoms: C_47  and  O_49 
REMARK   22  A    between atoms: C_50  and  C_51 
REMARK   23  A    between atoms: C_51  and  C_52 
REMARK   24  A    between atoms: C_52  and  O_54 
REMARK   25  A    between atoms: C_55  and  C_56 
REMARK   26  A    between atoms: C_56  and  C_57 
REMARK   27  A    between atoms: C_57  and  C_58 
REMARK   28  A    between atoms: C_58  and  O_60 
ROOT
ATOM      1  O   UNK d   0      -5.670   9.486 -12.690  0.00  0.00    -0.650 OA
ATOM      2  C   UNK d   0      -4.524   9.279 -12.233  0.00  0.00     0.139 C 
ENDROOT
BRANCH   2   3
ATOM      3  O   UNK d   0      -3.587  10.282 -12.286  0.00  0.00    -0.776 OA
ATOM      4  H   UNK d   0      -3.570  10.947 -13.062  0.00  0.00     0.167 HD
ENDBRANCH   2   3
BRANCH   2   5
ATOM      5  C   UNK d   0      -4.183   7.955 -11.638  0.00  0.00     0.115 C 
BRANCH   5   6
ATOM      6  C   UNK d   0      -4.305   6.874 -12.678  0.00  0.00     0.052 C 
BRANCH   6   7
ATOM      7  C   UNK d   0      -4.015   5.500 -12.123  0.00  0.00    -0.020 A 
ATOM      8  C   UNK d   0      -4.626   4.379 -12.410  0.00  0.00    -0.011 A 
ATOM      9  C   UNK d   0      -4.008   3.322 -11.626  0.00  0.00     0.067 A 
ATOM     10  C   UNK d   0      -4.173   1.935 -11.487  0.00  0.00     0.062 C 
ATOM     11  N   UNK d   0      -3.033   3.890 -10.886  0.00  0.00    -0.248 NA
ATOM     12  C   UNK d   0      -3.291   1.033 -10.883  0.00  0.00     0.041 A 
ATOM     13  N   UNK d   0      -2.580   1.118  -9.743  0.00  0.00    -0.355 N 
ATOM     14  C   UNK d   0      -2.998  -0.176 -11.540  0.00  0.00    -0.022 A 
ATOM     15  C   UNK d   0      -1.837  -0.002  -9.663  0.00  0.00     0.042 A 
ATOM     16  H   UNK d   0      -2.617   1.944  -8.999  0.00  0.00     0.166 HD
ATOM     17  C   UNK d   0      -0.921  -0.423  -8.679  0.00  0.00     0.062 C 
ATOM     18  C   UNK d   0      -2.072  -0.838 -10.773  0.00  0.00    -0.013 A 
ATOM     19  C   UNK d   0       0.066   0.297  -8.055  0.00  0.00     0.067 A 
ATOM     20  N   UNK d   0       0.057   1.620  -8.238  0.00  0.00    -0.248 NA
ATOM     21  C   UNK d   0       1.203  -0.009  -7.203  0.00  0.00    -0.011 A 
ATOM     22  C   UNK d   0       1.106   2.201  -7.570  0.00  0.00     0.066 A 
ATOM     23  C   UNK d   0       1.196   3.583  -7.644  0.00  0.00     0.062 C 
ATOM     24  C   UNK d   0       1.810   1.109  -6.926  0.00  0.00    -0.020 A 
ATOM     25  C   UNK d   0       0.292   4.472  -8.246  0.00  0.00     0.041 A 
ATOM     26  N   UNK d   0      -0.404   4.394  -9.386  0.00  0.00    -0.355 N 
ATOM     27  C   UNK d   0      -0.005   5.683  -7.583  0.00  0.00    -0.022 A 
ATOM     28  C   UNK d   0      -1.139   5.515  -9.472  0.00  0.00     0.042 A 
ATOM     29  H   UNK d   0      -0.358   3.568 -10.138  0.00  0.00     0.166 HD
ATOM     30  C   UNK d   0      -2.047   5.950 -10.450  0.00  0.00     0.062 C 
ATOM     31  C   UNK d   0      -0.910   6.349  -8.352  0.00  0.00    -0.013 A 
ATOM     32  C   UNK d   0      -2.986   5.199 -11.139  0.00  0.00     0.066 A 
BRANCH   8  33
ATOM     33  C   UNK d   0      -5.747   4.197 -13.351  0.00  0.00     0.151 C 
BRANCH  33  34
ATOM     34  C   UNK d   0      -5.517   3.098 -14.306  0.00  0.00     0.143 C 
ATOM     35  O   UNK d   0      -4.381   2.857 -14.739  0.00  0.00    -0.650 OA
BRANCH  34  36
ATOM     36  O   UNK d   0      -6.581   2.331 -14.722  0.00  0.00    -0.776 OA
ATOM     37  H   UNK d   0      -7.449   2.278 -14.171  0.00  0.00     0.167 HD
ENDBRANCH  34  36
ENDBRANCH  33  34
ENDBRANCH   8  33
BRANCH  31  38
ATOM     38  C   UNK d   0      -1.532   7.689  -8.038  0.00  0.00     0.151 C 
BRANCH  38  39
ATOM     39  C   UNK d   0      -2.887   7.578  -7.542  0.00  0.00     0.143 C 
ATOM     40  O   UNK d   0      -3.253   6.641  -6.811  0.00  0.00    -0.650 OA
BRANCH  39  41
ATOM     41  O   UNK d   0      -3.826   8.549  -7.887  0.00  0.00    -0.776 OA
ATOM     42  H   UNK d   0      -3.869   8.819  -8.875  0.00  0.00     0.167 HD
ENDBRANCH  39  41
ENDBRANCH  38  39
ENDBRANCH  31  38
BRANCH  27  43
ATOM     43  C   UNK d   0       0.530   6.218  -6.279  0.00  0.00     0.052 C 
BRANCH  43  44
ATOM     44  C   UNK d   0       1.804   6.984  -6.432  0.00  0.00     0.115 C 
BRANCH  44  45
ATOM     45  C   UNK d   0       1.640   8.240  -5.654  0.00  0.00     0.139 C 
ATOM     46  O   UNK d   0       2.367   9.220  -5.953  0.00  0.00    -0.650 OA
BRANCH  45  47
ATOM     47  O   UNK d   0       0.726   8.372  -4.631  0.00  0.00    -0.776 OA
ATOM     48  H   UNK d   0       0.974   8.753  -3.704  0.00  0.00     0.167 HD
ENDBRANCH  45  47
ENDBRANCH  44  45
ENDBRANCH  43  44
ENDBRANCH  27  43
BRANCH  24  49
ATOM     49  C   UNK d   0       2.991   1.264  -6.060  0.00  0.00     0.052 C 
BRANCH  49  50
ATOM     50  C   UNK d   0       4.093   1.980  -6.798  0.00  0.00     0.115 C 
BRANCH  50  51
ATOM     51  C   UNK d   0       5.455   1.517  -6.571  0.00  0.00     0.139 C 
ATOM     52  O   UNK d   0       5.943   1.389  -5.423  0.00  0.00    -0.650 OA
BRANCH  51  53
ATOM     53  O   UNK d   0       6.263   1.204  -7.653  0.00  0.00    -0.776 OA
ATOM     54  H   UNK d   0       6.291   0.248  -7.964  0.00  0.00     0.167 HD
ENDBRANCH  51  53
ENDBRANCH  50  51
ENDBRANCH  49  50
ENDBRANCH  24  49
BRANCH  21  55
ATOM     55  C   UNK d   0       1.561  -1.386  -6.752  0.00  0.00     0.151 C 
BRANCH  55  56
ATOM     56  C   UNK d   0       0.413  -2.088  -6.157  0.00  0.00     0.143 C 
ATOM     57  O   UNK d   0      -0.191  -1.663  -5.153  0.00  0.00    -0.650 OA
BRANCH  56  58
ATOM     58  O   UNK d   0      -0.002  -3.276  -6.755  0.00  0.00    -0.776 OA
ATOM     59  H   UNK d   0       0.068  -3.292  -7.789  0.00  0.00     0.167 HD
ENDBRANCH  56  58
ENDBRANCH  55  56
ENDBRANCH  21  55
BRANCH  18  60
ATOM     60  C   UNK d   0      -1.470  -2.179 -11.110  0.00  0.00     0.151 C 
BRANCH  60  61
ATOM     61  C   UNK d   0      -2.269  -3.175 -10.379  0.00  0.00     0.143 C 
ATOM     62  O   UNK d   0      -3.429  -3.514 -10.615  0.00  0.00    -0.650 OA
BRANCH  61  63
ATOM     63  O   UNK d   0      -1.608  -3.797  -9.292  0.00  0.00    -0.776 OA
ATOM     64  H   UNK d   0      -1.983  -4.625  -8.863  0.00  0.00     0.167 HD
ENDBRANCH  61  63
ENDBRANCH  60  61
ENDBRANCH  18  60
BRANCH  14  65
ATOM     65  C   UNK d   0      -3.594  -0.791 -12.774  0.00  0.00     0.052 C 
BRANCH  65  66
ATOM     66  C   UNK d   0      -2.967  -0.299 -14.030  0.00  0.00     0.115 C 
BRANCH  66  67
ATOM     67  C   UNK d   0      -1.755   0.468 -13.967  0.00  0.00     0.139 C 
ATOM     68  O   UNK d   0      -0.631  -0.155 -14.020  0.00  0.00    -0.650 OA
BRANCH  67  69
ATOM     69  O   UNK d   0      -1.626   1.852 -13.852  0.00  0.00    -0.776 OA
ATOM     70  H   UNK d   0      -0.963   2.182 -13.136  0.00  0.00     0.167 HD
ENDBRANCH  67  69
ENDBRANCH  66  67
ENDBRANCH  65  66
ENDBRANCH  14  65
ENDBRANCH   6   7
ENDBRANCH   5   6
ENDBRANCH   2   5
TORSDOF 28
ENDMDL
MODEL 7
REMARK VINA RESULT:      -9.3      2.555      9.554
REMARK  28 active torsions:
REMARK  status: ('A' for Active; 'I' for Inactive)
REMARK    1  A    between atoms: C_2  and  O_3 
REMARK    2  A    between atoms: C_2  and  C_4 
REMARK    3  A    between atoms: C_4  and  C_5 
REMARK    4  A    between atoms: C_5  and  C_6 
REMARK    5  A    between atoms: C_7  and  C_8 
REMARK    6  A    between atoms: C_8  and  C_9 
REMARK    7  A    between atoms: C_9  and  O_11 
REMARK    8  A    between atoms: C_28  and  C_29 
REMARK    9  A    between atoms: C_29  and  C_30 
REMARK   10  A    between atoms: C_30  and  O_32 
REMARK   11  A    between atoms: C_33  and  C_34 
REMARK   12  A    between atoms: C_34  and  C_35 
REMARK   13  A    between atoms: C_35  and  C_36 
REMARK   14  A    between atoms: C_36  and  O_38 
REMARK   15  A    between atoms: C_39  and  C_40 
REMARK   16  A    between atoms: C_40  and  C_41 
REMARK   17  A    between atoms: C_41  and  C_42 
REMARK   18  A    between atoms: C_42  and  O_44 
REMARK   19  A    between atoms: C_45  and  C_46 
REMARK   20  A    between atoms: C_46  and  C_47 
REMARK   21  A    between atoms: C_47  and  O_49 
REMARK   22  A    between atoms: C_50  and  C_51 
REMARK   23  A    between atoms: C_51  and  C_52 
REMARK   24  A    between atoms: C_52  and  O_54 
REMARK   25  A    between atoms: C_55  and  C_56 
REMARK   26  A    between atoms: C_56  and  C_57 
REMARK   27  A    between atoms: C_57  and  C_58 
REMARK   28  A    between atoms: C_58  and  O_60 
ROOT
ATOM      1  O   UNK d   0      -2.692  -7.036  -7.862  0.00  0.00    -0.650 OA
ATOM      2  C   UNK d   0      -1.955  -6.062  -7.588  0.00  0.00     0.139 C 
ENDROOT
BRANCH   2   3
ATOM      3  O   UNK d   0      -1.544  -5.874  -6.290  0.00  0.00    -0.776 OA
ATOM      4  H   UNK d   0      -1.599  -4.954  -5.847  0.00  0.00     0.167 HD
ENDBRANCH   2   3
BRANCH   2   5
ATOM      5  C   UNK d   0      -1.531  -5.118  -8.660  0.00  0.00     0.115 C 
BRANCH   5   6
ATOM      6  C   UNK d   0      -2.702  -4.775  -9.540  0.00  0.00     0.052 C 
BRANCH   6   7
ATOM      7  C   UNK d   0      -2.578  -3.406 -10.165  0.00  0.00    -0.020 A 
ATOM      8  C   UNK d   0      -3.052  -3.009 -11.318  0.00  0.00    -0.011 A 
ATOM      9  C   UNK d   0      -2.676  -1.617 -11.499  0.00  0.00     0.067 A 
ATOM     10  C   UNK d   0      -2.882  -0.630 -12.476  0.00  0.00     0.062 C 
ATOM     11  N   UNK d   0      -1.969  -1.249 -10.409  0.00  0.00    -0.248 NA
ATOM     12  C   UNK d   0      -2.676   0.747 -12.345  0.00  0.00     0.041 A 
ATOM     13  N   UNK d   0      -1.675   1.444 -11.774  0.00  0.00    -0.355 N 
ATOM     14  C   UNK d   0      -3.663   1.631 -12.819  0.00  0.00    -0.022 A 
ATOM     15  C   UNK d   0      -2.006   2.746 -11.866  0.00  0.00     0.042 A 
ATOM     16  H   UNK d   0      -0.745   1.025 -11.332  0.00  0.00     0.166 HD
ATOM     17  C   UNK d   0      -1.317   3.896 -11.432  0.00  0.00     0.062 C 
ATOM     18  C   UNK d   0      -3.246   2.902 -12.515  0.00  0.00    -0.013 A 
ATOM     19  C   UNK d   0      -0.684   4.122 -10.236  0.00  0.00     0.067 A 
ATOM     20  N   UNK d   0      -0.511   3.068  -9.435  0.00  0.00    -0.248 NA
ATOM     21  C   UNK d   0      -0.125   5.277  -9.552  0.00  0.00    -0.011 A 
ATOM     22  C   UNK d   0       0.119   3.450  -8.276  0.00  0.00     0.066 A 
ATOM     23  C   UNK d   0       0.397   2.442  -7.365  0.00  0.00     0.062 C 
ATOM     24  C   UNK d   0       0.340   4.877  -8.404  0.00  0.00    -0.020 A 
ATOM     25  C   UNK d   0       0.194   1.062  -7.520  0.00  0.00     0.041 A 
ATOM     26  N   UNK d   0      -0.808   0.369  -8.074  0.00  0.00    -0.355 N 
ATOM     27  C   UNK d   0       1.188   0.176  -7.048  0.00  0.00    -0.022 A 
ATOM     28  C   UNK d   0      -0.484  -0.931  -7.976  0.00  0.00     0.042 A 
ATOM     29  H   UNK d   0      -1.747   0.791  -8.508  0.00  0.00     0.166 HD
ATOM     30  C   UNK d   0      -1.164  -2.085  -8.395  0.00  0.00     0.062 C 
ATOM     31  C   UNK d   0       0.767  -1.087  -7.334  0.00  0.00    -0.013 A 
ATOM     32  C   UNK d   0      -1.875  -2.280  -9.569  0.00  0.00     0.066 A 
BRANCH   8  33
ATOM     33  C   UNK d   0      -3.826  -3.814 -12.281  0.00  0.00     0.151 C 
BRANCH  33  34
ATOM     34  C   UNK d   0      -5.259  -3.885 -11.943  0.00  0.00     0.143 C 
ATOM     35  O   UNK d   0      -5.709  -4.826 -11.273  0.00  0.00    -0.650 OA
BRANCH  34  36
ATOM     36  O   UNK d   0      -6.107  -2.893 -12.380  0.00  0.00    -0.776 OA
ATOM     37  H   UNK d   0      -6.753  -3.051 -13.165  0.00  0.00     0.167 HD
ENDBRANCH  34  36
ENDBRANCH  33  34
ENDBRANCH   8  33
BRANCH  31  38
ATOM     38  C   UNK d   0       1.512  -2.365  -7.028  0.00  0.00     0.151 C 
BRANCH  38  39
ATOM     39  C   UNK d   0       0.869  -3.157  -6.001  0.00  0.00     0.143 C 
ATOM     40  O   UNK d   0       0.903  -4.400  -6.000  0.00  0.00    -0.650 OA
BRANCH  39  41
ATOM     41  O   UNK d   0       0.185  -2.517  -4.968  0.00  0.00    -0.776 OA
ATOM     42  H   UNK d   0      -0.554  -3.052  -4.502  0.00  0.00     0.167 HD
ENDBRANCH  39  41
ENDBRANCH  38  39
ENDBRANCH  31  38
BRANCH  27  43
ATOM     43  C   UNK d   0       2.490   0.480  -6.351  0.00  0.00     0.052 C 
BRANCH  43  44
ATOM     44  C   UNK d   0       3.614   0.761  -7.295  0.00  0.00     0.115 C 
BRANCH  44  45
ATOM     45  C   UNK d   0       4.542   1.682  -6.589  0.00  0.00     0.139 C 
ATOM     46  O   UNK d   0       4.456   2.911  -6.834  0.00  0.00    -0.650 OA
BRANCH  45  47
ATOM     47  O   UNK d   0       5.480   1.245  -5.679  0.00  0.00    -0.776 OA
ATOM     48  H   UNK d   0       5.965   0.337  -5.766  0.00  0.00     0.167 HD
ENDBRANCH  45  47
ENDBRANCH  44  45
ENDBRANCH  43  44
ENDBRANCH  27  43
BRANCH  24  49
ATOM     49  C   UNK d   0       1.027   5.715  -7.406  0.00  0.00     0.052 C 
BRANCH  49  50
ATOM     50  C   UNK d   0       0.025   6.355  -6.479  0.00  0.00     0.115 C 
BRANCH  50  51
ATOM     51  C   UNK d   0       0.214   7.765  -6.168  0.00  0.00     0.139 C 
ATOM     52  O   UNK d   0      -0.064   8.680  -6.978  0.00  0.00    -0.650 OA
BRANCH  51  53
ATOM     53  O   UNK d   0       0.723   8.133  -4.932  0.00  0.00    -0.776 OA
ATOM     54  H   UNK d   0       1.032   9.081  -4.807  0.00  0.00     0.167 HD
ENDBRANCH  51  53
ENDBRANCH  50  51
ENDBRANCH  49  50
ENDBRANCH  24  49
BRANCH  21  55
ATOM     55  C   UNK d   0      -0.110   6.657 -10.120  0.00  0.00     0.151 C 
BRANCH  55  56
ATOM     56  C   UNK d   0      -1.456   7.250 -10.165  0.00  0.00     0.143 C 
ATOM     57  O   UNK d   0      -2.127   7.320 -11.213  0.00  0.00    -0.650 OA
BRANCH  56  58
ATOM     58  O   UNK d   0      -1.986   7.748  -8.976  0.00  0.00    -0.776 OA
ATOM     59  H   UNK d   0      -2.021   7.068  -8.195  0.00  0.00     0.167 HD
ENDBRANCH  56  58
ENDBRANCH  55  56
ENDBRANCH  21  55
BRANCH  18  60
ATOM     60  C   UNK d   0      -4.010   4.163 -12.836  0.00  0.00     0.151 C 
BRANCH  60  61
ATOM     61  C   UNK d   0      -5.256   4.089 -12.057  0.00  0.00     0.143 C 
ATOM     62  O   UNK d   0      -6.388   4.390 -12.437  0.00  0.00    -0.650 OA
BRANCH  61  63
ATOM     63  O   UNK d   0      -5.110   3.617 -10.730  0.00  0.00    -0.776 OA
ATOM     64  H   UNK d   0      -5.830   3.765 -10.045  0.00  0.00     0.167 HD
ENDBRANCH  61  63
ENDBRANCH  60  61
ENDBRANCH  18  60
BRANCH  14  65
ATOM     65  C   UNK d   0      -4.910   1.372 -13.616  0.00  0.00     0.052 C 
BRANCH  65  66
ATOM     66  C   UNK d   0      -4.737   1.637 -15.069  0.00  0.00     0.115 C 
BRANCH  66  67
ATOM     67  C   UNK d   0      -5.876   1.991 -15.869  0.00  0.00     0.139 C 
ATOM     68  O   UNK d   0      -5.726   2.087 -17.142  0.00  0.00    -0.650 OA
BRANCH  67  69
ATOM     69  O   UNK d   0      -7.174   2.256 -15.435  0.00  0.00    -0.776 OA
ATOM     70  H   UNK d   0      -7.254   2.724 -14.520  0.00  0.00     0.167 HD
ENDBRANCH  67  69
ENDBRANCH  66  67
ENDBRANCH  65  66
ENDBRANCH  14  65
ENDBRANCH   6   7
ENDBRANCH   5   6
ENDBRANCH   2   5
TORSDOF 28
ENDMDL
MODEL 8
REMARK VINA RESULT:      -9.3      2.235      8.262
REMARK  28 active torsions:
REMARK  status: ('A' for Active; 'I' for Inactive)
REMARK    1  A    between atoms: C_2  and  O_3 
REMARK    2  A    between atoms: C_2  and  C_4 
REMARK    3  A    between atoms: C_4  and  C_5 
REMARK    4  A    between atoms: C_5  and  C_6 
REMARK    5  A    between atoms: C_7  and  C_8 
REMARK    6  A    between atoms: C_8  and  C_9 
REMARK    7  A    between atoms: C_9  and  O_11 
REMARK    8  A    between atoms: C_28  and  C_29 
REMARK    9  A    between atoms: C_29  and  C_30 
REMARK   10  A    between atoms: C_30  and  O_32 
REMARK   11  A    between atoms: C_33  and  C_34 
REMARK   12  A    between atoms: C_34  and  C_35 
REMARK   13  A    between atoms: C_35  and  C_36 
REMARK   14  A    between atoms: C_36  and  O_38 
REMARK   15  A    between atoms: C_39  and  C_40 
REMARK   16  A    between atoms: C_40  and  C_41 
REMARK   17  A    between atoms: C_41  and  C_42 
REMARK   18  A    between atoms: C_42  and  O_44 
REMARK   19  A    between atoms: C_45  and  C_46 
REMARK   20  A    between atoms: C_46  and  C_47 
REMARK   21  A    between atoms: C_47  and  O_49 
REMARK   22  A    between atoms: C_50  and  C_51 
REMARK   23  A    between atoms: C_51  and  C_52 
REMARK   24  A    between atoms: C_52  and  O_54 
REMARK   25  A    between atoms: C_55  and  C_56 
REMARK   26  A    between atoms: C_56  and  C_57 
REMARK   27  A    between atoms: C_57  and  C_58 
REMARK   28  A    between atoms: C_58  and  O_60 
ROOT
ATOM      1  O   UNK d   0      -4.510  13.116 -10.435  0.00  0.00    -0.650 OA
ATOM      2  C   UNK d   0      -4.197  12.348 -11.371  0.00  0.00     0.139 C 
ENDROOT
BRANCH   2   3
ATOM      3  O   UNK d   0      -3.382  12.808 -12.377  0.00  0.00    -0.776 OA
ATOM      4  H   UNK d   0      -2.391  12.996 -12.210  0.00  0.00     0.167 HD
ENDBRANCH   2   3
BRANCH   2   5
ATOM      5  C   UNK d   0      -4.706  10.947 -11.392  0.00  0.00     0.115 C 
BRANCH   5   6
ATOM      6  C   UNK d   0      -4.078  10.184 -12.527  0.00  0.00     0.052 C 
BRANCH   6   7
ATOM      7  C   UNK d   0      -4.274   8.692 -12.403  0.00  0.00    -0.020 A 
ATOM      8  C   UNK d   0      -5.185   7.956 -12.986  0.00  0.00    -0.011 A 
ATOM      9  C   UNK d   0      -4.986   6.581 -12.559  0.00  0.00     0.067 A 
ATOM     10  C   UNK d   0      -5.587   5.341 -12.825  0.00  0.00     0.062 C 
ATOM     11  N   UNK d   0      -3.935   6.573 -11.712  0.00  0.00    -0.248 NA
ATOM     12  C   UNK d   0      -5.077   4.071 -12.532  0.00  0.00     0.041 A 
ATOM     13  N   UNK d   0      -4.455   3.597 -11.435  0.00  0.00    -0.355 N 
ATOM     14  C   UNK d   0      -5.134   3.071 -13.519  0.00  0.00    -0.022 A 
ATOM     15  C   UNK d   0      -4.109   2.324 -11.704  0.00  0.00     0.042 A 
ATOM     16  H   UNK d   0      -4.281   4.145 -10.483  0.00  0.00     0.166 HD
ATOM     17  C   UNK d   0      -3.441   1.372 -10.909  0.00  0.00     0.062 C 
ATOM     18  C   UNK d   0      -4.518   1.958 -13.001  0.00  0.00    -0.013 A 
ATOM     19  C   UNK d   0      -2.324   1.530 -10.130  0.00  0.00     0.067 A 
ATOM     20  N   UNK d   0      -1.904   2.780  -9.921  0.00  0.00    -0.248 NA
ATOM     21  C   UNK d   0      -1.402   0.647  -9.434  0.00  0.00    -0.011 A 
ATOM     22  C   UNK d   0      -0.774   2.780  -9.141  0.00  0.00     0.066 A 
ATOM     23  C   UNK d   0      -0.250   4.022  -8.813  0.00  0.00     0.062 C 
ATOM     24  C   UNK d   0      -0.495   1.385  -8.861  0.00  0.00    -0.020 A 
ATOM     25  C   UNK d   0      -0.786   5.286  -9.107  0.00  0.00     0.041 A 
ATOM     26  N   UNK d   0      -1.390   5.761 -10.202  0.00  0.00    -0.355 N 
ATOM     27  C   UNK d   0      -0.732   6.288  -8.114  0.00  0.00    -0.022 A 
ATOM     28  C   UNK d   0      -1.728   7.034  -9.939  0.00  0.00     0.042 A 
ATOM     29  H   UNK d   0      -1.554   5.212 -11.161  0.00  0.00     0.166 HD
ATOM     30  C   UNK d   0      -2.384   7.995 -10.724  0.00  0.00     0.062 C 
ATOM     31  C   UNK d   0      -1.327   7.397  -8.632  0.00  0.00    -0.013 A 
ATOM     32  C   UNK d   0      -3.462   7.812 -11.576  0.00  0.00     0.066 A 
BRANCH   8  33
ATOM     33  C   UNK d   0      -6.238   8.417 -13.909  0.00  0.00     0.151 C 
BRANCH  33  34
ATOM     34  C   UNK d   0      -7.547   7.795 -13.638  0.00  0.00     0.143 C 
ATOM     35  O   UNK d   0      -7.887   6.751 -14.213  0.00  0.00    -0.650 OA
BRANCH  34  36
ATOM     36  O   UNK d   0      -8.402   8.385 -12.736  0.00  0.00    -0.776 OA
ATOM     37  H   UNK d   0      -8.144   9.251 -12.244  0.00  0.00     0.167 HD
ENDBRANCH  34  36
ENDBRANCH  33  34
ENDBRANCH   8  33
BRANCH  31  38
ATOM     38  C   UNK d   0      -1.516   8.719  -7.926  0.00  0.00     0.151 C 
BRANCH  38  39
ATOM     39  C   UNK d   0      -2.884   8.943  -7.508  0.00  0.00     0.143 C 
ATOM     40  O   UNK d   0      -3.732   8.033  -7.494  0.00  0.00    -0.650 OA
BRANCH  39  41
ATOM     41  O   UNK d   0      -3.278  10.217  -7.104  0.00  0.00    -0.776 OA
ATOM     42  H   UNK d   0      -3.044  10.994  -7.730  0.00  0.00     0.167 HD
ENDBRANCH  39  41
ENDBRANCH  38  39
ENDBRANCH  31  38
BRANCH  27  43
ATOM     43  C   UNK d   0      -0.147   6.231  -6.725  0.00  0.00     0.052 C 
BRANCH  43  44
ATOM     44  C   UNK d   0       1.282   6.663  -6.667  0.00  0.00     0.115 C 
BRANCH  44  45
ATOM     45  C   UNK d   0       2.084   5.443  -6.389  0.00  0.00     0.139 C 
ATOM     46  O   UNK d   0       1.487   4.339  -6.349  0.00  0.00    -0.650 OA
BRANCH  45  47
ATOM     47  O   UNK d   0       3.445   5.476  -6.180  0.00  0.00    -0.776 OA
ATOM     48  H   UNK d   0       3.989   4.644  -5.898  0.00  0.00     0.167 HD
ENDBRANCH  45  47
ENDBRANCH  44  45
ENDBRANCH  43  44
ENDBRANCH  27  43
BRANCH  24  49
ATOM     49  C   UNK d   0       0.612   0.901  -8.019  0.00  0.00     0.052 C 
BRANCH  49  50
ATOM     50  C   UNK d   0       0.095   0.467  -6.671  0.00  0.00     0.115 C 
BRANCH  50  51
ATOM     51  C   UNK d   0       0.349  -0.911  -6.274  0.00  0.00     0.139 C 
ATOM     52  O   UNK d   0      -0.088  -1.398  -5.205  0.00  0.00    -0.650 OA
BRANCH  51  53
ATOM     53  O   UNK d   0       1.105  -1.734  -7.095  0.00  0.00    -0.776 OA
ATOM     54  H   UNK d   0       1.609  -1.313  -7.855  0.00  0.00     0.167 HD
ENDBRANCH  51  53
ENDBRANCH  50  51
ENDBRANCH  49  50
ENDBRANCH  24  49
BRANCH  21  55
ATOM     55  C   UNK d   0      -1.526  -0.840  -9.411  0.00  0.00     0.151 C 
BRANCH  55  56
ATOM     56  C   UNK d   0      -0.597  -1.485 -10.351  0.00  0.00     0.143 C 
ATOM     57  O   UNK d   0       0.578  -1.774 -10.048  0.00  0.00    -0.650 OA
BRANCH  56  58
ATOM     58  O   UNK d   0      -1.067  -1.779 -11.630  0.00  0.00    -0.776 OA
ATOM     59  H   UNK d   0      -0.542  -1.329 -12.402  0.00  0.00     0.167 HD
ENDBRANCH  56  58
ENDBRANCH  55  56
ENDBRANCH  21  55
BRANCH  18  60
ATOM     60  C   UNK d   0      -4.346   0.648 -13.729  0.00  0.00     0.151 C 
BRANCH  60  61
ATOM     61  C   UNK d   0      -3.004   0.693 -14.329  0.00  0.00     0.143 C 
ATOM     62  O   UNK d   0      -2.649   1.352 -15.307  0.00  0.00    -0.650 OA
BRANCH  61  63
ATOM     63  O   UNK d   0      -2.033  -0.119 -13.694  0.00  0.00    -0.776 OA
ATOM     64  H   UNK d   0      -1.063  -0.064 -13.951  0.00  0.00     0.167 HD
ENDBRANCH  61  63
ENDBRANCH  60  61
ENDBRANCH  18  60
BRANCH  14  65
ATOM     65  C   UNK d   0      -5.806   3.055 -14.862  0.00  0.00     0.052 C 
BRANCH  65  66
ATOM     66  C   UNK d   0      -7.290   2.988 -14.769  0.00  0.00     0.115 C 
BRANCH  66  67
ATOM     67  C   UNK d   0      -8.091   3.337 -15.908  0.00  0.00     0.139 C 
ATOM     68  O   UNK d   0      -8.513   2.394 -16.674  0.00  0.00    -0.650 OA
BRANCH  67  69
ATOM     69  O   UNK d   0      -8.488   4.611 -16.313  0.00  0.00    -0.776 OA
ATOM     70  H   UNK d   0      -7.806   5.365 -16.152  0.00  0.00     0.167 HD
ENDBRANCH  67  69
ENDBRANCH  66  67
ENDBRANCH  65  66
ENDBRANCH  14  65
ENDBRANCH   6   7
ENDBRANCH   5   6
ENDBRANCH   2   5
TORSDOF 28
ENDMDL
MODEL 9
REMARK VINA RESULT:      -9.3      2.055      8.306
REMARK  28 active torsions:
REMARK  status: ('A' for Active; 'I' for Inactive)
REMARK    1  A    between atoms: C_2  and  O_3 
REMARK    2  A    between atoms: C_2  and  C_4 
REMARK    3  A    between atoms: C_4  and  C_5 
REMARK    4  A    between atoms: C_5  and  C_6 
REMARK    5  A    between atoms: C_7  and  C_8 
REMARK    6  A    between atoms: C_8  and  C_9 
REMARK    7  A    between atoms: C_9  and  O_11 
REMARK    8  A    between atoms: C_28  and  C_29 
REMARK    9  A    between atoms: C_29  and  C_30 
REMARK   10  A    between atoms: C_30  and  O_32 
REMARK   11  A    between atoms: C_33  and  C_34 
REMARK   12  A    between atoms: C_34  and  C_35 
REMARK   13  A    between atoms: C_35  and  C_36 
REMARK   14  A    between atoms: C_36  and  O_38 
REMARK   15  A    between atoms: C_39  and  C_40 
REMARK   16  A    between atoms: C_40  and  C_41 
REMARK   17  A    between atoms: C_41  and  C_42 
REMARK   18  A    between atoms: C_42  and  O_44 
REMARK   19  A    between atoms: C_45  and  C_46 
REMARK   20  A    between atoms: C_46  and  C_47 
REMARK   21  A    between atoms: C_47  and  O_49 
REMARK   22  A    between atoms: C_50  and  C_51 
REMARK   23  A    between atoms: C_51  and  C_52 
REMARK   24  A    between atoms: C_52  and  O_54 
REMARK   25  A    between atoms: C_55  and  C_56 
REMARK   26  A    between atoms: C_56  and  C_57 
REMARK   27  A    between atoms: C_57  and  C_58 
REMARK   28  A    between atoms: C_58  and  O_60 
ROOT
ATOM      1  O   UNK d   0      -3.717  11.391  -9.657  0.00  0.00    -0.650 OA
ATOM      2  C   UNK d   0      -4.246  11.718 -10.743  0.00  0.00     0.139 C 
ENDROOT
BRANCH   2   3
ATOM      3  O   UNK d   0      -4.197  13.030 -11.148  0.00  0.00    -0.776 OA
ATOM      4  H   UNK d   0      -4.994  13.468 -11.615  0.00  0.00     0.167 HD
ENDBRANCH   2   3
BRANCH   2   5
ATOM      5  C   UNK d   0      -4.922  10.690 -11.584  0.00  0.00     0.115 C 
BRANCH   5   6
ATOM      6  C   UNK d   0      -3.918  10.004 -12.470  0.00  0.00     0.052 C 
BRANCH   6   7
ATOM      7  C   UNK d   0      -3.909   8.505 -12.287  0.00  0.00    -0.020 A 
ATOM      8  C   UNK d   0      -4.663   7.623 -12.891  0.00  0.00    -0.011 A 
ATOM      9  C   UNK d   0      -4.302   6.309 -12.386  0.00  0.00     0.067 A 
ATOM     10  C   UNK d   0      -4.702   4.986 -12.629  0.00  0.00     0.062 C 
ATOM     11  N   UNK d   0      -3.323   6.485 -11.474  0.00  0.00    -0.248 NA
ATOM     12  C   UNK d   0      -4.039   3.816 -12.243  0.00  0.00     0.041 A 
ATOM     13  N   UNK d   0      -3.435   3.479 -11.087  0.00  0.00    -0.355 N 
ATOM     14  C   UNK d   0      -3.884   2.780 -13.182  0.00  0.00    -0.022 A 
ATOM     15  C   UNK d   0      -2.894   2.260 -11.272  0.00  0.00     0.042 A 
ATOM     16  H   UNK d   0      -3.408   4.083 -10.154  0.00  0.00     0.166 HD
ATOM     17  C   UNK d   0      -2.156   1.445 -10.390  0.00  0.00     0.062 C 
ATOM     18  C   UNK d   0      -3.155   1.789 -12.573  0.00  0.00    -0.013 A 
ATOM     19  C   UNK d   0      -1.130   1.793  -9.549  0.00  0.00     0.067 A 
ATOM     20  N   UNK d   0      -0.907   3.098  -9.375  0.00  0.00    -0.248 NA
ATOM     21  C   UNK d   0      -0.144   1.081  -8.754  0.00  0.00    -0.011 A 
ATOM     22  C   UNK d   0       0.154   3.291  -8.525  0.00  0.00     0.066 A 
ATOM     23  C   UNK d   0       0.472   4.608  -8.225  0.00  0.00     0.062 C 
ATOM     24  C   UNK d   0       0.607   1.963  -8.160  0.00  0.00    -0.020 A 
ATOM     25  C   UNK d   0      -0.214   5.769  -8.613  0.00  0.00     0.041 A 
ATOM     26  N   UNK d   0      -0.801   6.109  -9.766  0.00  0.00    -0.355 N 
ATOM     27  C   UNK d   0      -0.373   6.806  -7.668  0.00  0.00    -0.022 A 
ATOM     28  C   UNK d   0      -1.334   7.329  -9.588  0.00  0.00     0.042 A 
ATOM     29  H   UNK d   0      -0.818   5.506 -10.707  0.00  0.00     0.166 HD
ATOM     30  C   UNK d   0      -2.062   8.154 -10.459  0.00  0.00     0.062 C 
ATOM     31  C   UNK d   0      -1.081   7.797  -8.277  0.00  0.00    -0.013 A 
ATOM     32  C   UNK d   0      -3.040   7.785 -11.369  0.00  0.00     0.066 A 
BRANCH   8  33
ATOM     33  C   UNK d   0      -5.703   7.891 -13.901  0.00  0.00     0.151 C 
BRANCH  33  34
ATOM     34  C   UNK d   0      -7.069   7.740 -13.368  0.00  0.00     0.143 C 
ATOM     35  O   UNK d   0      -7.631   8.676 -12.781  0.00  0.00    -0.650 OA
BRANCH  34  36
ATOM     36  O   UNK d   0      -7.726   6.541 -13.524  0.00  0.00    -0.776 OA
ATOM     37  H   UNK d   0      -7.586   5.765 -12.863  0.00  0.00     0.167 HD
ENDBRANCH  34  36
ENDBRANCH  33  34
ENDBRANCH   8  33
BRANCH  31  38
ATOM     38  C   UNK d   0      -1.504   9.104  -7.649  0.00  0.00     0.151 C 
BRANCH  38  39
ATOM     39  C   UNK d   0      -2.810   9.033  -7.029  0.00  0.00     0.143 C 
ATOM     40  O   UNK d   0      -3.851   8.866  -7.688  0.00  0.00    -0.650 OA
BRANCH  39  41
ATOM     41  O   UNK d   0      -2.920   9.153  -5.644  0.00  0.00    -0.776 OA
ATOM     42  H   UNK d   0      -2.046   9.141  -5.109  0.00  0.00     0.167 HD
ENDBRANCH  39  41
ENDBRANCH  38  39
ENDBRANCH  31  38
BRANCH  27  43
ATOM     43  C   UNK d   0       0.115   6.888  -6.243  0.00  0.00     0.052 C 
BRANCH  43  44
ATOM     44  C   UNK d   0       0.529   8.265  -5.839  0.00  0.00     0.115 C 
BRANCH  44  45
ATOM     45  C   UNK d   0       2.013   8.299  -5.907  0.00  0.00     0.139 C 
ATOM     46  O   UNK d   0       2.576   9.418  -6.002  0.00  0.00    -0.650 OA
BRANCH  45  47
ATOM     47  O   UNK d   0       2.790   7.162  -5.865  0.00  0.00    -0.776 OA
ATOM     48  H   UNK d   0       2.990   6.588  -6.700  0.00  0.00     0.167 HD
ENDBRANCH  45  47
ENDBRANCH  44  45
ENDBRANCH  43  44
ENDBRANCH  27  43
BRANCH  24  49
ATOM     49  C   UNK d   0       1.710   1.678  -7.226  0.00  0.00     0.052 C 
BRANCH  49  50
ATOM     50  C   UNK d   0       2.978   1.382  -7.986  0.00  0.00     0.115 C 
BRANCH  50  51
ATOM     51  C   UNK d   0       3.571   2.478  -8.741  0.00  0.00     0.139 C 
ATOM     52  O   UNK d   0       4.060   3.492  -8.189  0.00  0.00    -0.650 OA
BRANCH  51  53
ATOM     53  O   UNK d   0       3.605   2.418 -10.125  0.00  0.00    -0.776 OA
ATOM     54  H   UNK d   0       2.733   2.345 -10.619  0.00  0.00     0.167 HD
ENDBRANCH  51  53
ENDBRANCH  50  51
ENDBRANCH  49  50
ENDBRANCH  24  49
BRANCH  21  55
ATOM     55  C   UNK d   0      -0.058  -0.407  -8.667  0.00  0.00     0.151 C 
BRANCH  55  56
ATOM     56  C   UNK d   0      -0.645  -0.921  -7.421  0.00  0.00     0.143 C 
ATOM     57  O   UNK d   0      -0.127  -1.844  -6.761  0.00  0.00    -0.650 OA
BRANCH  56  58
ATOM     58  O   UNK d   0      -1.830  -0.340  -6.973  0.00  0.00    -0.776 OA
ATOM     59  H   UNK d   0      -2.683  -0.644  -7.477  0.00  0.00     0.167 HD
ENDBRANCH  56  58
ENDBRANCH  55  56
ENDBRANCH  21  55
BRANCH  18  60
ATOM     60  C   UNK d   0      -2.749   0.490 -13.224  0.00  0.00     0.151 C 
BRANCH  60  61
ATOM     61  C   UNK d   0      -1.493   0.771 -13.936  0.00  0.00     0.143 C 
ATOM     62  O   UNK d   0      -0.389   0.992 -13.436  0.00  0.00    -0.650 OA
BRANCH  61  63
ATOM     63  O   UNK d   0      -1.590   0.781 -15.348  0.00  0.00    -0.776 OA
ATOM     64  H   UNK d   0      -0.966   1.335 -15.907  0.00  0.00     0.167 HD
ENDBRANCH  61  63
ENDBRANCH  60  61
ENDBRANCH  18  60
BRANCH  14  65
ATOM     65  C   UNK d   0      -4.452   2.615 -14.563  0.00  0.00     0.052 C 
BRANCH  65  66
ATOM     66  C   UNK d   0      -5.837   2.074 -14.562  0.00  0.00     0.115 C 
BRANCH  66  67
ATOM     67  C   UNK d   0      -6.897   2.829 -15.169  0.00  0.00     0.139 C 
ATOM     68  O   UNK d   0      -7.462   2.357 -16.223  0.00  0.00    -0.650 OA
BRANCH  67  69
ATOM     69  O   UNK d   0      -7.416   4.055 -14.753  0.00  0.00    -0.776 OA
ATOM     70  H   UNK d   0      -7.540   4.168 -13.737  0.00  0.00     0.167 HD
ENDBRANCH  67  69
ENDBRANCH  66  67
ENDBRANCH  65  66
ENDBRANCH  14  65
ENDBRANCH   6   7
ENDBRANCH   5   6
ENDBRANCH   2   5
TORSDOF 28
ENDMDL
MODEL 10
REMARK VINA RESULT:      -9.2      1.977      4.373
REMARK  28 active torsions:
REMARK  status: ('A' for Active; 'I' for Inactive)
REMARK    1  A    between atoms: C_2  and  O_3 
REMARK    2  A    between atoms: C_2  and  C_4 
REMARK    3  A    between atoms: C_4  and  C_5 
REMARK    4  A    between atoms: C_5  and  C_6 
REMARK    5  A    between atoms: C_7  and  C_8 
REMARK    6  A    between atoms: C_8  and  C_9 
REMARK    7  A    between atoms: C_9  and  O_11 
REMARK    8  A    between atoms: C_28  and  C_29 
REMARK    9  A    between atoms: C_29  and  C_30 
REMARK   10  A    between atoms: C_30  and  O_32 
REMARK   11  A    between atoms: C_33  and  C_34 
REMARK   12  A    between atoms: C_34  and  C_35 
REMARK   13  A    between atoms: C_35  and  C_36 
REMARK   14  A    between atoms: C_36  and  O_38 
REMARK   15  A    between atoms: C_39  and  C_40 
REMARK   16  A    between atoms: C_40  and  C_41 
REMARK   17  A    between atoms: C_41  and  C_42 
REMARK   18  A    between atoms: C_42  and  O_44 
REMARK   19  A    between atoms: C_45  and  C_46 
REMARK   20  A    between atoms: C_46  and  C_47 
REMARK   21  A    between atoms: C_47  and  O_49 
REMARK   22  A    between atoms: C_50  and  C_51 
REMARK   23  A    between atoms: C_51  and  C_52 
REMARK   24  A    between atoms: C_52  and  O_54 
REMARK   25  A    between atoms: C_55  and  C_56 
REMARK   26  A    between atoms: C_56  and  C_57 
REMARK   27  A    between atoms: C_57  and  C_58 
REMARK   28  A    between atoms: C_58  and  O_60 
ROOT
ATOM      1  O   UNK d   0      -2.716   9.077  -5.987  0.00  0.00    -0.650 OA
ATOM      2  C   UNK d   0      -2.066   9.676  -6.872  0.00  0.00     0.139 C 
ENDROOT
BRANCH   2   3
ATOM      3  O   UNK d   0      -2.633  10.751  -7.514  0.00  0.00    -0.776 OA
ATOM      4  H   UNK d   0      -2.872  10.706  -8.507  0.00  0.00     0.167 HD
ENDBRANCH   2   3
BRANCH   2   5
ATOM      5  C   UNK d   0      -0.690   9.225  -7.224  0.00  0.00     0.115 C 
BRANCH   5   6
ATOM      6  C   UNK d   0      -0.244   8.140  -6.281  0.00  0.00     0.052 C 
BRANCH   6   7
ATOM      7  C   UNK d   0      -0.035   6.816  -6.976  0.00  0.00    -0.020 A 
ATOM      8  C   UNK d   0       0.904   5.934  -6.747  0.00  0.00    -0.011 A 
ATOM      9  C   UNK d   0       0.706   4.825  -7.666  0.00  0.00     0.067 A 
ATOM     10  C   UNK d   0       1.331   3.593  -7.915  0.00  0.00     0.062 C 
ATOM     11  N   UNK d   0      -0.373   5.118  -8.421  0.00  0.00    -0.248 NA
ATOM     12  C   UNK d   0       0.826   2.522  -8.661  0.00  0.00     0.041 A 
ATOM     13  N   UNK d   0       0.172   2.492  -9.838  0.00  0.00    -0.355 N 
ATOM     14  C   UNK d   0       0.928   1.220  -8.138  0.00  0.00    -0.022 A 
ATOM     15  C   UNK d   0      -0.150   1.206 -10.071  0.00  0.00     0.042 A 
ATOM     16  H   UNK d   0      -0.041   3.360 -10.500  0.00  0.00     0.166 HD
ATOM     17  C   UNK d   0      -0.833   0.617 -11.154  0.00  0.00     0.062 C 
ATOM     18  C   UNK d   0       0.308   0.378  -9.027  0.00  0.00    -0.013 A 
ATOM     19  C   UNK d   0      -1.979   1.036 -11.781  0.00  0.00     0.067 A 
ATOM     20  N   UNK d   0      -2.420   2.260 -11.480  0.00  0.00    -0.248 NA
ATOM     21  C   UNK d   0      -2.914   0.467 -12.737  0.00  0.00    -0.011 A 
ATOM     22  C   UNK d   0      -3.576   2.532 -12.169  0.00  0.00     0.066 A 
ATOM     23  C   UNK d   0      -4.126   3.792 -11.977  0.00  0.00     0.062 C 
ATOM     24  C   UNK d   0      -3.849   1.346 -12.957  0.00  0.00    -0.020 A 
ATOM     25  C   UNK d   0      -3.595   4.858 -11.234  0.00  0.00     0.041 A 
ATOM     26  N   UNK d   0      -2.959   4.890 -10.057  0.00  0.00    -0.355 N 
ATOM     27  C   UNK d   0      -3.695   6.164 -11.762  0.00  0.00    -0.022 A 
ATOM     28  C   UNK d   0      -2.645   6.173  -9.818  0.00  0.00     0.042 A 
ATOM     29  H   UNK d   0      -2.755   4.018  -9.388  0.00  0.00     0.166 HD
ATOM     30  C   UNK d   0      -1.974   6.773  -8.741  0.00  0.00     0.062 C 
ATOM     31  C   UNK d   0      -3.096   7.002 -10.873  0.00  0.00    -0.013 A 
ATOM     32  C   UNK d   0      -0.865   6.302  -8.055  0.00  0.00     0.066 A 
BRANCH   8  33
ATOM     33  C   UNK d   0       1.983   6.029  -5.747  0.00  0.00     0.151 C 
BRANCH  33  34
ATOM     34  C   UNK d   0       3.325   6.070  -6.356  0.00  0.00     0.143 C 
ATOM     35  O   UNK d   0       3.918   7.146  -6.516  0.00  0.00    -0.650 OA
BRANCH  34  36
ATOM     36  O   UNK d   0       3.922   4.897  -6.754  0.00  0.00    -0.776 OA
ATOM     37  H   UNK d   0       3.468   3.987  -6.599  0.00  0.00     0.167 HD
ENDBRANCH  34  36
ENDBRANCH  33  34
ENDBRANCH   8  33
BRANCH  31  38
ATOM     38  C   UNK d   0      -2.947   8.498 -11.019  0.00  0.00     0.151 C 
BRANCH  38  39
ATOM     39  C   UNK d   0      -4.052   9.232 -10.440  0.00  0.00     0.143 C 
ATOM     40  O   UNK d   0      -4.719  10.054 -11.093  0.00  0.00    -0.650 OA
BRANCH  39  41
ATOM     41  O   UNK d   0      -4.393   9.019  -9.105  0.00  0.00    -0.776 OA
ATOM     42  H   UNK d   0      -4.170   9.772  -8.446  0.00  0.00     0.167 HD
ENDBRANCH  39  41
ENDBRANCH  38  39
ENDBRANCH  31  38
BRANCH  27  43
ATOM     43  C   UNK d   0      -4.327   6.632 -13.049  0.00  0.00     0.052 C 
BRANCH  43  44
ATOM     44  C   UNK d   0      -5.780   6.952 -12.912  0.00  0.00     0.115 C 
BRANCH  44  45
ATOM     45  C   UNK d   0      -5.959   8.336 -13.421  0.00  0.00     0.139 C 
ATOM     46  O   UNK d   0      -7.118   8.820 -13.425  0.00  0.00    -0.650 OA
BRANCH  45  47
ATOM     47  O   UNK d   0      -4.912   9.105 -13.880  0.00  0.00    -0.776 OA
ATOM     48  H   UNK d   0      -4.244   8.774 -14.595  0.00  0.00     0.167 HD
ENDBRANCH  45  47
ENDBRANCH  44  45
ENDBRANCH  43  44
ENDBRANCH  27  43
BRANCH  24  49
ATOM     49  C   UNK d   0      -4.979   1.198 -13.890  0.00  0.00     0.052 C 
BRANCH  49  50
ATOM     50  C   UNK d   0      -4.615   1.746 -15.246  0.00  0.00     0.115 C 
BRANCH  50  51
ATOM     51  C   UNK d   0      -5.707   1.999 -16.176  0.00  0.00     0.139 C 
ATOM     52  O   UNK d   0      -6.898   2.120 -15.804  0.00  0.00    -0.650 OA
BRANCH  51  53
ATOM     53  O   UNK d   0      -5.442   2.110 -17.532  0.00  0.00    -0.776 OA
ATOM     54  H   UNK d   0      -4.916   2.906 -17.850  0.00  0.00     0.167 HD
ENDBRANCH  51  53
ENDBRANCH  50  51
ENDBRANCH  49  50
ENDBRANCH  24  49
BRANCH  21  55
ATOM     55  C   UNK d   0      -2.773  -0.893 -13.335  0.00  0.00     0.151 C 
BRANCH  55  56
ATOM     56  C   UNK d   0      -2.823  -1.952 -12.315  0.00  0.00     0.143 C 
ATOM     57  O   UNK d   0      -1.869  -2.723 -12.096  0.00  0.00    -0.650 OA
BRANCH  56  58
ATOM     58  O   UNK d   0      -3.995  -2.083 -11.573  0.00  0.00    -0.776 OA
ATOM     59  H   UNK d   0      -4.604  -2.873 -11.853  0.00  0.00     0.167 HD
ENDBRANCH  56  58
ENDBRANCH  55  56
ENDBRANCH  21  55
BRANCH  18  60
ATOM     60  C   UNK d   0       0.177  -1.115  -8.856  0.00  0.00     0.151 C 
BRANCH  60  61
ATOM     61  C   UNK d   0      -1.217  -1.354  -8.451  0.00  0.00     0.143 C 
ATOM     62  O   UNK d   0      -1.824  -0.812  -7.527  0.00  0.00    -0.650 OA
BRANCH  61  63
ATOM     63  O   UNK d   0      -1.913  -2.315  -9.223  0.00  0.00    -0.776 OA
ATOM     64  H   UNK d   0      -2.277  -2.086 -10.130  0.00  0.00     0.167 HD
ENDBRANCH  61  63
ENDBRANCH  60  61
ENDBRANCH  18  60
BRANCH  14  65
ATOM     65  C   UNK d   0       1.647   0.705  -6.924  0.00  0.00     0.052 C 
BRANCH  65  66
ATOM     66  C   UNK d   0       3.058   0.323  -7.201  0.00  0.00     0.115 C 
BRANCH  66  67
ATOM     67  C   UNK d   0       4.121   1.218  -6.841  0.00  0.00     0.139 C 
ATOM     68  O   UNK d   0       4.368   2.219  -7.609  0.00  0.00    -0.650 OA
BRANCH  67  69
ATOM     69  O   UNK d   0       4.957   1.145  -5.727  0.00  0.00    -0.776 OA
ATOM     70  H   UNK d   0       5.968   1.172  -5.923  0.00  0.00     0.167 HD
ENDBRANCH  67  69
ENDBRANCH  66  67
ENDBRANCH  65  66
ENDBRANCH  14  65
ENDBRANCH   6   7
ENDBRANCH   5   6
ENDBRANCH   2   5
TORSDOF 28
ENDMDL
MODEL 11
REMARK VINA RESULT:      -9.1     29.715     32.868
REMARK  28 active torsions:
REMARK  status: ('A' for Active; 'I' for Inactive)
REMARK    1  A    between atoms: C_2  and  O_3 
REMARK    2  A    between atoms: C_2  and  C_4 
REMARK    3  A    between atoms: C_4  and  C_5 
REMARK    4  A    between atoms: C_5  and  C_6 
REMARK    5  A    between atoms: C_7  and  C_8 
REMARK    6  A    between atoms: C_8  and  C_9 
REMARK    7  A    between atoms: C_9  and  O_11 
REMARK    8  A    between atoms: C_28  and  C_29 
REMARK    9  A    between atoms: C_29  and  C_30 
REMARK   10  A    between atoms: C_30  and  O_32 
REMARK   11  A    between atoms: C_33  and  C_34 
REMARK   12  A    between atoms: C_34  and  C_35 
REMARK   13  A    between atoms: C_35  and  C_36 
REMARK   14  A    between atoms: C_36  and  O_38 
REMARK   15  A    between atoms: C_39  and  C_40 
REMARK   16  A    between atoms: C_40  and  C_41 
REMARK   17  A    between atoms: C_41  and  C_42 
REMARK   18  A    between atoms: C_42  and  O_44 
REMARK   19  A    between atoms: C_45  and  C_46 
REMARK   20  A    between atoms: C_46  and  C_47 
REMARK   21  A    between atoms: C_47  and  O_49 
REMARK   22  A    between atoms: C_50  and  C_51 
REMARK   23  A    between atoms: C_51  and  C_52 
REMARK   24  A    between atoms: C_52  and  O_54 
REMARK   25  A    between atoms: C_55  and  C_56 
REMARK   26  A    between atoms: C_56  and  C_57 
REMARK   27  A    between atoms: C_57  and  C_58 
REMARK   28  A    between atoms: C_58  and  O_60 
ROOT
ATOM      1  O   UNK d   0     -21.170  10.549  13.152  0.00  0.00    -0.650 OA
ATOM      2  C   UNK d   0     -20.277  10.824  12.320  0.00  0.00     0.139 C 
ENDROOT
BRANCH   2   3
ATOM      3  O   UNK d   0     -20.112  10.019  11.219  0.00  0.00    -0.776 OA
ATOM      4  H   UNK d   0     -19.188   9.668  10.956  0.00  0.00     0.167 HD
ENDBRANCH   2   3
BRANCH   2   5
ATOM      5  C   UNK d   0     -19.405  12.015  12.524  0.00  0.00     0.115 C 
BRANCH   5   6
ATOM      6  C   UNK d   0     -19.412  12.880  11.292  0.00  0.00     0.052 C 
BRANCH   6   7
ATOM      7  C   UNK d   0     -20.616  13.789  11.228  0.00  0.00    -0.020 A 
ATOM      8  C   UNK d   0     -20.791  14.926  11.851  0.00  0.00    -0.011 A 
ATOM      9  C   UNK d   0     -22.103  15.435  11.488  0.00  0.00     0.067 A 
ATOM     10  C   UNK d   0     -22.864  16.577  11.783  0.00  0.00     0.062 C 
ATOM     11  N   UNK d   0     -22.660  14.540  10.644  0.00  0.00    -0.248 NA
ATOM     12  C   UNK d   0     -24.006  17.030  11.114  0.00  0.00     0.041 A 
ATOM     13  N   UNK d   0     -25.081  16.368  10.645  0.00  0.00    -0.355 N 
ATOM     14  C   UNK d   0     -24.106  18.395  10.786  0.00  0.00    -0.022 A 
ATOM     15  C   UNK d   0     -25.856  17.275  10.022  0.00  0.00     0.042 A 
ATOM     16  H   UNK d   0     -25.297  15.284  10.770  0.00  0.00     0.166 HD
ATOM     17  C   UNK d   0     -27.091  17.122   9.361  0.00  0.00     0.062 C 
ATOM     18  C   UNK d   0     -25.277  18.558  10.089  0.00  0.00    -0.013 A 
ATOM     19  C   UNK d   0     -27.477  16.153   8.470  0.00  0.00     0.067 A 
ATOM     20  N   UNK d   0     -26.673  15.095   8.341  0.00  0.00    -0.248 NA
ATOM     21  C   UNK d   0     -28.591  15.957   7.557  0.00  0.00    -0.011 A 
ATOM     22  C   UNK d   0     -27.179  14.222   7.409  0.00  0.00     0.066 A 
ATOM     23  C   UNK d   0     -26.459  13.055   7.201  0.00  0.00     0.062 C 
ATOM     24  C   UNK d   0     -28.409  14.828   6.936  0.00  0.00    -0.020 A 
ATOM     25  C   UNK d   0     -25.321  12.612   7.893  0.00  0.00     0.041 A 
ATOM     26  N   UNK d   0     -24.246  13.268   8.345  0.00  0.00    -0.355 N 
ATOM     27  C   UNK d   0     -25.224  11.243   8.226  0.00  0.00    -0.022 A 
ATOM     28  C   UNK d   0     -23.467  12.364   8.960  0.00  0.00     0.042 A 
ATOM     29  H   UNK d   0     -24.025  14.355   8.210  0.00  0.00     0.166 HD
ATOM     30  C   UNK d   0     -22.232  12.501   9.614  0.00  0.00     0.062 C 
ATOM     31  C   UNK d   0     -24.054  11.078   8.902  0.00  0.00    -0.013 A 
ATOM     32  C   UNK d   0     -21.815  13.527  10.447  0.00  0.00     0.066 A 
BRANCH   8  33
ATOM     33  C   UNK d   0     -19.844  15.589  12.766  0.00  0.00     0.151 C 
BRANCH  33  34
ATOM     34  C   UNK d   0     -18.890  16.466  12.063  0.00  0.00     0.143 C 
ATOM     35  O   UNK d   0     -19.081  16.799  10.885  0.00  0.00    -0.650 OA
BRANCH  34  36
ATOM     36  O   UNK d   0     -17.773  16.918  12.727  0.00  0.00    -0.776 OA
ATOM     37  H   UNK d   0     -17.843  17.626  13.470  0.00  0.00     0.167 HD
ENDBRANCH  34  36
ENDBRANCH  33  34
ENDBRANCH   8  33
BRANCH  31  38
ATOM     38  C   UNK d   0     -23.529   9.780   9.470  0.00  0.00     0.151 C 
BRANCH  38  39
ATOM     39  C   UNK d   0     -23.965   9.546  10.831  0.00  0.00     0.143 C 
ATOM     40  O   UNK d   0     -23.367   8.770  11.597  0.00  0.00    -0.650 OA
BRANCH  39  41
ATOM     41  O   UNK d   0     -25.093  10.209  11.314  0.00  0.00    -0.776 OA
ATOM     42  H   UNK d   0     -25.995   9.743  11.178  0.00  0.00     0.167 HD
ENDBRANCH  39  41
ENDBRANCH  38  39
ENDBRANCH  31  38
BRANCH  27  43
ATOM     43  C   UNK d   0     -26.179  10.115   7.929  0.00  0.00     0.052 C 
BRANCH  43  44
ATOM     44  C   UNK d   0     -27.459  10.207   8.696  0.00  0.00     0.115 C 
BRANCH  44  45
ATOM     45  C   UNK d   0     -28.325   9.101   8.211  0.00  0.00     0.139 C 
ATOM     46  O   UNK d   0     -27.772   8.104   7.685  0.00  0.00    -0.650 OA
BRANCH  45  47
ATOM     47  O   UNK d   0     -29.699   9.126   8.319  0.00  0.00    -0.776 OA
ATOM     48  H   UNK d   0     -30.305   9.630   7.652  0.00  0.00     0.167 HD
ENDBRANCH  45  47
ENDBRANCH  44  45
ENDBRANCH  43  44
ENDBRANCH  27  43
BRANCH  24  49
ATOM     49  C   UNK d   0     -29.319  14.223   5.948  0.00  0.00     0.052 C 
BRANCH  49  50
ATOM     50  C   UNK d   0     -30.534  13.654   6.635  0.00  0.00     0.115 C 
BRANCH  50  51
ATOM     51  C   UNK d   0     -30.439  12.288   7.132  0.00  0.00     0.139 C 
ATOM     52  O   UNK d   0     -30.492  12.008   8.353  0.00  0.00    -0.650 OA
BRANCH  51  53
ATOM     53  O   UNK d   0     -30.281  11.242   6.237  0.00  0.00    -0.776 OA
ATOM     54  H   UNK d   0     -30.076  10.329   6.604  0.00  0.00     0.167 HD
ENDBRANCH  51  53
ENDBRANCH  50  51
ENDBRANCH  49  50
ENDBRANCH  24  49
BRANCH  21  55
ATOM     55  C   UNK d   0     -29.724  16.918   7.404  0.00  0.00     0.151 C 
BRANCH  55  56
ATOM     56  C   UNK d   0     -29.457  17.925   6.366  0.00  0.00     0.143 C 
ATOM     57  O   UNK d   0     -29.908  17.836   5.207  0.00  0.00    -0.650 OA
BRANCH  56  58
ATOM     58  O   UNK d   0     -28.664  19.018   6.711  0.00  0.00    -0.776 OA
ATOM     59  H   UNK d   0     -29.135  19.730   7.298  0.00  0.00     0.167 HD
ENDBRANCH  56  58
ENDBRANCH  55  56
ENDBRANCH  21  55
BRANCH  18  60
ATOM     60  C   UNK d   0     -25.778  19.868   9.534  0.00  0.00     0.151 C 
BRANCH  60  61
ATOM     61  C   UNK d   0     -25.052  20.077   8.272  0.00  0.00     0.143 C 
ATOM     62  O   UNK d   0     -24.467  21.099   7.913  0.00  0.00    -0.650 OA
BRANCH  61  63
ATOM     63  O   UNK d   0     -25.040  18.967   7.394  0.00  0.00    -0.776 OA
ATOM     64  H   UNK d   0     -24.784  19.073   6.428  0.00  0.00     0.167 HD
ENDBRANCH  61  63
ENDBRANCH  60  61
ENDBRANCH  18  60
BRANCH  14  65
ATOM     65  C   UNK d   0     -23.236  19.560  11.162  0.00  0.00     0.052 C 
BRANCH  65  66
ATOM     66  C   UNK d   0     -23.720  20.281  12.370  0.00  0.00     0.115 C 
BRANCH  66  67
ATOM     67  C   UNK d   0     -23.093  20.042  13.640  0.00  0.00     0.139 C 
ATOM     68  O   UNK d   0     -23.350  18.943  14.255  0.00  0.00    -0.650 OA
BRANCH  67  69
ATOM     69  O   UNK d   0     -22.208  20.875  14.324  0.00  0.00    -0.776 OA
ATOM     70  H   UNK d   0     -22.246  20.821  15.352  0.00  0.00     0.167 HD
ENDBRANCH  67  69
ENDBRANCH  66  67
ENDBRANCH  65  66
ENDBRANCH  14  65
ENDBRANCH   6   7
ENDBRANCH   5   6
ENDBRANCH   2   5
TORSDOF 28
ENDMDL
MODEL 12
REMARK VINA RESULT:      -9.1      1.768     10.079
REMARK  28 active torsions:
REMARK  status: ('A' for Active; 'I' for Inactive)
REMARK    1  A    between atoms: C_2  and  O_3 
REMARK    2  A    between atoms: C_2  and  C_4 
REMARK    3  A    between atoms: C_4  and  C_5 
REMARK    4  A    between atoms: C_5  and  C_6 
REMARK    5  A    between atoms: C_7  and  C_8 
REMARK    6  A    between atoms: C_8  and  C_9 
REMARK    7  A    between atoms: C_9  and  O_11 
REMARK    8  A    between atoms: C_28  and  C_29 
REMARK    9  A    between atoms: C_29  and  C_30 
REMARK   10  A    between atoms: C_30  and  O_32 
REMARK   11  A    between atoms: C_33  and  C_34 
REMARK   12  A    between atoms: C_34  and  C_35 
REMARK   13  A    between atoms: C_35  and  C_36 
REMARK   14  A    between atoms: C_36  and  O_38 
REMARK   15  A    between atoms: C_39  and  C_40 
REMARK   16  A    between atoms: C_40  and  C_41 
REMARK   17  A    between atoms: C_41  and  C_42 
REMARK   18  A    between atoms: C_42  and  O_44 
REMARK   19  A    between atoms: C_45  and  C_46 
REMARK   20  A    between atoms: C_46  and  C_47 
REMARK   21  A    between atoms: C_47  and  O_49 
REMARK   22  A    between atoms: C_50  and  C_51 
REMARK   23  A    between atoms: C_51  and  C_52 
REMARK   24  A    between atoms: C_52  and  O_54 
REMARK   25  A    between atoms: C_55  and  C_56 
REMARK   26  A    between atoms: C_56  and  C_57 
REMARK   27  A    between atoms: C_57  and  C_58 
REMARK   28  A    between atoms: C_58  and  O_60 
ROOT
ATOM      1  O   UNK d   0     -10.739   4.521 -12.721  0.00  0.00    -0.650 OA
ATOM      2  C   UNK d   0      -9.565   4.302 -13.094  0.00  0.00     0.139 C 
ENDROOT
BRANCH   2   3
ATOM      3  O   UNK d   0      -9.307   3.228 -13.911  0.00  0.00    -0.776 OA
ATOM      4  H   UNK d   0      -8.991   3.361 -14.874  0.00  0.00     0.167 HD
ENDBRANCH   2   3
BRANCH   2   5
ATOM      5  C   UNK d   0      -8.460   5.201 -12.654  0.00  0.00     0.115 C 
BRANCH   5   6
ATOM      6  C   UNK d   0      -7.309   5.115 -13.619  0.00  0.00     0.052 C 
BRANCH   6   7
ATOM      7  C   UNK d   0      -5.980   5.407 -12.964  0.00  0.00    -0.020 A 
ATOM      8  C   UNK d   0      -5.431   6.577 -12.758  0.00  0.00    -0.011 A 
ATOM      9  C   UNK d   0      -4.150   6.359 -12.106  0.00  0.00     0.067 A 
ATOM     10  C   UNK d   0      -3.114   7.168 -11.613  0.00  0.00     0.062 C 
ATOM     11  N   UNK d   0      -3.997   5.026 -11.959  0.00  0.00    -0.248 NA
ATOM     12  C   UNK d   0      -2.074   6.785 -10.760  0.00  0.00     0.041 A 
ATOM     13  N   UNK d   0      -1.296   5.686 -10.747  0.00  0.00    -0.355 N 
ATOM     14  C   UNK d   0      -1.754   7.609  -9.665  0.00  0.00    -0.022 A 
ATOM     15  C   UNK d   0      -0.496   5.787  -9.669  0.00  0.00     0.042 A 
ATOM     16  H   UNK d   0      -1.299   4.864 -11.497  0.00  0.00     0.166 HD
ATOM     17  C   UNK d   0       0.502   4.917  -9.187  0.00  0.00     0.062 C 
ATOM     18  C   UNK d   0      -0.754   6.980  -8.966  0.00  0.00    -0.013 A 
ATOM     19  C   UNK d   0       0.467   3.553  -9.055  0.00  0.00     0.067 A 
ATOM     20  N   UNK d   0      -0.556   2.916  -9.630  0.00  0.00    -0.248 NA
ATOM     21  C   UNK d   0       1.287   2.544  -8.405  0.00  0.00    -0.011 A 
ATOM     22  C   UNK d   0      -0.466   1.565  -9.402  0.00  0.00     0.066 A 
ATOM     23  C   UNK d   0      -1.450   0.775  -9.978  0.00  0.00     0.062 C 
ATOM     24  C   UNK d   0       0.734   1.384  -8.608  0.00  0.00    -0.020 A 
ATOM     25  C   UNK d   0      -2.479   1.177 -10.843  0.00  0.00     0.041 A 
ATOM     26  N   UNK d   0      -3.262   2.262 -10.847  0.00  0.00    -0.355 N 
ATOM     27  C   UNK d   0      -2.797   0.352 -11.944  0.00  0.00    -0.022 A 
ATOM     28  C   UNK d   0      -4.067   2.159 -11.916  0.00  0.00     0.042 A 
ATOM     29  H   UNK d   0      -3.266   3.082 -10.087  0.00  0.00     0.166 HD
ATOM     30  C   UNK d   0      -5.070   3.012 -12.402  0.00  0.00     0.062 C 
ATOM     31  C   UNK d   0      -3.800   0.966 -12.628  0.00  0.00    -0.013 A 
ATOM     32  C   UNK d   0      -5.064   4.397 -12.454  0.00  0.00     0.066 A 
BRANCH   8  33
ATOM     33  C   UNK d   0      -5.990   7.892 -13.119  0.00  0.00     0.151 C 
BRANCH  33  34
ATOM     34  C   UNK d   0      -4.997   8.782 -13.748  0.00  0.00     0.143 C 
ATOM     35  O   UNK d   0      -4.624   9.820 -13.183  0.00  0.00    -0.650 OA
BRANCH  34  36
ATOM     36  O   UNK d   0      -4.479   8.452 -14.979  0.00  0.00    -0.776 OA
ATOM     37  H   UNK d   0      -3.838   9.085 -15.476  0.00  0.00     0.167 HD
ENDBRANCH  34  36
ENDBRANCH  33  34
ENDBRANCH   8  33
BRANCH  31  38
ATOM     38  C   UNK d   0      -4.458   0.459 -13.891  0.00  0.00     0.151 C 
BRANCH  38  39
ATOM     39  C   UNK d   0      -4.077   1.216 -15.065  0.00  0.00     0.143 C 
ATOM     40  O   UNK d   0      -2.906   1.253 -15.481  0.00  0.00    -0.650 OA
BRANCH  39  41
ATOM     41  O   UNK d   0      -5.048   1.932 -15.764  0.00  0.00    -0.776 OA
ATOM     42  H   UNK d   0      -4.907   2.036 -16.774  0.00  0.00     0.167 HD
ENDBRANCH  39  41
ENDBRANCH  38  39
ENDBRANCH  31  38
BRANCH  27  43
ATOM     43  C   UNK d   0      -2.196  -0.969 -12.356  0.00  0.00     0.052 C 
BRANCH  43  44
ATOM     44  C   UNK d   0      -3.063  -2.141 -12.026  0.00  0.00     0.115 C 
BRANCH  44  45
ATOM     45  C   UNK d   0      -2.365  -2.896 -10.953  0.00  0.00     0.139 C 
ATOM     46  O   UNK d   0      -1.264  -2.455 -10.539  0.00  0.00    -0.650 OA
BRANCH  45  47
ATOM     47  O   UNK d   0      -2.877  -4.048 -10.396  0.00  0.00    -0.776 OA
ATOM     48  H   UNK d   0      -3.169  -4.862 -10.961  0.00  0.00     0.167 HD
ENDBRANCH  45  47
ENDBRANCH  44  45
ENDBRANCH  43  44
ENDBRANCH  27  43
BRANCH  24  49
ATOM     49  C   UNK d   0       1.254   0.082  -8.155  0.00  0.00     0.052 C 
BRANCH  49  50
ATOM     50  C   UNK d   0       0.833  -0.186  -6.734  0.00  0.00     0.115 C 
BRANCH  50  51
ATOM     51  C   UNK d   0      -0.146  -1.244  -6.519  0.00  0.00     0.139 C 
ATOM     52  O   UNK d   0      -0.430  -1.681  -5.379  0.00  0.00    -0.650 OA
BRANCH  51  53
ATOM     53  O   UNK d   0      -0.799  -1.806  -7.605  0.00  0.00    -0.776 OA
ATOM     54  H   UNK d   0      -1.222  -2.710  -7.490  0.00  0.00     0.167 HD
ENDBRANCH  51  53
ENDBRANCH  50  51
ENDBRANCH  49  50
ENDBRANCH  24  49
BRANCH  21  55
ATOM     55  C   UNK d   0       2.541   2.846  -7.652  0.00  0.00     0.151 C 
BRANCH  55  56
ATOM     56  C   UNK d   0       3.743   2.456  -8.405  0.00  0.00     0.143 C 
ATOM     57  O   UNK d   0       3.789   2.458  -9.650  0.00  0.00    -0.650 OA
BRANCH  56  58
ATOM     58  O   UNK d   0       4.868   2.072  -7.677  0.00  0.00    -0.776 OA
ATOM     59  H   UNK d   0       5.773   2.233  -8.155  0.00  0.00     0.167 HD
ENDBRANCH  56  58
ENDBRANCH  55  56
ENDBRANCH  21  55
BRANCH  18  60
ATOM     60  C   UNK d   0      -0.113   7.511  -7.708  0.00  0.00     0.151 C 
BRANCH  60  61
ATOM     61  C   UNK d   0      -0.523   6.600  -6.629  0.00  0.00     0.143 C 
ATOM     62  O   UNK d   0      -1.667   6.408  -6.215  0.00  0.00    -0.650 OA
BRANCH  61  63
ATOM     63  O   UNK d   0       0.529   5.877  -6.018  0.00  0.00    -0.776 OA
ATOM     64  H   UNK d   0       0.430   5.499  -5.092  0.00  0.00     0.167 HD
ENDBRANCH  61  63
ENDBRANCH  60  61
ENDBRANCH  18  60
BRANCH  14  65
ATOM     65  C   UNK d   0      -2.247   8.977  -9.291  0.00  0.00     0.052 C 
BRANCH  65  66
ATOM     66  C   UNK d   0      -3.213   8.958  -8.159  0.00  0.00     0.115 C 
BRANCH  66  67
ATOM     67  C   UNK d   0      -2.876   9.609  -6.925  0.00  0.00     0.139 C 
ATOM     68  O   UNK d   0      -2.608  10.866  -6.947  0.00  0.00    -0.650 OA
BRANCH  67  69
ATOM     69  O   UNK d   0      -2.796   9.039  -5.654  0.00  0.00    -0.776 OA
ATOM     70  H   UNK d   0      -1.921   8.539  -5.442  0.00  0.00     0.167 HD
ENDBRANCH  67  69
ENDBRANCH  66  67
ENDBRANCH  65  66
ENDBRANCH  14  65
ENDBRANCH   6   7
ENDBRANCH   5   6
ENDBRANCH   2   5
TORSDOF 28
ENDMDL
MODEL 13
REMARK VINA RESULT:      -9.1     29.850     32.905
REMARK  28 active torsions:
REMARK  status: ('A' for Active; 'I' for Inactive)
REMARK    1  A    between atoms: C_2  and  O_3 
REMARK    2  A    between atoms: C_2  and  C_4 
REMARK    3  A    between atoms: C_4  and  C_5 
REMARK    4  A    between atoms: C_5  and  C_6 
REMARK    5  A    between atoms: C_7  and  C_8 
REMARK    6  A    between atoms: C_8  and  C_9 
REMARK    7  A    between atoms: C_9  and  O_11 
REMARK    8  A    between atoms: C_28  and  C_29 
REMARK    9  A    between atoms: C_29  and  C_30 
REMARK   10  A    between atoms: C_30  and  O_32 
REMARK   11  A    between atoms: C_33  and  C_34 
REMARK   12  A    between atoms: C_34  and  C_35 
REMARK   13  A    between atoms: C_35  and  C_36 
REMARK   14  A    between atoms: C_36  and  O_38 
REMARK   15  A    between atoms: C_39  and  C_40 
REMARK   16  A    between atoms: C_40  and  C_41 
REMARK   17  A    between atoms: C_41  and  C_42 
REMARK   18  A    between atoms: C_42  and  O_44 
REMARK   19  A    between atoms: C_45  and  C_46 
REMARK   20  A    between atoms: C_46  and  C_47 
REMARK   21  A    between atoms: C_47  and  O_49 
REMARK   22  A    between atoms: C_50  and  C_51 
REMARK   23  A    between atoms: C_51  and  C_52 
REMARK   24  A    between atoms: C_52  and  O_54 
REMARK   25  A    between atoms: C_55  and  C_56 
REMARK   26  A    between atoms: C_56  and  C_57 
REMARK   27  A    between atoms: C_57  and  C_58 
REMARK   28  A    between atoms: C_58  and  O_60 
ROOT
ATOM      1  O   UNK d   0     -27.797   8.639   7.875  0.00  0.00    -0.650 OA
ATOM      2  C   UNK d   0     -28.188   9.669   8.468  0.00  0.00     0.139 C 
ENDROOT
BRANCH   2   3
ATOM      3  O   UNK d   0     -28.850   9.546   9.666  0.00  0.00    -0.776 OA
ATOM      4  H   UNK d   0     -28.470   8.974  10.423  0.00  0.00     0.167 HD
ENDBRANCH   2   3
BRANCH   2   5
ATOM      5  C   UNK d   0     -27.936  11.014   7.877  0.00  0.00     0.115 C 
BRANCH   5   6
ATOM      6  C   UNK d   0     -26.550  11.072   7.295  0.00  0.00     0.052 C 
BRANCH   6   7
ATOM      7  C   UNK d   0     -25.625  11.968   8.085  0.00  0.00    -0.020 A 
ATOM      8  C   UNK d   0     -24.668  11.606   8.900  0.00  0.00    -0.011 A 
ATOM      9  C   UNK d   0     -24.058  12.813   9.434  0.00  0.00     0.067 A 
ATOM     10  C   UNK d   0     -23.005  13.112  10.312  0.00  0.00     0.062 C 
ATOM     11  N   UNK d   0     -24.711  13.864   8.895  0.00  0.00    -0.248 NA
ATOM     12  C   UNK d   0     -22.379  14.350  10.493  0.00  0.00     0.041 A 
ATOM     13  N   UNK d   0     -22.886  15.594  10.590  0.00  0.00    -0.355 N 
ATOM     14  C   UNK d   0     -20.974  14.403  10.540  0.00  0.00    -0.022 A 
ATOM     15  C   UNK d   0     -21.839  16.435  10.688  0.00  0.00     0.042 A 
ATOM     16  H   UNK d   0     -23.963  15.871  10.607  0.00  0.00     0.166 HD
ATOM     17  C   UNK d   0     -21.802  17.838  10.814  0.00  0.00     0.062 C 
ATOM     18  C   UNK d   0     -20.623  15.724  10.660  0.00  0.00    -0.013 A 
ATOM     19  C   UNK d   0     -22.520  18.784  10.127  0.00  0.00     0.067 A 
ATOM     20  N   UNK d   0     -23.533  18.346   9.375  0.00  0.00    -0.248 NA
ATOM     21  C   UNK d   0     -22.466  20.228   9.974  0.00  0.00    -0.011 A 
ATOM     22  C   UNK d   0     -24.145  19.399   8.740  0.00  0.00     0.066 A 
ATOM     23  C   UNK d   0     -25.243  19.090   7.952  0.00  0.00     0.062 C 
ATOM     24  C   UNK d   0     -23.417  20.582   9.158  0.00  0.00    -0.020 A 
ATOM     25  C   UNK d   0     -25.864  17.841   7.793  0.00  0.00     0.041 A 
ATOM     26  N   UNK d   0     -25.359  16.607   7.682  0.00  0.00    -0.355 N 
ATOM     27  C   UNK d   0     -27.274  17.790   7.751  0.00  0.00    -0.022 A 
ATOM     28  C   UNK d   0     -26.402  15.768   7.575  0.00  0.00     0.042 A 
ATOM     29  H   UNK d   0     -24.276  16.332   7.654  0.00  0.00     0.166 HD
ATOM     30  C   UNK d   0     -26.452  14.371   7.440  0.00  0.00     0.062 C 
ATOM     31  C   UNK d   0     -27.623  16.481   7.614  0.00  0.00    -0.013 A 
ATOM     32  C   UNK d   0     -25.665  13.422   8.074  0.00  0.00     0.066 A 
BRANCH   8  33
ATOM     33  C   UNK d   0     -24.265  10.228   9.237  0.00  0.00     0.151 C 
BRANCH  33  34
ATOM     34  C   UNK d   0     -24.388   9.932  10.675  0.00  0.00     0.143 C 
ATOM     35  O   UNK d   0     -23.472   9.369  11.290  0.00  0.00    -0.650 OA
BRANCH  34  36
ATOM     36  O   UNK d   0     -25.539  10.287  11.341  0.00  0.00    -0.776 OA
ATOM     37  H   UNK d   0     -26.468  10.075  10.953  0.00  0.00     0.167 HD
ENDBRANCH  34  36
ENDBRANCH  33  34
ENDBRANCH   8  33
BRANCH  31  38
ATOM     38  C   UNK d   0     -29.030  15.937   7.537  0.00  0.00     0.151 C 
BRANCH  38  39
ATOM     39  C   UNK d   0     -29.308  15.271   6.282  0.00  0.00     0.143 C 
ATOM     40  O   UNK d   0     -29.046  15.789   5.182  0.00  0.00    -0.650 OA
BRANCH  39  41
ATOM     41  O   UNK d   0     -29.888  14.003   6.292  0.00  0.00    -0.776 OA
ATOM     42  H   UNK d   0     -29.249  13.203   6.310  0.00  0.00     0.167 HD
ENDBRANCH  39  41
ENDBRANCH  38  39
ENDBRANCH  31  38
BRANCH  27  43
ATOM     43  C   UNK d   0     -28.277  18.913   7.832  0.00  0.00     0.052 C 
BRANCH  43  44
ATOM     44  C   UNK d   0     -28.294  19.780   6.615  0.00  0.00     0.115 C 
BRANCH  44  45
ATOM     45  C   UNK d   0     -29.109  19.066   5.598  0.00  0.00     0.139 C 
ATOM     46  O   UNK d   0     -30.315  18.834   5.862  0.00  0.00    -0.650 OA
BRANCH  45  47
ATOM     47  O   UNK d   0     -28.600  18.658   4.384  0.00  0.00    -0.776 OA
ATOM     48  H   UNK d   0     -29.139  18.085   3.714  0.00  0.00     0.167 HD
ENDBRANCH  45  47
ENDBRANCH  44  45
ENDBRANCH  43  44
ENDBRANCH  27  43
BRANCH  24  49
ATOM     49  C   UNK d   0     -23.746  21.959   8.754  0.00  0.00     0.052 C 
BRANCH  49  50
ATOM     50  C   UNK d   0     -22.839  22.409   7.638  0.00  0.00     0.115 C 
BRANCH  50  51
ATOM     51  C   UNK d   0     -22.188  23.703   7.791  0.00  0.00     0.139 C 
ATOM     52  O   UNK d   0     -21.777  24.126   8.898  0.00  0.00    -0.650 OA
BRANCH  51  53
ATOM     53  O   UNK d   0     -22.007  24.517   6.683  0.00  0.00    -0.776 OA
ATOM     54  H   UNK d   0     -22.496  24.283   5.837  0.00  0.00     0.167 HD
ENDBRANCH  51  53
ENDBRANCH  50  51
ENDBRANCH  49  50
ENDBRANCH  24  49
BRANCH  21  55
ATOM     55  C   UNK d   0     -21.473  21.104  10.663  0.00  0.00     0.151 C 
BRANCH  55  56
ATOM     56  C   UNK d   0     -22.068  21.828  11.797  0.00  0.00     0.143 C 
ATOM     57  O   UNK d   0     -22.597  21.247  12.765  0.00  0.00    -0.650 OA
BRANCH  56  58
ATOM     58  O   UNK d   0     -22.030  23.221  11.770  0.00  0.00    -0.776 OA
ATOM     59  H   UNK d   0     -22.612  23.659  11.033  0.00  0.00     0.167 HD
ENDBRANCH  56  58
ENDBRANCH  55  56
ENDBRANCH  21  55
BRANCH  18  60
ATOM     60  C   UNK d   0     -19.207  16.239  10.738  0.00  0.00     0.151 C 
BRANCH  60  61
ATOM     61  C   UNK d   0     -18.917  16.409  12.170  0.00  0.00     0.143 C 
ATOM     62  O   UNK d   0     -19.599  16.017  13.117  0.00  0.00    -0.650 OA
BRANCH  61  63
ATOM     63  O   UNK d   0     -17.718  17.102  12.463  0.00  0.00    -0.776 OA
ATOM     64  H   UNK d   0     -17.725  17.939  13.019  0.00  0.00     0.167 HD
ENDBRANCH  61  63
ENDBRANCH  60  61
ENDBRANCH  18  60
BRANCH  14  65
ATOM     65  C   UNK d   0     -19.952  13.302  10.578  0.00  0.00     0.052 C 
BRANCH  65  66
ATOM     66  C   UNK d   0     -19.795  12.701  11.929  0.00  0.00     0.115 C 
BRANCH  66  67
ATOM     67  C   UNK d   0     -20.237  11.355  12.166  0.00  0.00     0.139 C 
ATOM     68  O   UNK d   0     -19.402  10.394  11.986  0.00  0.00    -0.650 OA
BRANCH  67  69
ATOM     69  O   UNK d   0     -21.500  10.932  12.580  0.00  0.00    -0.776 OA
ATOM     70  H   UNK d   0     -21.515  10.115  13.206  0.00  0.00     0.167 HD
ENDBRANCH  67  69
ENDBRANCH  66  67
ENDBRANCH  65  66
ENDBRANCH  14  65
ENDBRANCH   6   7
ENDBRANCH   5   6
ENDBRANCH   2   5
TORSDOF 28
ENDMDL
MODEL 14
REMARK VINA RESULT:      -9.1     29.741     32.805
REMARK  28 active torsions:
REMARK  status: ('A' for Active; 'I' for Inactive)
REMARK    1  A    between atoms: C_2  and  O_3 
REMARK    2  A    between atoms: C_2  and  C_4 
REMARK    3  A    between atoms: C_4  and  C_5 
REMARK    4  A    between atoms: C_5  and  C_6 
REMARK    5  A    between atoms: C_7  and  C_8 
REMARK    6  A    between atoms: C_8  and  C_9 
REMARK    7  A    between atoms: C_9  and  O_11 
REMARK    8  A    between atoms: C_28  and  C_29 
REMARK    9  A    between atoms: C_29  and  C_30 
REMARK   10  A    between atoms: C_30  and  O_32 
REMARK   11  A    between atoms: C_33  and  C_34 
REMARK   12  A    between atoms: C_34  and  C_35 
REMARK   13  A    between atoms: C_35  and  C_36 
REMARK   14  A    between atoms: C_36  and  O_38 
REMARK   15  A    between atoms: C_39  and  C_40 
REMARK   16  A    between atoms: C_40  and  C_41 
REMARK   17  A    between atoms: C_41  and  C_42 
REMARK   18  A    between atoms: C_42  and  O_44 
REMARK   19  A    between atoms: C_45  and  C_46 
REMARK   20  A    between atoms: C_46  and  C_47 
REMARK   21  A    between atoms: C_47  and  O_49 
REMARK   22  A    between atoms: C_50  and  C_51 
REMARK   23  A    between atoms: C_51  and  C_52 
REMARK   24  A    between atoms: C_52  and  O_54 
REMARK   25  A    between atoms: C_55  and  C_56 
REMARK   26  A    between atoms: C_56  and  C_57 
REMARK   27  A    between atoms: C_57  and  C_58 
REMARK   28  A    between atoms: C_58  and  O_60 
ROOT
ATOM      1  O   UNK d   0     -22.938  22.598  13.418  0.00  0.00    -0.650 OA
ATOM      2  C   UNK d   0     -23.028  21.353  13.496  0.00  0.00     0.139 C 
ENDROOT
BRANCH   2   3
ATOM      3  O   UNK d   0     -22.571  20.714  14.623  0.00  0.00    -0.776 OA
ATOM      4  H   UNK d   0     -23.130  19.992  15.083  0.00  0.00     0.167 HD
ENDBRANCH   2   3
BRANCH   2   5
ATOM      5  C   UNK d   0     -23.624  20.575  12.373  0.00  0.00     0.115 C 
BRANCH   5   6
ATOM      6  C   UNK d   0     -24.340  19.363  12.906  0.00  0.00     0.052 C 
BRANCH   6   7
ATOM      7  C   UNK d   0     -24.190  18.158  12.009  0.00  0.00    -0.020 A 
ATOM      8  C   UNK d   0     -23.187  17.320  11.960  0.00  0.00    -0.011 A 
ATOM      9  C   UNK d   0     -23.485  16.328  10.940  0.00  0.00     0.067 A 
ATOM     10  C   UNK d   0     -22.855  15.185  10.424  0.00  0.00     0.062 C 
ATOM     11  N   UNK d   0     -24.688  16.643  10.415  0.00  0.00    -0.248 NA
ATOM     12  C   UNK d   0     -23.429  14.188   9.627  0.00  0.00     0.041 A 
ATOM     13  N   UNK d   0     -24.269  14.267   8.578  0.00  0.00    -0.355 N 
ATOM     14  C   UNK d   0     -23.180  12.839   9.940  0.00  0.00    -0.022 A 
ATOM     15  C   UNK d   0     -24.566  13.002   8.222  0.00  0.00     0.042 A 
ATOM     16  H   UNK d   0     -24.629  15.197   8.086  0.00  0.00     0.166 HD
ATOM     17  C   UNK d   0     -25.393  12.514   7.191  0.00  0.00     0.062 C 
ATOM     18  C   UNK d   0     -23.902  12.080   9.054  0.00  0.00    -0.013 A 
ATOM     19  C   UNK d   0     -26.646  12.932   6.820  0.00  0.00     0.067 A 
ATOM     20  N   UNK d   0     -27.086  14.074   7.355  0.00  0.00    -0.248 NA
ATOM     21  C   UNK d   0     -27.701  12.430   5.956  0.00  0.00    -0.011 A 
ATOM     22  C   UNK d   0     -28.353  14.354   6.905  0.00  0.00     0.066 A 
ATOM     23  C   UNK d   0     -28.919  15.537   7.355  0.00  0.00     0.062 C 
ATOM     24  C   UNK d   0     -28.699  13.265   6.013  0.00  0.00    -0.020 A 
ATOM     25  C   UNK d   0     -28.321  16.532   8.145  0.00  0.00     0.041 A 
ATOM     26  N   UNK d   0     -27.498  16.454   9.198  0.00  0.00    -0.355 N 
ATOM     27  C   UNK d   0     -28.567  17.885   7.827  0.00  0.00    -0.022 A 
ATOM     28  C   UNK d   0     -27.207  17.713   9.560  0.00  0.00     0.042 A 
ATOM     29  H   UNK d   0     -27.145  15.518   9.697  0.00  0.00     0.166 HD
ATOM     30  C   UNK d   0     -26.393  18.213  10.588  0.00  0.00     0.062 C 
ATOM     31  C   UNK d   0     -27.866  18.639   8.717  0.00  0.00    -0.013 A 
ATOM     32  C   UNK d   0     -25.165  17.734  11.016  0.00  0.00     0.066 A 
BRANCH   8  33
ATOM     33  C   UNK d   0     -21.961  17.358  12.778  0.00  0.00     0.151 C 
BRANCH  33  34
ATOM     34  C   UNK d   0     -20.769  17.746  12.003  0.00  0.00     0.143 C 
ATOM     35  O   UNK d   0     -20.815  18.679  11.189  0.00  0.00    -0.650 OA
BRANCH  34  36
ATOM     36  O   UNK d   0     -19.591  17.059  12.187  0.00  0.00    -0.776 OA
ATOM     37  H   UNK d   0     -19.208  16.896  13.128  0.00  0.00     0.167 HD
ENDBRANCH  34  36
ENDBRANCH  33  34
ENDBRANCH   8  33
BRANCH  31  38
ATOM     38  C   UNK d   0     -27.812  20.149   8.758  0.00  0.00     0.151 C 
BRANCH  38  39
ATOM     39  C   UNK d   0     -26.792  20.698   7.891  0.00  0.00     0.143 C 
ATOM     40  O   UNK d   0     -25.644  20.223   7.829  0.00  0.00    -0.650 OA
BRANCH  39  41
ATOM     41  O   UNK d   0     -27.093  21.799   7.090  0.00  0.00    -0.776 OA
ATOM     42  H   UNK d   0     -27.728  21.637   6.302  0.00  0.00     0.167 HD
ENDBRANCH  39  41
ENDBRANCH  38  39
ENDBRANCH  31  38
BRANCH  27  43
ATOM     43  C   UNK d   0     -29.427  18.472   6.735  0.00  0.00     0.052 C 
BRANCH  43  44
ATOM     44  C   UNK d   0     -28.669  18.767   5.481  0.00  0.00     0.115 C 
BRANCH  44  45
ATOM     45  C   UNK d   0     -29.376  19.890   4.812  0.00  0.00     0.139 C 
ATOM     46  O   UNK d   0     -28.909  21.048   4.948  0.00  0.00    -0.650 OA
BRANCH  45  47
ATOM     47  O   UNK d   0     -30.511  19.710   4.051  0.00  0.00    -0.776 OA
ATOM     48  H   UNK d   0     -31.457  19.945   4.392  0.00  0.00     0.167 HD
ENDBRANCH  45  47
ENDBRANCH  44  45
ENDBRANCH  43  44
ENDBRANCH  27  43
BRANCH  24  49
ATOM     49  C   UNK d   0     -29.961  13.162   5.261  0.00  0.00     0.052 C 
BRANCH  49  50
ATOM     50  C   UNK d   0     -31.122  12.989   6.207  0.00  0.00     0.115 C 
BRANCH  50  51
ATOM     51  C   UNK d   0     -31.006  11.948   7.219  0.00  0.00     0.139 C 
ATOM     52  O   UNK d   0     -31.036  12.194   8.448  0.00  0.00    -0.650 OA
BRANCH  51  53
ATOM     53  O   UNK d   0     -30.852  10.627   6.830  0.00  0.00    -0.776 OA
ATOM     54  H   UNK d   0     -30.758   9.928   7.546  0.00  0.00     0.167 HD
ENDBRANCH  51  53
ENDBRANCH  50  51
ENDBRANCH  49  50
ENDBRANCH  24  49
BRANCH  21  55
ATOM     55  C   UNK d   0     -27.600  11.172   5.159  0.00  0.00     0.151 C 
BRANCH  55  56
ATOM     56  C   UNK d   0     -27.322  10.003   6.008  0.00  0.00     0.143 C 
ATOM     57  O   UNK d   0     -26.254   9.364   5.948  0.00  0.00    -0.650 OA
BRANCH  56  58
ATOM     58  O   UNK d   0     -28.308   9.608   6.911  0.00  0.00    -0.776 OA
ATOM     59  H   UNK d   0     -28.379   8.585   7.059  0.00  0.00     0.167 HD
ENDBRANCH  56  58
ENDBRANCH  55  56
ENDBRANCH  21  55
BRANCH  18  60
ATOM     60  C   UNK d   0     -23.934  10.572   9.034  0.00  0.00     0.151 C 
BRANCH  60  61
ATOM     61  C   UNK d   0     -25.072  10.181   9.880  0.00  0.00     0.143 C 
ATOM     62  O   UNK d   0     -25.146  10.258  11.107  0.00  0.00    -0.650 OA
BRANCH  61  63
ATOM     63  O   UNK d   0     -26.191   9.664   9.184  0.00  0.00    -0.776 OA
ATOM     64  H   UNK d   0     -26.086   8.934   8.502  0.00  0.00     0.167 HD
ENDBRANCH  61  63
ENDBRANCH  60  61
ENDBRANCH  18  60
BRANCH  14  65
ATOM     65  C   UNK d   0     -22.245  12.221  10.941  0.00  0.00     0.052 C 
BRANCH  65  66
ATOM     66  C   UNK d   0     -20.812  12.420  10.597  0.00  0.00     0.115 C 
BRANCH  66  67
ATOM     67  C   UNK d   0     -19.950  13.112  11.513  0.00  0.00     0.139 C 
ATOM     68  O   UNK d   0     -18.695  12.833  11.505  0.00  0.00    -0.650 OA
BRANCH  67  69
ATOM     69  O   UNK d   0     -20.303  14.085  12.448  0.00  0.00    -0.776 OA
ATOM     70  H   UNK d   0     -20.452  13.748  13.410  0.00  0.00     0.167 HD
ENDBRANCH  67  69
ENDBRANCH  66  67
ENDBRANCH  65  66
ENDBRANCH  14  65
ENDBRANCH   6   7
ENDBRANCH   5   6
ENDBRANCH   2   5
TORSDOF 28
ENDMDL
MODEL 15
REMARK VINA RESULT:      -9.0     29.035     32.969
REMARK  28 active torsions:
REMARK  status: ('A' for Active; 'I' for Inactive)
REMARK    1  A    between atoms: C_2  and  O_3 
REMARK    2  A    between atoms: C_2  and  C_4 
REMARK    3  A    between atoms: C_4  and  C_5 
REMARK    4  A    between atoms: C_5  and  C_6 
REMARK    5  A    between atoms: C_7  and  C_8 
REMARK    6  A    between atoms: C_8  and  C_9 
REMARK    7  A    between atoms: C_9  and  O_11 
REMARK    8  A    between atoms: C_28  and  C_29 
REMARK    9  A    between atoms: C_29  and  C_30 
REMARK   10  A    between atoms: C_30  and  O_32 
REMARK   11  A    between atoms: C_33  and  C_34 
REMARK   12  A    between atoms: C_34  and  C_35 
REMARK   13  A    between atoms: C_35  and  C_36 
REMARK   14  A    between atoms: C_36  and  O_38 
REMARK   15  A    between atoms: C_39  and  C_40 
REMARK   16  A    between atoms: C_40  and  C_41 
REMARK   17  A    between atoms: C_41  and  C_42 
REMARK   18  A    between atoms: C_42  and  O_44 
REMARK   19  A    between atoms: C_45  and  C_46 
REMARK   20  A    between atoms: C_46  and  C_47 
REMARK   21  A    between atoms: C_47  and  O_49 
REMARK   22  A    between atoms: C_50  and  C_51 
REMARK   23  A    between atoms: C_51  and  C_52 
REMARK   24  A    between atoms: C_52  and  O_54 
REMARK   25  A    between atoms: C_55  and  C_56 
REMARK   26  A    between atoms: C_56  and  C_57 
REMARK   27  A    between atoms: C_57  and  C_58 
REMARK   28  A    between atoms: C_58  and  O_60 
ROOT
ATOM      1  O   UNK d   0     -30.456  10.257   6.738  0.00  0.00    -0.650 OA
ATOM      2  C   UNK d   0     -30.070  11.425   6.964  0.00  0.00     0.139 C 
ENDROOT
BRANCH   2   3
ATOM      3  O   UNK d   0     -30.179  11.937   8.235  0.00  0.00    -0.776 OA
ATOM      4  H   UNK d   0     -29.366  11.995   8.852  0.00  0.00     0.167 HD
ENDBRANCH   2   3
BRANCH   2   5
ATOM      5  C   UNK d   0     -29.498  12.250   5.863  0.00  0.00     0.115 C 
BRANCH   5   6
ATOM      6  C   UNK d   0     -28.114  11.770   5.521  0.00  0.00     0.052 C 
BRANCH   6   7
ATOM      7  C   UNK d   0     -27.113  12.055   6.616  0.00  0.00    -0.020 A 
ATOM      8  C   UNK d   0     -26.488  11.189   7.371  0.00  0.00    -0.011 A 
ATOM      9  C   UNK d   0     -25.634  11.930   8.285  0.00  0.00     0.067 A 
ATOM     10  C   UNK d   0     -24.720  11.610   9.300  0.00  0.00     0.062 C 
ATOM     11  N   UNK d   0     -25.807  13.242   8.020  0.00  0.00    -0.248 NA
ATOM     12  C   UNK d   0     -23.776  12.459   9.889  0.00  0.00     0.041 A 
ATOM     13  N   UNK d   0     -23.868  13.738  10.299  0.00  0.00    -0.355 N 
ATOM     14  C   UNK d   0     -22.462  11.992  10.072  0.00  0.00    -0.022 A 
ATOM     15  C   UNK d   0     -22.644  14.098  10.730  0.00  0.00     0.042 A 
ATOM     16  H   UNK d   0     -24.785  14.368  10.301  0.00  0.00     0.166 HD
ATOM     17  C   UNK d   0     -22.185  15.319  11.261  0.00  0.00     0.062 C 
ATOM     18  C   UNK d   0     -21.736  13.029  10.603  0.00  0.00    -0.013 A 
ATOM     19  C   UNK d   0     -22.425  16.596  10.820  0.00  0.00     0.067 A 
ATOM     20  N   UNK d   0     -23.368  16.746   9.887  0.00  0.00    -0.248 NA
ATOM     21  C   UNK d   0     -21.885  17.916  11.099  0.00  0.00    -0.011 A 
ATOM     22  C   UNK d   0     -23.484  18.069   9.535  0.00  0.00     0.066 A 
ATOM     23  C   UNK d   0     -24.460  18.374   8.597  0.00  0.00     0.062 C 
ATOM     24  C   UNK d   0     -22.507  18.773  10.341  0.00  0.00    -0.020 A 
ATOM     25  C   UNK d   0     -25.406  17.508   8.028  0.00  0.00     0.041 A 
ATOM     26  N   UNK d   0     -25.311  16.242   7.607  0.00  0.00    -0.355 N 
ATOM     27  C   UNK d   0     -26.727  17.976   7.848  0.00  0.00    -0.022 A 
ATOM     28  C   UNK d   0     -26.528  15.884   7.168  0.00  0.00     0.042 A 
ATOM     29  H   UNK d   0     -24.387  15.613   7.595  0.00  0.00     0.166 HD
ATOM     30  C   UNK d   0     -26.997  14.675   6.629  0.00  0.00     0.062 C 
ATOM     31  C   UNK d   0     -27.443  16.954   7.306  0.00  0.00    -0.013 A 
ATOM     32  C   UNK d   0     -26.684  13.384   7.025  0.00  0.00     0.066 A 
BRANCH   8  33
ATOM     33  C   UNK d   0     -26.615   9.721   7.325  0.00  0.00     0.151 C 
BRANCH  33  34
ATOM     34  C   UNK d   0     -27.611   9.204   8.282  0.00  0.00     0.143 C 
ATOM     35  O   UNK d   0     -28.118   9.946   9.135  0.00  0.00    -0.650 OA
BRANCH  34  36
ATOM     36  O   UNK d   0     -27.978   7.879   8.225  0.00  0.00    -0.776 OA
ATOM     37  H   UNK d   0     -28.696   7.497   8.855  0.00  0.00     0.167 HD
ENDBRANCH  34  36
ENDBRANCH  33  34
ENDBRANCH   8  33
BRANCH  31  38
ATOM     38  C   UNK d   0     -28.911  16.986   6.951  0.00  0.00     0.151 C 
BRANCH  38  39
ATOM     39  C   UNK d   0     -29.157  17.503   5.621  0.00  0.00     0.143 C 
ATOM     40  O   UNK d   0     -29.034  16.803   4.601  0.00  0.00    -0.650 OA
BRANCH  39  41
ATOM     41  O   UNK d   0     -29.546  18.833   5.464  0.00  0.00    -0.776 OA
ATOM     42  H   UNK d   0     -29.442  19.444   6.280  0.00  0.00     0.167 HD
ENDBRANCH  39  41
ENDBRANCH  38  39
ENDBRANCH  31  38
BRANCH  27  43
ATOM     43  C   UNK d   0     -27.316  19.328   8.165  0.00  0.00     0.052 C 
BRANCH  43  44
ATOM     44  C   UNK d   0     -28.540  19.254   9.018  0.00  0.00     0.115 C 
BRANCH  44  45
ATOM     45  C   UNK d   0     -28.225  19.977  10.277  0.00  0.00     0.139 C 
ATOM     46  O   UNK d   0     -27.196  19.638  10.912  0.00  0.00    -0.650 OA
BRANCH  45  47
ATOM     47  O   UNK d   0     -29.008  20.999  10.768  0.00  0.00    -0.776 OA
ATOM     48  H   UNK d   0     -29.758  21.446  10.215  0.00  0.00     0.167 HD
ENDBRANCH  45  47
ENDBRANCH  44  45
ENDBRANCH  43  44
ENDBRANCH  27  43
BRANCH  24  49
ATOM     49  C   UNK d   0     -22.299  20.231  10.328  0.00  0.00     0.052 C 
BRANCH  49  50
ATOM     50  C   UNK d   0     -23.081  20.882  11.441  0.00  0.00     0.115 C 
BRANCH  50  51
ATOM     51  C   UNK d   0     -22.343  21.742  12.357  0.00  0.00     0.139 C 
ATOM     52  O   UNK d   0     -21.375  22.448  11.989  0.00  0.00    -0.650 OA
BRANCH  51  53
ATOM     53  O   UNK d   0     -22.708  21.794  13.693  0.00  0.00    -0.776 OA
ATOM     54  H   UNK d   0     -22.035  22.138  14.356  0.00  0.00     0.167 HD
ENDBRANCH  51  53
ENDBRANCH  50  51
ENDBRANCH  49  50
ENDBRANCH  24  49
BRANCH  21  55
ATOM     55  C   UNK d   0     -20.808  18.184  12.098  0.00  0.00     0.151 C 
BRANCH  55  56
ATOM     56  C   UNK d   0     -19.565  17.469  11.772  0.00  0.00     0.143 C 
ATOM     57  O   UNK d   0     -18.940  16.787  12.608  0.00  0.00    -0.650 OA
BRANCH  56  58
ATOM     58  O   UNK d   0     -19.079  17.571  10.470  0.00  0.00    -0.776 OA
ATOM     59  H   UNK d   0     -18.595  16.726  10.117  0.00  0.00     0.167 HD
ENDBRANCH  56  58
ENDBRANCH  55  56
ENDBRANCH  21  55
BRANCH  18  60
ATOM     60  C   UNK d   0     -20.269  12.968  10.951  0.00  0.00     0.151 C 
BRANCH  60  61
ATOM     61  C   UNK d   0     -19.566  13.659   9.859  0.00  0.00     0.143 C 
ATOM     62  O   UNK d   0     -18.764  14.587   9.963  0.00  0.00    -0.650 OA
BRANCH  61  63
ATOM     63  O   UNK d   0     -19.860  13.185   8.558  0.00  0.00    -0.776 OA
ATOM     64  H   UNK d   0     -20.766  13.328   8.147  0.00  0.00     0.167 HD
ENDBRANCH  61  63
ENDBRANCH  60  61
ENDBRANCH  18  60
BRANCH  14  65
ATOM     65  C   UNK d   0     -21.870  10.625   9.877  0.00  0.00     0.052 C 
BRANCH  65  66
ATOM     66  C   UNK d   0     -22.173   9.695  10.998  0.00  0.00     0.115 C 
BRANCH  66  67
ATOM     67  C   UNK d   0     -22.384  10.217  12.319  0.00  0.00     0.139 C 
ATOM     68  O   UNK d   0     -23.592  10.366  12.734  0.00  0.00    -0.650 OA
BRANCH  67  69
ATOM     69  O   UNK d   0     -21.419  10.601  13.249  0.00  0.00    -0.776 OA
ATOM     70  H   UNK d   0     -21.141  11.593  13.223  0.00  0.00     0.167 HD
ENDBRANCH  67  69
ENDBRANCH  66  67
ENDBRANCH  65  66
ENDBRANCH  14  65
ENDBRANCH   6   7
ENDBRANCH   5   6
ENDBRANCH   2   5
TORSDOF 28
ENDMDL
MODEL 16
REMARK VINA RESULT:      -9.0     29.306     31.850
REMARK  28 active torsions:
REMARK  status: ('A' for Active; 'I' for Inactive)
REMARK    1  A    between atoms: C_2  and  O_3 
REMARK    2  A    between atoms: C_2  and  C_4 
REMARK    3  A    between atoms: C_4  and  C_5 
REMARK    4  A    between atoms: C_5  and  C_6 
REMARK    5  A    between atoms: C_7  and  C_8 
REMARK    6  A    between atoms: C_8  and  C_9 
REMARK    7  A    between atoms: C_9  and  O_11 
REMARK    8  A    between atoms: C_28  and  C_29 
REMARK    9  A    between atoms: C_29  and  C_30 
REMARK   10  A    between atoms: C_30  and  O_32 
REMARK   11  A    between atoms: C_33  and  C_34 
REMARK   12  A    between atoms: C_34  and  C_35 
REMARK   13  A    between atoms: C_35  and  C_36 
REMARK   14  A    between atoms: C_36  and  O_38 
REMARK   15  A    between atoms: C_39  and  C_40 
REMARK   16  A    between atoms: C_40  and  C_41 
REMARK   17  A    between atoms: C_41  and  C_42 
REMARK   18  A    between atoms: C_42  and  O_44 
REMARK   19  A    between atoms: C_45  and  C_46 
REMARK   20  A    between atoms: C_46  and  C_47 
REMARK   21  A    between atoms: C_47  and  O_49 
REMARK   22  A    between atoms: C_50  and  C_51 
REMARK   23  A    between atoms: C_51  and  C_52 
REMARK   24  A    between atoms: C_52  and  O_54 
REMARK   25  A    between atoms: C_55  and  C_56 
REMARK   26  A    between atoms: C_56  and  C_57 
REMARK   27  A    between atoms: C_57  and  C_58 
REMARK   28  A    between atoms: C_58  and  O_60 
ROOT
ATOM      1  O   UNK d   0     -22.659  21.191  12.459  0.00  0.00    -0.650 OA
ATOM      2  C   UNK d   0     -22.985  20.370  13.345  0.00  0.00     0.139 C 
ENDROOT
BRANCH   2   3
ATOM      3  O   UNK d   0     -23.274  20.824  14.609  0.00  0.00    -0.776 OA
ATOM      4  H   UNK d   0     -22.948  21.739  14.929  0.00  0.00     0.167 HD
ENDBRANCH   2   3
BRANCH   2   5
ATOM      5  C   UNK d   0     -23.057  18.916  13.029  0.00  0.00     0.115 C 
BRANCH   5   6
ATOM      6  C   UNK d   0     -21.879  18.511  12.184  0.00  0.00     0.052 C 
BRANCH   6   7
ATOM      7  C   UNK d   0     -22.016  17.113  11.629  0.00  0.00    -0.020 A 
ATOM      8  C   UNK d   0     -21.221  16.093  11.830  0.00  0.00    -0.011 A 
ATOM      9  C   UNK d   0     -21.750  14.963  11.086  0.00  0.00     0.067 A 
ATOM     10  C   UNK d   0     -21.397  13.617  10.901  0.00  0.00     0.062 C 
ATOM     11  N   UNK d   0     -22.866  15.386  10.455  0.00  0.00    -0.248 NA
ATOM     12  C   UNK d   0     -22.191  12.598  10.363  0.00  0.00     0.041 A 
ATOM     13  N   UNK d   0     -23.015  12.586   9.299  0.00  0.00    -0.355 N 
ATOM     14  C   UNK d   0     -22.237  11.354  11.018  0.00  0.00    -0.022 A 
ATOM     15  C   UNK d   0     -23.589  11.368   9.266  0.00  0.00     0.042 A 
ATOM     16  H   UNK d   0     -23.174  13.414   8.574  0.00  0.00     0.166 HD
ATOM     17  C   UNK d   0     -24.525  10.823   8.364  0.00  0.00     0.062 C 
ATOM     18  C   UNK d   0     -23.126  10.568  10.328  0.00  0.00    -0.013 A 
ATOM     19  C   UNK d   0     -25.664  11.393   7.854  0.00  0.00     0.067 A 
ATOM     20  N   UNK d   0     -25.832  12.701   8.065  0.00  0.00    -0.248 NA
ATOM     21  C   UNK d   0     -26.821  10.928   7.108  0.00  0.00    -0.011 A 
ATOM     22  C   UNK d   0     -27.016  13.125   7.513  0.00  0.00     0.066 A 
ATOM     23  C   UNK d   0     -27.301  14.477   7.627  0.00  0.00     0.062 C 
ATOM     24  C   UNK d   0     -27.611  11.945   6.916  0.00  0.00    -0.020 A 
ATOM     25  C   UNK d   0     -26.483  15.487   8.159  0.00  0.00     0.041 A 
ATOM     26  N   UNK d   0     -25.675  15.504   9.226  0.00  0.00    -0.355 N 
ATOM     27  C   UNK d   0     -26.435  16.734   7.499  0.00  0.00    -0.022 A 
ATOM     28  C   UNK d   0     -25.109  16.721   9.267  0.00  0.00     0.042 A 
ATOM     29  H   UNK d   0     -25.525  14.674   9.960  0.00  0.00     0.166 HD
ATOM     30  C   UNK d   0     -24.183  17.278  10.163  0.00  0.00     0.062 C 
ATOM     31  C   UNK d   0     -25.567  17.520   8.193  0.00  0.00    -0.013 A 
ATOM     32  C   UNK d   0     -23.081  16.670  10.742  0.00  0.00     0.066 A 
BRANCH   8  33
ATOM     33  C   UNK d   0     -19.999  16.073  12.656  0.00  0.00     0.151 C 
BRANCH  33  34
ATOM     34  C   UNK d   0     -18.834  16.655  11.966  0.00  0.00     0.143 C 
ATOM     35  O   UNK d   0     -17.914  17.183  12.605  0.00  0.00    -0.650 OA
BRANCH  34  36
ATOM     36  O   UNK d   0     -18.772  16.612  10.592  0.00  0.00    -0.776 OA
ATOM     37  H   UNK d   0     -18.566  15.736  10.094  0.00  0.00     0.167 HD
ENDBRANCH  34  36
ENDBRANCH  33  34
ENDBRANCH   8  33
BRANCH  31  38
ATOM     38  C   UNK d   0     -25.184  18.941   7.851  0.00  0.00     0.151 C 
BRANCH  38  39
ATOM     39  C   UNK d   0     -26.138  19.913   8.340  0.00  0.00     0.143 C 
ATOM     40  O   UNK d   0     -26.473  19.975   9.536  0.00  0.00    -0.650 OA
BRANCH  39  41
ATOM     41  O   UNK d   0     -26.711  20.820   7.449  0.00  0.00    -0.776 OA
ATOM     42  H   UNK d   0     -26.599  21.815   7.667  0.00  0.00     0.167 HD
ENDBRANCH  39  41
ENDBRANCH  38  39
ENDBRANCH  31  38
BRANCH  27  43
ATOM     43  C   UNK d   0     -27.168  17.194   6.264  0.00  0.00     0.052 C 
BRANCH  43  44
ATOM     44  C   UNK d   0     -28.520  17.759   6.556  0.00  0.00     0.115 C 
BRANCH  44  45
ATOM     45  C   UNK d   0     -28.866  18.643   5.413  0.00  0.00     0.139 C 
ATOM     46  O   UNK d   0     -29.532  18.154   4.466  0.00  0.00    -0.650 OA
BRANCH  45  47
ATOM     47  O   UNK d   0     -28.493  19.969   5.353  0.00  0.00    -0.776 OA
ATOM     48  H   UNK d   0     -27.509  20.270   5.256  0.00  0.00     0.167 HD
ENDBRANCH  45  47
ENDBRANCH  44  45
ENDBRANCH  43  44
ENDBRANCH  27  43
BRANCH  24  49
ATOM     49  C   UNK d   0     -28.881  11.929   6.170  0.00  0.00     0.052 C 
BRANCH  49  50
ATOM     50  C   UNK d   0     -29.973  11.316   7.008  0.00  0.00     0.115 C 
BRANCH  50  51
ATOM     51  C   UNK d   0     -30.969  12.220   7.568  0.00  0.00     0.139 C 
ATOM     52  O   UNK d   0     -31.045  12.466   8.795  0.00  0.00    -0.650 OA
BRANCH  51  53
ATOM     53  O   UNK d   0     -31.880  12.842   6.729  0.00  0.00    -0.776 OA
ATOM     54  H   UNK d   0     -31.533  13.509   6.061  0.00  0.00     0.167 HD
ENDBRANCH  51  53
ENDBRANCH  50  51
ENDBRANCH  49  50
ENDBRANCH  24  49
BRANCH  21  55
ATOM     55  C   UNK d   0     -27.015   9.517   6.662  0.00  0.00     0.151 C 
BRANCH  55  56
ATOM     56  C   UNK d   0     -27.483   8.652   7.756  0.00  0.00     0.143 C 
ATOM     57  O   UNK d   0     -28.090   9.092   8.752  0.00  0.00    -0.650 OA
BRANCH  56  58
ATOM     58  O   UNK d   0     -27.228   7.285   7.657  0.00  0.00    -0.776 OA
ATOM     59  H   UNK d   0     -28.058   6.701   7.446  0.00  0.00     0.167 HD
ENDBRANCH  56  58
ENDBRANCH  55  56
ENDBRANCH  21  55
BRANCH  18  60
ATOM     60  C   UNK d   0     -23.487   9.149  10.691  0.00  0.00     0.151 C 
BRANCH  60  61
ATOM     61  C   UNK d   0     -22.639   8.289   9.852  0.00  0.00     0.143 C 
ATOM     62  O   UNK d   0     -21.705   8.643   9.132  0.00  0.00    -0.650 OA
BRANCH  61  63
ATOM     63  O   UNK d   0     -22.951   6.909   9.895  0.00  0.00    -0.776 OA
ATOM     64  H   UNK d   0     -23.769   6.547   9.437  0.00  0.00     0.167 HD
ENDBRANCH  61  63
ENDBRANCH  60  61
ENDBRANCH  18  60
BRANCH  14  65
ATOM     65  C   UNK d   0     -21.438  10.825  12.175  0.00  0.00     0.052 C 
BRANCH  65  66
ATOM     66  C   UNK d   0     -20.153  10.202  11.759  0.00  0.00     0.115 C 
BRANCH  66  67
ATOM     67  C   UNK d   0     -19.065  10.123  12.693  0.00  0.00     0.139 C 
ATOM     68  O   UNK d   0     -19.334   9.888  13.929  0.00  0.00    -0.650 OA
BRANCH  67  69
ATOM     69  O   UNK d   0     -17.704  10.272  12.432  0.00  0.00    -0.776 OA
ATOM     70  H   UNK d   0     -17.066   9.847  13.121  0.00  0.00     0.167 HD
ENDBRANCH  67  69
ENDBRANCH  66  67
ENDBRANCH  65  66
ENDBRANCH  14  65
ENDBRANCH   6   7
ENDBRANCH   5   6
ENDBRANCH   2   5
TORSDOF 28
ENDMDL
MODEL 17
REMARK VINA RESULT:      -9.0     29.484     33.398
REMARK  28 active torsions:
REMARK  status: ('A' for Active; 'I' for Inactive)
REMARK    1  A    between atoms: C_2  and  O_3 
REMARK    2  A    between atoms: C_2  and  C_4 
REMARK    3  A    between atoms: C_4  and  C_5 
REMARK    4  A    between atoms: C_5  and  C_6 
REMARK    5  A    between atoms: C_7  and  C_8 
REMARK    6  A    between atoms: C_8  and  C_9 
REMARK    7  A    between atoms: C_9  and  O_11 
REMARK    8  A    between atoms: C_28  and  C_29 
REMARK    9  A    between atoms: C_29  and  C_30 
REMARK   10  A    between atoms: C_30  and  O_32 
REMARK   11  A    between atoms: C_33  and  C_34 
REMARK   12  A    between atoms: C_34  and  C_35 
REMARK   13  A    between atoms: C_35  and  C_36 
REMARK   14  A    between atoms: C_36  and  O_38 
REMARK   15  A    between atoms: C_39  and  C_40 
REMARK   16  A    between atoms: C_40  and  C_41 
REMARK   17  A    between atoms: C_41  and  C_42 
REMARK   18  A    between atoms: C_42  and  O_44 
REMARK   19  A    between atoms: C_45  and  C_46 
REMARK   20  A    between atoms: C_46  and  C_47 
REMARK   21  A    between atoms: C_47  and  O_49 
REMARK   22  A    between atoms: C_50  and  C_51 
REMARK   23  A    between atoms: C_51  and  C_52 
REMARK   24  A    between atoms: C_52  and  O_54 
REMARK   25  A    between atoms: C_55  and  C_56 
REMARK   26  A    between atoms: C_56  and  C_57 
REMARK   27  A    between atoms: C_57  and  C_58 
REMARK   28  A    between atoms: C_58  and  O_60 
ROOT
ATOM      1  O   UNK d   0     -22.240   9.498   9.342  0.00  0.00    -0.650 OA
ATOM      2  C   UNK d   0     -23.284   8.813   9.263  0.00  0.00     0.139 C 
ENDROOT
BRANCH   2   3
ATOM      3  O   UNK d   0     -23.388   7.658  10.001  0.00  0.00    -0.776 OA
ATOM      4  H   UNK d   0     -24.182   7.502  10.626  0.00  0.00     0.167 HD
ENDBRANCH   2   3
BRANCH   2   5
ATOM      5  C   UNK d   0     -24.400   9.248   8.377  0.00  0.00     0.115 C 
BRANCH   5   6
ATOM      6  C   UNK d   0     -25.462   9.944   9.185  0.00  0.00     0.052 C 
BRANCH   6   7
ATOM      7  C   UNK d   0     -25.635  11.392   8.791  0.00  0.00    -0.020 A 
ATOM      8  C   UNK d   0     -26.542  11.900   7.997  0.00  0.00    -0.011 A 
ATOM      9  C   UNK d   0     -26.307  13.332   7.912  0.00  0.00     0.067 A 
ATOM     10  C   UNK d   0     -26.914  14.421   7.267  0.00  0.00     0.062 C 
ATOM     11  N   UNK d   0     -25.234  13.608   8.682  0.00  0.00    -0.248 NA
ATOM     12  C   UNK d   0     -26.711  15.780   7.528  0.00  0.00     0.041 A 
ATOM     13  N   UNK d   0     -25.585  16.479   7.767  0.00  0.00    -0.355 N 
ATOM     14  C   UNK d   0     -27.829  16.629   7.628  0.00  0.00    -0.022 A 
ATOM     15  C   UNK d   0     -25.960  17.746   8.024  0.00  0.00     0.042 A 
ATOM     16  H   UNK d   0     -24.544  16.088   7.735  0.00  0.00     0.166 HD
ATOM     17  C   UNK d   0     -25.186  18.882   8.334  0.00  0.00     0.062 C 
ATOM     18  C   UNK d   0     -27.359  17.879   7.947  0.00  0.00    -0.013 A 
ATOM     19  C   UNK d   0     -24.134  18.998   9.206  0.00  0.00     0.067 A 
ATOM     20  N   UNK d   0     -23.625  17.863   9.693  0.00  0.00    -0.248 NA
ATOM     21  C   UNK d   0     -23.379  20.092   9.794  0.00  0.00    -0.011 A 
ATOM     22  C   UNK d   0     -22.594  18.136  10.559  0.00  0.00     0.066 A 
ATOM     23  C   UNK d   0     -21.948  17.041  11.112  0.00  0.00     0.062 C 
ATOM     24  C   UNK d   0     -22.483  19.581  10.588  0.00  0.00    -0.020 A 
ATOM     25  C   UNK d   0     -22.158  15.683  10.827  0.00  0.00     0.041 A 
ATOM     26  N   UNK d   0     -23.279  14.986  10.604  0.00  0.00    -0.355 N 
ATOM     27  C   UNK d   0     -21.035  14.833  10.722  0.00  0.00    -0.022 A 
ATOM     28  C   UNK d   0     -22.908  13.720  10.356  0.00  0.00     0.042 A 
ATOM     29  H   UNK d   0     -24.325  15.378  10.647  0.00  0.00     0.166 HD
ATOM     30  C   UNK d   0     -23.667  12.578  10.056  0.00  0.00     0.062 C 
ATOM     31  C   UNK d   0     -21.501  13.589  10.424  0.00  0.00    -0.013 A 
ATOM     32  C   UNK d   0     -24.783  12.484   9.240  0.00  0.00     0.066 A 
BRANCH   8  33
ATOM     33  C   UNK d   0     -27.615  11.170   7.297  0.00  0.00     0.151 C 
BRANCH  33  34
ATOM     34  C   UNK d   0     -28.525  10.470   8.221  0.00  0.00     0.143 C 
ATOM     35  O   UNK d   0     -29.307  11.103   8.945  0.00  0.00    -0.650 OA
BRANCH  34  36
ATOM     36  O   UNK d   0     -28.503   9.096   8.280  0.00  0.00    -0.776 OA
ATOM     37  H   UNK d   0     -27.927   8.600   8.974  0.00  0.00     0.167 HD
ENDBRANCH  34  36
ENDBRANCH  33  34
ENDBRANCH   8  33
BRANCH  31  38
ATOM     38  C   UNK d   0     -20.661  12.353  10.202  0.00  0.00     0.151 C 
BRANCH  38  39
ATOM     39  C   UNK d   0     -20.346  11.660  11.433  0.00  0.00     0.143 C 
ATOM     40  O   UNK d   0     -21.066  11.739  12.444  0.00  0.00    -0.650 OA
BRANCH  39  41
ATOM     41  O   UNK d   0     -19.199  10.871  11.502  0.00  0.00    -0.776 OA
ATOM     42  H   UNK d   0     -19.081  10.162  10.771  0.00  0.00     0.167 HD
ENDBRANCH  39  41
ENDBRANCH  38  39
ENDBRANCH  31  38
BRANCH  27  43
ATOM     43  C   UNK d   0     -19.572  15.154  10.893  0.00  0.00     0.052 C 
BRANCH  43  44
ATOM     44  C   UNK d   0     -19.243  15.716  12.238  0.00  0.00     0.115 C 
BRANCH  44  45
ATOM     45  C   UNK d   0     -18.400  16.916  12.002  0.00  0.00     0.139 C 
ATOM     46  O   UNK d   0     -17.721  17.360  12.961  0.00  0.00    -0.650 OA
BRANCH  45  47
ATOM     47  O   UNK d   0     -18.330  17.552  10.782  0.00  0.00    -0.776 OA
ATOM     48  H   UNK d   0     -18.348  18.581  10.684  0.00  0.00     0.167 HD
ENDBRANCH  45  47
ENDBRANCH  44  45
ENDBRANCH  43  44
ENDBRANCH  27  43
BRANCH  24  49
ATOM     49  C   UNK d   0     -21.477  20.332  11.358  0.00  0.00     0.052 C 
BRANCH  49  50
ATOM     50  C   UNK d   0     -21.745  20.203  12.836  0.00  0.00     0.115 C 
BRANCH  50  51
ATOM     51  C   UNK d   0     -22.584  21.223  13.450  0.00  0.00     0.139 C 
ATOM     52  O   UNK d   0     -22.659  22.394  13.009  0.00  0.00    -0.650 OA
BRANCH  51  53
ATOM     53  O   UNK d   0     -23.337  20.908  14.571  0.00  0.00    -0.776 OA
ATOM     54  H   UNK d   0     -23.803  20.018  14.596  0.00  0.00     0.167 HD
ENDBRANCH  51  53
ENDBRANCH  50  51
ENDBRANCH  49  50
ENDBRANCH  24  49
BRANCH  21  55
ATOM     55  C   UNK d   0     -23.630  21.533   9.497  0.00  0.00     0.151 C 
BRANCH  55  56
ATOM     56  C   UNK d   0     -22.994  21.957   8.240  0.00  0.00     0.143 C 
ATOM     57  O   UNK d   0     -23.647  22.329   7.246  0.00  0.00    -0.650 OA
BRANCH  56  58
ATOM     58  O   UNK d   0     -21.602  21.934   8.178  0.00  0.00    -0.776 OA
ATOM     59  H   UNK d   0     -21.158  22.854   8.000  0.00  0.00     0.167 HD
ENDBRANCH  56  58
ENDBRANCH  55  56
ENDBRANCH  21  55
BRANCH  18  60
ATOM     60  C   UNK d   0     -28.222  19.098   8.159  0.00  0.00     0.151 C 
BRANCH  60  61
ATOM     61  C   UNK d   0     -28.297  19.291   9.616  0.00  0.00     0.143 C 
ATOM     62  O   UNK d   0     -28.175  18.428  10.486  0.00  0.00    -0.650 OA
BRANCH  61  63
ATOM     63  O   UNK d   0     -28.534  20.622  10.035  0.00  0.00    -0.776 OA
ATOM     64  H   UNK d   0     -29.320  20.850  10.617  0.00  0.00     0.167 HD
ENDBRANCH  61  63
ENDBRANCH  60  61
ENDBRANCH  18  60
BRANCH  14  65
ATOM     65  C   UNK d   0     -29.283  16.371   7.352  0.00  0.00     0.052 C 
BRANCH  65  66
ATOM     66  C   UNK d   0     -29.656  16.605   5.931  0.00  0.00     0.115 C 
BRANCH  66  67
ATOM     67  C   UNK d   0     -30.676  17.563   5.611  0.00  0.00     0.139 C 
ATOM     68  O   UNK d   0     -31.884  17.147   5.464  0.00  0.00    -0.650 OA
BRANCH  67  69
ATOM     69  O   UNK d   0     -30.529  18.938   5.430  0.00  0.00    -0.776 OA
ATOM     70  H   UNK d   0     -31.013  19.336   4.613  0.00  0.00     0.167 HD
ENDBRANCH  67  69
ENDBRANCH  66  67
ENDBRANCH  65  66
ENDBRANCH  14  65
ENDBRANCH   6   7
ENDBRANCH   5   6
ENDBRANCH   2   5
TORSDOF 28
ENDMDL
MODEL 18
REMARK VINA RESULT:      -8.9      1.647      7.563
REMARK  28 active torsions:
REMARK  status: ('A' for Active; 'I' for Inactive)
REMARK    1  A    between atoms: C_2  and  O_3 
REMARK    2  A    between atoms: C_2  and  C_4 
REMARK    3  A    between atoms: C_4  and  C_5 
REMARK    4  A    between atoms: C_5  and  C_6 
REMARK    5  A    between atoms: C_7  and  C_8 
REMARK    6  A    between atoms: C_8  and  C_9 
REMARK    7  A    between atoms: C_9  and  O_11 
REMARK    8  A    between atoms: C_28  and  C_29 
REMARK    9  A    between atoms: C_29  and  C_30 
REMARK   10  A    between atoms: C_30  and  O_32 
REMARK   11  A    between atoms: C_33  and  C_34 
REMARK   12  A    between atoms: C_34  and  C_35 
REMARK   13  A    between atoms: C_35  and  C_36 
REMARK   14  A    between atoms: C_36  and  O_38 
REMARK   15  A    between atoms: C_39  and  C_40 
REMARK   16  A    between atoms: C_40  and  C_41 
REMARK   17  A    between atoms: C_41  and  C_42 
REMARK   18  A    between atoms: C_42  and  O_44 
REMARK   19  A    between atoms: C_45  and  C_46 
REMARK   20  A    between atoms: C_46  and  C_47 
REMARK   21  A    between atoms: C_47  and  O_49 
REMARK   22  A    between atoms: C_50  and  C_51 
REMARK   23  A    between atoms: C_51  and  C_52 
REMARK   24  A    between atoms: C_52  and  O_54 
REMARK   25  A    between atoms: C_55  and  C_56 
REMARK   26  A    between atoms: C_56  and  C_57 
REMARK   27  A    between atoms: C_57  and  C_58 
REMARK   28  A    between atoms: C_58  and  O_60 
ROOT
ATOM      1  O   UNK d   0      -3.864  -3.990 -11.296  0.00  0.00    -0.650 OA
ATOM      2  C   UNK d   0      -4.652  -3.038 -11.487  0.00  0.00     0.139 C 
ENDROOT
BRANCH   2   3
ATOM      3  O   UNK d   0      -5.756  -2.905 -10.679  0.00  0.00    -0.776 OA
ATOM      4  H   UNK d   0      -6.032  -3.650 -10.036  0.00  0.00     0.167 HD
ENDBRANCH   2   3
BRANCH   2   5
ATOM      5  C   UNK d   0      -4.394  -2.061 -12.583  0.00  0.00     0.115 C 
BRANCH   5   6
ATOM      6  C   UNK d   0      -2.923  -1.756 -12.668  0.00  0.00     0.052 C 
BRANCH   6   7
ATOM      7  C   UNK d   0      -2.482  -0.729 -11.653  0.00  0.00    -0.020 A 
ATOM      8  C   UNK d   0      -1.830  -0.936 -10.538  0.00  0.00    -0.011 A 
ATOM      9  C   UNK d   0      -1.638   0.350  -9.889  0.00  0.00     0.067 A 
ATOM     10  C   UNK d   0      -1.018   0.809  -8.716  0.00  0.00     0.062 C 
ATOM     11  N   UNK d   0      -2.210   1.285 -10.675  0.00  0.00    -0.248 NA
ATOM     12  C   UNK d   0      -0.691   2.131  -8.393  0.00  0.00     0.041 A 
ATOM     13  N   UNK d   0      -1.382   3.277  -8.543  0.00  0.00    -0.355 N 
ATOM     14  C   UNK d   0       0.583   2.406  -7.863  0.00  0.00    -0.022 A 
ATOM     15  C   UNK d   0      -0.576   4.273  -8.130  0.00  0.00     0.042 A 
ATOM     16  H   UNK d   0      -2.425   3.378  -8.916  0.00  0.00     0.166 HD
ATOM     17  C   UNK d   0      -0.799   5.664  -8.073  0.00  0.00     0.062 C 
ATOM     18  C   UNK d   0       0.664   3.766  -7.696  0.00  0.00    -0.013 A 
ATOM     19  C   UNK d   0      -1.363   6.486  -9.014  0.00  0.00     0.067 A 
ATOM     20  N   UNK d   0      -1.968   5.896 -10.048  0.00  0.00    -0.248 NA
ATOM     21  C   UNK d   0      -1.478   7.921  -9.213  0.00  0.00    -0.011 A 
ATOM     22  C   UNK d   0      -2.469   6.841 -10.909  0.00  0.00     0.066 A 
ATOM     23  C   UNK d   0      -3.159   6.364 -12.014  0.00  0.00     0.062 C 
ATOM     24  C   UNK d   0      -2.122   8.122 -10.326  0.00  0.00    -0.020 A 
ATOM     25  C   UNK d   0      -3.488   5.033 -12.314  0.00  0.00     0.041 A 
ATOM     26  N   UNK d   0      -2.797   3.895 -12.178  0.00  0.00    -0.355 N 
ATOM     27  C   UNK d   0      -4.769   4.757 -12.841  0.00  0.00    -0.022 A 
ATOM     28  C   UNK d   0      -3.595   2.901 -12.598  0.00  0.00     0.042 A 
ATOM     29  H   UNK d   0      -1.745   3.797 -11.814  0.00  0.00     0.166 HD
ATOM     30  C   UNK d   0      -3.383   1.515 -12.669  0.00  0.00     0.062 C 
ATOM     31  C   UNK d   0      -4.845   3.410 -13.024  0.00  0.00    -0.013 A 
ATOM     32  C   UNK d   0      -2.736   0.701 -11.753  0.00  0.00     0.066 A 
BRANCH   8  33
ATOM     33  C   UNK d   0      -1.368  -2.234 -10.012  0.00  0.00     0.151 C 
BRANCH  33  34
ATOM     34  C   UNK d   0      -0.517  -2.095  -8.817  0.00  0.00     0.143 C 
ATOM     35  O   UNK d   0      -0.977  -2.287  -7.682  0.00  0.00    -0.650 OA
BRANCH  34  36
ATOM     36  O   UNK d   0       0.805  -1.745  -8.966  0.00  0.00    -0.776 OA
ATOM     37  H   UNK d   0       1.100  -1.061  -9.676  0.00  0.00     0.167 HD
ENDBRANCH  34  36
ENDBRANCH  33  34
ENDBRANCH   8  33
BRANCH  31  38
ATOM     38  C   UNK d   0      -6.035   2.648 -13.557  0.00  0.00     0.151 C 
BRANCH  38  39
ATOM     39  C   UNK d   0      -6.040   2.553 -15.001  0.00  0.00     0.143 C 
ATOM     40  O   UNK d   0      -5.119   2.007 -15.635  0.00  0.00    -0.650 OA
BRANCH  39  41
ATOM     41  O   UNK d   0      -7.108   3.086 -15.721  0.00  0.00    -0.776 OA
ATOM     42  H   UNK d   0      -7.049   4.079 -15.968  0.00  0.00     0.167 HD
ENDBRANCH  39  41
ENDBRANCH  38  39
ENDBRANCH  31  38
BRANCH  27  43
ATOM     43  C   UNK d   0      -5.894   5.705 -13.173  0.00  0.00     0.052 C 
BRANCH  43  44
ATOM     44  C   UNK d   0      -7.234   5.205 -12.740  0.00  0.00     0.115 C 
BRANCH  44  45
ATOM     45  C   UNK d   0      -8.240   5.906 -13.581  0.00  0.00     0.139 C 
ATOM     46  O   UNK d   0      -8.880   6.857 -13.068  0.00  0.00    -0.650 OA
BRANCH  45  47
ATOM     47  O   UNK d   0      -8.491   5.559 -14.891  0.00  0.00    -0.776 OA
ATOM     48  H   UNK d   0      -9.332   5.035 -15.180  0.00  0.00     0.167 HD
ENDBRANCH  45  47
ENDBRANCH  44  45
ENDBRANCH  43  44
ENDBRANCH  27  43
BRANCH  24  49
ATOM     49  C   UNK d   0      -2.493   9.431 -10.891  0.00  0.00     0.052 C 
BRANCH  49  50
ATOM     50  C   UNK d   0      -3.967   9.684 -10.706  0.00  0.00     0.115 C 
BRANCH  50  51
ATOM     51  C   UNK d   0      -4.777   9.809 -11.910  0.00  0.00     0.139 C 
ATOM     52  O   UNK d   0      -6.027   9.899 -11.879  0.00  0.00    -0.650 OA
BRANCH  51  53
ATOM     53  O   UNK d   0      -4.161   9.828 -13.152  0.00  0.00    -0.776 OA
ATOM     54  H   UNK d   0      -4.132   8.975 -13.682  0.00  0.00     0.167 HD
ENDBRANCH  51  53
ENDBRANCH  50  51
ENDBRANCH  49  50
ENDBRANCH  24  49
BRANCH  21  55
ATOM     55  C   UNK d   0      -0.935   8.942  -8.268  0.00  0.00     0.151 C 
BRANCH  55  56
ATOM     56  C   UNK d   0      -1.967   9.447  -7.350  0.00  0.00     0.143 C 
ATOM     57  O   UNK d   0      -2.445   8.758  -6.427  0.00  0.00    -0.650 OA
BRANCH  56  58
ATOM     58  O   UNK d   0      -2.417  10.753  -7.534  0.00  0.00    -0.776 OA
ATOM     59  H   UNK d   0      -3.340  10.836  -7.996  0.00  0.00     0.167 HD
ENDBRANCH  56  58
ENDBRANCH  55  56
ENDBRANCH  21  55
BRANCH  18  60
ATOM     60  C   UNK d   0       1.867   4.500  -7.158  0.00  0.00     0.151 C 
BRANCH  60  61
ATOM     61  C   UNK d   0       3.012   4.045  -7.962  0.00  0.00     0.143 C 
ATOM     62  O   UNK d   0       3.103   4.048  -9.190  0.00  0.00    -0.650 OA
BRANCH  61  63
ATOM     63  O   UNK d   0       4.113   3.557  -7.219  0.00  0.00    -0.776 OA
ATOM     64  H   UNK d   0       4.097   3.545  -6.215  0.00  0.00     0.167 HD
ENDBRANCH  61  63
ENDBRANCH  60  61
ENDBRANCH  18  60
BRANCH  14  65
ATOM     65  C   UNK d   0       1.679   1.483  -7.415  0.00  0.00     0.052 C 
BRANCH  65  66
ATOM     66  C   UNK d   0       1.510   1.015  -6.013  0.00  0.00     0.115 C 
BRANCH  66  67
ATOM     67  C   UNK d   0       0.892  -0.256  -5.756  0.00  0.00     0.139 C 
ATOM     68  O   UNK d   0       1.555  -1.325  -6.023  0.00  0.00    -0.650 OA
BRANCH  67  69
ATOM     69  O   UNK d   0      -0.379  -0.497  -5.236  0.00  0.00    -0.776 OA
ATOM     70  H   UNK d   0      -0.864  -1.328  -5.606  0.00  0.00     0.167 HD
ENDBRANCH  67  69
ENDBRANCH  66  67
ENDBRANCH  65  66
ENDBRANCH  14  65
ENDBRANCH   6   7
ENDBRANCH   5   6
ENDBRANCH   2   5
TORSDOF 28
ENDMDL
MODEL 19
REMARK VINA RESULT:      -8.9     29.239     32.947
REMARK  28 active torsions:
REMARK  status: ('A' for Active; 'I' for Inactive)
REMARK    1  A    between atoms: C_2  and  O_3 
REMARK    2  A    between atoms: C_2  and  C_4 
REMARK    3  A    between atoms: C_4  and  C_5 
REMARK    4  A    between atoms: C_5  and  C_6 
REMARK    5  A    between atoms: C_7  and  C_8 
REMARK    6  A    between atoms: C_8  and  C_9 
REMARK    7  A    between atoms: C_9  and  O_11 
REMARK    8  A    between atoms: C_28  and  C_29 
REMARK    9  A    between atoms: C_29  and  C_30 
REMARK   10  A    between atoms: C_30  and  O_32 
REMARK   11  A    between atoms: C_33  and  C_34 
REMARK   12  A    between atoms: C_34  and  C_35 
REMARK   13  A    between atoms: C_35  and  C_36 
REMARK   14  A    between atoms: C_36  and  O_38 
REMARK   15  A    between atoms: C_39  and  C_40 
REMARK   16  A    between atoms: C_40  and  C_41 
REMARK   17  A    between atoms: C_41  and  C_42 
REMARK   18  A    between atoms: C_42  and  O_44 
REMARK   19  A    between atoms: C_45  and  C_46 
REMARK   20  A    between atoms: C_46  and  C_47 
REMARK   21  A    between atoms: C_47  and  O_49 
REMARK   22  A    between atoms: C_50  and  C_51 
REMARK   23  A    between atoms: C_51  and  C_52 
REMARK   24  A    between atoms: C_52  and  O_54 
REMARK   25  A    between atoms: C_55  and  C_56 
REMARK   26  A    between atoms: C_56  and  C_57 
REMARK   27  A    between atoms: C_57  and  C_58 
REMARK   28  A    between atoms: C_58  and  O_60 
ROOT
ATOM      1  O   UNK d   0     -29.374  10.361   6.508  0.00  0.00    -0.650 OA
ATOM      2  C   UNK d   0     -28.850  11.491   6.625  0.00  0.00     0.139 C 
ENDROOT
BRANCH   2   3
ATOM      3  O   UNK d   0     -28.902  12.135   7.838  0.00  0.00    -0.776 OA
ATOM      4  H   UNK d   0     -29.365  13.041   7.935  0.00  0.00     0.167 HD
ENDBRANCH   2   3
BRANCH   2   5
ATOM      5  C   UNK d   0     -28.178  12.129   5.458  0.00  0.00     0.115 C 
BRANCH   5   6
ATOM      6  C   UNK d   0     -26.733  11.716   5.403  0.00  0.00     0.052 C 
BRANCH   6   7
ATOM      7  C   UNK d   0     -25.940  12.216   6.587  0.00  0.00    -0.020 A 
ATOM      8  C   UNK d   0     -25.287  11.503   7.468  0.00  0.00    -0.011 A 
ATOM      9  C   UNK d   0     -24.687  12.419   8.425  0.00  0.00     0.067 A 
ATOM     10  C   UNK d   0     -23.872  12.305   9.561  0.00  0.00     0.062 C 
ATOM     11  N   UNK d   0     -25.031  13.670   8.052  0.00  0.00    -0.248 NA
ATOM     12  C   UNK d   0     -23.159  13.327  10.199  0.00  0.00     0.041 A 
ATOM     13  N   UNK d   0     -23.506  14.591  10.506  0.00  0.00    -0.355 N 
ATOM     14  C   UNK d   0     -21.822  13.095  10.568  0.00  0.00    -0.022 A 
ATOM     15  C   UNK d   0     -22.421  15.170  11.054  0.00  0.00     0.042 A 
ATOM     16  H   UNK d   0     -24.504  15.059  10.357  0.00  0.00     0.166 HD
ATOM     17  C   UNK d   0     -22.235  16.475  11.552  0.00  0.00     0.062 C 
ATOM     18  C   UNK d   0     -21.345  14.263  11.110  0.00  0.00    -0.013 A 
ATOM     19  C   UNK d   0     -22.616  17.671  10.999  0.00  0.00     0.067 A 
ATOM     20  N   UNK d   0     -23.444  17.617   9.952  0.00  0.00    -0.248 NA
ATOM     21  C   UNK d   0     -22.335  19.075  11.250  0.00  0.00    -0.011 A 
ATOM     22  C   UNK d   0     -23.723  18.883   9.500  0.00  0.00     0.066 A 
ATOM     23  C   UNK d   0     -24.606  18.976   8.434  0.00  0.00     0.062 C 
ATOM     24  C   UNK d   0     -22.982  19.778  10.367  0.00  0.00    -0.020 A 
ATOM     25  C   UNK d   0     -25.321  17.939   7.816  0.00  0.00     0.041 A 
ATOM     26  N   UNK d   0     -24.972  16.687   7.497  0.00  0.00    -0.355 N 
ATOM     27  C   UNK d   0     -26.665  18.170   7.449  0.00  0.00    -0.022 A 
ATOM     28  C   UNK d   0     -26.049  16.110   6.942  0.00  0.00     0.042 A 
ATOM     29  H   UNK d   0     -23.965  16.221   7.638  0.00  0.00     0.166 HD
ATOM     30  C   UNK d   0     -26.245  14.816   6.434  0.00  0.00     0.062 C 
ATOM     31  C   UNK d   0     -27.133  17.019   6.896  0.00  0.00    -0.013 A 
ATOM     32  C   UNK d   0     -25.785  13.616   6.952  0.00  0.00     0.066 A 
BRANCH   8  33
ATOM     33  C   UNK d   0     -25.171  10.034   7.508  0.00  0.00     0.151 C 
BRANCH  33  34
ATOM     34  C   UNK d   0     -26.383   9.380   8.035  0.00  0.00     0.143 C 
ATOM     35  O   UNK d   0     -26.886   8.409   7.452  0.00  0.00    -0.650 OA
BRANCH  34  36
ATOM     36  O   UNK d   0     -26.961   9.858   9.188  0.00  0.00    -0.776 OA
ATOM     37  H   UNK d   0     -27.947  10.152   9.209  0.00  0.00     0.167 HD
ENDBRANCH  34  36
ENDBRANCH  33  34
ENDBRANCH   8  33
BRANCH  31  38
ATOM     38  C   UNK d   0     -28.530  16.787   6.367  0.00  0.00     0.151 C 
BRANCH  38  39
ATOM     39  C   UNK d   0     -29.360  16.036   7.284  0.00  0.00     0.143 C 
ATOM     40  O   UNK d   0     -30.485  15.610   6.967  0.00  0.00    -0.650 OA
BRANCH  39  41
ATOM     41  O   UNK d   0     -28.895  15.772   8.572  0.00  0.00    -0.776 OA
ATOM     42  H   UNK d   0     -29.599  15.529   9.276  0.00  0.00     0.167 HD
ENDBRANCH  39  41
ENDBRANCH  38  39
ENDBRANCH  31  38
BRANCH  27  43
ATOM     43  C   UNK d   0     -27.498  19.419   7.600  0.00  0.00     0.052 C 
BRANCH  43  44
ATOM     44  C   UNK d   0     -28.588  19.283   8.614  0.00  0.00     0.115 C 
BRANCH  44  45
ATOM     45  C   UNK d   0     -27.926  18.995   9.913  0.00  0.00     0.139 C 
ATOM     46  O   UNK d   0     -28.132  17.877  10.447  0.00  0.00    -0.650 OA
BRANCH  45  47
ATOM     47  O   UNK d   0     -27.098  19.897  10.546  0.00  0.00    -0.776 OA
ATOM     48  H   UNK d   0     -26.995  20.876  10.235  0.00  0.00     0.167 HD
ENDBRANCH  45  47
ENDBRANCH  44  45
ENDBRANCH  43  44
ENDBRANCH  27  43
BRANCH  24  49
ATOM     49  C   UNK d   0     -23.011  21.248  10.279  0.00  0.00     0.052 C 
BRANCH  49  50
ATOM     50  C   UNK d   0     -21.648  21.778   9.914  0.00  0.00     0.115 C 
BRANCH  50  51
ATOM     51  C   UNK d   0     -21.164  22.935  10.656  0.00  0.00     0.139 C 
ATOM     52  O   UNK d   0     -21.406  23.108  11.873  0.00  0.00    -0.650 OA
BRANCH  51  53
ATOM     53  O   UNK d   0     -20.405  23.898  10.007  0.00  0.00    -0.776 OA
ATOM     54  H   UNK d   0     -20.603  24.087   9.040  0.00  0.00     0.167 HD
ENDBRANCH  51  53
ENDBRANCH  50  51
ENDBRANCH  49  50
ENDBRANCH  24  49
BRANCH  21  55
ATOM     55  C   UNK d   0     -21.452  19.566  12.349  0.00  0.00     0.151 C 
BRANCH  55  56
ATOM     56  C   UNK d   0     -22.225  20.033  13.510  0.00  0.00     0.143 C 
ATOM     57  O   UNK d   0     -23.295  19.501  13.867  0.00  0.00    -0.650 OA
BRANCH  56  58
ATOM     58  O   UNK d   0     -21.725  21.117  14.229  0.00  0.00    -0.776 OA
ATOM     59  H   UNK d   0     -21.480  21.945  13.657  0.00  0.00     0.167 HD
ENDBRANCH  56  58
ENDBRANCH  55  56
ENDBRANCH  21  55
BRANCH  18  60
ATOM     60  C   UNK d   0     -19.945  14.464  11.634  0.00  0.00     0.151 C 
BRANCH  60  61
ATOM     61  C   UNK d   0     -19.129  14.843  10.470  0.00  0.00     0.143 C 
ATOM     62  O   UNK d   0     -18.517  14.086   9.715  0.00  0.00    -0.650 OA
BRANCH  61  63
ATOM     63  O   UNK d   0     -19.056  16.233  10.211  0.00  0.00    -0.776 OA
ATOM     64  H   UNK d   0     -18.942  16.581   9.276  0.00  0.00     0.167 HD
ENDBRANCH  61  63
ENDBRANCH  60  61
ENDBRANCH  18  60
BRANCH  14  65
ATOM     65  C   UNK d   0     -21.000  11.838  10.539  0.00  0.00     0.052 C 
BRANCH  65  66
ATOM     66  C   UNK d   0     -21.650  10.701  11.246  0.00  0.00     0.115 C 
BRANCH  66  67
ATOM     67  C   UNK d   0     -21.971   9.504  10.522  0.00  0.00     0.139 C 
ATOM     68  O   UNK d   0     -22.876   8.723  10.997  0.00  0.00    -0.650 OA
BRANCH  67  69
ATOM     69  O   UNK d   0     -21.412   9.053   9.326  0.00  0.00    -0.776 OA
ATOM     70  H   UNK d   0     -21.110   9.787   8.669  0.00  0.00     0.167 HD
ENDBRANCH  67  69
ENDBRANCH  66  67
ENDBRANCH  65  66
ENDBRANCH  14  65
ENDBRANCH   6   7
ENDBRANCH   5   6
ENDBRANCH   2   5
TORSDOF 28
ENDMDL
MODEL 20
REMARK VINA RESULT:      -8.7     29.302     33.467
REMARK  28 active torsions:
REMARK  status: ('A' for Active; 'I' for Inactive)
REMARK    1  A    between atoms: C_2  and  O_3 
REMARK    2  A    between atoms: C_2  and  C_4 
REMARK    3  A    between atoms: C_4  and  C_5 
REMARK    4  A    between atoms: C_5  and  C_6 
REMARK    5  A    between atoms: C_7  and  C_8 
REMARK    6  A    between atoms: C_8  and  C_9 
REMARK    7  A    between atoms: C_9  and  O_11 
REMARK    8  A    between atoms: C_28  and  C_29 
REMARK    9  A    between atoms: C_29  and  C_30 
REMARK   10  A    between atoms: C_30  and  O_32 
REMARK   11  A    between atoms: C_33  and  C_34 
REMARK   12  A    between atoms: C_34  and  C_35 
REMARK   13  A    between atoms: C_35  and  C_36 
REMARK   14  A    between atoms: C_36  and  O_38 
REMARK   15  A    between atoms: C_39  and  C_40 
REMARK   16  A    between atoms: C_40  and  C_41 
REMARK   17  A    between atoms: C_41  and  C_42 
REMARK   18  A    between atoms: C_42  and  O_44 
REMARK   19  A    between atoms: C_45  and  C_46 
REMARK   20  A    between atoms: C_46  and  C_47 
REMARK   21  A    between atoms: C_47  and  O_49 
REMARK   22  A    between atoms: C_50  and  C_51 
REMARK   23  A    between atoms: C_51  and  C_52 
REMARK   24  A    between atoms: C_52  and  O_54 
REMARK   25  A    between atoms: C_55  and  C_56 
REMARK   26  A    between atoms: C_56  and  C_57 
REMARK   27  A    between atoms: C_57  and  C_58 
REMARK   28  A    between atoms: C_58  and  O_60 
ROOT
ATOM      1  O   UNK d   0     -26.052   7.126   6.175  0.00  0.00    -0.650 OA
ATOM      2  C   UNK d   0     -26.433   7.885   7.094  0.00  0.00     0.139 C 
ENDROOT
BRANCH   2   3
ATOM      3  O   UNK d   0     -27.543   7.546   7.830  0.00  0.00    -0.776 OA
ATOM      4  H   UNK d   0     -27.946   8.197   8.507  0.00  0.00     0.167 HD
ENDBRANCH   2   3
BRANCH   2   5
ATOM      5  C   UNK d   0     -25.688   9.142   7.384  0.00  0.00     0.115 C 
BRANCH   5   6
ATOM      6  C   UNK d   0     -26.383   9.917   8.470  0.00  0.00     0.052 C 
BRANCH   6   7
ATOM      7  C   UNK d   0     -26.393  11.404   8.208  0.00  0.00    -0.020 A 
ATOM      8  C   UNK d   0     -27.214  12.074   7.439  0.00  0.00    -0.011 A 
ATOM      9  C   UNK d   0     -26.831  13.475   7.493  0.00  0.00     0.067 A 
ATOM     10  C   UNK d   0     -27.299  14.675   6.936  0.00  0.00     0.062 C 
ATOM     11  N   UNK d   0     -25.763  13.567   8.314  0.00  0.00    -0.248 NA
ATOM     12  C   UNK d   0     -26.968  15.977   7.326  0.00  0.00     0.041 A 
ATOM     13  N   UNK d   0     -25.785  16.528   7.658  0.00  0.00    -0.355 N 
ATOM     14  C   UNK d   0     -27.996  16.925   7.474  0.00  0.00    -0.022 A 
ATOM     15  C   UNK d   0     -26.037  17.800   8.021  0.00  0.00     0.042 A 
ATOM     16  H   UNK d   0     -24.789  16.034   7.618  0.00  0.00     0.166 HD
ATOM     17  C   UNK d   0     -25.163  18.817   8.455  0.00  0.00     0.062 C 
ATOM     18  C   UNK d   0     -27.412  18.086   7.919  0.00  0.00    -0.013 A 
ATOM     19  C   UNK d   0     -24.136  18.742   9.361  0.00  0.00     0.067 A 
ATOM     20  N   UNK d   0     -23.765  17.522   9.756  0.00  0.00    -0.248 NA
ATOM     21  C   UNK d   0     -23.296  19.695  10.068  0.00  0.00    -0.011 A 
ATOM     22  C   UNK d   0     -22.743  17.607  10.670  0.00  0.00     0.066 A 
ATOM     23  C   UNK d   0     -22.233  16.405  11.137  0.00  0.00     0.062 C 
ATOM     24  C   UNK d   0     -22.485  19.024  10.835  0.00  0.00    -0.020 A 
ATOM     25  C   UNK d   0     -22.571  15.107  10.722  0.00  0.00     0.041 A 
ATOM     26  N   UNK d   0     -23.748  14.555  10.407  0.00  0.00    -0.355 N 
ATOM     27  C   UNK d   0     -21.538  14.157  10.569  0.00  0.00    -0.022 A 
ATOM     28  C   UNK d   0     -23.501  13.283  10.053  0.00  0.00     0.042 A 
ATOM     29  H   UNK d   0     -24.749  15.049  10.457  0.00  0.00     0.166 HD
ATOM     30  C   UNK d   0     -24.361  12.259   9.628  0.00  0.00     0.062 C 
ATOM     31  C   UNK d   0     -22.117  13.000  10.145  0.00  0.00    -0.013 A 
ATOM     32  C   UNK d   0     -25.451  12.356   8.777  0.00  0.00     0.066 A 
BRANCH   8  33
ATOM     33  C   UNK d   0     -28.330  11.525   6.647  0.00  0.00     0.151 C 
BRANCH  33  34
ATOM     34  C   UNK d   0     -29.435  11.027   7.486  0.00  0.00     0.143 C 
ATOM     35  O   UNK d   0     -30.077  11.796   8.216  0.00  0.00    -0.650 OA
BRANCH  34  36
ATOM     36  O   UNK d   0     -29.754   9.689   7.458  0.00  0.00    -0.776 OA
ATOM     37  H   UNK d   0     -30.711   9.373   7.247  0.00  0.00     0.167 HD
ENDBRANCH  34  36
ENDBRANCH  33  34
ENDBRANCH   8  33
BRANCH  31  38
ATOM     38  C   UNK d   0     -21.401  11.707   9.833  0.00  0.00     0.151 C 
BRANCH  38  39
ATOM     39  C   UNK d   0     -21.369  10.797  10.959  0.00  0.00     0.143 C 
ATOM     40  O   UNK d   0     -22.014  11.005  12.001  0.00  0.00    -0.650 OA
BRANCH  39  41
ATOM     41  O   UNK d   0     -20.591   9.642  10.885  0.00  0.00    -0.776 OA
ATOM     42  H   UNK d   0     -21.084   8.765  10.691  0.00  0.00     0.167 HD
ENDBRANCH  39  41
ENDBRANCH  38  39
ENDBRANCH  31  38
BRANCH  27  43
ATOM     43  C   UNK d   0     -20.056  14.305  10.808  0.00  0.00     0.052 C 
BRANCH  43  44
ATOM     44  C   UNK d   0     -19.603  13.705  12.100  0.00  0.00     0.115 C 
BRANCH  44  45
ATOM     45  C   UNK d   0     -18.405  12.883  11.788  0.00  0.00     0.139 C 
ATOM     46  O   UNK d   0     -17.415  13.453  11.266  0.00  0.00    -0.650 OA
BRANCH  45  47
ATOM     47  O   UNK d   0     -18.336  11.532  12.053  0.00  0.00    -0.776 OA
ATOM     48  H   UNK d   0     -17.677  11.128  12.738  0.00  0.00     0.167 HD
ENDBRANCH  45  47
ENDBRANCH  44  45
ENDBRANCH  43  44
ENDBRANCH  27  43
BRANCH  24  49
ATOM     49  C   UNK d   0     -21.436  19.593  11.698  0.00  0.00     0.052 C 
BRANCH  49  50
ATOM     50  C   UNK d   0     -21.951  19.767  13.104  0.00  0.00     0.115 C 
BRANCH  50  51
ATOM     51  C   UNK d   0     -22.465  21.081  13.466  0.00  0.00     0.139 C 
ATOM     52  O   UNK d   0     -22.046  22.139  12.940  0.00  0.00    -0.650 OA
BRANCH  51  53
ATOM     53  O   UNK d   0     -23.455  21.189  14.430  0.00  0.00    -0.776 OA
ATOM     54  H   UNK d   0     -23.398  21.946  15.088  0.00  0.00     0.167 HD
ENDBRANCH  51  53
ENDBRANCH  50  51
ENDBRANCH  49  50
ENDBRANCH  24  49
BRANCH  21  55
ATOM     55  C   UNK d   0     -23.387  21.175   9.899  0.00  0.00     0.151 C 
BRANCH  55  56
ATOM     56  C   UNK d   0     -22.320  21.698   9.031  0.00  0.00     0.143 C 
ATOM     57  O   UNK d   0     -21.211  22.061   9.469  0.00  0.00    -0.650 OA
BRANCH  56  58
ATOM     58  O   UNK d   0     -22.579  21.783   7.664  0.00  0.00    -0.776 OA
ATOM     59  H   UNK d   0     -23.404  22.357   7.411  0.00  0.00     0.167 HD
ENDBRANCH  56  58
ENDBRANCH  55  56
ENDBRANCH  21  55
BRANCH  18  60
ATOM     60  C   UNK d   0     -28.153  19.365   8.220  0.00  0.00     0.151 C 
BRANCH  60  61
ATOM     61  C   UNK d   0     -28.336  19.392   9.679  0.00  0.00     0.143 C 
ATOM     62  O   UNK d   0     -28.196  18.452  10.462  0.00  0.00    -0.650 OA
BRANCH  61  63
ATOM     63  O   UNK d   0     -28.712  20.647  10.216  0.00  0.00    -0.776 OA
ATOM     64  H   UNK d   0     -28.902  20.755  11.197  0.00  0.00     0.167 HD
ENDBRANCH  61  63
ENDBRANCH  60  61
ENDBRANCH  18  60
BRANCH  14  65
ATOM     65  C   UNK d   0     -29.458  16.848   7.137  0.00  0.00     0.052 C 
BRANCH  65  66
ATOM     66  C   UNK d   0     -29.736  17.093   5.697  0.00  0.00     0.115 C 
BRANCH  66  67
ATOM     67  C   UNK d   0     -30.317  16.052   4.897  0.00  0.00     0.139 C 
ATOM     68  O   UNK d   0     -31.593  16.042   4.735  0.00  0.00    -0.650 OA
BRANCH  67  69
ATOM     69  O   UNK d   0     -29.660  15.007   4.247  0.00  0.00    -0.776 OA
ATOM     70  H   UNK d   0     -29.690  14.094   4.724  0.00  0.00     0.167 HD
ENDBRANCH  67  69
ENDBRANCH  66  67
ENDBRANCH  65  66
ENDBRANCH  14  65
ENDBRANCH   6   7
ENDBRANCH   5   6
ENDBRANCH   2   5
TORSDOF 28
ENDMDL
