MODEL 1
REMARK VINA RESULT:     -10.4      0.000      0.000
REMARK  16 active torsions:
REMARK  status: ('A' for Active; 'I' for Inactive)
REMARK    1  A    between atoms: C_6  and  C_7 
REMARK    2  A    between atoms: C_7  and  C_8 
REMARK    3  A    between atoms: C_8  and  C_9 
REMARK    4  A    between atoms: C_9  and  O_11 
REMARK    5  A    between atoms: C_16  and  C_17 
REMARK    6  A    between atoms: C_17  and  C_18 
REMARK    7  A    between atoms: C_18  and  C_19 
REMARK    8  A    between atoms: C_19  and  O_21 
REMARK    9  A    between atoms: C_28  and  C_29 
REMARK   10  A    between atoms: C_29  and  C_30 
REMARK   11  A    between atoms: C_30  and  C_31 
REMARK   12  A    between atoms: C_31  and  O_33 
REMARK   13  A    between atoms: C_42  and  C_43 
REMARK   14  A    between atoms: C_43  and  C_44 
REMARK   15  A    between atoms: C_44  and  C_45 
REMARK   16  A    between atoms: C_45  and  O_47 
ROOT
HETATM    1  C   UNK     0     -40.554 -21.657   8.639  0.00  0.00     0.051 C 
HETATM    2  C   UNK     0     -39.109 -21.449   9.047  0.00  0.00    -0.031 A 
HETATM    3  C   UNK     0     -38.223 -20.452   8.671  0.00  0.00     0.021 A 
HETATM    4  N   UNK     0     -37.025 -20.682   9.258  0.00  0.00    -0.361 N 
HETATM    5  C   UNK     0     -37.130 -21.800  10.007  0.00  0.00     0.022 A 
HETATM    6  C   UNK     0     -38.420 -22.307   9.895  0.00  0.00    -0.027 A 
HETATM    7  C   UNK     0     -36.128 -22.430  10.923  0.00  0.00     0.115 C 
HETATM    8  C   UNK     0     -35.335 -21.490  11.815  0.00  0.00     0.021 A 
HETATM    9  N   UNK     0     -35.741 -20.356  12.405  0.00  0.00    -0.361 N 
HETATM   10  C   UNK     0     -34.678 -19.802  13.026  0.00  0.00     0.022 A 
HETATM   11  C   UNK     0     -33.558 -20.607  12.837  0.00  0.00    -0.027 A 
HETATM   12  C   UNK     0     -33.965 -21.672  12.075  0.00  0.00    -0.031 A 
HETATM   13  C   UNK     0     -33.080 -22.812  11.624  0.00  0.00     0.051 C 
HETATM   14  C   UNK     0     -34.663 -18.472  13.773  0.00  0.00     0.115 C 
HETATM   15  C   UNK     0     -35.016 -17.274  12.905  0.00  0.00     0.021 A 
HETATM   16  N   UNK     0     -36.149 -17.072  12.207  0.00  0.00    -0.361 N 
HETATM   17  C   UNK     0     -36.042 -15.933  11.519  0.00  0.00     0.022 A 
HETATM   18  C   UNK     0     -34.783 -15.362  11.788  0.00  0.00    -0.027 A 
HETATM   19  C   UNK     0     -34.150 -16.211  12.659  0.00  0.00    -0.031 A 
HETATM   20  C   UNK     0     -32.772 -15.952  13.238  0.00  0.00     0.051 C 
HETATM   21  C   UNK     0     -37.000 -15.298  10.536  0.00  0.00     0.115 C 
HETATM   22  C   UNK     0     -37.828 -16.222   9.673  0.00  0.00     0.022 A 
HETATM   23  N   UNK     0     -37.450 -17.359   9.075  0.00  0.00    -0.361 N 
HETATM   24  C   UNK     0     -38.542 -17.933   8.530  0.00  0.00     0.021 A 
HETATM   25  C   UNK     0     -39.647 -17.141   8.773  0.00  0.00    -0.031 A 
HETATM   26  C   UNK     0     -41.081 -17.343   8.329  0.00  0.00     0.051 C 
HETATM   27  C   UNK     0     -39.215 -16.039   9.503  0.00  0.00    -0.027 A 
HETATM   28  C   UNK     0     -38.632 -19.278   7.828  0.00  0.00     0.115 C 
HETATM   29  H   UNK     0     -36.102 -20.076   9.107  0.00  0.00     0.165 HD
HETATM   30  H   UNK     0     -36.789 -19.969  12.429  0.00  0.00     0.165 HD
HETATM   31  H   UNK     0     -37.063 -17.721  12.238  0.00  0.00     0.165 HD
HETATM   32  H   UNK     0     -36.401 -17.747   8.995  0.00  0.00     0.165 HD
ENDROOT
BRANCH   6  33
HETATM   33  C   UNK     0     -39.039 -23.530  10.524  0.00  0.00     0.051 C 
BRANCH  33  34
HETATM   34  C   UNK     0     -38.727 -24.765   9.712  0.00  0.00     0.114 C 
BRANCH  34  35
HETATM   35  C   UNK     0     -37.798 -25.606  10.520  0.00  0.00     0.139 C 
HETATM   36  O   UNK     0     -38.193 -26.136  11.599  0.00  0.00    -0.650 OA
BRANCH  35  37
HETATM   37  O   UNK     0     -36.484 -25.849  10.139  0.00  0.00    -0.776 OA
HETATM   38  H   UNK     0     -35.888 -25.121   9.780  0.00  0.00     0.167 HD
ENDBRANCH  35  37
ENDBRANCH  34  35
ENDBRANCH  33  34
ENDBRANCH   6  33
BRANCH  27  39
HETATM   39  C   UNK     0     -40.117 -14.921   9.893  0.00  0.00     0.051 C 
BRANCH  39  40
HETATM   40  C   UNK     0     -40.856 -15.032  11.150  0.00  0.00     0.114 C 
BRANCH  40  41
HETATM   41  C   UNK     0     -41.159 -16.310  11.756  0.00  0.00     0.139 C 
HETATM   42  O   UNK     0     -40.433 -16.856  12.598  0.00  0.00    -0.650 OA
BRANCH  41  43
HETATM   43  O   UNK     0     -42.350 -16.990  11.375  0.00  0.00    -0.776 OA
HETATM   44  H   UNK     0     -42.670 -17.680  12.044  0.00  0.00     0.167 HD
ENDBRANCH  41  43
ENDBRANCH  40  41
ENDBRANCH  39  40
ENDBRANCH  27  39
BRANCH  11  45
HETATM   45  C   UNK     0     -32.156 -20.403  13.345  0.00  0.00     0.051 C 
BRANCH  45  46
HETATM   46  C   UNK     0     -31.847 -21.153  14.589  0.00  0.00     0.114 C 
BRANCH  46  47
HETATM   47  C   UNK     0     -32.502 -20.429  15.716  0.00  0.00     0.139 C 
HETATM   48  O   UNK     0     -32.033 -19.339  16.072  0.00  0.00    -0.650 OA
BRANCH  47  49
HETATM   49  O   UNK     0     -33.600 -20.957  16.347  0.00  0.00    -0.776 OA
HETATM   50  H   UNK     0     -34.055 -21.818  16.021  0.00  0.00     0.167 HD
ENDBRANCH  47  49
ENDBRANCH  46  47
ENDBRANCH  45  46
ENDBRANCH  11  45
BRANCH  18  51
HETATM   51  C   UNK     0     -34.221 -14.067  11.261  0.00  0.00     0.051 C 
BRANCH  51  52
HETATM   52  C   UNK     0     -33.003 -14.438  10.429  0.00  0.00     0.114 C 
BRANCH  52  53
HETATM   53  C   UNK     0     -31.824 -13.626  10.787  0.00  0.00     0.139 C 
HETATM   54  O   UNK     0     -30.821 -14.168  11.278  0.00  0.00    -0.650 OA
BRANCH  53  55
HETATM   55  O   UNK     0     -31.846 -12.268  10.579  0.00  0.00    -0.776 OA
HETATM   56  H   UNK     0     -31.798 -11.568  11.282  0.00  0.00     0.167 HD
ENDBRANCH  53  55
ENDBRANCH  52  53
ENDBRANCH  51  52
ENDBRANCH  18  51
TORSDOF 16
ENDMDL
MODEL 2
REMARK VINA RESULT:     -10.1      1.380      1.634
REMARK  16 active torsions:
REMARK  status: ('A' for Active; 'I' for Inactive)
REMARK    1  A    between atoms: C_6  and  C_7 
REMARK    2  A    between atoms: C_7  and  C_8 
REMARK    3  A    between atoms: C_8  and  C_9 
REMARK    4  A    between atoms: C_9  and  O_11 
REMARK    5  A    between atoms: C_16  and  C_17 
REMARK    6  A    between atoms: C_17  and  C_18 
REMARK    7  A    between atoms: C_18  and  C_19 
REMARK    8  A    between atoms: C_19  and  O_21 
REMARK    9  A    between atoms: C_28  and  C_29 
REMARK   10  A    between atoms: C_29  and  C_30 
REMARK   11  A    between atoms: C_30  and  C_31 
REMARK   12  A    between atoms: C_31  and  O_33 
REMARK   13  A    between atoms: C_42  and  C_43 
REMARK   14  A    between atoms: C_43  and  C_44 
REMARK   15  A    between atoms: C_44  and  C_45 
REMARK   16  A    between atoms: C_45  and  O_47 
ROOT
HETATM    1  C   UNK     0     -41.651 -21.779   8.992  0.00  0.00     0.051 C 
HETATM    2  C   UNK     0     -40.144 -21.796   9.141  0.00  0.00    -0.031 A 
HETATM    3  C   UNK     0     -39.193 -20.969   8.562  0.00  0.00     0.021 A 
HETATM    4  N   UNK     0     -37.961 -21.372   8.955  0.00  0.00    -0.361 N 
HETATM    5  C   UNK     0     -38.106 -22.431   9.777  0.00  0.00     0.022 A 
HETATM    6  C   UNK     0     -39.459 -22.725   9.913  0.00  0.00    -0.027 A 
HETATM    7  C   UNK     0     -37.070 -23.184  10.551  0.00  0.00     0.115 C 
HETATM    8  C   UNK     0     -35.998 -22.357  11.240  0.00  0.00     0.021 A 
HETATM    9  N   UNK     0     -36.115 -21.152  11.819  0.00  0.00    -0.361 N 
HETATM   10  C   UNK     0     -34.888 -20.759  12.219  0.00  0.00     0.022 A 
HETATM   11  C   UNK     0     -33.956 -21.741  11.897  0.00  0.00    -0.027 A 
HETATM   12  C   UNK     0     -34.649 -22.751  11.280  0.00  0.00    -0.031 A 
HETATM   13  C   UNK     0     -34.043 -24.034  10.758  0.00  0.00     0.051 C 
HETATM   14  C   UNK     0     -34.537 -19.424  12.870  0.00  0.00     0.115 C 
HETATM   15  C   UNK     0     -34.847 -18.215  12.002  0.00  0.00     0.021 A 
HETATM   16  N   UNK     0     -36.039 -17.854  11.491  0.00  0.00    -0.361 N 
HETATM   17  C   UNK     0     -35.878 -16.772  10.726  0.00  0.00     0.022 A 
HETATM   18  C   UNK     0     -34.518 -16.405  10.747  0.00  0.00    -0.027 A 
HETATM   19  C   UNK     0     -33.883 -17.315  11.550  0.00  0.00    -0.031 A 
HETATM   20  C   UNK     0     -32.401 -17.265  11.876  0.00  0.00     0.051 C 
HETATM   21  C   UNK     0     -36.882 -16.024   9.878  0.00  0.00     0.115 C 
HETATM   22  C   UNK     0     -37.980 -16.828   9.223  0.00  0.00     0.022 A 
HETATM   23  N   UNK     0     -37.893 -18.032   8.642  0.00  0.00    -0.361 N 
HETATM   24  C   UNK     0     -39.138 -18.438   8.321  0.00  0.00     0.021 A 
HETATM   25  C   UNK     0     -40.048 -17.469   8.696  0.00  0.00    -0.031 A 
HETATM   26  C   UNK     0     -41.551 -17.449   8.510  0.00  0.00     0.051 C 
HETATM   27  C   UNK     0     -39.330 -16.428   9.275  0.00  0.00    -0.027 A 
HETATM   28  C   UNK     0     -39.556 -19.773   7.728  0.00  0.00     0.115 C 
HETATM   29  H   UNK     0     -36.996 -20.929   8.616  0.00  0.00     0.165 HD
HETATM   30  H   UNK     0     -37.071 -20.599  11.992  0.00  0.00     0.165 HD
HETATM   31  H   UNK     0     -37.022 -18.344  11.713  0.00  0.00     0.165 HD
HETATM   32  H   UNK     0     -36.946 -18.587   8.413  0.00  0.00     0.165 HD
ENDROOT
BRANCH   6  33
HETATM   33  C   UNK     0     -40.141 -23.808  10.709  0.00  0.00     0.051 C 
BRANCH  33  34
HETATM   34  C   UNK     0     -39.503 -25.151  10.442  0.00  0.00     0.114 C 
BRANCH  34  35
HETATM   35  C   UNK     0     -39.332 -25.833  11.757  0.00  0.00     0.139 C 
HETATM   36  O   UNK     0     -38.254 -26.440  12.024  0.00  0.00    -0.650 OA
BRANCH  35  37
HETATM   37  O   UNK     0     -40.320 -25.836  12.734  0.00  0.00    -0.776 OA
HETATM   38  H   UNK     0     -40.591 -24.998  13.223  0.00  0.00     0.167 HD
ENDBRANCH  35  37
ENDBRANCH  34  35
ENDBRANCH  33  34
ENDBRANCH   6  33
BRANCH  27  39
HETATM   39  C   UNK     0     -39.967 -15.166   9.740  0.00  0.00     0.051 C 
BRANCH  39  40
HETATM   40  C   UNK     0     -40.454 -15.101  11.118  0.00  0.00     0.114 C 
BRANCH  40  41
HETATM   41  C   UNK     0     -40.963 -16.263  11.811  0.00  0.00     0.139 C 
HETATM   42  O   UNK     0     -40.278 -16.961  12.571  0.00  0.00    -0.650 OA
BRANCH  41  43
HETATM   43  O   UNK     0     -42.323 -16.640  11.621  0.00  0.00    -0.776 OA
HETATM   44  H   UNK     0     -42.996 -16.001  12.026  0.00  0.00     0.167 HD
ENDBRANCH  41  43
ENDBRANCH  40  41
ENDBRANCH  39  40
ENDBRANCH  27  39
BRANCH  11  45
HETATM   45  C   UNK     0     -32.472 -21.751  12.151  0.00  0.00     0.051 C 
BRANCH  45  46
HETATM   46  C   UNK     0     -32.072 -22.500  13.370  0.00  0.00     0.114 C 
BRANCH  46  47
HETATM   47  C   UNK     0     -32.122 -21.544  14.513  0.00  0.00     0.139 C 
HETATM   48  O   UNK     0     -31.305 -20.613  14.543  0.00  0.00    -0.650 OA
BRANCH  47  49
HETATM   49  O   UNK     0     -33.052 -21.690  15.511  0.00  0.00    -0.776 OA
HETATM   50  H   UNK     0     -33.803 -22.388  15.458  0.00  0.00     0.167 HD
ENDBRANCH  47  49
ENDBRANCH  46  47
ENDBRANCH  45  46
ENDBRANCH  11  45
BRANCH  18  51
HETATM   51  C   UNK     0     -33.863 -15.237  10.055  0.00  0.00     0.051 C 
BRANCH  51  52
HETATM   52  C   UNK     0     -33.368 -14.313  11.158  0.00  0.00     0.114 C 
BRANCH  52  53
HETATM   53  C   UNK     0     -34.484 -13.672  11.881  0.00  0.00     0.139 C 
HETATM   54  O   UNK     0     -34.603 -13.832  13.106  0.00  0.00    -0.650 OA
BRANCH  53  55
HETATM   55  O   UNK     0     -35.389 -12.904  11.191  0.00  0.00    -0.776 OA
HETATM   56  H   UNK     0     -35.696 -11.994  11.444  0.00  0.00     0.167 HD
ENDBRANCH  53  55
ENDBRANCH  52  53
ENDBRANCH  51  52
ENDBRANCH  18  51
TORSDOF 16
ENDMDL
MODEL 3
REMARK VINA RESULT:     -10.1     27.680     32.610
REMARK  16 active torsions:
REMARK  status: ('A' for Active; 'I' for Inactive)
REMARK    1  A    between atoms: C_6  and  C_7 
REMARK    2  A    between atoms: C_7  and  C_8 
REMARK    3  A    between atoms: C_8  and  C_9 
REMARK    4  A    between atoms: C_9  and  O_11 
REMARK    5  A    between atoms: C_16  and  C_17 
REMARK    6  A    between atoms: C_17  and  C_18 
REMARK    7  A    between atoms: C_18  and  C_19 
REMARK    8  A    between atoms: C_19  and  O_21 
REMARK    9  A    between atoms: C_28  and  C_29 
REMARK   10  A    between atoms: C_29  and  C_30 
REMARK   11  A    between atoms: C_30  and  C_31 
REMARK   12  A    between atoms: C_31  and  O_33 
REMARK   13  A    between atoms: C_42  and  C_43 
REMARK   14  A    between atoms: C_43  and  C_44 
REMARK   15  A    between atoms: C_44  and  C_45 
REMARK   16  A    between atoms: C_45  and  O_47 
ROOT
HETATM    1  C   UNK     0      -8.281  -9.782  -0.583  0.00  0.00     0.051 C 
HETATM    2  C   UNK     0      -8.965 -10.310  -1.828  0.00  0.00    -0.031 A 
HETATM    3  C   UNK     0      -8.409 -10.741  -3.022  0.00  0.00     0.021 A 
HETATM    4  N   UNK     0      -9.404 -11.098  -3.868  0.00  0.00    -0.361 N 
HETATM    5  C   UNK     0     -10.581 -10.912  -3.237  0.00  0.00     0.022 A 
HETATM    6  C   UNK     0     -10.343 -10.417  -1.959  0.00  0.00    -0.027 A 
HETATM    7  C   UNK     0     -11.969 -11.240  -3.693  0.00  0.00     0.115 C 
HETATM    8  C   UNK     0     -12.159 -12.575  -4.392  0.00  0.00     0.021 A 
HETATM    9  N   UNK     0     -11.546 -13.743  -4.144  0.00  0.00    -0.361 N 
HETATM   10  C   UNK     0     -11.957 -14.636  -5.069  0.00  0.00     0.022 A 
HETATM   11  C   UNK     0     -12.867 -14.029  -5.930  0.00  0.00    -0.027 A 
HETATM   12  C   UNK     0     -12.999 -12.730  -5.509  0.00  0.00    -0.031 A 
HETATM   13  C   UNK     0     -13.893 -11.691  -6.147  0.00  0.00     0.051 C 
HETATM   14  C   UNK     0     -11.471 -16.075  -5.210  0.00  0.00     0.115 C 
HETATM   15  C   UNK     0      -9.981 -16.198  -5.483  0.00  0.00     0.021 A 
HETATM   16  N   UNK     0      -8.967 -15.744  -4.723  0.00  0.00    -0.361 N 
HETATM   17  C   UNK     0      -7.810 -15.988  -5.343  0.00  0.00     0.022 A 
HETATM   18  C   UNK     0      -8.083 -16.642  -6.561  0.00  0.00    -0.027 A 
HETATM   19  C   UNK     0      -9.446 -16.769  -6.636  0.00  0.00    -0.031 A 
HETATM   20  C   UNK     0     -10.168 -17.455  -7.781  0.00  0.00     0.051 C 
HETATM   21  C   UNK     0      -6.398 -15.617  -4.949  0.00  0.00     0.115 C 
HETATM   22  C   UNK     0      -6.200 -14.312  -4.215  0.00  0.00     0.022 A 
HETATM   23  N   UNK     0      -6.799 -13.135  -4.437  0.00  0.00    -0.361 N 
HETATM   24  C   UNK     0      -6.434 -12.283  -3.458  0.00  0.00     0.021 A 
HETATM   25  C   UNK     0      -5.571 -12.923  -2.590  0.00  0.00    -0.031 A 
HETATM   26  C   UNK     0      -4.866 -12.373  -1.367  0.00  0.00     0.051 C 
HETATM   27  C   UNK     0      -5.406 -14.223  -3.054  0.00  0.00    -0.027 A 
HETATM   28  C   UNK     0      -6.926 -10.863  -3.230  0.00  0.00     0.115 C 
HETATM   29  H   UNK     0      -9.269 -11.441  -4.920  0.00  0.00     0.165 HD
HETATM   30  H   UNK     0     -10.861 -13.954  -3.287  0.00  0.00     0.165 HD
HETATM   31  H   UNK     0      -9.065 -15.283  -3.706  0.00  0.00     0.165 HD
HETATM   32  H   UNK     0      -7.452 -12.881  -5.312  0.00  0.00     0.165 HD
ENDROOT
BRANCH   6  33
HETATM   33  C   UNK     0     -11.314 -10.041  -0.868  0.00  0.00     0.051 C 
BRANCH  33  34
HETATM   34  C   UNK     0     -12.357  -9.079  -1.388  0.00  0.00     0.114 C 
BRANCH  34  35
HETATM   35  C   UNK     0     -13.682  -9.546  -0.890  0.00  0.00     0.139 C 
HETATM   36  O   UNK     0     -14.111 -10.695  -1.201  0.00  0.00    -0.650 OA
BRANCH  35  37
HETATM   37  O   UNK     0     -14.494  -8.765  -0.076  0.00  0.00    -0.776 OA
HETATM   38  H   UNK     0     -15.469  -8.975   0.065  0.00  0.00     0.167 HD
ENDBRANCH  35  37
ENDBRANCH  34  35
ENDBRANCH  33  34
ENDBRANCH   6  33
BRANCH  27  39
HETATM   39  C   UNK     0      -4.484 -15.201  -2.413  0.00  0.00     0.051 C 
BRANCH  39  40
HETATM   40  C   UNK     0      -5.027 -16.105  -1.399  0.00  0.00     0.114 C 
BRANCH  40  41
HETATM   41  C   UNK     0      -5.455 -15.637  -0.100  0.00  0.00     0.139 C 
HETATM   42  O   UNK     0      -6.589 -15.195   0.128  0.00  0.00    -0.650 OA
BRANCH  41  43
HETATM   43  O   UNK     0      -4.535 -15.679   0.987  0.00  0.00    -0.776 OA
HETATM   44  H   UNK     0      -3.719 -15.091   0.868  0.00  0.00     0.167 HD
ENDBRANCH  41  43
ENDBRANCH  40  41
ENDBRANCH  39  40
ENDBRANCH  27  39
BRANCH  11  45
HETATM   45  C   UNK     0     -13.595 -14.627  -7.104  0.00  0.00     0.051 C 
BRANCH  45  46
HETATM   46  C   UNK     0     -14.955 -15.129  -6.781  0.00  0.00     0.114 C 
BRANCH  46  47
HETATM   47  C   UNK     0     -14.852 -16.608  -6.619  0.00  0.00     0.139 C 
HETATM   48  O   UNK     0     -14.539 -17.291  -7.604  0.00  0.00    -0.650 OA
BRANCH  47  49
HETATM   49  O   UNK     0     -15.101 -17.201  -5.407  0.00  0.00    -0.776 OA
HETATM   50  H   UNK     0     -14.863 -18.183  -5.222  0.00  0.00     0.167 HD
ENDBRANCH  47  49
ENDBRANCH  46  47
ENDBRANCH  45  46
ENDBRANCH  11  45
BRANCH  18  51
HETATM   51  C   UNK     0      -7.098 -17.139  -7.587  0.00  0.00     0.051 C 
BRANCH  51  52
HETATM   52  C   UNK     0      -6.539 -15.902  -8.274  0.00  0.00     0.114 C 
BRANCH  52  53
HETATM   53  C   UNK     0      -7.128 -15.703  -9.612  0.00  0.00     0.139 C 
HETATM   54  O   UNK     0      -8.318 -15.994  -9.817  0.00  0.00    -0.650 OA
BRANCH  53  55
HETATM   55  O   UNK     0      -6.353 -15.197 -10.628  0.00  0.00    -0.776 OA
HETATM   56  H   UNK     0      -5.457 -14.783 -10.528  0.00  0.00     0.167 HD
ENDBRANCH  53  55
ENDBRANCH  52  53
ENDBRANCH  51  52
ENDBRANCH  18  51
TORSDOF 16
ENDMDL
MODEL 4
REMARK VINA RESULT:     -10.1     27.268     31.291
REMARK  16 active torsions:
REMARK  status: ('A' for Active; 'I' for Inactive)
REMARK    1  A    between atoms: C_6  and  C_7 
REMARK    2  A    between atoms: C_7  and  C_8 
REMARK    3  A    between atoms: C_8  and  C_9 
REMARK    4  A    between atoms: C_9  and  O_11 
REMARK    5  A    between atoms: C_16  and  C_17 
REMARK    6  A    between atoms: C_17  and  C_18 
REMARK    7  A    between atoms: C_18  and  C_19 
REMARK    8  A    between atoms: C_19  and  O_21 
REMARK    9  A    between atoms: C_28  and  C_29 
REMARK   10  A    between atoms: C_29  and  C_30 
REMARK   11  A    between atoms: C_30  and  C_31 
REMARK   12  A    between atoms: C_31  and  O_33 
REMARK   13  A    between atoms: C_42  and  C_43 
REMARK   14  A    between atoms: C_43  and  C_44 
REMARK   15  A    between atoms: C_44  and  C_45 
REMARK   16  A    between atoms: C_45  and  O_47 
ROOT
HETATM    1  C   UNK     0      -6.202 -15.849  -4.191  0.00  0.00     0.051 C 
HETATM    2  C   UNK     0      -7.713 -15.878  -4.301  0.00  0.00    -0.031 A 
HETATM    3  C   UNK     0      -8.669 -15.429  -3.403  0.00  0.00     0.021 A 
HETATM    4  N   UNK     0      -9.900 -15.687  -3.905  0.00  0.00    -0.361 N 
HETATM    5  C   UNK     0      -9.750 -16.281  -5.106  0.00  0.00     0.022 A 
HETATM    6  C   UNK     0      -8.394 -16.419  -5.384  0.00  0.00    -0.027 A 
HETATM    7  C   UNK     0     -10.788 -16.682  -6.107  0.00  0.00     0.115 C 
HETATM    8  C   UNK     0     -11.917 -15.695  -6.350  0.00  0.00     0.021 A 
HETATM    9  N   UNK     0     -11.868 -14.354  -6.356  0.00  0.00    -0.361 N 
HETATM   10  C   UNK     0     -13.125 -13.890  -6.522  0.00  0.00     0.022 A 
HETATM   11  C   UNK     0     -14.006 -14.962  -6.634  0.00  0.00    -0.027 A 
HETATM   12  C   UNK     0     -13.252 -16.102  -6.527  0.00  0.00    -0.031 A 
HETATM   13  C   UNK     0     -13.787 -17.514  -6.596  0.00  0.00     0.051 C 
HETATM   14  C   UNK     0     -13.551 -12.425  -6.527  0.00  0.00     0.115 C 
HETATM   15  C   UNK     0     -13.252 -11.691  -5.229  0.00  0.00     0.021 A 
HETATM   16  N   UNK     0     -12.054 -11.524  -4.638  0.00  0.00    -0.361 N 
HETATM   17  C   UNK     0     -12.223 -10.885  -3.478  0.00  0.00     0.022 A 
HETATM   18  C   UNK     0     -13.595 -10.615  -3.310  0.00  0.00    -0.027 A 
HETATM   19  C   UNK     0     -14.229 -11.123  -4.414  0.00  0.00    -0.031 A 
HETATM   20  C   UNK     0     -15.723 -11.014  -4.655  0.00  0.00     0.051 C 
HETATM   21  C   UNK     0     -11.214 -10.523  -2.413  0.00  0.00     0.115 C 
HETATM   22  C   UNK     0     -10.061 -11.473  -2.191  0.00  0.00     0.022 A 
HETATM   23  N   UNK     0     -10.079 -12.813  -2.183  0.00  0.00    -0.361 N 
HETATM   24  C   UNK     0      -8.808 -13.253  -2.095  0.00  0.00     0.021 A 
HETATM   25  C   UNK     0      -7.951 -12.171  -2.035  0.00  0.00    -0.031 A 
HETATM   26  C   UNK     0      -6.443 -12.157  -1.891  0.00  0.00     0.051 C 
HETATM   27  C   UNK     0      -8.729 -11.021  -2.094  0.00  0.00    -0.027 A 
HETATM   28  C   UNK     0      -8.317 -14.690  -2.144  0.00  0.00     0.115 C 
HETATM   29  H   UNK     0     -10.867 -15.482  -3.389  0.00  0.00     0.165 HD
HETATM   30  H   UNK     0     -10.942 -13.732  -6.295  0.00  0.00     0.165 HD
HETATM   31  H   UNK     0     -11.063 -11.821  -5.070  0.00  0.00     0.165 HD
HETATM   32  H   UNK     0     -10.994 -13.460  -2.196  0.00  0.00     0.165 HD
ENDROOT
BRANCH   6  33
HETATM   33  C   UNK     0      -7.705 -17.020  -6.583  0.00  0.00     0.051 C 
BRANCH  33  34
HETATM   34  C   UNK     0      -6.934 -15.965  -7.342  0.00  0.00     0.114 C 
BRANCH  34  35
HETATM   35  C   UNK     0      -7.160 -16.206  -8.796  0.00  0.00     0.139 C 
HETATM   36  O   UNK     0      -8.307 -16.539  -9.216  0.00  0.00    -0.650 OA
BRANCH  35  37
HETATM   37  O   UNK     0      -6.150 -16.079  -9.742  0.00  0.00    -0.776 OA
HETATM   38  H   UNK     0      -5.890 -15.186 -10.129  0.00  0.00     0.167 HD
ENDBRANCH  35  37
ENDBRANCH  34  35
ENDBRANCH  33  34
ENDBRANCH   6  33
BRANCH  27  39
HETATM   39  C   UNK     0      -8.160  -9.651  -1.984  0.00  0.00     0.051 C 
BRANCH  39  40
HETATM   40  C   UNK     0      -7.767  -9.167  -0.661  0.00  0.00     0.114 C 
BRANCH  40  41
HETATM   41  C   UNK     0      -6.385  -8.952  -0.298  0.00  0.00     0.139 C 
HETATM   42  O   UNK     0      -5.965  -9.018   0.866  0.00  0.00    -0.650 OA
BRANCH  41  43
HETATM   43  O   UNK     0      -5.441  -8.648  -1.320  0.00  0.00    -0.776 OA
HETATM   44  H   UNK     0      -5.852  -8.449  -2.224  0.00  0.00     0.167 HD
ENDBRANCH  41  43
ENDBRANCH  40  41
ENDBRANCH  39  40
ENDBRANCH  27  39
BRANCH  11  45
HETATM   45  C   UNK     0     -15.497 -14.937  -6.837  0.00  0.00     0.051 C 
BRANCH  45  46
HETATM   46  C   UNK     0     -15.915 -14.899  -8.262  0.00  0.00     0.114 C 
BRANCH  46  47
HETATM   47  C   UNK     0     -16.387 -16.267  -8.621  0.00  0.00     0.139 C 
HETATM   48  O   UNK     0     -17.409 -16.703  -8.074  0.00  0.00    -0.650 OA
BRANCH  47  49
HETATM   49  O   UNK     0     -15.705 -17.028  -9.536  0.00  0.00    -0.776 OA
HETATM   50  H   UNK     0     -14.955 -17.672  -9.259  0.00  0.00     0.167 HD
ENDBRANCH  47  49
ENDBRANCH  46  47
ENDBRANCH  45  46
ENDBRANCH  11  45
BRANCH  18  51
HETATM   51  C   UNK     0     -14.264  -9.892  -2.170  0.00  0.00     0.051 C 
BRANCH  51  52
HETATM   52  C   UNK     0     -14.578  -8.493  -2.679  0.00  0.00     0.114 C 
BRANCH  52  53
HETATM   53  C   UNK     0     -15.897  -8.022  -2.213  0.00  0.00     0.139 C 
HETATM   54  O   UNK     0     -16.124  -6.806  -2.115  0.00  0.00    -0.650 OA
BRANCH  53  55
HETATM   55  O   UNK     0     -16.869  -8.937  -1.887  0.00  0.00    -0.776 OA
HETATM   56  H   UNK     0     -17.354  -9.526  -2.522  0.00  0.00     0.167 HD
ENDBRANCH  53  55
ENDBRANCH  52  53
ENDBRANCH  51  52
ENDBRANCH  18  51
TORSDOF 16
ENDMDL
MODEL 5
REMARK VINA RESULT:     -10.0      2.593      9.155
REMARK  16 active torsions:
REMARK  status: ('A' for Active; 'I' for Inactive)
REMARK    1  A    between atoms: C_6  and  C_7 
REMARK    2  A    between atoms: C_7  and  C_8 
REMARK    3  A    between atoms: C_8  and  C_9 
REMARK    4  A    between atoms: C_9  and  O_11 
REMARK    5  A    between atoms: C_16  and  C_17 
REMARK    6  A    between atoms: C_17  and  C_18 
REMARK    7  A    between atoms: C_18  and  C_19 
REMARK    8  A    between atoms: C_19  and  O_21 
REMARK    9  A    between atoms: C_28  and  C_29 
REMARK   10  A    between atoms: C_29  and  C_30 
REMARK   11  A    between atoms: C_30  and  C_31 
REMARK   12  A    between atoms: C_31  and  O_33 
REMARK   13  A    between atoms: C_42  and  C_43 
REMARK   14  A    between atoms: C_43  and  C_44 
REMARK   15  A    between atoms: C_44  and  C_45 
REMARK   16  A    between atoms: C_45  and  O_47 
ROOT
HETATM    1  C   UNK     0     -32.272 -23.332  12.987  0.00  0.00     0.051 C 
HETATM    2  C   UNK     0     -33.160 -22.268  12.376  0.00  0.00    -0.031 A 
HETATM    3  C   UNK     0     -33.946 -22.327  11.236  0.00  0.00     0.021 A 
HETATM    4  N   UNK     0     -34.547 -21.127  11.052  0.00  0.00    -0.361 N 
HETATM    5  C   UNK     0     -34.169 -20.308  12.055  0.00  0.00     0.022 A 
HETATM    6  C   UNK     0     -33.299 -20.989  12.900  0.00  0.00    -0.027 A 
HETATM    7  C   UNK     0     -34.618 -18.915  12.367  0.00  0.00     0.115 C 
HETATM    8  C   UNK     0     -36.104 -18.632  12.233  0.00  0.00     0.021 A 
HETATM    9  N   UNK     0     -37.138 -19.444  12.505  0.00  0.00    -0.361 N 
HETATM   10  C   UNK     0     -38.275 -18.808  12.150  0.00  0.00     0.022 A 
HETATM   11  C   UNK     0     -37.965 -17.549  11.643  0.00  0.00    -0.027 A 
HETATM   12  C   UNK     0     -36.599 -17.432  11.693  0.00  0.00    -0.031 A 
HETATM   13  C   UNK     0     -35.809 -16.222  11.247  0.00  0.00     0.051 C 
HETATM   14  C   UNK     0     -39.688 -19.380  12.223  0.00  0.00     0.115 C 
HETATM   15  C   UNK     0     -39.894 -20.622  11.371  0.00  0.00     0.021 A 
HETATM   16  N   UNK     0     -39.228 -21.789  11.445  0.00  0.00    -0.361 N 
HETATM   17  C   UNK     0     -39.659 -22.602  10.477  0.00  0.00     0.022 A 
HETATM   18  C   UNK     0     -40.660 -21.936   9.744  0.00  0.00    -0.027 A 
HETATM   19  C   UNK     0     -40.800 -20.697  10.314  0.00  0.00    -0.031 A 
HETATM   20  C   UNK     0     -41.807 -19.662   9.849  0.00  0.00     0.051 C 
HETATM   21  C   UNK     0     -39.187 -23.984  10.088  0.00  0.00     0.115 C 
HETATM   22  C   UNK     0     -37.718 -24.294  10.258  0.00  0.00     0.022 A 
HETATM   23  N   UNK     0     -36.668 -23.504   9.999  0.00  0.00    -0.361 N 
HETATM   24  C   UNK     0     -35.553 -24.126  10.433  0.00  0.00     0.021 A 
HETATM   25  C   UNK     0     -35.893 -25.351  10.975  0.00  0.00    -0.031 A 
HETATM   26  C   UNK     0     -34.990 -26.421  11.553  0.00  0.00     0.051 C 
HETATM   27  C   UNK     0     -37.273 -25.481  10.875  0.00  0.00    -0.027 A 
HETATM   28  C   UNK     0     -34.133 -23.589  10.442  0.00  0.00     0.115 C 
HETATM   29  H   UNK     0     -35.203 -20.855  10.193  0.00  0.00     0.165 HD
HETATM   30  H   UNK     0     -37.072 -20.446  12.995  0.00  0.00     0.165 HD
HETATM   31  H   UNK     0     -38.471 -22.064  12.225  0.00  0.00     0.165 HD
HETATM   32  H   UNK     0     -36.699 -22.518   9.467  0.00  0.00     0.165 HD
ENDROOT
BRANCH   6  33
HETATM   33  C   UNK     0     -32.597 -20.522  14.150  0.00  0.00     0.051 C 
BRANCH  33  34
HETATM   34  C   UNK     0     -31.307 -19.815  13.807  0.00  0.00     0.114 C 
BRANCH  34  35
HETATM   35  C   UNK     0     -31.111 -18.731  14.812  0.00  0.00     0.139 C 
HETATM   36  O   UNK     0     -31.380 -17.531  14.515  0.00  0.00    -0.650 OA
BRANCH  35  37
HETATM   37  O   UNK     0     -30.638 -18.976  16.095  0.00  0.00    -0.776 OA
HETATM   38  H   UNK     0     -30.112 -18.289  16.611  0.00  0.00     0.167 HD
ENDBRANCH  35  37
ENDBRANCH  34  35
ENDBRANCH  33  34
ENDBRANCH   6  33
BRANCH  27  39
HETATM   39  C   UNK     0     -38.004 -26.708  11.293  0.00  0.00     0.051 C 
BRANCH  39  40
HETATM   40  C   UNK     0     -39.066 -26.577  12.290  0.00  0.00     0.114 C 
BRANCH  40  41
HETATM   41  C   UNK     0     -38.855 -26.891  13.686  0.00  0.00     0.139 C 
HETATM   42  O   UNK     0     -39.776 -27.122  14.481  0.00  0.00    -0.650 OA
BRANCH  41  43
HETATM   43  O   UNK     0     -37.524 -26.942  14.189  0.00  0.00    -0.776 OA
HETATM   44  H   UNK     0     -36.933 -26.176  13.889  0.00  0.00     0.167 HD
ENDBRANCH  41  43
ENDBRANCH  40  41
ENDBRANCH  39  40
ENDBRANCH  27  39
BRANCH  11  45
HETATM   45  C   UNK     0     -38.898 -16.485  11.131  0.00  0.00     0.051 C 
BRANCH  45  46
HETATM   46  C   UNK     0     -39.279 -16.648   9.705  0.00  0.00     0.114 C 
BRANCH  46  47
HETATM   47  C   UNK     0     -39.426 -15.281   9.128  0.00  0.00     0.139 C 
HETATM   48  O   UNK     0     -40.275 -15.099   8.245  0.00  0.00    -0.650 OA
BRANCH  47  49
HETATM   49  O   UNK     0     -38.637 -14.246   9.564  0.00  0.00    -0.776 OA
HETATM   50  H   UNK     0     -38.848 -13.723  10.422  0.00  0.00     0.167 HD
ENDBRANCH  47  49
ENDBRANCH  46  47
ENDBRANCH  45  46
ENDBRANCH  11  45
BRANCH  18  51
HETATM   51  C   UNK     0     -41.456 -22.459   8.577  0.00  0.00     0.051 C 
BRANCH  51  52
HETATM   52  C   UNK     0     -40.517 -22.446   7.380  0.00  0.00     0.114 C 
BRANCH  52  53
HETATM   53  C   UNK     0     -40.972 -23.359   6.314  0.00  0.00     0.139 C 
HETATM   54  O   UNK     0     -42.164 -23.700   6.254  0.00  0.00    -0.650 OA
BRANCH  53  55
HETATM   55  O   UNK     0     -40.069 -23.832   5.393  0.00  0.00    -0.776 OA
HETATM   56  H   UNK     0     -40.180 -24.640   4.827  0.00  0.00     0.167 HD
ENDBRANCH  53  55
ENDBRANCH  52  53
ENDBRANCH  51  52
ENDBRANCH  18  51
TORSDOF 16
ENDMDL
MODEL 6
REMARK VINA RESULT:      -9.9      2.034      7.179
REMARK  16 active torsions:
REMARK  status: ('A' for Active; 'I' for Inactive)
REMARK    1  A    between atoms: C_6  and  C_7 
REMARK    2  A    between atoms: C_7  and  C_8 
REMARK    3  A    between atoms: C_8  and  C_9 
REMARK    4  A    between atoms: C_9  and  O_11 
REMARK    5  A    between atoms: C_16  and  C_17 
REMARK    6  A    between atoms: C_17  and  C_18 
REMARK    7  A    between atoms: C_18  and  C_19 
REMARK    8  A    between atoms: C_19  and  O_21 
REMARK    9  A    between atoms: C_28  and  C_29 
REMARK   10  A    between atoms: C_29  and  C_30 
REMARK   11  A    between atoms: C_30  and  C_31 
REMARK   12  A    between atoms: C_31  and  O_33 
REMARK   13  A    between atoms: C_42  and  C_43 
REMARK   14  A    between atoms: C_43  and  C_44 
REMARK   15  A    between atoms: C_44  and  C_45 
REMARK   16  A    between atoms: C_45  and  O_47 
ROOT
HETATM    1  C   UNK     0     -32.763 -22.224  11.950  0.00  0.00     0.051 C 
HETATM    2  C   UNK     0     -34.247 -22.018  11.728  0.00  0.00    -0.031 A 
HETATM    3  C   UNK     0     -35.068 -20.990  12.164  0.00  0.00     0.021 A 
HETATM    4  N   UNK     0     -36.336 -21.234  11.756  0.00  0.00    -0.361 N 
HETATM    5  C   UNK     0     -36.340 -22.391  11.062  0.00  0.00     0.022 A 
HETATM    6  C   UNK     0     -35.050 -22.910  11.028  0.00  0.00    -0.027 A 
HETATM    7  C   UNK     0     -37.460 -23.054  10.323  0.00  0.00     0.115 C 
HETATM    8  C   UNK     0     -38.359 -22.153   9.495  0.00  0.00     0.021 A 
HETATM    9  N   UNK     0     -38.027 -21.057   8.794  0.00  0.00    -0.361 N 
HETATM   10  C   UNK     0     -39.160 -20.522   8.292  0.00  0.00     0.022 A 
HETATM   11  C   UNK     0     -40.250 -21.299   8.672  0.00  0.00    -0.027 A 
HETATM   12  C   UNK     0     -39.753 -22.328   9.430  0.00  0.00    -0.031 A 
HETATM   13  C   UNK     0     -40.577 -23.430  10.057  0.00  0.00     0.051 C 
HETATM   14  C   UNK     0     -39.266 -19.233   7.482  0.00  0.00     0.115 C 
HETATM   15  C   UNK     0     -38.791 -17.997   8.228  0.00  0.00     0.021 A 
HETATM   16  N   UNK     0     -37.573 -17.773   8.756  0.00  0.00    -0.361 N 
HETATM   17  C   UNK     0     -37.579 -16.598   9.390  0.00  0.00     0.022 A 
HETATM   18  C   UNK     0     -38.859 -16.024   9.260  0.00  0.00    -0.027 A 
HETATM   19  C   UNK     0     -39.608 -16.909   8.529  0.00  0.00    -0.031 A 
HETATM   20  C   UNK     0     -41.050 -16.662   8.126  0.00  0.00     0.051 C 
HETATM   21  C   UNK     0     -36.494 -15.926  10.200  0.00  0.00     0.115 C 
HETATM   22  C   UNK     0     -35.565 -16.813  10.994  0.00  0.00     0.022 A 
HETATM   23  N   UNK     0     -35.866 -17.912  11.698  0.00  0.00    -0.361 N 
HETATM   24  C   UNK     0     -34.716 -18.472  12.124  0.00  0.00     0.021 A 
HETATM   25  C   UNK     0     -33.648 -17.709  11.692  0.00  0.00    -0.031 A 
HETATM   26  C   UNK     0     -32.169 -17.907  11.951  0.00  0.00     0.051 C 
HETATM   27  C   UNK     0     -34.166 -16.642  10.967  0.00  0.00    -0.027 A 
HETATM   28  C   UNK     0     -34.541 -19.778  12.879  0.00  0.00     0.115 C 
HETATM   29  H   UNK     0     -37.226 -20.607  11.995  0.00  0.00     0.165 HD
HETATM   30  H   UNK     0     -36.989 -20.687   8.611  0.00  0.00     0.165 HD
HETATM   31  H   UNK     0     -36.676 -18.436   8.640  0.00  0.00     0.165 HD
HETATM   32  H   UNK     0     -36.898 -18.280  11.938  0.00  0.00     0.165 HD
ENDROOT
BRANCH   6  33
HETATM   33  C   UNK     0     -34.529 -24.173  10.390  0.00  0.00     0.051 C 
BRANCH  33  34
HETATM   34  C   UNK     0     -35.210 -25.387  10.976  0.00  0.00     0.114 C 
BRANCH  34  35
HETATM   35  C   UNK     0     -34.455 -26.588  10.514  0.00  0.00     0.139 C 
HETATM   36  O   UNK     0     -34.564 -26.988   9.318  0.00  0.00    -0.650 OA
BRANCH  35  37
HETATM   37  O   UNK     0     -33.613 -27.311  11.350  0.00  0.00    -0.776 OA
HETATM   38  H   UNK     0     -32.640 -27.455  11.134  0.00  0.00     0.167 HD
ENDBRANCH  35  37
ENDBRANCH  34  35
ENDBRANCH  33  34
ENDBRANCH   6  33
BRANCH  27  39
HETATM   39  C   UNK     0     -33.317 -15.559  10.400  0.00  0.00     0.051 C 
BRANCH  39  40
HETATM   40  C   UNK     0     -32.974 -14.425  11.257  0.00  0.00     0.114 C 
BRANCH  40  41
HETATM   41  C   UNK     0     -31.785 -14.411  12.078  0.00  0.00     0.139 C 
HETATM   42  O   UNK     0     -30.638 -14.316  11.619  0.00  0.00    -0.650 OA
BRANCH  41  43
HETATM   43  O   UNK     0     -31.920 -14.510  13.492  0.00  0.00    -0.776 OA
HETATM   44  H   UNK     0     -32.057 -15.454  13.834  0.00  0.00     0.167 HD
ENDBRANCH  41  43
ENDBRANCH  40  41
ENDBRANCH  39  40
ENDBRANCH  27  39
BRANCH  11  45
HETATM   45  C   UNK     0     -41.706 -21.103   8.345  0.00  0.00     0.051 C 
BRANCH  45  46
HETATM   46  C   UNK     0     -42.202 -19.724   8.589  0.00  0.00     0.114 C 
BRANCH  46  47
HETATM   47  C   UNK     0     -42.171 -19.498  10.062  0.00  0.00     0.139 C 
HETATM   48  O   UNK     0     -41.821 -20.431  10.798  0.00  0.00    -0.650 OA
BRANCH  47  49
HETATM   49  O   UNK     0     -42.525 -18.284  10.594  0.00  0.00    -0.776 OA
HETATM   50  H   UNK     0     -42.730 -17.469  10.003  0.00  0.00     0.167 HD
ENDBRANCH  47  49
ENDBRANCH  46  47
ENDBRANCH  45  46
ENDBRANCH  11  45
BRANCH  18  51
HETATM   51  C   UNK     0     -39.336 -14.695   9.785  0.00  0.00     0.051 C 
BRANCH  51  52
HETATM   52  C   UNK     0     -39.825 -14.948  11.204  0.00  0.00     0.114 C 
BRANCH  52  53
HETATM   53  C   UNK     0     -41.294 -15.067  11.265  0.00  0.00     0.139 C 
HETATM   54  O   UNK     0     -42.004 -14.401  10.495  0.00  0.00    -0.650 OA
BRANCH  53  55
HETATM   55  O   UNK     0     -41.870 -15.914  12.181  0.00  0.00    -0.776 OA
HETATM   56  H   UNK     0     -42.816 -16.216  12.183  0.00  0.00     0.167 HD
ENDBRANCH  53  55
ENDBRANCH  52  53
ENDBRANCH  51  52
ENDBRANCH  18  51
TORSDOF 16
ENDMDL
MODEL 7
REMARK VINA RESULT:      -9.5      2.318      7.506
REMARK  16 active torsions:
REMARK  status: ('A' for Active; 'I' for Inactive)
REMARK    1  A    between atoms: C_6  and  C_7 
REMARK    2  A    between atoms: C_7  and  C_8 
REMARK    3  A    between atoms: C_8  and  C_9 
REMARK    4  A    between atoms: C_9  and  O_11 
REMARK    5  A    between atoms: C_16  and  C_17 
REMARK    6  A    between atoms: C_17  and  C_18 
REMARK    7  A    between atoms: C_18  and  C_19 
REMARK    8  A    between atoms: C_19  and  O_21 
REMARK    9  A    between atoms: C_28  and  C_29 
REMARK   10  A    between atoms: C_29  and  C_30 
REMARK   11  A    between atoms: C_30  and  C_31 
REMARK   12  A    between atoms: C_31  and  O_33 
REMARK   13  A    between atoms: C_42  and  C_43 
REMARK   14  A    between atoms: C_43  and  C_44 
REMARK   15  A    between atoms: C_44  and  C_45 
REMARK   16  A    between atoms: C_45  and  O_47 
ROOT
HETATM    1  C   UNK     0     -41.852 -21.341   7.930  0.00  0.00     0.051 C 
HETATM    2  C   UNK     0     -41.118 -20.271   8.714  0.00  0.00    -0.031 A 
HETATM    3  C   UNK     0     -40.478 -20.362   9.940  0.00  0.00     0.021 A 
HETATM    4  N   UNK     0     -39.986 -19.145  10.271  0.00  0.00    -0.361 N 
HETATM    5  C   UNK     0     -40.290 -18.283   9.279  0.00  0.00     0.022 A 
HETATM    6  C   UNK     0     -41.001 -18.954   8.290  0.00  0.00    -0.027 A 
HETATM    7  C   UNK     0     -39.899 -16.848   9.112  0.00  0.00     0.115 C 
HETATM    8  C   UNK     0     -38.463 -16.489   9.452  0.00  0.00     0.021 A 
HETATM    9  N   UNK     0     -37.352 -17.218   9.266  0.00  0.00    -0.361 N 
HETATM   10  C   UNK     0     -36.313 -16.543   9.802  0.00  0.00     0.022 A 
HETATM   11  C   UNK     0     -36.766 -15.342  10.340  0.00  0.00    -0.027 A 
HETATM   12  C   UNK     0     -38.119 -15.301  10.123  0.00  0.00    -0.031 A 
HETATM   13  C   UNK     0     -39.037 -14.172  10.535  0.00  0.00     0.051 C 
HETATM   14  C   UNK     0     -34.867 -17.025   9.876  0.00  0.00     0.115 C 
HETATM   15  C   UNK     0     -34.686 -18.308  10.672  0.00  0.00     0.021 A 
HETATM   16  N   UNK     0     -35.259 -19.505  10.443  0.00  0.00    -0.361 N 
HETATM   17  C   UNK     0     -34.899 -20.355  11.406  0.00  0.00     0.022 A 
HETATM   18  C   UNK     0     -34.042 -19.683  12.301  0.00  0.00    -0.027 A 
HETATM   19  C   UNK     0     -33.916 -18.403  11.829  0.00  0.00    -0.031 A 
HETATM   20  C   UNK     0     -33.044 -17.345  12.481  0.00  0.00     0.051 C 
HETATM   21  C   UNK     0     -35.322 -21.786  11.648  0.00  0.00     0.115 C 
HETATM   22  C   UNK     0     -36.735 -22.169  11.272  0.00  0.00     0.022 A 
HETATM   23  N   UNK     0     -37.859 -21.461  11.442  0.00  0.00    -0.361 N 
HETATM   24  C   UNK     0     -38.868 -22.115  10.832  0.00  0.00     0.021 A 
HETATM   25  C   UNK     0     -38.383 -23.278  10.265  0.00  0.00    -0.031 A 
HETATM   26  C   UNK     0     -39.134 -24.357   9.513  0.00  0.00     0.051 C 
HETATM   27  C   UNK     0     -37.020 -23.335  10.533  0.00  0.00    -0.027 A 
HETATM   28  C   UNK     0     -40.309 -21.662  10.674  0.00  0.00     0.115 C 
HETATM   29  H   UNK     0     -39.461 -18.894  11.222  0.00  0.00     0.165 HD
HETATM   30  H   UNK     0     -37.290 -18.187   8.712  0.00  0.00     0.165 HD
HETATM   31  H   UNK     0     -35.893 -19.769   9.556  0.00  0.00     0.165 HD
HETATM   32  H   UNK     0     -37.959 -20.513  12.032  0.00  0.00     0.165 HD
ENDROOT
BRANCH   6  33
HETATM   33  C   UNK     0     -41.572 -18.445   6.991  0.00  0.00     0.051 C 
BRANCH  33  34
HETATM   34  C   UNK     0     -40.503 -17.766   6.166  0.00  0.00     0.114 C 
BRANCH  34  35
HETATM   35  C   UNK     0     -41.147 -16.627   5.451  0.00  0.00     0.139 C 
HETATM   36  O   UNK     0     -40.523 -15.537   5.296  0.00  0.00    -0.650 OA
BRANCH  35  37
HETATM   37  O   UNK     0     -42.433 -16.701   4.929  0.00  0.00    -0.776 OA
HETATM   38  H   UNK     0     -42.826 -17.567   4.596  0.00  0.00     0.167 HD
ENDBRANCH  35  37
ENDBRANCH  34  35
ENDBRANCH  33  34
ENDBRANCH   6  33
BRANCH  27  39
HETATM   39  C   UNK     0     -36.163 -24.486  10.139  0.00  0.00     0.051 C 
BRANCH  39  40
HETATM   40  C   UNK     0     -36.127 -25.656  11.016  0.00  0.00     0.114 C 
BRANCH  40  41
HETATM   41  C   UNK     0     -35.396 -26.854  10.671  0.00  0.00     0.139 C 
HETATM   42  O   UNK     0     -35.267 -27.266   9.511  0.00  0.00    -0.650 OA
BRANCH  41  43
HETATM   43  O   UNK     0     -34.785 -27.614  11.709  0.00  0.00    -0.776 OA
HETATM   44  H   UNK     0     -35.405 -27.853  12.474  0.00  0.00     0.167 HD
ENDBRANCH  41  43
ENDBRANCH  40  41
ENDBRANCH  39  40
ENDBRANCH  27  39
BRANCH  11  45
HETATM   45  C   UNK     0     -35.976 -14.262  11.031  0.00  0.00     0.051 C 
BRANCH  45  46
HETATM   46  C   UNK     0     -34.540 -14.226  10.653  0.00  0.00     0.114 C 
BRANCH  46  47
HETATM   47  C   UNK     0     -33.758 -14.054  11.911  0.00  0.00     0.139 C 
HETATM   48  O   UNK     0     -32.526 -13.943  11.831  0.00  0.00    -0.650 OA
BRANCH  47  49
HETATM   49  O   UNK     0     -34.385 -14.022  13.130  0.00  0.00    -0.776 OA
HETATM   50  H   UNK     0     -35.395 -13.857  13.219  0.00  0.00     0.167 HD
ENDBRANCH  47  49
ENDBRANCH  46  47
ENDBRANCH  45  46
ENDBRANCH  11  45
BRANCH  18  51
HETATM   51  C   UNK     0     -33.364 -20.238  13.527  0.00  0.00     0.051 C 
BRANCH  51  52
HETATM   52  C   UNK     0     -31.997 -20.728  13.073  0.00  0.00     0.114 C 
BRANCH  52  53
HETATM   53  C   UNK     0     -31.849 -22.185  13.252  0.00  0.00     0.139 C 
HETATM   54  O   UNK     0     -31.148 -22.840  12.463  0.00  0.00    -0.650 OA
BRANCH  53  55
HETATM   55  O   UNK     0     -32.491 -22.811  14.293  0.00  0.00    -0.776 OA
HETATM   56  H   UNK     0     -32.102 -23.012  15.183  0.00  0.00     0.167 HD
ENDBRANCH  53  55
ENDBRANCH  52  53
ENDBRANCH  51  52
ENDBRANCH  18  51
TORSDOF 16
ENDMDL
MODEL 8
REMARK VINA RESULT:      -9.5      2.130      7.475
REMARK  16 active torsions:
REMARK  status: ('A' for Active; 'I' for Inactive)
REMARK    1  A    between atoms: C_6  and  C_7 
REMARK    2  A    between atoms: C_7  and  C_8 
REMARK    3  A    between atoms: C_8  and  C_9 
REMARK    4  A    between atoms: C_9  and  O_11 
REMARK    5  A    between atoms: C_16  and  C_17 
REMARK    6  A    between atoms: C_17  and  C_18 
REMARK    7  A    between atoms: C_18  and  C_19 
REMARK    8  A    between atoms: C_19  and  O_21 
REMARK    9  A    between atoms: C_28  and  C_29 
REMARK   10  A    between atoms: C_29  and  C_30 
REMARK   11  A    between atoms: C_30  and  C_31 
REMARK   12  A    between atoms: C_31  and  O_33 
REMARK   13  A    between atoms: C_42  and  C_43 
REMARK   14  A    between atoms: C_43  and  C_44 
REMARK   15  A    between atoms: C_44  and  C_45 
REMARK   16  A    between atoms: C_45  and  O_47 
ROOT
HETATM    1  C   UNK     0     -31.591 -20.425  13.370  0.00  0.00     0.051 C 
HETATM    2  C   UNK     0     -33.038 -20.588  12.951  0.00  0.00    -0.031 A 
HETATM    3  C   UNK     0     -34.134 -19.791  13.242  0.00  0.00     0.021 A 
HETATM    4  N   UNK     0     -35.239 -20.337  12.682  0.00  0.00    -0.361 N 
HETATM    5  C   UNK     0     -34.870 -21.461  12.033  0.00  0.00     0.022 A 
HETATM    6  C   UNK     0     -33.500 -21.649  12.183  0.00  0.00    -0.027 A 
HETATM    7  C   UNK     0     -35.687 -22.379  11.179  0.00  0.00     0.115 C 
HETATM    8  C   UNK     0     -36.659 -21.725  10.212  0.00  0.00     0.021 A 
HETATM    9  N   UNK     0     -36.511 -20.583   9.523  0.00  0.00    -0.361 N 
HETATM   10  C   UNK     0     -37.662 -20.341   8.861  0.00  0.00     0.022 A 
HETATM   11  C   UNK     0     -38.573 -21.361   9.122  0.00  0.00    -0.027 A 
HETATM   12  C   UNK     0     -37.947 -22.236   9.973  0.00  0.00    -0.031 A 
HETATM   13  C   UNK     0     -38.556 -23.505  10.525  0.00  0.00     0.051 C 
HETATM   14  C   UNK     0     -37.968 -19.118   8.001  0.00  0.00     0.115 C 
HETATM   15  C   UNK     0     -37.910 -17.802   8.760  0.00  0.00     0.021 A 
HETATM   16  N   UNK     0     -36.864 -17.287   9.433  0.00  0.00    -0.361 N 
HETATM   17  C   UNK     0     -37.239 -16.149  10.020  0.00  0.00     0.022 A 
HETATM   18  C   UNK     0     -38.591 -15.905   9.707  0.00  0.00    -0.027 A 
HETATM   19  C   UNK     0     -38.999 -16.947   8.916  0.00  0.00    -0.031 A 
HETATM   20  C   UNK     0     -40.391 -17.060   8.321  0.00  0.00     0.051 C 
HETATM   21  C   UNK     0     -36.467 -15.231  10.941  0.00  0.00     0.115 C 
HETATM   22  C   UNK     0     -35.465 -15.863  11.878  0.00  0.00     0.022 A 
HETATM   23  N   UNK     0     -35.583 -17.002  12.574  0.00  0.00    -0.361 N 
HETATM   24  C   UNK     0     -34.399 -17.263  13.163  0.00  0.00     0.021 A 
HETATM   25  C   UNK     0     -33.500 -16.263  12.847  0.00  0.00    -0.031 A 
HETATM   26  C   UNK     0     -32.065 -16.094  13.302  0.00  0.00     0.051 C 
HETATM   27  C   UNK     0     -34.159 -15.356  12.026  0.00  0.00    -0.027 A 
HETATM   28  C   UNK     0     -34.017 -18.486  13.978  0.00  0.00     0.115 C 
HETATM   29  H   UNK     0     -36.278 -19.947  12.783  0.00  0.00     0.165 HD
HETATM   30  H   UNK     0     -35.578 -19.971   9.462  0.00  0.00     0.165 HD
HETATM   31  H   UNK     0     -35.827 -17.711   9.456  0.00  0.00     0.165 HD
HETATM   32  H   UNK     0     -36.518 -17.610  12.690  0.00  0.00     0.165 HD
ENDROOT
BRANCH   6  33
HETATM   33  C   UNK     0     -32.609 -22.748  11.662  0.00  0.00     0.051 C 
BRANCH  33  34
HETATM   34  C   UNK     0     -32.201 -23.681  12.777  0.00  0.00     0.114 C 
BRANCH  34  35
HETATM   35  C   UNK     0     -30.962 -24.386  12.339  0.00  0.00     0.139 C 
HETATM   36  O   UNK     0     -30.044 -23.751  11.743  0.00  0.00    -0.650 OA
BRANCH  35  37
HETATM   37  O   UNK     0     -30.755 -25.743  12.558  0.00  0.00    -0.776 OA
HETATM   38  H   UNK     0     -31.502 -26.415  12.493  0.00  0.00     0.167 HD
ENDBRANCH  35  37
ENDBRANCH  34  35
ENDBRANCH  33  34
ENDBRANCH   6  33
BRANCH  27  39
HETATM   39  C   UNK     0     -33.529 -14.099  11.537  0.00  0.00     0.051 C 
BRANCH  39  40
HETATM   40  C   UNK     0     -32.400 -14.203  10.613  0.00  0.00     0.114 C 
BRANCH  40  41
HETATM   41  C   UNK     0     -31.605 -13.056  10.236  0.00  0.00     0.139 C 
HETATM   42  O   UNK     0     -30.558 -13.136   9.579  0.00  0.00    -0.650 OA
BRANCH  41  43
HETATM   43  O   UNK     0     -32.034 -11.757  10.632  0.00  0.00    -0.776 OA
HETATM   44  H   UNK     0     -32.033 -11.070   9.888  0.00  0.00     0.167 HD
ENDBRANCH  41  43
ENDBRANCH  40  41
ENDBRANCH  39  40
ENDBRANCH  27  39
BRANCH  11  45
HETATM   45  C   UNK     0     -39.976 -21.527   8.604  0.00  0.00     0.051 C 
BRANCH  45  46
HETATM   46  C   UNK     0     -41.006 -21.643   9.668  0.00  0.00     0.114 C 
BRANCH  46  47
HETATM   47  C   UNK     0     -41.747 -20.350   9.708  0.00  0.00     0.139 C 
HETATM   48  O   UNK     0     -41.741 -19.697  10.761  0.00  0.00    -0.650 OA
BRANCH  47  49
HETATM   49  O   UNK     0     -42.422 -19.892   8.605  0.00  0.00    -0.776 OA
HETATM   50  H   UNK     0     -42.023 -19.945   7.661  0.00  0.00     0.167 HD
ENDBRANCH  47  49
ENDBRANCH  46  47
ENDBRANCH  45  46
ENDBRANCH  11  45
BRANCH  18  51
HETATM   51  C   UNK     0     -39.441 -14.732  10.121  0.00  0.00     0.051 C 
BRANCH  51  52
HETATM   52  C   UNK     0     -40.246 -15.194  11.326  0.00  0.00     0.114 C 
BRANCH  52  53
HETATM   53  C   UNK     0     -41.646 -15.495  10.968  0.00  0.00     0.139 C 
HETATM   54  O   UNK     0     -42.320 -14.663  10.339  0.00  0.00    -0.650 OA
BRANCH  53  55
HETATM   55  O   UNK     0     -42.198 -16.698  11.337  0.00  0.00    -0.776 OA
HETATM   56  H   UNK     0     -43.167 -16.909  11.374  0.00  0.00     0.167 HD
ENDBRANCH  53  55
ENDBRANCH  52  53
ENDBRANCH  51  52
ENDBRANCH  18  51
TORSDOF 16
ENDMDL
MODEL 9
REMARK VINA RESULT:      -9.5     27.055     30.215
REMARK  16 active torsions:
REMARK  status: ('A' for Active; 'I' for Inactive)
REMARK    1  A    between atoms: C_6  and  C_7 
REMARK    2  A    between atoms: C_7  and  C_8 
REMARK    3  A    between atoms: C_8  and  C_9 
REMARK    4  A    between atoms: C_9  and  O_11 
REMARK    5  A    between atoms: C_16  and  C_17 
REMARK    6  A    between atoms: C_17  and  C_18 
REMARK    7  A    between atoms: C_18  and  C_19 
REMARK    8  A    between atoms: C_19  and  O_21 
REMARK    9  A    between atoms: C_28  and  C_29 
REMARK   10  A    between atoms: C_29  and  C_30 
REMARK   11  A    between atoms: C_30  and  C_31 
REMARK   12  A    between atoms: C_31  and  O_33 
REMARK   13  A    between atoms: C_42  and  C_43 
REMARK   14  A    between atoms: C_43  and  C_44 
REMARK   15  A    between atoms: C_44  and  C_45 
REMARK   16  A    between atoms: C_45  and  O_47 
ROOT
HETATM    1  C   UNK     0     -15.881 -14.454  -6.641  0.00  0.00     0.051 C 
HETATM    2  C   UNK     0     -14.368 -14.501  -6.571  0.00  0.00    -0.031 A 
HETATM    3  C   UNK     0     -13.454 -13.459  -6.572  0.00  0.00     0.021 A 
HETATM    4  N   UNK     0     -12.201 -13.971  -6.528  0.00  0.00    -0.361 N 
HETATM    5  C   UNK     0     -12.297 -15.316  -6.490  0.00  0.00     0.022 A 
HETATM    6  C   UNK     0     -13.638 -15.682  -6.519  0.00  0.00    -0.027 A 
HETATM    7  C   UNK     0     -11.218 -16.343  -6.342  0.00  0.00     0.115 C 
HETATM    8  C   UNK     0     -10.129 -16.046  -5.326  0.00  0.00     0.021 A 
HETATM    9  N   UNK     0     -10.237 -15.423  -4.142  0.00  0.00    -0.361 N 
HETATM   10  C   UNK     0      -8.999 -15.299  -3.620  0.00  0.00     0.022 A 
HETATM   11  C   UNK     0      -8.069 -15.865  -4.486  0.00  0.00    -0.027 A 
HETATM   12  C   UNK     0      -8.774 -16.338  -5.563  0.00  0.00    -0.031 A 
HETATM   13  C   UNK     0      -8.174 -17.040  -6.761  0.00  0.00     0.051 C 
HETATM   14  C   UNK     0      -8.639 -14.597  -2.313  0.00  0.00     0.115 C 
HETATM   15  C   UNK     0      -9.001 -13.121  -2.287  0.00  0.00     0.021 A 
HETATM   16  N   UNK     0     -10.219 -12.571  -2.452  0.00  0.00    -0.361 N 
HETATM   17  C   UNK     0     -10.106 -11.241  -2.431  0.00  0.00     0.022 A 
HETATM   18  C   UNK     0      -8.751 -10.908  -2.232  0.00  0.00    -0.027 A 
HETATM   19  C   UNK     0      -8.070 -12.095  -2.143  0.00  0.00    -0.031 A 
HETATM   20  C   UNK     0      -6.576 -12.193  -1.891  0.00  0.00     0.051 C 
HETATM   21  C   UNK     0     -11.155 -10.173  -2.642  0.00  0.00     0.115 C 
HETATM   22  C   UNK     0     -12.269 -10.473  -3.617  0.00  0.00     0.022 A 
HETATM   23  N   UNK     0     -12.191 -11.094  -4.801  0.00  0.00    -0.361 N 
HETATM   24  C   UNK     0     -13.443 -11.277  -5.267  0.00  0.00     0.021 A 
HETATM   25  C   UNK     0     -14.349 -10.751  -4.366  0.00  0.00    -0.031 A 
HETATM   26  C   UNK     0     -15.859 -10.680  -4.463  0.00  0.00     0.051 C 
HETATM   27  C   UNK     0     -13.621 -10.230  -3.302  0.00  0.00    -0.027 A 
HETATM   28  C   UNK     0     -13.868 -12.015  -6.524  0.00  0.00     0.115 C 
HETATM   29  H   UNK     0     -11.257 -13.379  -6.564  0.00  0.00     0.165 HD
HETATM   30  H   UNK     0     -11.192 -15.115  -3.649  0.00  0.00     0.165 HD
HETATM   31  H   UNK     0     -11.185 -13.132  -2.538  0.00  0.00     0.165 HD
HETATM   32  H   UNK     0     -11.248 -11.372  -5.340  0.00  0.00     0.165 HD
ENDROOT
BRANCH   6  33
HETATM   33  C   UNK     0     -14.271 -17.050  -6.503  0.00  0.00     0.051 C 
BRANCH  33  34
HETATM   34  C   UNK     0     -14.701 -17.457  -7.892  0.00  0.00     0.114 C 
BRANCH  34  35
HETATM   35  C   UNK     0     -16.112 -17.931  -7.802  0.00  0.00     0.139 C 
HETATM   36  O   UNK     0     -16.405 -18.925  -7.076  0.00  0.00    -0.650 OA
BRANCH  35  37
HETATM   37  O   UNK     0     -17.153 -17.321  -8.491  0.00  0.00    -0.776 OA
HETATM   38  H   UNK     0     -18.078 -17.718  -8.524  0.00  0.00     0.167 HD
ENDBRANCH  35  37
ENDBRANCH  34  35
ENDBRANCH  33  34
ENDBRANCH   6  33
BRANCH  27  39
HETATM   39  C   UNK     0     -14.254  -9.512  -2.162  0.00  0.00     0.051 C 
BRANCH  39  40
HETATM   40  C   UNK     0     -14.773  -8.165  -2.392  0.00  0.00     0.114 C 
BRANCH  40  41
HETATM   41  C   UNK     0     -16.169  -7.836  -2.213  0.00  0.00     0.139 C 
HETATM   42  O   UNK     0     -16.657  -6.737  -2.512  0.00  0.00    -0.650 OA
BRANCH  41  43
HETATM   43  O   UNK     0     -17.045  -8.815  -1.664  0.00  0.00    -0.776 OA
HETATM   44  H   UNK     0     -17.989  -8.786  -2.030  0.00  0.00     0.167 HD
ENDBRANCH  41  43
ENDBRANCH  40  41
ENDBRANCH  39  40
ENDBRANCH  27  39
BRANCH  11  45
HETATM   45  C   UNK     0      -6.576 -15.970  -4.327  0.00  0.00     0.051 C 
BRANCH  45  46
HETATM   46  C   UNK     0      -6.143 -16.517  -3.016  0.00  0.00     0.114 C 
BRANCH  46  47
HETATM   47  C   UNK     0      -5.058 -15.631  -2.504  0.00  0.00     0.139 C 
HETATM   48  O   UNK     0      -4.425 -14.941  -3.316  0.00  0.00    -0.650 OA
BRANCH  47  49
HETATM   49  O   UNK     0      -4.765 -15.580  -1.165  0.00  0.00    -0.776 OA
HETATM   50  H   UNK     0      -4.754 -16.422  -0.577  0.00  0.00     0.167 HD
ENDBRANCH  47  49
ENDBRANCH  46  47
ENDBRANCH  45  46
ENDBRANCH  11  45
BRANCH  18  51
HETATM   51  C   UNK     0      -8.142  -9.535  -2.113  0.00  0.00     0.051 C 
BRANCH  51  52
HETATM   52  C   UNK     0      -7.850  -9.325  -0.635  0.00  0.00     0.114 C 
BRANCH  52  53
HETATM   53  C   UNK     0      -6.437  -8.972  -0.399  0.00  0.00     0.139 C 
HETATM   54  O   UNK     0      -5.979  -8.980   0.755  0.00  0.00    -0.650 OA
BRANCH  53  55
HETATM   55  O   UNK     0      -5.635  -8.631  -1.461  0.00  0.00    -0.776 OA
HETATM   56  H   UNK     0      -5.884  -8.682  -2.421  0.00  0.00     0.167 HD
ENDBRANCH  53  55
ENDBRANCH  52  53
ENDBRANCH  51  52
ENDBRANCH  18  51
TORSDOF 16
ENDMDL
MODEL 10
REMARK VINA RESULT:      -9.4      2.399      8.190
REMARK  16 active torsions:
REMARK  status: ('A' for Active; 'I' for Inactive)
REMARK    1  A    between atoms: C_6  and  C_7 
REMARK    2  A    between atoms: C_7  and  C_8 
REMARK    3  A    between atoms: C_8  and  C_9 
REMARK    4  A    between atoms: C_9  and  O_11 
REMARK    5  A    between atoms: C_16  and  C_17 
REMARK    6  A    between atoms: C_17  and  C_18 
REMARK    7  A    between atoms: C_18  and  C_19 
REMARK    8  A    between atoms: C_19  and  O_21 
REMARK    9  A    between atoms: C_28  and  C_29 
REMARK   10  A    between atoms: C_29  and  C_30 
REMARK   11  A    between atoms: C_30  and  C_31 
REMARK   12  A    between atoms: C_31  and  O_33 
REMARK   13  A    between atoms: C_42  and  C_43 
REMARK   14  A    between atoms: C_43  and  C_44 
REMARK   15  A    between atoms: C_44  and  C_45 
REMARK   16  A    between atoms: C_45  and  O_47 
ROOT
HETATM    1  C   UNK     0     -36.445 -13.258  11.014  0.00  0.00     0.051 C 
HETATM    2  C   UNK     0     -36.751 -14.581  10.341  0.00  0.00    -0.031 A 
HETATM    3  C   UNK     0     -35.880 -15.555   9.879  0.00  0.00     0.021 A 
HETATM    4  N   UNK     0     -36.597 -16.558   9.319  0.00  0.00    -0.361 N 
HETATM    5  C   UNK     0     -37.906 -16.249   9.422  0.00  0.00     0.022 A 
HETATM    6  C   UNK     0     -38.038 -15.018  10.055  0.00  0.00    -0.027 A 
HETATM    7  C   UNK     0     -39.108 -17.059   9.047  0.00  0.00     0.115 C 
HETATM    8  C   UNK     0     -39.073 -18.535   9.402  0.00  0.00     0.021 A 
HETATM    9  N   UNK     0     -38.529 -19.124  10.478  0.00  0.00    -0.361 N 
HETATM   10  C   UNK     0     -38.653 -20.460  10.332  0.00  0.00     0.022 A 
HETATM   11  C   UNK     0     -39.302 -20.739   9.133  0.00  0.00    -0.027 A 
HETATM   12  C   UNK     0     -39.570 -19.531   8.542  0.00  0.00    -0.031 A 
HETATM   13  C   UNK     0     -40.275 -19.343   7.217  0.00  0.00     0.051 C 
HETATM   14  C   UNK     0     -38.119 -21.524  11.287  0.00  0.00     0.115 C 
HETATM   15  C   UNK     0     -36.608 -21.495  11.459  0.00  0.00     0.021 A 
HETATM   16  N   UNK     0     -35.851 -20.471  11.895  0.00  0.00    -0.361 N 
HETATM   17  C   UNK     0     -34.564 -20.821  11.835  0.00  0.00     0.022 A 
HETATM   18  C   UNK     0     -34.480 -22.139  11.345  0.00  0.00    -0.027 A 
HETATM   19  C   UNK     0     -35.767 -22.551  11.115  0.00  0.00    -0.031 A 
HETATM   20  C   UNK     0     -36.133 -23.935  10.612  0.00  0.00     0.051 C 
HETATM   21  C   UNK     0     -33.323 -20.014  12.140  0.00  0.00     0.115 C 
HETATM   22  C   UNK     0     -33.359 -18.535  11.833  0.00  0.00     0.022 A 
HETATM   23  N   UNK     0     -33.897 -17.921  10.772  0.00  0.00    -0.361 N 
HETATM   24  C   UNK     0     -33.832 -16.589  10.975  0.00  0.00     0.021 A 
HETATM   25  C   UNK     0     -33.228 -16.340  12.192  0.00  0.00    -0.031 A 
HETATM   26  C   UNK     0     -32.897 -15.011  12.838  0.00  0.00     0.051 C 
HETATM   27  C   UNK     0     -32.916 -17.570  12.760  0.00  0.00    -0.027 A 
HETATM   28  C   UNK     0     -34.395 -15.486  10.095  0.00  0.00     0.115 C 
HETATM   29  H   UNK     0     -36.171 -17.459   8.819  0.00  0.00     0.165 HD
HETATM   30  H   UNK     0     -38.102 -18.598  11.367  0.00  0.00     0.165 HD
HETATM   31  H   UNK     0     -36.234 -19.498  12.299  0.00  0.00     0.165 HD
HETATM   32  H   UNK     0     -34.289 -18.421   9.848  0.00  0.00     0.165 HD
ENDROOT
BRANCH   6  33
HETATM   33  C   UNK     0     -39.278 -14.233  10.401  0.00  0.00     0.051 C 
BRANCH  33  34
HETATM   34  C   UNK     0     -40.120 -14.979  11.408  0.00  0.00     0.114 C 
BRANCH  34  35
HETATM   35  C   UNK     0     -41.453 -15.220  10.784  0.00  0.00     0.139 C 
HETATM   36  O   UNK     0     -42.013 -16.350  10.893  0.00  0.00    -0.650 OA
BRANCH  35  37
HETATM   37  O   UNK     0     -42.135 -14.241  10.071  0.00  0.00    -0.776 OA
HETATM   38  H   UNK     0     -41.979 -13.259  10.229  0.00  0.00     0.167 HD
ENDBRANCH  35  37
ENDBRANCH  34  35
ENDBRANCH  33  34
ENDBRANCH   6  33
BRANCH  27  39
HETATM   39  C   UNK     0     -32.187 -17.706  14.051  0.00  0.00     0.051 C 
BRANCH  39  40
HETATM   40  C   UNK     0     -32.946 -18.096  15.239  0.00  0.00     0.114 C 
BRANCH  40  41
HETATM   41  C   UNK     0     -32.710 -19.346  15.927  0.00  0.00     0.139 C 
HETATM   42  O   UNK     0     -31.919 -19.467  16.872  0.00  0.00    -0.650 OA
BRANCH  41  43
HETATM   43  O   UNK     0     -33.417 -20.509  15.510  0.00  0.00    -0.776 OA
HETATM   44  H   UNK     0     -33.888 -21.004  16.258  0.00  0.00     0.167 HD
ENDBRANCH  41  43
ENDBRANCH  40  41
ENDBRANCH  39  40
ENDBRANCH  27  39
BRANCH  11  45
HETATM   45  C   UNK     0     -39.669 -22.078   8.550  0.00  0.00     0.051 C 
BRANCH  45  46
HETATM   46  C   UNK     0     -40.907 -22.668   9.119  0.00  0.00     0.114 C 
BRANCH  46  47
HETATM   47  C   UNK     0     -40.489 -23.705  10.106  0.00  0.00     0.139 C 
HETATM   48  O   UNK     0     -39.535 -24.442   9.822  0.00  0.00    -0.650 OA
BRANCH  47  49
HETATM   49  O   UNK     0     -41.147 -23.841  11.303  0.00  0.00    -0.776 OA
HETATM   50  H   UNK     0     -41.589 -24.724  11.584  0.00  0.00     0.167 HD
ENDBRANCH  47  49
ENDBRANCH  46  47
ENDBRANCH  45  46
ENDBRANCH  11  45
BRANCH  18  51
HETATM   51  C   UNK     0     -33.241 -22.969  11.129  0.00  0.00     0.051 C 
BRANCH  51  52
HETATM   52  C   UNK     0     -32.850 -23.515  12.494  0.00  0.00     0.114 C 
BRANCH  52  53
HETATM   53  C   UNK     0     -31.488 -23.100  12.883  0.00  0.00     0.139 C 
HETATM   54  O   UNK     0     -30.505 -23.532  12.259  0.00  0.00    -0.650 OA
BRANCH  53  55
HETATM   55  O   UNK     0     -31.316 -22.238  13.938  0.00  0.00    -0.776 OA
HETATM   56  H   UNK     0     -30.702 -22.371  14.707  0.00  0.00     0.167 HD
ENDBRANCH  53  55
ENDBRANCH  52  53
ENDBRANCH  51  52
ENDBRANCH  18  51
TORSDOF 16
ENDMDL
MODEL 11
REMARK VINA RESULT:      -8.5     28.198     31.515
REMARK  16 active torsions:
REMARK  status: ('A' for Active; 'I' for Inactive)
REMARK    1  A    between atoms: C_6  and  C_7 
REMARK    2  A    between atoms: C_7  and  C_8 
REMARK    3  A    between atoms: C_8  and  C_9 
REMARK    4  A    between atoms: C_9  and  O_11 
REMARK    5  A    between atoms: C_16  and  C_17 
REMARK    6  A    between atoms: C_17  and  C_18 
REMARK    7  A    between atoms: C_18  and  C_19 
REMARK    8  A    between atoms: C_19  and  O_21 
REMARK    9  A    between atoms: C_28  and  C_29 
REMARK   10  A    between atoms: C_29  and  C_30 
REMARK   11  A    between atoms: C_30  and  C_31 
REMARK   12  A    between atoms: C_31  and  O_33 
REMARK   13  A    between atoms: C_42  and  C_43 
REMARK   14  A    between atoms: C_43  and  C_44 
REMARK   15  A    between atoms: C_44  and  C_45 
REMARK   16  A    between atoms: C_45  and  O_47 
ROOT
HETATM    1  C   UNK     0      -7.964 -19.821  -6.383  0.00  0.00     0.051 C 
HETATM    2  C   UNK     0      -7.646 -18.433  -5.866  0.00  0.00    -0.031 A 
HETATM    3  C   UNK     0      -8.114 -17.203  -6.301  0.00  0.00     0.021 A 
HETATM    4  N   UNK     0      -7.536 -16.225  -5.564  0.00  0.00    -0.361 N 
HETATM    5  C   UNK     0      -6.715 -16.805  -4.664  0.00  0.00     0.022 A 
HETATM    6  C   UNK     0      -6.758 -18.185  -4.826  0.00  0.00    -0.027 A 
HETATM    7  C   UNK     0      -5.918 -16.180  -3.561  0.00  0.00     0.115 C 
HETATM    8  C   UNK     0      -6.608 -15.097  -2.751  0.00  0.00     0.021 A 
HETATM    9  N   UNK     0      -7.899 -15.015  -2.392  0.00  0.00    -0.361 N 
HETATM   10  C   UNK     0      -8.084 -13.836  -1.760  0.00  0.00     0.022 A 
HETATM   11  C   UNK     0      -6.877 -13.144  -1.702  0.00  0.00    -0.027 A 
HETATM   12  C   UNK     0      -5.944 -13.933  -2.325  0.00  0.00    -0.031 A 
HETATM   13  C   UNK     0      -4.482 -13.586  -2.497  0.00  0.00     0.051 C 
HETATM   14  C   UNK     0      -9.410 -13.294  -1.234  0.00  0.00     0.115 C 
HETATM   15  C   UNK     0     -10.464 -13.095  -2.312  0.00  0.00     0.021 A 
HETATM   16  N   UNK     0     -10.971 -14.022  -3.146  0.00  0.00    -0.361 N 
HETATM   17  C   UNK     0     -11.821 -13.433  -3.991  0.00  0.00     0.022 A 
HETATM   18  C   UNK     0     -11.877 -12.059  -3.686  0.00  0.00    -0.027 A 
HETATM   19  C   UNK     0     -11.024 -11.860  -2.632  0.00  0.00    -0.031 A 
HETATM   20  C   UNK     0     -10.810 -10.515  -1.961  0.00  0.00     0.051 C 
HETATM   21  C   UNK     0     -12.591 -14.013  -5.155  0.00  0.00     0.115 C 
HETATM   22  C   UNK     0     -11.935 -15.122  -5.943  0.00  0.00     0.022 A 
HETATM   23  N   UNK     0     -10.652 -15.232  -6.311  0.00  0.00    -0.361 N 
HETATM   24  C   UNK     0     -10.474 -16.446  -6.869  0.00  0.00     0.021 A 
HETATM   25  C   UNK     0     -11.674 -17.131  -6.869  0.00  0.00    -0.031 A 
HETATM   26  C   UNK     0     -11.986 -18.507  -7.422  0.00  0.00     0.051 C 
HETATM   27  C   UNK     0     -12.624 -16.304  -6.282  0.00  0.00    -0.027 A 
HETATM   28  C   UNK     0      -9.175 -17.064  -7.356  0.00  0.00     0.115 C 
HETATM   29  H   UNK     0      -7.681 -15.129  -5.712  0.00  0.00     0.165 HD
HETATM   30  H   UNK     0      -8.671 -15.809  -2.538  0.00  0.00     0.165 HD
HETATM   31  H   UNK     0     -10.761 -15.122  -3.108  0.00  0.00     0.165 HD
HETATM   32  H   UNK     0      -9.869 -14.435  -6.220  0.00  0.00     0.165 HD
ENDROOT
BRANCH   6  33
HETATM   33  C   UNK     0      -6.027 -19.273  -4.081  0.00  0.00     0.051 C 
BRANCH  33  34
HETATM   34  C   UNK     0      -7.003 -20.212  -3.411  0.00  0.00     0.114 C 
BRANCH  34  35
HETATM   35  C   UNK     0      -6.223 -21.375  -2.900  0.00  0.00     0.139 C 
HETATM   36  O   UNK     0      -4.965 -21.300  -2.788  0.00  0.00    -0.650 OA
BRANCH  35  37
HETATM   37  O   UNK     0      -6.822 -22.572  -2.526  0.00  0.00    -0.776 OA
HETATM   38  H   UNK     0      -7.110 -23.261  -3.203  0.00  0.00     0.167 HD
ENDBRANCH  35  37
ENDBRANCH  34  35
ENDBRANCH  33  34
ENDBRANCH   6  33
BRANCH  27  39
HETATM   39  C   UNK     0     -14.061 -16.674  -6.168  0.00  0.00     0.051 C 
BRANCH  39  40
HETATM   40  C   UNK     0     -14.977 -16.232  -7.220  0.00  0.00     0.114 C 
BRANCH  40  41
HETATM   41  C   UNK     0     -14.971 -14.879  -7.728  0.00  0.00     0.139 C 
HETATM   42  O   UNK     0     -14.327 -14.526  -8.725  0.00  0.00    -0.650 OA
BRANCH  41  43
HETATM   43  O   UNK     0     -15.742 -13.886  -7.059  0.00  0.00    -0.776 OA
HETATM   44  H   UNK     0     -16.688 -13.785  -7.407  0.00  0.00     0.167 HD
ENDBRANCH  41  43
ENDBRANCH  40  41
ENDBRANCH  39  40
ENDBRANCH  27  39
BRANCH  11  45
HETATM   45  C   UNK     0      -6.592 -11.799  -1.091  0.00  0.00     0.051 C 
BRANCH  45  46
HETATM   46  C   UNK     0      -6.816 -10.655  -2.010  0.00  0.00     0.114 C 
BRANCH  46  47
HETATM   47  C   UNK     0      -6.295  -9.434  -1.331  0.00  0.00     0.139 C 
HETATM   48  O   UNK     0      -5.446  -9.569  -0.439  0.00  0.00    -0.650 OA
BRANCH  47  49
HETATM   49  O   UNK     0      -6.747  -8.187  -1.685  0.00  0.00    -0.776 OA
HETATM   50  H   UNK     0      -6.377  -7.331  -1.254  0.00  0.00     0.167 HD
ENDBRANCH  47  49
ENDBRANCH  46  47
ENDBRANCH  45  46
ENDBRANCH  11  45
BRANCH  18  51
HETATM   51  C   UNK     0     -12.715 -10.996  -4.349  0.00  0.00     0.051 C 
BRANCH  51  52
HETATM   52  C   UNK     0     -14.024 -10.942  -3.576  0.00  0.00     0.114 C 
BRANCH  52  53
HETATM   53  C   UNK     0     -15.155 -10.544  -4.437  0.00  0.00     0.139 C 
HETATM   54  O   UNK     0     -15.612  -9.392  -4.370  0.00  0.00    -0.650 OA
BRANCH  53  55
HETATM   55  O   UNK     0     -15.699 -11.457  -5.308  0.00  0.00    -0.776 OA
HETATM   56  H   UNK     0     -16.665 -11.570  -5.507  0.00  0.00     0.167 HD
ENDBRANCH  53  55
ENDBRANCH  52  53
ENDBRANCH  51  52
ENDBRANCH  18  51
TORSDOF 16
ENDMDL
MODEL 12
REMARK VINA RESULT:      -8.4      2.095      7.189
REMARK  16 active torsions:
REMARK  status: ('A' for Active; 'I' for Inactive)
REMARK    1  A    between atoms: C_6  and  C_7 
REMARK    2  A    between atoms: C_7  and  C_8 
REMARK    3  A    between atoms: C_8  and  C_9 
REMARK    4  A    between atoms: C_9  and  O_11 
REMARK    5  A    between atoms: C_16  and  C_17 
REMARK    6  A    between atoms: C_17  and  C_18 
REMARK    7  A    between atoms: C_18  and  C_19 
REMARK    8  A    between atoms: C_19  and  O_21 
REMARK    9  A    between atoms: C_28  and  C_29 
REMARK   10  A    between atoms: C_29  and  C_30 
REMARK   11  A    between atoms: C_30  and  C_31 
REMARK   12  A    between atoms: C_31  and  O_33 
REMARK   13  A    between atoms: C_42  and  C_43 
REMARK   14  A    between atoms: C_43  and  C_44 
REMARK   15  A    between atoms: C_44  and  C_45 
REMARK   16  A    between atoms: C_45  and  O_47 
ROOT
HETATM    1  C   UNK     0     -32.313 -21.817  11.995  0.00  0.00     0.051 C 
HETATM    2  C   UNK     0     -33.819 -21.825  11.822  0.00  0.00    -0.031 A 
HETATM    3  C   UNK     0     -34.759 -20.901  12.250  0.00  0.00     0.021 A 
HETATM    4  N   UNK     0     -35.993 -21.333  11.899  0.00  0.00    -0.361 N 
HETATM    5  C   UNK     0     -35.860 -22.507  11.249  0.00  0.00     0.022 A 
HETATM    6  C   UNK     0     -34.512 -22.846  11.186  0.00  0.00    -0.027 A 
HETATM    7  C   UNK     0     -36.901 -23.348  10.579  0.00  0.00     0.115 C 
HETATM    8  C   UNK     0     -37.942 -22.613   9.752  0.00  0.00     0.021 A 
HETATM    9  N   UNK     0     -37.787 -21.513   8.999  0.00  0.00    -0.361 N 
HETATM   10  C   UNK     0     -38.999 -21.160   8.521  0.00  0.00     0.022 A 
HETATM   11  C   UNK     0     -39.959 -22.062   8.970  0.00  0.00    -0.027 A 
HETATM   12  C   UNK     0     -39.300 -22.980   9.746  0.00  0.00    -0.031 A 
HETATM   13  C   UNK     0     -39.943 -24.157  10.445  0.00  0.00     0.051 C 
HETATM   14  C   UNK     0     -39.308 -19.932   7.668  0.00  0.00     0.115 C 
HETATM   15  C   UNK     0     -38.984 -18.612   8.349  0.00  0.00     0.021 A 
HETATM   16  N   UNK     0     -37.792 -18.202   8.822  0.00  0.00    -0.361 N 
HETATM   17  C   UNK     0     -37.940 -17.014   9.411  0.00  0.00     0.022 A 
HETATM   18  C   UNK     0     -39.290 -16.626   9.309  0.00  0.00    -0.027 A 
HETATM   19  C   UNK     0     -39.934 -17.635   8.640  0.00  0.00    -0.031 A 
HETATM   20  C   UNK     0     -41.408 -17.604   8.282  0.00  0.00     0.051 C 
HETATM   21  C   UNK     0     -36.932 -16.166  10.154  0.00  0.00     0.115 C 
HETATM   22  C   UNK     0     -35.864 -16.884  10.945  0.00  0.00     0.022 A 
HETATM   23  N   UNK     0     -35.989 -17.984  11.700  0.00  0.00    -0.361 N 
HETATM   24  C   UNK     0     -34.759 -18.362  12.103  0.00  0.00     0.021 A 
HETATM   25  C   UNK     0     -33.821 -17.480  11.603  0.00  0.00    -0.031 A 
HETATM   26  C   UNK     0     -32.321 -17.463  11.813  0.00  0.00     0.051 C 
HETATM   27  C   UNK     0     -34.504 -16.525  10.859  0.00  0.00    -0.027 A 
HETATM   28  C   UNK     0     -34.382 -19.600  12.899  0.00  0.00     0.115 C 
HETATM   29  H   UNK     0     -36.954 -20.824  12.148  0.00  0.00     0.165 HD
HETATM   30  H   UNK     0     -36.817 -21.013   8.763  0.00  0.00     0.165 HD
HETATM   31  H   UNK     0     -36.817 -18.741   8.696  0.00  0.00     0.165 HD
HETATM   32  H   UNK     0     -36.951 -18.478  11.993  0.00  0.00     0.165 HD
ENDROOT
BRANCH   6  33
HETATM   33  C   UNK     0     -33.843 -24.052  10.576  0.00  0.00     0.051 C 
BRANCH  33  34
HETATM   34  C   UNK     0     -34.354 -25.325  11.210  0.00  0.00     0.114 C 
BRANCH  34  35
HETATM   35  C   UNK     0     -34.603 -26.302  10.112  0.00  0.00     0.139 C 
HETATM   36  O   UNK     0     -35.774 -26.470   9.662  0.00  0.00    -0.650 OA
BRANCH  35  37
HETATM   37  O   UNK     0     -33.589 -27.058   9.537  0.00  0.00    -0.776 OA
HETATM   38  H   UNK     0     -33.645 -28.061   9.466  0.00  0.00     0.167 HD
ENDBRANCH  35  37
ENDBRANCH  34  35
ENDBRANCH  33  34
ENDBRANCH   6  33
BRANCH  27  39
HETATM   39  C   UNK     0     -33.831 -15.361  10.220  0.00  0.00     0.051 C 
BRANCH  39  40
HETATM   40  C   UNK     0     -33.489 -14.212  11.058  0.00  0.00     0.114 C 
BRANCH  40  41
HETATM   41  C   UNK     0     -34.426 -13.635  11.995  0.00  0.00     0.139 C 
HETATM   42  O   UNK     0     -35.284 -12.800  11.678  0.00  0.00    -0.650 OA
BRANCH  41  43
HETATM   43  O   UNK     0     -34.373 -14.036  13.360  0.00  0.00    -0.776 OA
HETATM   44  H   UNK     0     -34.531 -13.287  14.023  0.00  0.00     0.167 HD
ENDBRANCH  41  43
ENDBRANCH  40  41
ENDBRANCH  39  40
ENDBRANCH  27  39
BRANCH  11  45
HETATM   45  C   UNK     0     -41.438 -22.080   8.691  0.00  0.00     0.051 C 
BRANCH  45  46
HETATM   46  C   UNK     0     -41.786 -21.917   7.257  0.00  0.00     0.114 C 
BRANCH  46  47
HETATM   47  C   UNK     0     -41.313 -23.138   6.545  0.00  0.00     0.139 C 
HETATM   48  O   UNK     0     -41.642 -23.300   5.362  0.00  0.00    -0.650 OA
BRANCH  47  49
HETATM   49  O   UNK     0     -40.530 -24.066   7.186  0.00  0.00    -0.776 OA
HETATM   50  H   UNK     0     -40.901 -24.674   7.926  0.00  0.00     0.167 HD
ENDBRANCH  47  49
ENDBRANCH  46  47
ENDBRANCH  45  46
ENDBRANCH  11  45
BRANCH  18  51
HETATM   51  C   UNK     0     -39.929 -15.353   9.802  0.00  0.00     0.051 C 
BRANCH  51  52
HETATM   52  C   UNK     0     -39.939 -15.443  11.321  0.00  0.00     0.114 C 
BRANCH  52  53
HETATM   53  C   UNK     0     -40.790 -16.549  11.800  0.00  0.00     0.139 C 
HETATM   54  O   UNK     0     -40.297 -17.463  12.481  0.00  0.00    -0.650 OA
BRANCH  53  55
HETATM   55  O   UNK     0     -42.127 -16.564  11.486  0.00  0.00    -0.776 OA
HETATM   56  H   UNK     0     -42.514 -16.743  10.590  0.00  0.00     0.167 HD
ENDBRANCH  53  55
ENDBRANCH  52  53
ENDBRANCH  51  52
ENDBRANCH  18  51
TORSDOF 16
ENDMDL
MODEL 13
REMARK VINA RESULT:      -8.2     27.936     31.548
REMARK  16 active torsions:
REMARK  status: ('A' for Active; 'I' for Inactive)
REMARK    1  A    between atoms: C_6  and  C_7 
REMARK    2  A    between atoms: C_7  and  C_8 
REMARK    3  A    between atoms: C_8  and  C_9 
REMARK    4  A    between atoms: C_9  and  O_11 
REMARK    5  A    between atoms: C_16  and  C_17 
REMARK    6  A    between atoms: C_17  and  C_18 
REMARK    7  A    between atoms: C_18  and  C_19 
REMARK    8  A    between atoms: C_19  and  O_21 
REMARK    9  A    between atoms: C_28  and  C_29 
REMARK   10  A    between atoms: C_29  and  C_30 
REMARK   11  A    between atoms: C_30  and  C_31 
REMARK   12  A    between atoms: C_31  and  O_33 
REMARK   13  A    between atoms: C_42  and  C_43 
REMARK   14  A    between atoms: C_43  and  C_44 
REMARK   15  A    between atoms: C_44  and  C_45 
REMARK   16  A    between atoms: C_45  and  O_47 
ROOT
HETATM    1  C   UNK     0      -7.320 -19.357  -5.618  0.00  0.00     0.051 C 
HETATM    2  C   UNK     0      -7.419 -17.854  -5.452  0.00  0.00    -0.031 A 
HETATM    3  C   UNK     0      -8.066 -16.922  -6.248  0.00  0.00     0.021 A 
HETATM    4  N   UNK     0      -7.863 -15.686  -5.734  0.00  0.00    -0.361 N 
HETATM    5  C   UNK     0      -7.108 -15.811  -4.622  0.00  0.00     0.022 A 
HETATM    6  C   UNK     0      -6.810 -17.154  -4.418  0.00  0.00    -0.027 A 
HETATM    7  C   UNK     0      -6.683 -14.766  -3.638  0.00  0.00     0.115 C 
HETATM    8  C   UNK     0      -7.732 -13.747  -3.230  0.00  0.00     0.021 A 
HETATM    9  N   UNK     0      -9.050 -13.927  -3.059  0.00  0.00    -0.361 N 
HETATM   10  C   UNK     0      -9.605 -12.727  -2.787  0.00  0.00     0.022 A 
HETATM   11  C   UNK     0      -8.615 -11.748  -2.773  0.00  0.00    -0.027 A 
HETATM   12  C   UNK     0      -7.432 -12.384  -3.052  0.00  0.00    -0.031 A 
HETATM   13  C   UNK     0      -6.079 -11.715  -3.137  0.00  0.00     0.051 C 
HETATM   14  C   UNK     0     -11.091 -12.446  -2.582  0.00  0.00     0.115 C 
HETATM   15  C   UNK     0     -11.953 -12.780  -3.790  0.00  0.00     0.021 A 
HETATM   16  N   UNK     0     -12.081 -13.972  -4.403  0.00  0.00    -0.361 N 
HETATM   17  C   UNK     0     -12.876 -13.834  -5.467  0.00  0.00     0.022 A 
HETATM   18  C   UNK     0     -13.293 -12.490  -5.545  0.00  0.00    -0.027 A 
HETATM   19  C   UNK     0     -12.709 -11.841  -4.488  0.00  0.00    -0.031 A 
HETATM   20  C   UNK     0     -12.926 -10.372  -4.176  0.00  0.00     0.051 C 
HETATM   21  C   UNK     0     -13.275 -14.844  -6.518  0.00  0.00     0.115 C 
HETATM   22  C   UNK     0     -12.257 -15.891  -6.902  0.00  0.00     0.022 A 
HETATM   23  N   UNK     0     -10.937 -15.741  -7.076  0.00  0.00    -0.361 N 
HETATM   24  C   UNK     0     -10.394 -16.960  -7.269  0.00  0.00     0.021 A 
HETATM   25  C   UNK     0     -11.390 -17.917  -7.228  0.00  0.00    -0.031 A 
HETATM   26  C   UNK     0     -11.282 -19.415  -7.430  0.00  0.00     0.051 C 
HETATM   27  C   UNK     0     -12.591 -17.257  -6.995  0.00  0.00    -0.027 A 
HETATM   28  C   UNK     0      -8.924 -17.310  -7.419  0.00  0.00     0.115 C 
HETATM   29  H   UNK     0      -8.221 -14.730  -6.181  0.00  0.00     0.165 HD
HETATM   30  H   UNK     0      -9.586 -14.908  -3.080  0.00  0.00     0.165 HD
HETATM   31  H   UNK     0     -11.640 -14.941  -4.051  0.00  0.00     0.165 HD
HETATM   32  H   UNK     0     -10.382 -14.768  -7.107  0.00  0.00     0.165 HD
ENDROOT
BRANCH   6  33
HETATM   33  C   UNK     0      -6.000 -17.814  -3.331  0.00  0.00     0.051 C 
BRANCH  33  34
HETATM   34  C   UNK     0      -4.608 -17.230  -3.273  0.00  0.00     0.114 C 
BRANCH  34  35
HETATM   35  C   UNK     0      -4.255 -17.060  -1.834  0.00  0.00     0.139 C 
HETATM   36  O   UNK     0      -4.615 -16.019  -1.209  0.00  0.00    -0.650 OA
BRANCH  35  37
HETATM   37  O   UNK     0      -3.534 -18.010  -1.122  0.00  0.00    -0.776 OA
HETATM   38  H   UNK     0      -3.772 -18.989  -1.144  0.00  0.00     0.167 HD
ENDBRANCH  35  37
ENDBRANCH  34  35
ENDBRANCH  33  34
ENDBRANCH   6  33
BRANCH  27  39
HETATM   39  C   UNK     0     -13.905 -17.955  -6.957  0.00  0.00     0.051 C 
BRANCH  39  40
HETATM   40  C   UNK     0     -14.780 -17.852  -8.125  0.00  0.00     0.114 C 
BRANCH  40  41
HETATM   41  C   UNK     0     -16.177 -18.219  -8.076  0.00  0.00     0.139 C 
HETATM   42  O   UNK     0     -17.102 -17.402  -8.181  0.00  0.00    -0.650 OA
BRANCH  41  43
HETATM   43  O   UNK     0     -16.526 -19.588  -7.899  0.00  0.00    -0.776 OA
HETATM   44  H   UNK     0     -16.530 -19.898  -6.935  0.00  0.00     0.167 HD
ENDBRANCH  41  43
ENDBRANCH  40  41
ENDBRANCH  39  40
ENDBRANCH  27  39
BRANCH  11  45
HETATM   45  C   UNK     0      -8.753 -10.273  -2.509  0.00  0.00     0.051 C 
BRANCH  45  46
HETATM   46  C   UNK     0      -8.666  -9.903  -1.074  0.00  0.00     0.114 C 
BRANCH  46  47
HETATM   47  C   UNK     0      -7.486  -9.005  -0.920  0.00  0.00     0.139 C 
HETATM   48  O   UNK     0      -6.928  -8.580  -1.941  0.00  0.00    -0.650 OA
BRANCH  47  49
HETATM   49  O   UNK     0      -7.025  -8.657   0.325  0.00  0.00    -0.776 OA
HETATM   50  H   UNK     0      -6.023  -8.599   0.539  0.00  0.00     0.167 HD
ENDBRANCH  47  49
ENDBRANCH  46  47
ENDBRANCH  45  46
ENDBRANCH  11  45
BRANCH  18  51
HETATM   51  C   UNK     0     -14.215 -11.864  -6.559  0.00  0.00     0.051 C 
BRANCH  51  52
HETATM   52  C   UNK     0     -15.569 -11.732  -5.878  0.00  0.00     0.114 C 
BRANCH  52  53
HETATM   53  C   UNK     0     -16.083 -10.349  -5.940  0.00  0.00     0.139 C 
HETATM   54  O   UNK     0     -15.448  -9.478  -6.556  0.00  0.00    -0.650 OA
BRANCH  53  55
HETATM   55  O   UNK     0     -17.263 -10.034  -5.312  0.00  0.00    -0.776 OA
HETATM   56  H   UNK     0     -17.690  -9.138  -5.287  0.00  0.00     0.167 HD
ENDBRANCH  53  55
ENDBRANCH  52  53
ENDBRANCH  51  52
ENDBRANCH  18  51
TORSDOF 16
ENDMDL
MODEL 14
REMARK VINA RESULT:      -8.1     27.434     31.678
REMARK  16 active torsions:
REMARK  status: ('A' for Active; 'I' for Inactive)
REMARK    1  A    between atoms: C_6  and  C_7 
REMARK    2  A    between atoms: C_7  and  C_8 
REMARK    3  A    between atoms: C_8  and  C_9 
REMARK    4  A    between atoms: C_9  and  O_11 
REMARK    5  A    between atoms: C_16  and  C_17 
REMARK    6  A    between atoms: C_17  and  C_18 
REMARK    7  A    between atoms: C_18  and  C_19 
REMARK    8  A    between atoms: C_19  and  O_21 
REMARK    9  A    between atoms: C_28  and  C_29 
REMARK   10  A    between atoms: C_29  and  C_30 
REMARK   11  A    between atoms: C_30  and  C_31 
REMARK   12  A    between atoms: C_31  and  O_33 
REMARK   13  A    between atoms: C_42  and  C_43 
REMARK   14  A    between atoms: C_43  and  C_44 
REMARK   15  A    between atoms: C_44  and  C_45 
REMARK   16  A    between atoms: C_45  and  O_47 
ROOT
HETATM    1  C   UNK     0      -8.087 -11.255  -2.780  0.00  0.00     0.051 C 
HETATM    2  C   UNK     0      -8.263 -12.721  -3.119  0.00  0.00    -0.031 A 
HETATM    3  C   UNK     0      -9.393 -13.518  -3.021  0.00  0.00     0.021 A 
HETATM    4  N   UNK     0      -9.079 -14.778  -3.404  0.00  0.00    -0.361 N 
HETATM    5  C   UNK     0      -7.776 -14.800  -3.753  0.00  0.00     0.022 A 
HETATM    6  C   UNK     0      -7.234 -13.531  -3.583  0.00  0.00    -0.027 A 
HETATM    7  C   UNK     0      -6.964 -15.917  -4.331  0.00  0.00     0.115 C 
HETATM    8  C   UNK     0      -7.625 -16.749  -5.416  0.00  0.00     0.021 A 
HETATM    9  N   UNK     0      -8.475 -16.350  -6.375  0.00  0.00    -0.361 N 
HETATM   10  C   UNK     0      -8.880 -17.442  -7.057  0.00  0.00     0.022 A 
HETATM   11  C   UNK     0      -8.267 -18.575  -6.529  0.00  0.00    -0.027 A 
HETATM   12  C   UNK     0      -7.475 -18.145  -5.495  0.00  0.00    -0.031 A 
HETATM   13  C   UNK     0      -6.611 -19.034  -4.628  0.00  0.00     0.051 C 
HETATM   14  C   UNK     0      -9.897 -17.469  -8.194  0.00  0.00     0.115 C 
HETATM   15  C   UNK     0     -11.279 -16.975  -7.796  0.00  0.00     0.021 A 
HETATM   16  N   UNK     0     -11.607 -15.770  -7.294  0.00  0.00    -0.361 N 
HETATM   17  C   UNK     0     -12.911 -15.755  -7.009  0.00  0.00     0.022 A 
HETATM   18  C   UNK     0     -13.461 -17.006  -7.350  0.00  0.00    -0.027 A 
HETATM   19  C   UNK     0     -12.428 -17.761  -7.843  0.00  0.00    -0.031 A 
HETATM   20  C   UNK     0     -12.592 -19.177  -8.366  0.00  0.00     0.051 C 
HETATM   21  C   UNK     0     -13.753 -14.676  -6.365  0.00  0.00     0.115 C 
HETATM   22  C   UNK     0     -13.095 -13.811  -5.315  0.00  0.00     0.022 A 
HETATM   23  N   UNK     0     -12.242 -14.181  -4.351  0.00  0.00    -0.361 N 
HETATM   24  C   UNK     0     -11.792 -13.069  -3.735  0.00  0.00     0.021 A 
HETATM   25  C   UNK     0     -12.377 -11.957  -4.310  0.00  0.00    -0.031 A 
HETATM   26  C   UNK     0     -12.219 -10.497  -3.939  0.00  0.00     0.051 C 
HETATM   27  C   UNK     0     -13.215 -12.407  -5.324  0.00  0.00    -0.027 A 
HETATM   28  C   UNK     0     -10.741 -12.973  -2.643  0.00  0.00     0.115 C 
HETATM   29  H   UNK     0      -9.770 -15.652  -3.388  0.00  0.00     0.165 HD
HETATM   30  H   UNK     0      -8.752 -15.292  -6.605  0.00  0.00     0.165 HD
HETATM   31  H   UNK     0     -10.915 -14.896  -7.182  0.00  0.00     0.165 HD
HETATM   32  H   UNK     0     -11.982 -15.234  -4.068  0.00  0.00     0.165 HD
ENDROOT
BRANCH   6  33
HETATM   33  C   UNK     0      -5.830 -13.035  -3.824  0.00  0.00     0.051 C 
BRANCH  33  34
HETATM   34  C   UNK     0      -5.087 -12.879  -2.519  0.00  0.00     0.114 C 
BRANCH  34  35
HETATM   35  C   UNK     0      -4.623 -14.234  -2.104  0.00  0.00     0.139 C 
HETATM   36  O   UNK     0      -3.834 -14.891  -2.844  0.00  0.00    -0.650 OA
BRANCH  35  37
HETATM   37  O   UNK     0      -5.019 -14.830  -0.913  0.00  0.00    -0.776 OA
HETATM   38  H   UNK     0      -5.369 -15.774  -0.879  0.00  0.00     0.167 HD
ENDBRANCH  35  37
ENDBRANCH  34  35
ENDBRANCH  33  34
ENDBRANCH   6  33
BRANCH  27  39
HETATM   39  C   UNK     0     -14.076 -11.497  -6.127  0.00  0.00     0.051 C 
BRANCH  39  40
HETATM   40  C   UNK     0     -15.491 -11.387  -5.772  0.00  0.00     0.114 C 
BRANCH  40  41
HETATM   41  C   UNK     0     -16.174 -10.114  -5.713  0.00  0.00     0.139 C 
HETATM   42  O   UNK     0     -16.163  -9.289  -6.637  0.00  0.00    -0.650 OA
BRANCH  41  43
HETATM   43  O   UNK     0     -16.903  -9.775  -4.538  0.00  0.00    -0.776 OA
HETATM   44  H   UNK     0     -17.854 -10.123  -4.520  0.00  0.00     0.167 HD
ENDBRANCH  41  43
ENDBRANCH  40  41
ENDBRANCH  39  40
ENDBRANCH  27  39
BRANCH  11  45
HETATM   45  C   UNK     0      -8.403 -20.009  -6.964  0.00  0.00     0.051 C 
BRANCH  45  46
HETATM   46  C   UNK     0      -9.809 -20.464  -7.118  0.00  0.00     0.114 C 
BRANCH  46  47
HETATM   47  C   UNK     0      -9.856 -21.352  -8.316  0.00  0.00     0.139 C 
HETATM   48  O   UNK     0      -9.777 -20.835  -9.439  0.00  0.00    -0.650 OA
BRANCH  47  49
HETATM   49  O   UNK     0      -9.987 -22.710  -8.179  0.00  0.00    -0.776 OA
HETATM   50  H   UNK     0      -9.404 -23.251  -7.529  0.00  0.00     0.167 HD
ENDBRANCH  47  49
ENDBRANCH  46  47
ENDBRANCH  45  46
ENDBRANCH  11  45
BRANCH  18  51
HETATM   51  C   UNK     0     -14.896 -17.451  -7.233  0.00  0.00     0.051 C 
BRANCH  51  52
HETATM   52  C   UNK     0     -15.059 -17.996  -5.822  0.00  0.00     0.114 C 
BRANCH  52  53
HETATM   53  C   UNK     0     -15.426 -19.425  -5.823  0.00  0.00     0.139 C 
HETATM   54  O   UNK     0     -16.560 -19.775  -6.187  0.00  0.00    -0.650 OA
BRANCH  53  55
HETATM   55  O   UNK     0     -14.508 -20.363  -5.417  0.00  0.00    -0.776 OA
HETATM   56  H   UNK     0     -14.687 -21.136  -4.820  0.00  0.00     0.167 HD
ENDBRANCH  53  55
ENDBRANCH  52  53
ENDBRANCH  51  52
ENDBRANCH  18  51
TORSDOF 16
ENDMDL
MODEL 15
REMARK VINA RESULT:      -8.1     26.494     31.621
REMARK  16 active torsions:
REMARK  status: ('A' for Active; 'I' for Inactive)
REMARK    1  A    between atoms: C_6  and  C_7 
REMARK    2  A    between atoms: C_7  and  C_8 
REMARK    3  A    between atoms: C_8  and  C_9 
REMARK    4  A    between atoms: C_9  and  O_11 
REMARK    5  A    between atoms: C_16  and  C_17 
REMARK    6  A    between atoms: C_17  and  C_18 
REMARK    7  A    between atoms: C_18  and  C_19 
REMARK    8  A    between atoms: C_19  and  O_21 
REMARK    9  A    between atoms: C_28  and  C_29 
REMARK   10  A    between atoms: C_29  and  C_30 
REMARK   11  A    between atoms: C_30  and  C_31 
REMARK   12  A    between atoms: C_31  and  O_33 
REMARK   13  A    between atoms: C_42  and  C_43 
REMARK   14  A    between atoms: C_43  and  C_44 
REMARK   15  A    between atoms: C_44  and  C_45 
REMARK   16  A    between atoms: C_45  and  O_47 
ROOT
HETATM    1  C   UNK     0     -24.906  13.230   7.270  0.00  0.00     0.051 C 
HETATM    2  C   UNK     0     -23.870  12.587   8.171  0.00  0.00    -0.031 A 
HETATM    3  C   UNK     0     -24.003  12.116   9.468  0.00  0.00     0.021 A 
HETATM    4  N   UNK     0     -22.805  11.651   9.893  0.00  0.00    -0.361 N 
HETATM    5  C   UNK     0     -21.913  11.807   8.893  0.00  0.00     0.022 A 
HETATM    6  C   UNK     0     -22.546  12.393   7.801  0.00  0.00    -0.027 A 
HETATM    7  C   UNK     0     -20.483  11.372   8.816  0.00  0.00     0.115 C 
HETATM    8  C   UNK     0     -20.162   9.988   9.351  0.00  0.00     0.021 A 
HETATM    9  N   UNK     0     -20.909   8.875   9.293  0.00  0.00    -0.361 N 
HETATM   10  C   UNK     0     -20.269   7.904   9.978  0.00  0.00     0.022 A 
HETATM   11  C   UNK     0     -19.072   8.403  10.484  0.00  0.00    -0.027 A 
HETATM   12  C   UNK     0     -18.998   9.715  10.092  0.00  0.00    -0.031 A 
HETATM   13  C   UNK     0     -17.861  10.660  10.410  0.00  0.00     0.051 C 
HETATM   14  C   UNK     0     -20.782   6.489  10.229  0.00  0.00     0.115 C 
HETATM   15  C   UNK     0     -22.087   6.436  11.007  0.00  0.00     0.021 A 
HETATM   16  N   UNK     0     -23.266   6.994  10.673  0.00  0.00    -0.361 N 
HETATM   17  C   UNK     0     -24.146   6.779  11.653  0.00  0.00     0.022 A 
HETATM   18  C   UNK     0     -23.514   6.036  12.670  0.00  0.00    -0.027 A 
HETATM   19  C   UNK     0     -22.225   5.827  12.252  0.00  0.00    -0.031 A 
HETATM   20  C   UNK     0     -21.201   5.031  13.041  0.00  0.00     0.051 C 
HETATM   21  C   UNK     0     -25.573   7.255  11.799  0.00  0.00     0.115 C 
HETATM   22  C   UNK     0     -25.918   8.612  11.232  0.00  0.00     0.022 A 
HETATM   23  N   UNK     0     -25.191   9.737  11.271  0.00  0.00    -0.361 N 
HETATM   24  C   UNK     0     -25.810  10.667  10.517  0.00  0.00     0.021 A 
HETATM   25  C   UNK     0     -26.969  10.132   9.987  0.00  0.00    -0.031 A 
HETATM   26  C   UNK     0     -28.014  10.796   9.115  0.00  0.00     0.051 C 
HETATM   27  C   UNK     0     -27.059   8.818  10.431  0.00  0.00    -0.027 A 
HETATM   28  C   UNK     0     -25.324  12.067  10.183  0.00  0.00     0.115 C 
HETATM   29  H   UNK     0     -22.588  11.251  10.911  0.00  0.00     0.165 HD
HETATM   30  H   UNK     0     -21.865   8.757   8.727  0.00  0.00     0.165 HD
HETATM   31  H   UNK     0     -23.496   7.510   9.705  0.00  0.00     0.165 HD
HETATM   32  H   UNK     0     -24.255   9.898  11.867  0.00  0.00     0.165 HD
ENDROOT
BRANCH   6  33
HETATM   33  C   UNK     0     -21.994  12.779   6.452  0.00  0.00     0.051 C 
BRANCH  33  34
HETATM   34  C   UNK     0     -21.272  14.103   6.529  0.00  0.00     0.114 C 
BRANCH  34  35
HETATM   35  C   UNK     0     -19.945  13.927   5.871  0.00  0.00     0.139 C 
HETATM   36  O   UNK     0     -19.324  14.929   5.412  0.00  0.00    -0.650 OA
BRANCH  35  37
HETATM   37  O   UNK     0     -19.336  12.686   5.734  0.00  0.00    -0.776 OA
HETATM   38  H   UNK     0     -18.340  12.590   5.612  0.00  0.00     0.167 HD
ENDBRANCH  35  37
ENDBRANCH  34  35
ENDBRANCH  33  34
ENDBRANCH   6  33
BRANCH  27  39
HETATM   39  C   UNK     0     -28.218   7.936  10.123  0.00  0.00     0.051 C 
BRANCH  39  40
HETATM   40  C   UNK     0     -27.958   6.645   9.486  0.00  0.00     0.114 C 
BRANCH  40  41
HETATM   41  C   UNK     0     -27.742   5.438  10.252  0.00  0.00     0.139 C 
HETATM   42  O   UNK     0     -28.418   5.127  11.242  0.00  0.00    -0.650 OA
BRANCH  41  43
HETATM   43  O   UNK     0     -26.700   4.550   9.862  0.00  0.00    -0.776 OA
HETATM   44  H   UNK     0     -26.594   3.739  10.460  0.00  0.00     0.167 HD
ENDBRANCH  41  43
ENDBRANCH  40  41
ENDBRANCH  39  40
ENDBRANCH  27  39
BRANCH  11  45
HETATM   45  C   UNK     0     -18.025   7.693  11.300  0.00  0.00     0.051 C 
BRANCH  45  46
HETATM   46  C   UNK     0     -17.271   6.656  10.550  0.00  0.00     0.114 C 
BRANCH  46  47
HETATM   47  C   UNK     0     -17.460   5.364  11.270  0.00  0.00     0.139 C 
HETATM   48  O   UNK     0     -17.180   5.312  12.476  0.00  0.00    -0.650 OA
BRANCH  47  49
HETATM   49  O   UNK     0     -17.933   4.256  10.614  0.00  0.00    -0.776 OA
HETATM   50  H   UNK     0     -17.310   3.613  10.111  0.00  0.00     0.167 HD
ENDBRANCH  47  49
ENDBRANCH  46  47
ENDBRANCH  45  46
ENDBRANCH  11  45
BRANCH  18  51
HETATM   51  C   UNK     0     -24.111   5.535  13.959  0.00  0.00     0.051 C 
BRANCH  51  52
HETATM   52  C   UNK     0     -23.906   6.642  14.982  0.00  0.00     0.114 C 
BRANCH  52  53
HETATM   53  C   UNK     0     -23.377   6.121  16.258  0.00  0.00     0.139 C 
HETATM   54  O   UNK     0     -22.190   6.317  16.565  0.00  0.00    -0.650 OA
BRANCH  53  55
HETATM   55  O   UNK     0     -24.203   5.416  17.098  0.00  0.00    -0.776 OA
HETATM   56  H   UNK     0     -24.142   4.445  17.298  0.00  0.00     0.167 HD
ENDBRANCH  53  55
ENDBRANCH  52  53
ENDBRANCH  51  52
ENDBRANCH  18  51
TORSDOF 16
ENDMDL
MODEL 16
REMARK VINA RESULT:      -7.9     26.851     33.623
REMARK  16 active torsions:
REMARK  status: ('A' for Active; 'I' for Inactive)
REMARK    1  A    between atoms: C_6  and  C_7 
REMARK    2  A    between atoms: C_7  and  C_8 
REMARK    3  A    between atoms: C_8  and  C_9 
REMARK    4  A    between atoms: C_9  and  O_11 
REMARK    5  A    between atoms: C_16  and  C_17 
REMARK    6  A    between atoms: C_17  and  C_18 
REMARK    7  A    between atoms: C_18  and  C_19 
REMARK    8  A    between atoms: C_19  and  O_21 
REMARK    9  A    between atoms: C_28  and  C_29 
REMARK   10  A    between atoms: C_29  and  C_30 
REMARK   11  A    between atoms: C_30  and  C_31 
REMARK   12  A    between atoms: C_31  and  O_33 
REMARK   13  A    between atoms: C_42  and  C_43 
REMARK   14  A    between atoms: C_43  and  C_44 
REMARK   15  A    between atoms: C_44  and  C_45 
REMARK   16  A    between atoms: C_45  and  O_47 
ROOT
HETATM    1  C   UNK     0     -22.340   4.976  11.939  0.00  0.00     0.051 C 
HETATM    2  C   UNK     0     -22.485   6.449  11.613  0.00  0.00    -0.031 A 
HETATM    3  C   UNK     0     -21.641   7.505  11.920  0.00  0.00     0.021 A 
HETATM    4  N   UNK     0     -22.186   8.655  11.457  0.00  0.00    -0.361 N 
HETATM    5  C   UNK     0     -23.355   8.354  10.855  0.00  0.00     0.022 A 
HETATM    6  C   UNK     0     -23.574   6.983  10.937  0.00  0.00    -0.027 A 
HETATM    7  C   UNK     0     -24.296   9.243  10.104  0.00  0.00     0.115 C 
HETATM    8  C   UNK     0     -23.671  10.253   9.158  0.00  0.00     0.021 A 
HETATM    9  N   UNK     0     -22.574  10.117   8.396  0.00  0.00    -0.361 N 
HETATM   10  C   UNK     0     -22.337  11.299   7.788  0.00  0.00     0.022 A 
HETATM   11  C   UNK     0     -23.313  12.218   8.161  0.00  0.00    -0.027 A 
HETATM   12  C   UNK     0     -24.157  11.566   9.023  0.00  0.00    -0.031 A 
HETATM   13  C   UNK     0     -25.374  12.174   9.683  0.00  0.00     0.051 C 
HETATM   14  C   UNK     0     -21.157  11.623   6.877  0.00  0.00     0.115 C 
HETATM   15  C   UNK     0     -19.802  11.487   7.553  0.00  0.00     0.021 A 
HETATM   16  N   UNK     0     -19.280  10.390   8.134  0.00  0.00    -0.361 N 
HETATM   17  C   UNK     0     -18.099  10.700   8.674  0.00  0.00     0.022 A 
HETATM   18  C   UNK     0     -17.835  12.061   8.425  0.00  0.00    -0.027 A 
HETATM   19  C   UNK     0     -18.908  12.542   7.721  0.00  0.00    -0.031 A 
HETATM   20  C   UNK     0     -19.014  13.969   7.215  0.00  0.00     0.051 C 
HETATM   21  C   UNK     0     -17.153   9.852   9.493  0.00  0.00     0.115 C 
HETATM   22  C   UNK     0     -17.761   8.813  10.407  0.00  0.00     0.022 A 
HETATM   23  N   UNK     0     -18.854   8.919  11.173  0.00  0.00    -0.361 N 
HETATM   24  C   UNK     0     -19.115   7.710  11.708  0.00  0.00     0.021 A 
HETATM   25  C   UNK     0     -18.161   6.805  11.284  0.00  0.00    -0.031 A 
HETATM   26  C   UNK     0     -18.008   5.342  11.644  0.00  0.00     0.051 C 
HETATM   27  C   UNK     0     -17.283   7.488  10.450  0.00  0.00    -0.027 A 
HETATM   28  C   UNK     0     -20.300   7.311  12.571  0.00  0.00     0.115 C 
HETATM   29  H   UNK     0     -21.761   9.676  11.594  0.00  0.00     0.165 HD
HETATM   30  H   UNK     0     -21.994   9.174   8.246  0.00  0.00     0.165 HD
HETATM   31  H   UNK     0     -19.732   9.364   8.121  0.00  0.00     0.165 HD
HETATM   32  H   UNK     0     -19.427   9.861  11.379  0.00  0.00     0.165 HD
ENDROOT
BRANCH   6  33
HETATM   33  C   UNK     0     -24.726   6.152  10.430  0.00  0.00     0.051 C 
BRANCH  33  34
HETATM   34  C   UNK     0     -25.815   6.055  11.472  0.00  0.00     0.114 C 
BRANCH  34  35
HETATM   35  C   UNK     0     -26.989   5.395  10.832  0.00  0.00     0.139 C 
HETATM   36  O   UNK     0     -26.816   4.530   9.924  0.00  0.00    -0.650 OA
BRANCH  35  37
HETATM   37  O   UNK     0     -28.299   5.686  11.190  0.00  0.00    -0.776 OA
HETATM   38  H   UNK     0     -28.685   5.408  12.078  0.00  0.00     0.167 HD
ENDBRANCH  35  37
ENDBRANCH  34  35
ENDBRANCH  33  34
ENDBRANCH   6  33
BRANCH  27  39
HETATM   39  C   UNK     0     -16.075   6.856   9.853  0.00  0.00     0.051 C 
BRANCH  39  40
HETATM   40  C   UNK     0     -14.776   7.122  10.469  0.00  0.00     0.114 C 
BRANCH  40  41
HETATM   41  C   UNK     0     -14.079   8.375  10.287  0.00  0.00     0.139 C 
HETATM   42  O   UNK     0     -13.944   9.219  11.184  0.00  0.00    -0.650 OA
BRANCH  41  43
HETATM   43  O   UNK     0     -13.511   8.671   9.016  0.00  0.00    -0.776 OA
HETATM   44  H   UNK     0     -14.100   8.432   8.228  0.00  0.00     0.167 HD
ENDBRANCH  41  43
ENDBRANCH  40  41
ENDBRANCH  39  40
ENDBRANCH  27  39
BRANCH  11  45
HETATM   45  C   UNK     0     -23.468  13.653   7.734  0.00  0.00     0.051 C 
BRANCH  45  46
HETATM   46  C   UNK     0     -24.466  13.860   6.654  0.00  0.00     0.114 C 
BRANCH  46  47
HETATM   47  C   UNK     0     -25.183  15.133   6.953  0.00  0.00     0.139 C 
HETATM   48  O   UNK     0     -25.328  15.960   6.042  0.00  0.00    -0.650 OA
BRANCH  47  49
HETATM   49  O   UNK     0     -25.672  15.384   8.210  0.00  0.00    -0.776 OA
HETATM   50  H   UNK     0     -25.405  14.816   9.023  0.00  0.00     0.167 HD
ENDBRANCH  47  49
ENDBRANCH  46  47
ENDBRANCH  45  46
ENDBRANCH  11  45
BRANCH  18  51
HETATM   51  C   UNK     0     -16.616  12.855   8.818  0.00  0.00     0.051 C 
BRANCH  51  52
HETATM   52  C   UNK     0     -15.617  12.693   7.681  0.00  0.00     0.114 C 
BRANCH  52  53
HETATM   53  C   UNK     0     -14.381  12.022   8.128  0.00  0.00     0.139 C 
HETATM   54  O   UNK     0     -13.489  11.752   7.308  0.00  0.00    -0.650 OA
BRANCH  53  55
HETATM   55  O   UNK     0     -14.226  11.695   9.453  0.00  0.00    -0.776 OA
HETATM   56  H   UNK     0     -14.595  12.197  10.226  0.00  0.00     0.167 HD
ENDBRANCH  53  55
ENDBRANCH  52  53
ENDBRANCH  51  52
ENDBRANCH  18  51
TORSDOF 16
ENDMDL
MODEL 17
REMARK VINA RESULT:      -7.9     27.117     33.388
REMARK  16 active torsions:
REMARK  status: ('A' for Active; 'I' for Inactive)
REMARK    1  A    between atoms: C_6  and  C_7 
REMARK    2  A    between atoms: C_7  and  C_8 
REMARK    3  A    between atoms: C_8  and  C_9 
REMARK    4  A    between atoms: C_9  and  O_11 
REMARK    5  A    between atoms: C_16  and  C_17 
REMARK    6  A    between atoms: C_17  and  C_18 
REMARK    7  A    between atoms: C_18  and  C_19 
REMARK    8  A    between atoms: C_19  and  O_21 
REMARK    9  A    between atoms: C_28  and  C_29 
REMARK   10  A    between atoms: C_29  and  C_30 
REMARK   11  A    between atoms: C_30  and  C_31 
REMARK   12  A    between atoms: C_31  and  O_33 
REMARK   13  A    between atoms: C_42  and  C_43 
REMARK   14  A    between atoms: C_43  and  C_44 
REMARK   15  A    between atoms: C_44  and  C_45 
REMARK   16  A    between atoms: C_45  and  O_47 
ROOT
HETATM    1  C   UNK     0     -16.996   8.092  10.729  0.00  0.00     0.051 C 
HETATM    2  C   UNK     0     -17.904   8.848   9.781  0.00  0.00    -0.031 A 
HETATM    3  C   UNK     0     -19.021   8.404   9.091  0.00  0.00     0.021 A 
HETATM    4  N   UNK     0     -19.504   9.418   8.334  0.00  0.00    -0.361 N 
HETATM    5  C   UNK     0     -18.724  10.501   8.534  0.00  0.00     0.022 A 
HETATM    6  C   UNK     0     -17.712  10.179   9.432  0.00  0.00    -0.027 A 
HETATM    7  C   UNK     0     -18.879  11.895   8.011  0.00  0.00     0.115 C 
HETATM    8  C   UNK     0     -20.283  12.474   8.021  0.00  0.00     0.021 A 
HETATM    9  N   UNK     0     -21.258  12.288   8.924  0.00  0.00    -0.361 N 
HETATM   10  C   UNK     0     -22.366  12.920   8.481  0.00  0.00     0.022 A 
HETATM   11  C   UNK     0     -22.093  13.540   7.265  0.00  0.00    -0.027 A 
HETATM   12  C   UNK     0     -20.783  13.263   6.969  0.00  0.00    -0.031 A 
HETATM   13  C   UNK     0     -20.045  13.738   5.738  0.00  0.00     0.051 C 
HETATM   14  C   UNK     0     -23.734  12.922   9.158  0.00  0.00     0.115 C 
HETATM   15  C   UNK     0     -24.353  11.541   9.298  0.00  0.00     0.021 A 
HETATM   16  N   UNK     0     -23.841  10.473   9.939  0.00  0.00    -0.361 N 
HETATM   17  C   UNK     0     -24.657   9.430   9.772  0.00  0.00     0.022 A 
HETATM   18  C   UNK     0     -25.758   9.840   8.995  0.00  0.00    -0.027 A 
HETATM   19  C   UNK     0     -25.556  11.165   8.705  0.00  0.00    -0.031 A 
HETATM   20  C   UNK     0     -26.532  12.013   7.910  0.00  0.00     0.051 C 
HETATM   21  C   UNK     0     -24.505   7.995  10.225  0.00  0.00     0.115 C 
HETATM   22  C   UNK     0     -23.109   7.420  10.262  0.00  0.00     0.022 A 
HETATM   23  N   UNK     0     -22.117   7.592   9.380  0.00  0.00    -0.361 N 
HETATM   24  C   UNK     0     -21.003   7.019   9.878  0.00  0.00     0.021 A 
HETATM   25  C   UNK     0     -21.287   6.455  11.107  0.00  0.00    -0.031 A 
HETATM   26  C   UNK     0     -20.378   5.671  12.030  0.00  0.00     0.051 C 
HETATM   27  C   UNK     0     -22.630   6.698  11.374  0.00  0.00    -0.027 A 
HETATM   28  C   UNK     0     -19.605   7.033   9.285  0.00  0.00     0.115 C 
HETATM   29  H   UNK     0     -20.368   9.350   7.633  0.00  0.00     0.165 HD
HETATM   30  H   UNK     0     -21.154  11.751   9.899  0.00  0.00     0.165 HD
HETATM   31  H   UNK     0     -22.909  10.466  10.561  0.00  0.00     0.165 HD
HETATM   32  H   UNK     0     -22.204   8.083   8.376  0.00  0.00     0.165 HD
ENDROOT
BRANCH   6  33
HETATM   33  C   UNK     0     -16.590  11.027   9.974  0.00  0.00     0.051 C 
BRANCH  33  34
HETATM   34  C   UNK     0     -15.438  11.078   8.998  0.00  0.00     0.114 C 
BRANCH  34  35
HETATM   35  C   UNK     0     -14.200  10.724   9.749  0.00  0.00     0.139 C 
HETATM   36  O   UNK     0     -13.588   9.645   9.497  0.00  0.00    -0.650 OA
BRANCH  35  37
HETATM   37  O   UNK     0     -13.665  11.539  10.739  0.00  0.00    -0.776 OA
HETATM   38  H   UNK     0     -13.725  11.304  11.716  0.00  0.00     0.167 HD
ENDBRANCH  35  37
ENDBRANCH  34  35
ENDBRANCH  33  34
ENDBRANCH   6  33
BRANCH  27  39
HETATM   39  C   UNK     0     -23.323   6.178  12.584  0.00  0.00     0.051 C 
BRANCH  39  40
HETATM   40  C   UNK     0     -24.231   5.041  12.429  0.00  0.00     0.114 C 
BRANCH  40  41
HETATM   41  C   UNK     0     -25.435   5.120  11.632  0.00  0.00     0.139 C 
HETATM   42  O   UNK     0     -25.528   4.658  10.487  0.00  0.00    -0.650 OA
BRANCH  41  43
HETATM   43  O   UNK     0     -26.583   5.761  12.178  0.00  0.00    -0.776 OA
HETATM   44  H   UNK     0     -27.072   5.218  12.879  0.00  0.00     0.167 HD
ENDBRANCH  41  43
ENDBRANCH  40  41
ENDBRANCH  39  40
ENDBRANCH  27  39
BRANCH  11  45
HETATM   45  C   UNK     0     -23.010  14.364   6.402  0.00  0.00     0.051 C 
BRANCH  45  46
HETATM   46  C   UNK     0     -23.257  15.735   6.917  0.00  0.00     0.114 C 
BRANCH  46  47
HETATM   47  C   UNK     0     -24.682  16.066   6.627  0.00  0.00     0.139 C 
HETATM   48  O   UNK     0     -25.568  15.377   7.151  0.00  0.00    -0.650 OA
BRANCH  47  49
HETATM   49  O   UNK     0     -25.006  17.110   5.798  0.00  0.00    -0.776 OA
HETATM   50  H   UNK     0     -24.426  17.954   5.731  0.00  0.00     0.167 HD
ENDBRANCH  47  49
ENDBRANCH  46  47
ENDBRANCH  45  46
ENDBRANCH  11  45
BRANCH  18  51
HETATM   51  C   UNK     0     -26.948   9.021   8.569  0.00  0.00     0.051 C 
BRANCH  51  52
HETATM   52  C   UNK     0     -27.899   8.999   9.757  0.00  0.00     0.114 C 
BRANCH  52  53
HETATM   53  C   UNK     0     -28.287   7.624  10.125  0.00  0.00     0.139 C 
HETATM   54  O   UNK     0     -29.087   7.432  11.055  0.00  0.00    -0.650 OA
BRANCH  53  55
HETATM   55  O   UNK     0     -27.756   6.561   9.437  0.00  0.00    -0.776 OA
HETATM   56  H   UNK     0     -26.790   6.361   9.326  0.00  0.00     0.167 HD
ENDBRANCH  53  55
ENDBRANCH  52  53
ENDBRANCH  51  52
ENDBRANCH  18  51
TORSDOF 16
ENDMDL
MODEL 18
REMARK VINA RESULT:      -7.7     27.349     33.578
REMARK  16 active torsions:
REMARK  status: ('A' for Active; 'I' for Inactive)
REMARK    1  A    between atoms: C_6  and  C_7 
REMARK    2  A    between atoms: C_7  and  C_8 
REMARK    3  A    between atoms: C_8  and  C_9 
REMARK    4  A    between atoms: C_9  and  O_11 
REMARK    5  A    between atoms: C_16  and  C_17 
REMARK    6  A    between atoms: C_17  and  C_18 
REMARK    7  A    between atoms: C_18  and  C_19 
REMARK    8  A    between atoms: C_19  and  O_21 
REMARK    9  A    between atoms: C_28  and  C_29 
REMARK   10  A    between atoms: C_29  and  C_30 
REMARK   11  A    between atoms: C_30  and  C_31 
REMARK   12  A    between atoms: C_31  and  O_33 
REMARK   13  A    between atoms: C_42  and  C_43 
REMARK   14  A    between atoms: C_43  and  C_44 
REMARK   15  A    between atoms: C_44  and  C_45 
REMARK   16  A    between atoms: C_45  and  O_47 
ROOT
HETATM    1  C   UNK     0     -23.845   8.113  11.160  0.00  0.00     0.051 C 
HETATM    2  C   UNK     0     -22.471   7.638  10.736  0.00  0.00    -0.031 A 
HETATM    3  C   UNK     0     -21.710   8.013   9.640  0.00  0.00     0.021 A 
HETATM    4  N   UNK     0     -20.556   7.304   9.641  0.00  0.00    -0.361 N 
HETATM    5  C   UNK     0     -20.561   6.493  10.718  0.00  0.00     0.022 A 
HETATM    6  C   UNK     0     -21.746   6.674  11.424  0.00  0.00    -0.027 A 
HETATM    7  C   UNK     0     -19.489   5.580  11.228  0.00  0.00     0.115 C 
HETATM    8  C   UNK     0     -18.069   6.118  11.208  0.00  0.00     0.021 A 
HETATM    9  N   UNK     0     -17.648   7.373  11.429  0.00  0.00    -0.361 N 
HETATM   10  C   UNK     0     -16.315   7.411  11.217  0.00  0.00     0.022 A 
HETATM   11  C   UNK     0     -15.865   6.144  10.858  0.00  0.00    -0.027 A 
HETATM   12  C   UNK     0     -16.965   5.325  10.851  0.00  0.00    -0.031 A 
HETATM   13  C   UNK     0     -16.953   3.849  10.522  0.00  0.00     0.051 C 
HETATM   14  C   UNK     0     -15.425   8.649  11.291  0.00  0.00     0.115 C 
HETATM   15  C   UNK     0     -15.803   9.738  10.301  0.00  0.00     0.021 A 
HETATM   16  N   UNK     0     -16.983  10.376  10.192  0.00  0.00    -0.361 N 
HETATM   17  C   UNK     0     -16.935  11.213   9.153  0.00  0.00     0.022 A 
HETATM   18  C   UNK     0     -15.658  11.124   8.563  0.00  0.00    -0.027 A 
HETATM   19  C   UNK     0     -14.958  10.198   9.292  0.00  0.00    -0.031 A 
HETATM   20  C   UNK     0     -13.514   9.821   9.015  0.00  0.00     0.051 C 
HETATM   21  C   UNK     0     -18.011  12.099   8.568  0.00  0.00     0.115 C 
HETATM   22  C   UNK     0     -19.434  11.596   8.620  0.00  0.00     0.022 A 
HETATM   23  N   UNK     0     -19.882  10.351   8.408  0.00  0.00    -0.361 N 
HETATM   24  C   UNK     0     -21.198  10.320   8.701  0.00  0.00     0.021 A 
HETATM   25  C   UNK     0     -21.609  11.577   9.101  0.00  0.00    -0.031 A 
HETATM   26  C   UNK     0     -22.995  12.047   9.491  0.00  0.00     0.051 C 
HETATM   27  C   UNK     0     -20.498  12.411   9.057  0.00  0.00    -0.027 A 
HETATM   28  C   UNK     0     -22.121   9.113   8.703  0.00  0.00     0.115 C 
HETATM   29  H   UNK     0     -19.763   7.354   8.859  0.00  0.00     0.165 HD
HETATM   30  H   UNK     0     -18.280   8.223  11.784  0.00  0.00     0.165 HD
HETATM   31  H   UNK     0     -17.853  10.269  10.890  0.00  0.00     0.165 HD
HETATM   32  H   UNK     0     -19.283   9.493   8.008  0.00  0.00     0.165 HD
ENDROOT
BRANCH   6  33
HETATM   33  C   UNK     0     -22.236   6.007  12.684  0.00  0.00     0.051 C 
BRANCH  33  34
HETATM   34  C   UNK     0     -22.835   4.655  12.377  0.00  0.00     0.114 C 
BRANCH  34  35
HETATM   35  C   UNK     0     -24.318   4.813  12.384  0.00  0.00     0.139 C 
HETATM   36  O   UNK     0     -24.993   4.536  11.350  0.00  0.00    -0.650 OA
BRANCH  35  37
HETATM   37  O   UNK     0     -25.019   5.257  13.499  0.00  0.00    -0.776 OA
HETATM   38  H   UNK     0     -25.488   6.148  13.515  0.00  0.00     0.167 HD
ENDBRANCH  35  37
ENDBRANCH  34  35
ENDBRANCH  33  34
ENDBRANCH   6  33
BRANCH  27  39
HETATM   39  C   UNK     0     -20.565  13.867   9.354  0.00  0.00     0.051 C 
BRANCH  39  40
HETATM   40  C   UNK     0     -20.703  14.798   8.235  0.00  0.00     0.114 C 
BRANCH  40  41
HETATM   41  C   UNK     0     -19.561  15.306   7.509  0.00  0.00     0.139 C 
HETATM   42  O   UNK     0     -19.550  15.475   6.283  0.00  0.00    -0.650 OA
BRANCH  41  43
HETATM   43  O   UNK     0     -18.376  15.633   8.228  0.00  0.00    -0.776 OA
HETATM   44  H   UNK     0     -17.659  14.918   8.203  0.00  0.00     0.167 HD
ENDBRANCH  41  43
ENDBRANCH  40  41
ENDBRANCH  39  40
ENDBRANCH  27  39
BRANCH  11  45
HETATM   45  C   UNK     0     -14.464   5.699  10.535  0.00  0.00     0.051 C 
BRANCH  45  46
HETATM   46  C   UNK     0     -14.224   5.453   9.090  0.00  0.00     0.114 C 
BRANCH  46  47
HETATM   47  C   UNK     0     -12.749   5.469   8.877  0.00  0.00     0.139 C 
HETATM   48  O   UNK     0     -12.098   4.454   9.163  0.00  0.00    -0.650 OA
BRANCH  47  49
HETATM   49  O   UNK     0     -12.123   6.583   8.377  0.00  0.00    -0.776 OA
HETATM   50  H   UNK     0     -11.846   7.369   8.978  0.00  0.00     0.167 HD
ENDBRANCH  47  49
ENDBRANCH  46  47
ENDBRANCH  45  46
ENDBRANCH  11  45
BRANCH  18  51
HETATM   51  C   UNK     0     -15.127  11.894   7.382  0.00  0.00     0.051 C 
BRANCH  51  52
HETATM   52  C   UNK     0     -14.074  12.845   7.932  0.00  0.00     0.114 C 
BRANCH  52  53
HETATM   53  C   UNK     0     -14.663  13.857   8.831  0.00  0.00     0.139 C 
HETATM   54  O   UNK     0     -14.280  13.939  10.009  0.00  0.00    -0.650 OA
BRANCH  53  55
HETATM   55  O   UNK     0     -15.637  14.702   8.358  0.00  0.00    -0.776 OA
HETATM   56  H   UNK     0     -15.496  15.625   8.020  0.00  0.00     0.167 HD
ENDBRANCH  53  55
ENDBRANCH  52  53
ENDBRANCH  51  52
ENDBRANCH  18  51
TORSDOF 16
ENDMDL
MODEL 19
REMARK VINA RESULT:      -7.5     27.505     31.491
REMARK  16 active torsions:
REMARK  status: ('A' for Active; 'I' for Inactive)
REMARK    1  A    between atoms: C_6  and  C_7 
REMARK    2  A    between atoms: C_7  and  C_8 
REMARK    3  A    between atoms: C_8  and  C_9 
REMARK    4  A    between atoms: C_9  and  O_11 
REMARK    5  A    between atoms: C_16  and  C_17 
REMARK    6  A    between atoms: C_17  and  C_18 
REMARK    7  A    between atoms: C_18  and  C_19 
REMARK    8  A    between atoms: C_19  and  O_21 
REMARK    9  A    between atoms: C_28  and  C_29 
REMARK   10  A    between atoms: C_29  and  C_30 
REMARK   11  A    between atoms: C_30  and  C_31 
REMARK   12  A    between atoms: C_31  and  O_33 
REMARK   13  A    between atoms: C_42  and  C_43 
REMARK   14  A    between atoms: C_43  and  C_44 
REMARK   15  A    between atoms: C_44  and  C_45 
REMARK   16  A    between atoms: C_45  and  O_47 
ROOT
HETATM    1  C   UNK     0     -27.447   6.480  12.189  0.00  0.00     0.051 C 
HETATM    2  C   UNK     0     -26.064   6.472  11.568  0.00  0.00    -0.031 A 
HETATM    3  C   UNK     0     -25.658   6.917  10.320  0.00  0.00     0.021 A 
HETATM    4  N   UNK     0     -24.331   6.684  10.179  0.00  0.00    -0.361 N 
HETATM    5  C   UNK     0     -23.882   6.108  11.313  0.00  0.00     0.022 A 
HETATM    6  C   UNK     0     -24.941   5.958  12.203  0.00  0.00    -0.027 A 
HETATM    7  C   UNK     0     -22.485   5.738  11.704  0.00  0.00     0.115 C 
HETATM    8  C   UNK     0     -21.396   6.742  11.373  0.00  0.00     0.021 A 
HETATM    9  N   UNK     0     -21.461   8.083  11.390  0.00  0.00    -0.361 N 
HETATM   10  C   UNK     0     -20.286   8.565  10.934  0.00  0.00     0.022 A 
HETATM   11  C   UNK     0     -19.437   7.507  10.624  0.00  0.00    -0.027 A 
HETATM   12  C   UNK     0     -20.130   6.356  10.898  0.00  0.00    -0.031 A 
HETATM   13  C   UNK     0     -19.598   4.952  10.718  0.00  0.00     0.051 C 
HETATM   14  C   UNK     0     -19.936  10.036  10.723  0.00  0.00     0.115 C 
HETATM   15  C   UNK     0     -20.830  10.743   9.717  0.00  0.00     0.021 A 
HETATM   16  N   UNK     0     -22.168  10.885   9.764  0.00  0.00    -0.361 N 
HETATM   17  C   UNK     0     -22.582  11.506   8.658  0.00  0.00     0.022 A 
HETATM   18  C   UNK     0     -21.459  11.792   7.856  0.00  0.00    -0.027 A 
HETATM   19  C   UNK     0     -20.368  11.310   8.531  0.00  0.00    -0.031 A 
HETATM   20  C   UNK     0     -18.941  11.442   8.032  0.00  0.00     0.051 C 
HETATM   21  C   UNK     0     -23.983  11.838   8.196  0.00  0.00     0.115 C 
HETATM   22  C   UNK     0     -25.084  10.869   8.557  0.00  0.00     0.022 A 
HETATM   23  N   UNK     0     -25.046   9.531   8.553  0.00  0.00    -0.361 N 
HETATM   24  C   UNK     0     -26.198   9.072   9.083  0.00  0.00     0.021 A 
HETATM   25  C   UNK     0     -27.001  10.142   9.428  0.00  0.00    -0.031 A 
HETATM   26  C   UNK     0     -28.397  10.136  10.016  0.00  0.00     0.051 C 
HETATM   27  C   UNK     0     -26.310  11.303   9.100  0.00  0.00    -0.027 A 
HETATM   28  C   UNK     0     -26.580   7.631   9.372  0.00  0.00     0.115 C 
HETATM   29  H   UNK     0     -23.730   6.892   9.264  0.00  0.00     0.165 HD
HETATM   30  H   UNK     0     -22.318   8.692  11.770  0.00  0.00     0.165 HD
HETATM   31  H   UNK     0     -22.829  10.583  10.618  0.00  0.00     0.165 HD
HETATM   32  H   UNK     0     -24.222   8.895   8.136  0.00  0.00     0.165 HD
ENDROOT
BRANCH   6  33
HETATM   33  C   UNK     0     -24.966   5.369  13.590  0.00  0.00     0.051 C 
BRANCH  33  34
HETATM   34  C   UNK     0     -24.711   6.436  14.629  0.00  0.00     0.114 C 
BRANCH  34  35
HETATM   35  C   UNK     0     -23.741   5.876  15.614  0.00  0.00     0.139 C 
HETATM   36  O   UNK     0     -22.541   5.659  15.274  0.00  0.00    -0.650 OA
BRANCH  35  37
HETATM   37  O   UNK     0     -24.093   5.575  16.924  0.00  0.00    -0.776 OA
HETATM   38  H   UNK     0     -24.871   6.019  17.384  0.00  0.00     0.167 HD
ENDBRANCH  35  37
ENDBRANCH  34  35
ENDBRANCH  33  34
ENDBRANCH   6  33
BRANCH  27  39
HETATM   39  C   UNK     0     -26.890  12.664   9.261  0.00  0.00     0.051 C 
BRANCH  39  40
HETATM   40  C   UNK     0     -26.323  13.544  10.283  0.00  0.00     0.114 C 
BRANCH  40  41
HETATM   41  C   UNK     0     -25.844  13.042  11.551  0.00  0.00     0.139 C 
HETATM   42  O   UNK     0     -24.664  13.130  11.920  0.00  0.00    -0.650 OA
BRANCH  41  43
HETATM   43  O   UNK     0     -26.763  12.411  12.437  0.00  0.00    -0.776 OA
HETATM   44  H   UNK     0     -26.843  12.854  13.344  0.00  0.00     0.167 HD
ENDBRANCH  41  43
ENDBRANCH  40  41
ENDBRANCH  39  40
ENDBRANCH  27  39
BRANCH  11  45
HETATM   45  C   UNK     0     -18.029   7.553  10.095  0.00  0.00     0.051 C 
BRANCH  45  46
HETATM   46  C   UNK     0     -16.984   7.554  11.150  0.00  0.00     0.114 C 
BRANCH  46  47
HETATM   47  C   UNK     0     -16.107   6.373  10.904  0.00  0.00     0.139 C 
HETATM   48  O   UNK     0     -15.292   6.425   9.972  0.00  0.00    -0.650 OA
BRANCH  47  49
HETATM   49  O   UNK     0     -16.200   5.252  11.690  0.00  0.00    -0.776 OA
HETATM   50  H   UNK     0     -15.374   4.816  12.117  0.00  0.00     0.167 HD
ENDBRANCH  47  49
ENDBRANCH  46  47
ENDBRANCH  45  46
ENDBRANCH  11  45
BRANCH  18  51
HETATM   51  C   UNK     0     -21.426  12.503   6.528  0.00  0.00     0.051 C 
BRANCH  51  52
HETATM   52  C   UNK     0     -21.301  13.987   6.843  0.00  0.00     0.114 C 
BRANCH  52  53
HETATM   53  C   UNK     0     -19.978  14.520   6.465  0.00  0.00     0.139 C 
HETATM   54  O   UNK     0     -19.376  14.051   5.486  0.00  0.00    -0.650 OA
BRANCH  53  55
HETATM   55  O   UNK     0     -19.418  15.534   7.203  0.00  0.00    -0.776 OA
HETATM   56  H   UNK     0     -19.109  16.410   6.853  0.00  0.00     0.167 HD
ENDBRANCH  53  55
ENDBRANCH  52  53
ENDBRANCH  51  52
ENDBRANCH  18  51
TORSDOF 16
ENDMDL
MODEL 20
REMARK VINA RESULT:      -7.4     26.966     30.830
REMARK  16 active torsions:
REMARK  status: ('A' for Active; 'I' for Inactive)
REMARK    1  A    between atoms: C_6  and  C_7 
REMARK    2  A    between atoms: C_7  and  C_8 
REMARK    3  A    between atoms: C_8  and  C_9 
REMARK    4  A    between atoms: C_9  and  O_11 
REMARK    5  A    between atoms: C_16  and  C_17 
REMARK    6  A    between atoms: C_17  and  C_18 
REMARK    7  A    between atoms: C_18  and  C_19 
REMARK    8  A    between atoms: C_19  and  O_21 
REMARK    9  A    between atoms: C_28  and  C_29 
REMARK   10  A    between atoms: C_29  and  C_30 
REMARK   11  A    between atoms: C_30  and  C_31 
REMARK   12  A    between atoms: C_31  and  O_33 
REMARK   13  A    between atoms: C_42  and  C_43 
REMARK   14  A    between atoms: C_43  and  C_44 
REMARK   15  A    between atoms: C_44  and  C_45 
REMARK   16  A    between atoms: C_45  and  O_47 
ROOT
HETATM    1  C   UNK     0     -29.318   7.941  11.793  0.00  0.00     0.051 C 
HETATM    2  C   UNK     0     -27.918   7.407  11.565  0.00  0.00    -0.031 A 
HETATM    3  C   UNK     0     -27.122   7.482  10.432  0.00  0.00     0.021 A 
HETATM    4  N   UNK     0     -25.955   6.837  10.670  0.00  0.00    -0.361 N 
HETATM    5  C   UNK     0     -25.987   6.361  11.932  0.00  0.00     0.022 A 
HETATM    6  C   UNK     0     -27.202   6.697  12.519  0.00  0.00    -0.027 A 
HETATM    7  C   UNK     0     -24.918   5.660  12.712  0.00  0.00     0.115 C 
HETATM    8  C   UNK     0     -23.510   6.214  12.588  0.00  0.00     0.021 A 
HETATM    9  N   UNK     0     -23.122   7.492  12.460  0.00  0.00    -0.361 N 
HETATM   10  C   UNK     0     -21.783   7.509  12.289  0.00  0.00     0.022 A 
HETATM   11  C   UNK     0     -21.294   6.207  12.316  0.00  0.00    -0.027 A 
HETATM   12  C   UNK     0     -22.376   5.386  12.505  0.00  0.00    -0.031 A 
HETATM   13  C   UNK     0     -22.323   3.878  12.605  0.00  0.00     0.051 C 
HETATM   14  C   UNK     0     -20.922   8.744  12.041  0.00  0.00     0.115 C 
HETATM   15  C   UNK     0     -21.281   9.500  10.772  0.00  0.00     0.021 A 
HETATM   16  N   UNK     0     -22.468  10.046  10.449  0.00  0.00    -0.361 N 
HETATM   17  C   UNK     0     -22.396  10.559   9.219  0.00  0.00     0.022 A 
HETATM   18  C   UNK     0     -21.095  10.346   8.720  0.00  0.00    -0.027 A 
HETATM   19  C   UNK     0     -20.407   9.683   9.702  0.00  0.00    -0.031 A 
HETATM   20  C   UNK     0     -18.946   9.288   9.589  0.00  0.00     0.051 C 
HETATM   21  C   UNK     0     -23.465  11.213   8.373  0.00  0.00     0.115 C 
HETATM   22  C   UNK     0     -24.879  10.701   8.519  0.00  0.00     0.022 A 
HETATM   23  N   UNK     0     -25.294   9.435   8.652  0.00  0.00    -0.361 N 
HETATM   24  C   UNK     0     -26.619   9.447   8.899  0.00  0.00     0.021 A 
HETATM   25  C   UNK     0     -27.071  10.753   8.916  0.00  0.00    -0.031 A 
HETATM   26  C   UNK     0     -28.480  11.272   9.112  0.00  0.00     0.051 C 
HETATM   27  C   UNK     0     -25.975  11.574   8.675  0.00  0.00    -0.027 A 
HETATM   28  C   UNK     0     -27.518   8.263   9.211  0.00  0.00     0.115 C 
HETATM   29  H   UNK     0     -25.134   6.689   9.932  0.00  0.00     0.165 HD
HETATM   30  H   UNK     0     -23.785   8.389  12.541  0.00  0.00     0.165 HD
HETATM   31  H   UNK     0     -23.363  10.113  11.121  0.00  0.00     0.165 HD
HETATM   32  H   UNK     0     -24.662   8.517   8.530  0.00  0.00     0.165 HD
ENDROOT
BRANCH   6  33
HETATM   33  C   UNK     0     -27.728   6.397  13.900  0.00  0.00     0.051 C 
BRANCH  33  34
HETATM   34  C   UNK     0     -26.722   6.793  14.954  0.00  0.00     0.114 C 
BRANCH  34  35
HETATM   35  C   UNK     0     -26.637   5.673  15.935  0.00  0.00     0.139 C 
HETATM   36  O   UNK     0     -25.684   5.624  16.765  0.00  0.00    -0.650 OA
BRANCH  35  37
HETATM   37  O   UNK     0     -27.578   4.652  15.989  0.00  0.00    -0.776 OA
HETATM   38  H   UNK     0     -28.397   4.710  16.573  0.00  0.00     0.167 HD
ENDBRANCH  35  37
ENDBRANCH  34  35
ENDBRANCH  33  34
ENDBRANCH   6  33
BRANCH  27  39
HETATM   39  C   UNK     0     -26.083  13.053   8.547  0.00  0.00     0.051 C 
BRANCH  39  40
HETATM   40  C   UNK     0     -25.825  13.657   7.241  0.00  0.00     0.114 C 
BRANCH  40  41
HETATM   41  C   UNK     0     -24.878  14.736   7.064  0.00  0.00     0.139 C 
HETATM   42  O   UNK     0     -23.656  14.563   6.961  0.00  0.00    -0.650 OA
BRANCH  41  43
HETATM   43  O   UNK     0     -25.360  16.074   7.003  0.00  0.00    -0.776 OA
HETATM   44  H   UNK     0     -26.369  16.156   6.983  0.00  0.00     0.167 HD
ENDBRANCH  41  43
ENDBRANCH  40  41
ENDBRANCH  39  40
ENDBRANCH  27  39
BRANCH  11  45
HETATM   45  C   UNK     0     -19.873   5.731  12.177  0.00  0.00     0.051 C 
BRANCH  45  46
HETATM   46  C   UNK     0     -19.494   5.351  10.792  0.00  0.00     0.114 C 
BRANCH  46  47
HETATM   47  C   UNK     0     -18.053   4.971  10.816  0.00  0.00     0.139 C 
HETATM   48  O   UNK     0     -17.202   5.869  10.753  0.00  0.00    -0.650 OA
BRANCH  47  49
HETATM   49  O   UNK     0     -17.675   3.655  10.906  0.00  0.00    -0.776 OA
HETATM   50  H   UNK     0     -18.350   2.906  11.099  0.00  0.00     0.167 HD
ENDBRANCH  47  49
ENDBRANCH  46  47
ENDBRANCH  45  46
ENDBRANCH  11  45
BRANCH  18  51
HETATM   51  C   UNK     0     -20.533  10.770   7.387  0.00  0.00     0.051 C 
BRANCH  51  52
HETATM   52  C   UNK     0     -19.942  12.156   7.596  0.00  0.00     0.114 C 
BRANCH  52  53
HETATM   53  C   UNK     0     -19.682  12.841   6.315  0.00  0.00     0.139 C 
HETATM   54  O   UNK     0     -18.919  13.819   6.277  0.00  0.00    -0.650 OA
BRANCH  53  55
HETATM   55  O   UNK     0     -20.291  12.391   5.168  0.00  0.00    -0.776 OA
HETATM   56  H   UNK     0     -20.554  12.949   4.390  0.00  0.00     0.167 HD
ENDBRANCH  53  55
ENDBRANCH  52  53
ENDBRANCH  51  52
ENDBRANCH  18  51
TORSDOF 16
ENDMDL
