MODEL 1
REMARK VINA RESULT:      -9.3      0.000      0.000
REMARK  28 active torsions:
REMARK  status: ('A' for Active; 'I' for Inactive)
REMARK    1  A    between atoms: C_2  and  O_3 
REMARK    2  A    between atoms: C_2  and  C_4 
REMARK    3  A    between atoms: C_4  and  C_5 
REMARK    4  A    between atoms: C_5  and  C_6 
REMARK    5  A    between atoms: C_7  and  C_8 
REMARK    6  A    between atoms: C_8  and  C_9 
REMARK    7  A    between atoms: C_9  and  O_11 
REMARK    8  A    between atoms: C_28  and  C_29 
REMARK    9  A    between atoms: C_29  and  C_30 
REMARK   10  A    between atoms: C_30  and  O_32 
REMARK   11  A    between atoms: C_33  and  C_34 
REMARK   12  A    between atoms: C_34  and  C_35 
REMARK   13  A    between atoms: C_35  and  C_36 
REMARK   14  A    between atoms: C_36  and  O_38 
REMARK   15  A    between atoms: C_39  and  C_40 
REMARK   16  A    between atoms: C_40  and  C_41 
REMARK   17  A    between atoms: C_41  and  C_42 
REMARK   18  A    between atoms: C_42  and  O_44 
REMARK   19  A    between atoms: C_45  and  C_46 
REMARK   20  A    between atoms: C_46  and  C_47 
REMARK   21  A    between atoms: C_47  and  O_49 
REMARK   22  A    between atoms: C_50  and  C_51 
REMARK   23  A    between atoms: C_51  and  C_52 
REMARK   24  A    between atoms: C_52  and  O_54 
REMARK   25  A    between atoms: C_55  and  C_56 
REMARK   26  A    between atoms: C_56  and  C_57 
REMARK   27  A    between atoms: C_57  and  C_58 
REMARK   28  A    between atoms: C_58  and  O_60 
ROOT
ATOM      1  O   UNK d   0       8.138 -12.710   8.478  0.00  0.00    -0.650 OA
ATOM      2  C   UNK d   0       7.847 -11.505   8.306  0.00  0.00     0.139 C 
ENDROOT
BRANCH   2   3
ATOM      3  O   UNK d   0       6.533 -11.112   8.384  0.00  0.00    -0.776 OA
ATOM      4  H   UNK d   0       5.856 -11.391   7.672  0.00  0.00     0.167 HD
ENDBRANCH   2   3
BRANCH   2   5
ATOM      5  C   UNK d   0       8.919 -10.510   8.019  0.00  0.00     0.115 C 
BRANCH   5   6
ATOM      6  C   UNK d   0       8.317  -9.149   7.803  0.00  0.00     0.052 C 
BRANCH   6   7
ATOM      7  C   UNK d   0       8.798  -8.134   8.812  0.00  0.00    -0.020 A 
ATOM      8  C   UNK d   0       8.346  -7.938  10.024  0.00  0.00    -0.011 A 
ATOM      9  C   UNK d   0       9.110  -6.851  10.614  0.00  0.00     0.067 A 
ATOM     10  C   UNK d   0       9.139  -6.188  11.851  0.00  0.00     0.062 C 
ATOM     11  N   UNK d   0      10.002  -6.440   9.688  0.00  0.00    -0.248 NA
ATOM     12  C   UNK d   0      10.142  -5.341  12.335  0.00  0.00     0.041 A 
ATOM     13  N   UNK d   0      10.843  -4.362  11.731  0.00  0.00    -0.355 N 
ATOM     14  C   UNK d   0      10.594  -5.507  13.656  0.00  0.00    -0.022 A 
ATOM     15  C   UNK d   0      11.734  -3.909  12.633  0.00  0.00     0.042 A 
ATOM     16  H   UNK d   0      10.697  -3.986  10.695  0.00  0.00     0.166 HD
ATOM     17  C   UNK d   0      12.706  -2.895  12.527  0.00  0.00     0.062 C 
ATOM     18  C   UNK d   0      11.608  -4.603  13.852  0.00  0.00    -0.013 A 
ATOM     19  C   UNK d   0      13.589  -2.650  11.505  0.00  0.00     0.067 A 
ATOM     20  N   UNK d   0      13.396  -3.320  10.366  0.00  0.00    -0.248 NA
ATOM     21  C   UNK d   0      14.763  -1.815  11.317  0.00  0.00    -0.011 A 
ATOM     22  C   UNK d   0      14.360  -2.984   9.447  0.00  0.00     0.066 A 
ATOM     23  C   UNK d   0      14.256  -3.581   8.199  0.00  0.00     0.062 C 
ATOM     24  C   UNK d   0      15.212  -2.019  10.112  0.00  0.00    -0.020 A 
ATOM     25  C   UNK d   0      13.234  -4.420   7.729  0.00  0.00     0.041 A 
ATOM     26  N   UNK d   0      12.547  -5.402   8.324  0.00  0.00    -0.355 N 
ATOM     27  C   UNK d   0      12.777  -4.249   6.404  0.00  0.00    -0.022 A 
ATOM     28  C   UNK d   0      11.664  -5.862   7.423  0.00  0.00     0.042 A 
ATOM     29  H   UNK d   0      12.701  -5.787   9.362  0.00  0.00     0.166 HD
ATOM     30  C   UNK d   0      10.697  -6.876   7.513  0.00  0.00     0.062 C 
ATOM     31  C   UNK d   0      11.783  -5.157   6.202  0.00  0.00    -0.013 A 
ATOM     32  C   UNK d   0       9.866  -7.172   8.582  0.00  0.00     0.066 A 
BRANCH   8  33
ATOM     33  C   UNK d   0       7.254  -8.671  10.691  0.00  0.00     0.151 C 
BRANCH  33  34
ATOM     34  C   UNK d   0       6.045  -7.850  10.877  0.00  0.00     0.143 C 
ATOM     35  O   UNK d   0       5.388  -7.913  11.926  0.00  0.00    -0.650 OA
BRANCH  34  36
ATOM     36  O   UNK d   0       5.642  -7.003   9.870  0.00  0.00    -0.776 OA
ATOM     37  H   UNK d   0       4.650  -6.917   9.611  0.00  0.00     0.167 HD
ENDBRANCH  34  36
ENDBRANCH  33  34
ENDBRANCH   8  33
BRANCH  31  38
ATOM     38  C   UNK d   0      10.985  -5.337   4.933  0.00  0.00     0.151 C 
BRANCH  38  39
ATOM     39  C   UNK d   0      11.629  -6.220   3.984  0.00  0.00     0.143 C 
ATOM     40  O   UNK d   0      12.283  -7.216   4.340  0.00  0.00    -0.650 OA
BRANCH  39  41
ATOM     41  O   UNK d   0      11.522  -5.957   2.619  0.00  0.00    -0.776 OA
ATOM     42  H   UNK d   0      10.651  -6.245   2.161  0.00  0.00     0.167 HD
ENDBRANCH  39  41
ENDBRANCH  38  39
ENDBRANCH  31  38
BRANCH  27  43
ATOM     43  C   UNK d   0      13.242  -3.278   5.348  0.00  0.00     0.052 C 
BRANCH  43  44
ATOM     44  C   UNK d   0      12.557  -1.952   5.421  0.00  0.00     0.115 C 
BRANCH  44  45
ATOM     45  C   UNK d   0      13.583  -0.926   5.096  0.00  0.00     0.139 C 
ATOM     46  O   UNK d   0      14.305  -1.111   4.086  0.00  0.00    -0.650 OA
BRANCH  45  47
ATOM     47  O   UNK d   0      13.765   0.213   5.850  0.00  0.00    -0.776 OA
ATOM     48  H   UNK d   0      13.392   0.317   6.808  0.00  0.00     0.167 HD
ENDBRANCH  45  47
ENDBRANCH  44  45
ENDBRANCH  43  44
ENDBRANCH  27  43
BRANCH  24  49
ATOM     49  C   UNK d   0      16.367  -1.347   9.491  0.00  0.00     0.052 C 
BRANCH  49  50
ATOM     50  C   UNK d   0      15.916  -0.127   8.729  0.00  0.00     0.115 C 
BRANCH  50  51
ATOM     51  C   UNK d   0      16.881   0.487   7.827  0.00  0.00     0.139 C 
ATOM     52  O   UNK d   0      16.562   0.939   6.702  0.00  0.00    -0.650 OA
BRANCH  51  53
ATOM     53  O   UNK d   0      18.211   0.583   8.206  0.00  0.00    -0.776 OA
ATOM     54  H   UNK d   0      18.512   1.420   8.674  0.00  0.00     0.167 HD
ENDBRANCH  51  53
ENDBRANCH  50  51
ENDBRANCH  49  50
ENDBRANCH  24  49
BRANCH  21  55
ATOM     55  C   UNK d   0      15.312  -0.899  12.360  0.00  0.00     0.151 C 
BRANCH  55  56
ATOM     56  C   UNK d   0      16.273  -1.579  13.242  0.00  0.00     0.143 C 
ATOM     57  O   UNK d   0      16.462  -2.810  13.211  0.00  0.00    -0.650 OA
BRANCH  56  58
ATOM     58  O   UNK d   0      16.993  -0.796  14.143  0.00  0.00    -0.776 OA
ATOM     59  H   UNK d   0      17.697  -0.171  13.712  0.00  0.00     0.167 HD
ENDBRANCH  56  58
ENDBRANCH  55  56
ENDBRANCH  21  55
BRANCH  18  60
ATOM     60  C   UNK d   0      12.388  -4.443  15.134  0.00  0.00     0.151 C 
BRANCH  60  61
ATOM     61  C   UNK d   0      13.560  -5.322  15.006  0.00  0.00     0.143 C 
ATOM     62  O   UNK d   0      13.622  -6.521  15.276  0.00  0.00    -0.650 OA
BRANCH  61  63
ATOM     63  O   UNK d   0      14.732  -4.695  14.517  0.00  0.00    -0.776 OA
ATOM     64  H   UNK d   0      14.782  -4.354  13.574  0.00  0.00     0.167 HD
ENDBRANCH  61  63
ENDBRANCH  60  61
ENDBRANCH  18  60
BRANCH  14  65
ATOM     65  C   UNK d   0      10.080  -6.379  14.766  0.00  0.00     0.052 C 
BRANCH  65  66
ATOM     66  C   UNK d   0      10.180  -7.831  14.459  0.00  0.00     0.115 C 
BRANCH  66  67
ATOM     67  C   UNK d   0      10.985  -8.681  15.291  0.00  0.00     0.139 C 
ATOM     68  O   UNK d   0      11.209  -8.318  16.504  0.00  0.00    -0.650 OA
BRANCH  67  69
ATOM     69  O   UNK d   0      11.581  -9.894  14.949  0.00  0.00    -0.776 OA
ATOM     70  H   UNK d   0      10.942 -10.626  14.605  0.00  0.00     0.167 HD
ENDBRANCH  67  69
ENDBRANCH  66  67
ENDBRANCH  65  66
ENDBRANCH  14  65
ENDBRANCH   6   7
ENDBRANCH   5   6
ENDBRANCH   2   5
TORSDOF 28
ENDMDL
MODEL 2
REMARK VINA RESULT:      -9.3      1.849      8.255
REMARK  28 active torsions:
REMARK  status: ('A' for Active; 'I' for Inactive)
REMARK    1  A    between atoms: C_2  and  O_3 
REMARK    2  A    between atoms: C_2  and  C_4 
REMARK    3  A    between atoms: C_4  and  C_5 
REMARK    4  A    between atoms: C_5  and  C_6 
REMARK    5  A    between atoms: C_7  and  C_8 
REMARK    6  A    between atoms: C_8  and  C_9 
REMARK    7  A    between atoms: C_9  and  O_11 
REMARK    8  A    between atoms: C_28  and  C_29 
REMARK    9  A    between atoms: C_29  and  C_30 
REMARK   10  A    between atoms: C_30  and  O_32 
REMARK   11  A    between atoms: C_33  and  C_34 
REMARK   12  A    between atoms: C_34  and  C_35 
REMARK   13  A    between atoms: C_35  and  C_36 
REMARK   14  A    between atoms: C_36  and  O_38 
REMARK   15  A    between atoms: C_39  and  C_40 
REMARK   16  A    between atoms: C_40  and  C_41 
REMARK   17  A    between atoms: C_41  and  C_42 
REMARK   18  A    between atoms: C_42  and  O_44 
REMARK   19  A    between atoms: C_45  and  C_46 
REMARK   20  A    between atoms: C_46  and  C_47 
REMARK   21  A    between atoms: C_47  and  O_49 
REMARK   22  A    between atoms: C_50  and  C_51 
REMARK   23  A    between atoms: C_51  and  C_52 
REMARK   24  A    between atoms: C_52  and  O_54 
REMARK   25  A    between atoms: C_55  and  C_56 
REMARK   26  A    between atoms: C_56  and  C_57 
REMARK   27  A    between atoms: C_57  and  C_58 
REMARK   28  A    between atoms: C_58  and  O_60 
ROOT
ATOM      1  O   UNK d   0      11.088  -8.347  16.280  0.00  0.00    -0.650 OA
ATOM      2  C   UNK d   0      11.632  -7.777  15.308  0.00  0.00     0.139 C 
ENDROOT
BRANCH   2   3
ATOM      3  O   UNK d   0      11.847  -8.482  14.149  0.00  0.00    -0.776 OA
ATOM      4  H   UNK d   0      12.227  -9.431  14.171  0.00  0.00     0.167 HD
ENDBRANCH   2   3
BRANCH   2   5
ATOM      5  C   UNK d   0      12.042  -6.348  15.412  0.00  0.00     0.115 C 
BRANCH   5   6
ATOM      6  C   UNK d   0      10.914  -5.453  14.976  0.00  0.00     0.052 C 
BRANCH   6   7
ATOM      7  C   UNK d   0      11.225  -4.704  13.703  0.00  0.00    -0.020 A 
ATOM      8  C   UNK d   0      11.705  -3.492  13.587  0.00  0.00    -0.011 A 
ATOM      9  C   UNK d   0      11.830  -3.196  12.170  0.00  0.00     0.067 A 
ATOM     10  C   UNK d   0      12.283  -2.116  11.397  0.00  0.00     0.062 C 
ATOM     11  N   UNK d   0      11.398  -4.282  11.495  0.00  0.00    -0.248 NA
ATOM     12  C   UNK d   0      12.588  -2.120  10.031  0.00  0.00     0.041 A 
ATOM     13  N   UNK d   0      11.952  -2.676   8.982  0.00  0.00    -0.355 N 
ATOM     14  C   UNK d   0      13.778  -1.506   9.598  0.00  0.00    -0.022 A 
ATOM     15  C   UNK d   0      12.711  -2.437   7.896  0.00  0.00     0.042 A 
ATOM     16  H   UNK d   0      10.976  -3.209   9.006  0.00  0.00     0.166 HD
ATOM     17  C   UNK d   0      12.513  -2.793   6.547  0.00  0.00     0.062 C 
ATOM     18  C   UNK d   0      13.864  -1.706   8.243  0.00  0.00    -0.013 A 
ATOM     19  C   UNK d   0      12.109  -3.994   6.023  0.00  0.00     0.067 A 
ATOM     20  N   UNK d   0      11.647  -4.905   6.883  0.00  0.00    -0.248 NA
ATOM     21  C   UNK d   0      12.055  -4.591   4.699  0.00  0.00    -0.011 A 
ATOM     22  C   UNK d   0      11.296  -6.054   6.218  0.00  0.00     0.066 A 
ATOM     23  C   UNK d   0      10.763  -7.075   6.991  0.00  0.00     0.062 C 
ATOM     24  C   UNK d   0      11.583  -5.798   4.820  0.00  0.00    -0.020 A 
ATOM     25  C   UNK d   0      10.452  -7.046   8.359  0.00  0.00     0.041 A 
ATOM     26  N   UNK d   0      11.092  -6.507   9.404  0.00  0.00    -0.355 N 
ATOM     27  C   UNK d   0       9.255  -7.658   8.792  0.00  0.00    -0.022 A 
ATOM     28  C   UNK d   0      10.341  -6.751  10.490  0.00  0.00     0.042 A 
ATOM     29  H   UNK d   0      12.077  -5.981   9.380  0.00  0.00     0.166 HD
ATOM     30  C   UNK d   0      10.531  -6.411  11.838  0.00  0.00     0.062 C 
ATOM     31  C   UNK d   0       9.177  -7.476  10.139  0.00  0.00    -0.013 A 
ATOM     32  C   UNK d   0      11.021  -5.224  12.360  0.00  0.00     0.066 A 
BRANCH   8  33
ATOM     33  C   UNK d   0      12.058  -2.571  14.684  0.00  0.00     0.151 C 
BRANCH  33  34
ATOM     34  C   UNK d   0      10.997  -1.588  14.967  0.00  0.00     0.143 C 
ATOM     35  O   UNK d   0      10.980  -0.488  14.396  0.00  0.00    -0.650 OA
BRANCH  34  36
ATOM     36  O   UNK d   0      10.014  -1.898  15.879  0.00  0.00    -0.776 OA
ATOM     37  H   UNK d   0       9.768  -1.250  16.640  0.00  0.00     0.167 HD
ENDBRANCH  34  36
ENDBRANCH  33  34
ENDBRANCH   8  33
BRANCH  31  38
ATOM     38  C   UNK d   0       8.060  -7.949  11.039  0.00  0.00     0.151 C 
BRANCH  38  39
ATOM     39  C   UNK d   0       7.011  -6.964  11.198  0.00  0.00     0.143 C 
ATOM     40  O   UNK d   0       6.501  -6.707  12.302  0.00  0.00    -0.650 OA
BRANCH  39  41
ATOM     41  O   UNK d   0       6.548  -6.269  10.081  0.00  0.00    -0.776 OA
ATOM     42  H   UNK d   0       6.018  -5.410  10.259  0.00  0.00     0.167 HD
ENDBRANCH  39  41
ENDBRANCH  38  39
ENDBRANCH  31  38
BRANCH  27  43
ATOM     43  C   UNK d   0       8.211  -8.394   7.991  0.00  0.00     0.052 C 
BRANCH  43  44
ATOM     44  C   UNK d   0       8.522  -9.844   7.806  0.00  0.00     0.115 C 
BRANCH  44  45
ATOM     45  C   UNK d   0       7.524 -10.598   8.610  0.00  0.00     0.139 C 
ATOM     46  O   UNK d   0       6.434 -10.036   8.879  0.00  0.00    -0.650 OA
BRANCH  45  47
ATOM     47  O   UNK d   0       7.745 -11.881   9.062  0.00  0.00    -0.776 OA
ATOM     48  H   UNK d   0       8.346 -12.093   9.875  0.00  0.00     0.167 HD
ENDBRANCH  45  47
ENDBRANCH  44  45
ENDBRANCH  43  44
ENDBRANCH  27  43
BRANCH  24  49
ATOM     49  C   UNK d   0      11.327  -6.745   3.722  0.00  0.00     0.052 C 
BRANCH  49  50
ATOM     50  C   UNK d   0      12.535  -7.614   3.486  0.00  0.00     0.115 C 
BRANCH  50  51
ATOM     51  C   UNK d   0      13.407  -7.254   2.376  0.00  0.00     0.139 C 
ATOM     52  O   UNK d   0      13.057  -7.367   1.177  0.00  0.00    -0.650 OA
BRANCH  51  53
ATOM     53  O   UNK d   0      14.679  -6.767   2.633  0.00  0.00    -0.776 OA
ATOM     54  H   UNK d   0      14.894  -6.468   3.568  0.00  0.00     0.167 HD
ENDBRANCH  51  53
ENDBRANCH  50  51
ENDBRANCH  49  50
ENDBRANCH  24  49
BRANCH  21  55
ATOM     55  C   UNK d   0      12.478  -3.891   3.450  0.00  0.00     0.151 C 
BRANCH  55  56
ATOM     56  C   UNK d   0      13.857  -3.387   3.539  0.00  0.00     0.143 C 
ATOM     57  O   UNK d   0      14.167  -2.214   3.253  0.00  0.00    -0.650 OA
BRANCH  56  58
ATOM     58  O   UNK d   0      14.845  -4.273   3.964  0.00  0.00    -0.776 OA
ATOM     59  H   UNK d   0      14.895  -4.413   4.989  0.00  0.00     0.167 HD
ENDBRANCH  56  58
ENDBRANCH  55  56
ENDBRANCH  21  55
BRANCH  18  60
ATOM     60  C   UNK d   0      14.992  -1.219   7.367  0.00  0.00     0.151 C 
BRANCH  60  61
ATOM     61  C   UNK d   0      14.527   0.044   6.774  0.00  0.00     0.143 C 
ATOM     62  O   UNK d   0      14.496   1.150   7.314  0.00  0.00    -0.650 OA
BRANCH  61  63
ATOM     63  O   UNK d   0      14.071  -0.050   5.437  0.00  0.00    -0.776 OA
ATOM     64  H   UNK d   0      14.140  -0.912   4.926  0.00  0.00     0.167 HD
ENDBRANCH  61  63
ENDBRANCH  60  61
ENDBRANCH  18  60
BRANCH  14  65
ATOM     65  C   UNK d   0      14.778  -0.670  10.344  0.00  0.00     0.052 C 
BRANCH  65  66
ATOM     66  C   UNK d   0      15.903  -1.467  10.901  0.00  0.00     0.115 C 
BRANCH  66  67
ATOM     67  C   UNK d   0      16.119  -1.499  12.320  0.00  0.00     0.139 C 
ATOM     68  O   UNK d   0      15.094  -1.491  13.097  0.00  0.00    -0.650 OA
BRANCH  67  69
ATOM     69  O   UNK d   0      17.338  -1.538  12.997  0.00  0.00    -0.776 OA
ATOM     70  H   UNK d   0      17.900  -0.676  12.958  0.00  0.00     0.167 HD
ENDBRANCH  67  69
ENDBRANCH  66  67
ENDBRANCH  65  66
ENDBRANCH  14  65
ENDBRANCH   6   7
ENDBRANCH   5   6
ENDBRANCH   2   5
TORSDOF 28
ENDMDL
MODEL 3
REMARK VINA RESULT:      -9.3      2.851      9.142
REMARK  28 active torsions:
REMARK  status: ('A' for Active; 'I' for Inactive)
REMARK    1  A    between atoms: C_2  and  O_3 
REMARK    2  A    between atoms: C_2  and  C_4 
REMARK    3  A    between atoms: C_4  and  C_5 
REMARK    4  A    between atoms: C_5  and  C_6 
REMARK    5  A    between atoms: C_7  and  C_8 
REMARK    6  A    between atoms: C_8  and  C_9 
REMARK    7  A    between atoms: C_9  and  O_11 
REMARK    8  A    between atoms: C_28  and  C_29 
REMARK    9  A    between atoms: C_29  and  C_30 
REMARK   10  A    between atoms: C_30  and  O_32 
REMARK   11  A    between atoms: C_33  and  C_34 
REMARK   12  A    between atoms: C_34  and  C_35 
REMARK   13  A    between atoms: C_35  and  C_36 
REMARK   14  A    between atoms: C_36  and  O_38 
REMARK   15  A    between atoms: C_39  and  C_40 
REMARK   16  A    between atoms: C_40  and  C_41 
REMARK   17  A    between atoms: C_41  and  C_42 
REMARK   18  A    between atoms: C_42  and  O_44 
REMARK   19  A    between atoms: C_45  and  C_46 
REMARK   20  A    between atoms: C_46  and  C_47 
REMARK   21  A    between atoms: C_47  and  O_49 
REMARK   22  A    between atoms: C_50  and  C_51 
REMARK   23  A    between atoms: C_51  and  C_52 
REMARK   24  A    between atoms: C_52  and  O_54 
REMARK   25  A    between atoms: C_55  and  C_56 
REMARK   26  A    between atoms: C_56  and  C_57 
REMARK   27  A    between atoms: C_57  and  C_58 
REMARK   28  A    between atoms: C_58  and  O_60 
ROOT
ATOM      1  O   UNK d   0       9.757  -2.736  18.150  0.00  0.00    -0.650 OA
ATOM      2  C   UNK d   0      10.538  -2.346  17.253  0.00  0.00     0.139 C 
ENDROOT
BRANCH   2   3
ATOM      3  O   UNK d   0      11.286  -1.212  17.458  0.00  0.00    -0.776 OA
ATOM      4  H   UNK d   0      11.295  -0.455  16.771  0.00  0.00     0.167 HD
ENDBRANCH   2   3
BRANCH   2   5
ATOM      5  C   UNK d   0      10.651  -3.108  15.977  0.00  0.00     0.115 C 
BRANCH   5   6
ATOM      6  C   UNK d   0      12.056  -3.021  15.446  0.00  0.00     0.052 C 
BRANCH   6   7
ATOM      7  C   UNK d   0      12.121  -2.393  14.074  0.00  0.00    -0.020 A 
ATOM      8  C   UNK d   0      12.434  -1.158  13.775  0.00  0.00    -0.011 A 
ATOM      9  C   UNK d   0      12.351  -1.015  12.331  0.00  0.00     0.067 A 
ATOM     10  C   UNK d   0      12.575   0.012  11.401  0.00  0.00     0.062 C 
ATOM     11  N   UNK d   0      11.975  -2.211  11.831  0.00  0.00    -0.248 NA
ATOM     12  C   UNK d   0      12.714  -0.116  10.015  0.00  0.00     0.041 A 
ATOM     13  N   UNK d   0      12.028  -0.853   9.120  0.00  0.00    -0.355 N 
ATOM     14  C   UNK d   0      13.760   0.567   9.369  0.00  0.00    -0.022 A 
ATOM     15  C   UNK d   0      12.617  -0.660   7.924  0.00  0.00     0.042 A 
ATOM     16  H   UNK d   0      11.133  -1.481   9.325  0.00  0.00     0.166 HD
ATOM     17  C   UNK d   0      12.303  -1.187   6.656  0.00  0.00     0.062 C 
ATOM     18  C   UNK d   0      13.707   0.224   8.041  0.00  0.00    -0.013 A 
ATOM     19  C   UNK d   0      11.986  -2.476   6.312  0.00  0.00     0.067 A 
ATOM     20  N   UNK d   0      11.743  -3.327   7.313  0.00  0.00    -0.248 NA
ATOM     21  C   UNK d   0      11.847  -3.223   5.073  0.00  0.00    -0.011 A 
ATOM     22  C   UNK d   0      11.457  -4.576   6.818  0.00  0.00     0.066 A 
ATOM     23  C   UNK d   0      11.146  -5.552   7.753  0.00  0.00     0.062 C 
ATOM     24  C   UNK d   0      11.541  -4.452   5.376  0.00  0.00    -0.020 A 
ATOM     25  C   UNK d   0      11.000  -5.400   9.140  0.00  0.00     0.041 A 
ATOM     26  N   UNK d   0      11.691  -4.680  10.032  0.00  0.00    -0.355 N 
ATOM     27  C   UNK d   0       9.947  -6.083   9.787  0.00  0.00    -0.022 A 
ATOM     28  C   UNK d   0      11.111  -4.878  11.226  0.00  0.00     0.042 A 
ATOM     29  H   UNK d   0      12.596  -4.058   9.826  0.00  0.00     0.166 HD
ATOM     30  C   UNK d   0      11.418  -4.367  12.497  0.00  0.00     0.062 C 
ATOM     31  C   UNK d   0      10.009  -5.758  11.107  0.00  0.00    -0.013 A 
ATOM     32  C   UNK d   0      11.821  -3.083  12.828  0.00  0.00     0.066 A 
BRANCH   8  33
ATOM     33  C   UNK d   0      12.802  -0.086  14.718  0.00  0.00     0.151 C 
BRANCH  33  34
ATOM     34  C   UNK d   0      11.796   0.990  14.779  0.00  0.00     0.143 C 
ATOM     35  O   UNK d   0      10.734   0.834  15.399  0.00  0.00    -0.650 OA
BRANCH  34  36
ATOM     36  O   UNK d   0      12.042   2.182  14.138  0.00  0.00    -0.776 OA
ATOM     37  H   UNK d   0      11.430   2.998  14.273  0.00  0.00     0.167 HD
ENDBRANCH  34  36
ENDBRANCH  33  34
ENDBRANCH   8  33
BRANCH  31  38
ATOM     38  C   UNK d   0       9.072  -6.241  12.189  0.00  0.00     0.151 C 
BRANCH  38  39
ATOM     39  C   UNK d   0       9.498  -7.490  12.784  0.00  0.00     0.143 C 
ATOM     40  O   UNK d   0       8.925  -7.988  13.769  0.00  0.00    -0.650 OA
BRANCH  39  41
ATOM     41  O   UNK d   0      10.588  -8.171  12.243  0.00  0.00    -0.776 OA
ATOM     42  H   UNK d   0      11.261  -7.613  11.708  0.00  0.00     0.167 HD
ENDBRANCH  39  41
ENDBRANCH  38  39
ENDBRANCH  31  38
BRANCH  27  43
ATOM     43  C   UNK d   0       8.910  -7.013   9.208  0.00  0.00     0.052 C 
BRANCH  43  44
ATOM     44  C   UNK d   0       9.413  -8.406   9.004  0.00  0.00     0.115 C 
BRANCH  44  45
ATOM     45  C   UNK d   0       8.995  -8.812   7.637  0.00  0.00     0.139 C 
ATOM     46  O   UNK d   0       8.289  -9.844   7.517  0.00  0.00    -0.650 OA
BRANCH  45  47
ATOM     47  O   UNK d   0       9.343  -8.105   6.507  0.00  0.00    -0.776 OA
ATOM     48  H   UNK d   0       8.972  -8.328   5.570  0.00  0.00     0.167 HD
ENDBRANCH  45  47
ENDBRANCH  44  45
ENDBRANCH  43  44
ENDBRANCH  27  43
BRANCH  24  49
ATOM     49  C   UNK d   0      11.271  -5.540   4.421  0.00  0.00     0.052 C 
BRANCH  49  50
ATOM     50  C   UNK d   0      12.429  -5.703   3.470  0.00  0.00     0.115 C 
BRANCH  50  51
ATOM     51  C   UNK d   0      12.111  -6.027   2.086  0.00  0.00     0.139 C 
ATOM     52  O   UNK d   0      12.698  -5.494   1.114  0.00  0.00    -0.650 OA
BRANCH  51  53
ATOM     53  O   UNK d   0      11.122  -6.958   1.809  0.00  0.00    -0.776 OA
ATOM     54  H   UNK d   0      11.341  -7.932   1.923  0.00  0.00     0.167 HD
ENDBRANCH  51  53
ENDBRANCH  50  51
ENDBRANCH  49  50
ENDBRANCH  24  49
BRANCH  21  55
ATOM     55  C   UNK d   0      12.030  -2.630   3.715  0.00  0.00     0.151 C 
BRANCH  55  56
ATOM     56  C   UNK d   0      13.381  -2.077   3.532  0.00  0.00     0.143 C 
ATOM     57  O   UNK d   0      14.409  -2.781   3.575  0.00  0.00    -0.650 OA
BRANCH  56  58
ATOM     58  O   UNK d   0      13.496  -0.707   3.302  0.00  0.00    -0.776 OA
ATOM     59  H   UNK d   0      14.462  -0.373   3.133  0.00  0.00     0.167 HD
ENDBRANCH  56  58
ENDBRANCH  55  56
ENDBRANCH  21  55
BRANCH  18  60
ATOM     60  C   UNK d   0      14.655   0.725   6.980  0.00  0.00     0.151 C 
BRANCH  60  61
ATOM     61  C   UNK d   0      15.990   0.249   7.374  0.00  0.00     0.143 C 
ATOM     62  O   UNK d   0      17.043   0.886   7.347  0.00  0.00    -0.650 OA
BRANCH  61  63
ATOM     63  O   UNK d   0      16.041  -1.091   7.829  0.00  0.00    -0.776 OA
ATOM     64  H   UNK d   0      16.780  -1.708   7.542  0.00  0.00     0.167 HD
ENDBRANCH  61  63
ENDBRANCH  60  61
ENDBRANCH  18  60
BRANCH  14  65
ATOM     65  C   UNK d   0      14.734   1.586   9.889  0.00  0.00     0.052 C 
BRANCH  65  66
ATOM     66  C   UNK d   0      14.190   2.970   9.877  0.00  0.00     0.115 C 
BRANCH  66  67
ATOM     67  C   UNK d   0      13.951   3.652  11.118  0.00  0.00     0.139 C 
ATOM     68  O   UNK d   0      13.306   4.764  11.092  0.00  0.00    -0.650 OA
BRANCH  67  69
ATOM     69  O   UNK d   0      14.339   3.256  12.397  0.00  0.00    -0.776 OA
ATOM     70  H   UNK d   0      14.771   3.987  12.980  0.00  0.00     0.167 HD
ENDBRANCH  67  69
ENDBRANCH  66  67
ENDBRANCH  65  66
ENDBRANCH  14  65
ENDBRANCH   6   7
ENDBRANCH   5   6
ENDBRANCH   2   5
TORSDOF 28
ENDMDL
MODEL 4
REMARK VINA RESULT:      -9.2      2.356      9.981
REMARK  28 active torsions:
REMARK  status: ('A' for Active; 'I' for Inactive)
REMARK    1  A    between atoms: C_2  and  O_3 
REMARK    2  A    between atoms: C_2  and  C_4 
REMARK    3  A    between atoms: C_4  and  C_5 
REMARK    4  A    between atoms: C_5  and  C_6 
REMARK    5  A    between atoms: C_7  and  C_8 
REMARK    6  A    between atoms: C_8  and  C_9 
REMARK    7  A    between atoms: C_9  and  O_11 
REMARK    8  A    between atoms: C_28  and  C_29 
REMARK    9  A    between atoms: C_29  and  C_30 
REMARK   10  A    between atoms: C_30  and  O_32 
REMARK   11  A    between atoms: C_33  and  C_34 
REMARK   12  A    between atoms: C_34  and  C_35 
REMARK   13  A    between atoms: C_35  and  C_36 
REMARK   14  A    between atoms: C_36  and  O_38 
REMARK   15  A    between atoms: C_39  and  C_40 
REMARK   16  A    between atoms: C_40  and  C_41 
REMARK   17  A    between atoms: C_41  and  C_42 
REMARK   18  A    between atoms: C_42  and  O_44 
REMARK   19  A    between atoms: C_45  and  C_46 
REMARK   20  A    between atoms: C_46  and  C_47 
REMARK   21  A    between atoms: C_47  and  O_49 
REMARK   22  A    between atoms: C_50  and  C_51 
REMARK   23  A    between atoms: C_51  and  C_52 
REMARK   24  A    between atoms: C_52  and  O_54 
REMARK   25  A    between atoms: C_55  and  C_56 
REMARK   26  A    between atoms: C_56  and  C_57 
REMARK   27  A    between atoms: C_57  and  C_58 
REMARK   28  A    between atoms: C_58  and  O_60 
ROOT
ATOM      1  O   UNK d   0      16.759   0.839   6.958  0.00  0.00    -0.650 OA
ATOM      2  C   UNK d   0      17.162   0.357   8.040  0.00  0.00     0.139 C 
ENDROOT
BRANCH   2   3
ATOM      3  O   UNK d   0      18.460   0.577   8.433  0.00  0.00    -0.776 OA
ATOM      4  H   UNK d   0      18.938  -0.073   9.061  0.00  0.00     0.167 HD
ENDBRANCH   2   3
BRANCH   2   5
ATOM      5  C   UNK d   0      16.239  -0.447   8.891  0.00  0.00     0.115 C 
BRANCH   5   6
ATOM      6  C   UNK d   0      16.413  -1.913   8.601  0.00  0.00     0.052 C 
BRANCH   6   7
ATOM      7  C   UNK d   0      15.117  -2.682   8.698  0.00  0.00    -0.020 A 
ATOM      8  C   UNK d   0      14.456  -3.257   7.726  0.00  0.00    -0.011 A 
ATOM      9  C   UNK d   0      13.266  -3.866   8.298  0.00  0.00     0.067 A 
ATOM     10  C   UNK d   0      12.188  -4.626   7.819  0.00  0.00     0.062 C 
ATOM     11  N   UNK d   0      13.281  -3.608   9.623  0.00  0.00    -0.248 NA
ATOM     12  C   UNK d   0      11.272  -5.367   8.573  0.00  0.00     0.041 A 
ATOM     13  N   UNK d   0      10.630  -5.078   9.721  0.00  0.00    -0.355 N 
ATOM     14  C   UNK d   0      10.950  -6.673   8.161  0.00  0.00    -0.022 A 
ATOM     15  C   UNK d   0       9.915  -6.170  10.052  0.00  0.00     0.042 A 
ATOM     16  H   UNK d   0      10.666  -4.115  10.276  0.00  0.00     0.166 HD
ATOM     17  C   UNK d   0       9.066  -6.407  11.152  0.00  0.00     0.062 C 
ATOM     18  C   UNK d   0      10.090  -7.191   9.098  0.00  0.00    -0.013 A 
ATOM     19  C   UNK d   0       9.270  -6.116  12.477  0.00  0.00     0.067 A 
ATOM     20  N   UNK d   0      10.309  -5.331  12.771  0.00  0.00    -0.248 NA
ATOM     21  C   UNK d   0       8.628  -6.464  13.733  0.00  0.00    -0.011 A 
ATOM     22  C   UNK d   0      10.394  -5.142  14.129  0.00  0.00     0.066 A 
ATOM     23  C   UNK d   0      11.412  -4.311  14.572  0.00  0.00     0.062 C 
ATOM     24  C   UNK d   0       9.293  -5.894  14.696  0.00  0.00    -0.020 A 
ATOM     25  C   UNK d   0      12.314  -3.565  13.797  0.00  0.00     0.041 A 
ATOM     26  N   UNK d   0      12.964  -3.858  12.664  0.00  0.00    -0.355 N 
ATOM     27  C   UNK d   0      12.634  -2.253  14.209  0.00  0.00    -0.022 A 
ATOM     28  C   UNK d   0      13.685  -2.774  12.337  0.00  0.00     0.042 A 
ATOM     29  H   UNK d   0      12.935  -4.830  12.114  0.00  0.00     0.166 HD
ATOM     30  C   UNK d   0      14.540  -2.528  11.251  0.00  0.00     0.062 C 
ATOM     31  C   UNK d   0      13.500  -1.745  13.290  0.00  0.00    -0.013 A 
ATOM     32  C   UNK d   0      14.369  -2.899   9.927  0.00  0.00     0.066 A 
BRANCH   8  33
ATOM     33  C   UNK d   0      14.828  -3.290   6.300  0.00  0.00     0.151 C 
BRANCH  33  34
ATOM     34  C   UNK d   0      14.035  -2.354   5.482  0.00  0.00     0.143 C 
ATOM     35  O   UNK d   0      14.377  -1.170   5.358  0.00  0.00    -0.650 OA
BRANCH  34  36
ATOM     36  O   UNK d   0      12.899  -2.805   4.850  0.00  0.00    -0.776 OA
ATOM     37  H   UNK d   0      11.962  -2.536   5.180  0.00  0.00     0.167 HD
ENDBRANCH  34  36
ENDBRANCH  33  34
ENDBRANCH   8  33
BRANCH  31  38
ATOM     38  C   UNK d   0      14.106  -0.361  13.307  0.00  0.00     0.151 C 
BRANCH  38  39
ATOM     39  C   UNK d   0      13.454   0.549  12.389  0.00  0.00     0.143 C 
ATOM     40  O   UNK d   0      14.089   1.369  11.702  0.00  0.00    -0.650 OA
BRANCH  39  41
ATOM     41  O   UNK d   0      12.066   0.515  12.259  0.00  0.00    -0.776 OA
ATOM     42  H   UNK d   0      11.646   1.194  11.617  0.00  0.00     0.167 HD
ENDBRANCH  39  41
ENDBRANCH  38  39
ENDBRANCH  31  38
BRANCH  27  43
ATOM     43  C   UNK d   0      12.158  -1.485  15.417  0.00  0.00     0.052 C 
BRANCH  43  44
ATOM     44  C   UNK d   0      10.729  -1.058  15.320  0.00  0.00     0.115 C 
BRANCH  44  45
ATOM     45  C   UNK d   0      10.711   0.413  15.532  0.00  0.00     0.139 C 
ATOM     46  O   UNK d   0       9.639   0.943  15.916  0.00  0.00    -0.650 OA
BRANCH  45  47
ATOM     47  O   UNK d   0      11.817   1.211  15.331  0.00  0.00    -0.776 OA
ATOM     48  H   UNK d   0      11.857   1.940  14.601  0.00  0.00     0.167 HD
ENDBRANCH  45  47
ENDBRANCH  44  45
ENDBRANCH  43  44
ENDBRANCH  27  43
BRANCH  24  49
ATOM     49  C   UNK d   0       8.965  -5.951  16.131  0.00  0.00     0.052 C 
BRANCH  49  50
ATOM     50  C   UNK d   0       9.709  -7.081  16.795  0.00  0.00     0.115 C 
BRANCH  50  51
ATOM     51  C   UNK d   0       8.978  -8.322  17.012  0.00  0.00     0.139 C 
ATOM     52  O   UNK d   0       7.757  -8.347  17.296  0.00  0.00    -0.650 OA
BRANCH  51  53
ATOM     53  O   UNK d   0       9.640  -9.536  16.907  0.00  0.00    -0.776 OA
ATOM     54  H   UNK d   0      10.618  -9.526  16.677  0.00  0.00     0.167 HD
ENDBRANCH  51  53
ENDBRANCH  50  51
ENDBRANCH  49  50
ENDBRANCH  24  49
BRANCH  21  55
ATOM     55  C   UNK d   0       7.414  -7.326  13.840  0.00  0.00     0.151 C 
BRANCH  55  56
ATOM     56  C   UNK d   0       7.693  -8.721  13.467  0.00  0.00     0.143 C 
ATOM     57  O   UNK d   0       8.480  -9.447  14.106  0.00  0.00    -0.650 OA
BRANCH  56  58
ATOM     58  O   UNK d   0       7.042  -9.236  12.347  0.00  0.00    -0.776 OA
ATOM     59  H   UNK d   0       6.872 -10.258  12.373  0.00  0.00     0.167 HD
ENDBRANCH  56  58
ENDBRANCH  55  56
ENDBRANCH  21  55
BRANCH  18  60
ATOM     60  C   UNK d   0       9.497  -8.578   9.054  0.00  0.00     0.151 C 
BRANCH  60  61
ATOM     61  C   UNK d   0       8.135  -8.417   8.522  0.00  0.00     0.143 C 
ATOM     62  O   UNK d   0       7.817  -8.189   7.355  0.00  0.00    -0.650 OA
BRANCH  61  63
ATOM     63  O   UNK d   0       7.097  -8.544   9.476  0.00  0.00    -0.776 OA
ATOM     64  H   UNK d   0       6.271  -9.079   9.274  0.00  0.00     0.167 HD
ENDBRANCH  61  63
ENDBRANCH  60  61
ENDBRANCH  18  60
BRANCH  14  65
ATOM     65  C   UNK d   0      11.311  -7.425   6.912  0.00  0.00     0.052 C 
BRANCH  65  66
ATOM     66  C   UNK d   0      10.532  -6.985   5.723  0.00  0.00     0.115 C 
BRANCH  66  67
ATOM     67  C   UNK d   0      11.146  -6.128   4.748  0.00  0.00     0.139 C 
ATOM     68  O   UNK d   0      12.220  -6.530   4.167  0.00  0.00    -0.650 OA
BRANCH  67  69
ATOM     69  O   UNK d   0      10.717  -4.868   4.329  0.00  0.00    -0.776 OA
ATOM     70  H   UNK d   0      10.795  -4.682   3.319  0.00  0.00     0.167 HD
ENDBRANCH  67  69
ENDBRANCH  66  67
ENDBRANCH  65  66
ENDBRANCH  14  65
ENDBRANCH   6   7
ENDBRANCH   5   6
ENDBRANCH   2   5
TORSDOF 28
ENDMDL
MODEL 5
REMARK VINA RESULT:      -9.1      1.514      7.211
REMARK  28 active torsions:
REMARK  status: ('A' for Active; 'I' for Inactive)
REMARK    1  A    between atoms: C_2  and  O_3 
REMARK    2  A    between atoms: C_2  and  C_4 
REMARK    3  A    between atoms: C_4  and  C_5 
REMARK    4  A    between atoms: C_5  and  C_6 
REMARK    5  A    between atoms: C_7  and  C_8 
REMARK    6  A    between atoms: C_8  and  C_9 
REMARK    7  A    between atoms: C_9  and  O_11 
REMARK    8  A    between atoms: C_28  and  C_29 
REMARK    9  A    between atoms: C_29  and  C_30 
REMARK   10  A    between atoms: C_30  and  O_32 
REMARK   11  A    between atoms: C_33  and  C_34 
REMARK   12  A    between atoms: C_34  and  C_35 
REMARK   13  A    between atoms: C_35  and  C_36 
REMARK   14  A    between atoms: C_36  and  O_38 
REMARK   15  A    between atoms: C_39  and  C_40 
REMARK   16  A    between atoms: C_40  and  C_41 
REMARK   17  A    between atoms: C_41  and  C_42 
REMARK   18  A    between atoms: C_42  and  O_44 
REMARK   19  A    between atoms: C_45  and  C_46 
REMARK   20  A    between atoms: C_46  and  C_47 
REMARK   21  A    between atoms: C_47  and  O_49 
REMARK   22  A    between atoms: C_50  and  C_51 
REMARK   23  A    between atoms: C_51  and  C_52 
REMARK   24  A    between atoms: C_52  and  O_54 
REMARK   25  A    between atoms: C_55  and  C_56 
REMARK   26  A    between atoms: C_56  and  C_57 
REMARK   27  A    between atoms: C_57  and  C_58 
REMARK   28  A    between atoms: C_58  and  O_60 
ROOT
ATOM      1  O   UNK d   0       5.378 -10.205  13.011  0.00  0.00    -0.650 OA
ATOM      2  C   UNK d   0       6.577  -9.851  13.054  0.00  0.00     0.139 C 
ENDROOT
BRANCH   2   3
ATOM      3  O   UNK d   0       7.500 -10.667  13.663  0.00  0.00    -0.776 OA
ATOM      4  H   UNK d   0       7.494 -11.678  13.507  0.00  0.00     0.167 HD
ENDBRANCH   2   3
BRANCH   2   5
ATOM      5  C   UNK d   0       6.996  -8.554  12.450  0.00  0.00     0.115 C 
BRANCH   5   6
ATOM      6  C   UNK d   0       6.744  -8.568  10.967  0.00  0.00     0.052 C 
BRANCH   6   7
ATOM      7  C   UNK d   0       7.918  -8.045  10.173  0.00  0.00    -0.020 A 
ATOM      8  C   UNK d   0       8.262  -8.366   8.952  0.00  0.00    -0.011 A 
ATOM      9  C   UNK d   0       9.460  -7.616   8.616  0.00  0.00     0.067 A 
ATOM     10  C   UNK d   0      10.295  -7.490   7.494  0.00  0.00     0.062 C 
ATOM     11  N   UNK d   0       9.780  -6.868   9.692  0.00  0.00    -0.248 NA
ATOM     12  C   UNK d   0      11.254  -6.499   7.259  0.00  0.00     0.041 A 
ATOM     13  N   UNK d   0      12.171  -5.942   8.072  0.00  0.00    -0.355 N 
ATOM     14  C   UNK d   0      11.302  -5.886   5.993  0.00  0.00    -0.022 A 
ATOM     15  C   UNK d   0      12.794  -4.985   7.358  0.00  0.00     0.042 A 
ATOM     16  H   UNK d   0      12.386  -6.232   9.124  0.00  0.00     0.166 HD
ATOM     17  C   UNK d   0      13.832  -4.104   7.722  0.00  0.00     0.062 C 
ATOM     18  C   UNK d   0      12.277  -4.920   6.050  0.00  0.00    -0.013 A 
ATOM     19  C   UNK d   0      13.973  -3.365   8.869  0.00  0.00     0.067 A 
ATOM     20  N   UNK d   0      13.138  -3.642   9.874  0.00  0.00    -0.248 NA
ATOM     21  C   UNK d   0      14.832  -2.281   9.314  0.00  0.00    -0.011 A 
ATOM     22  C   UNK d   0      13.388  -2.817  10.943  0.00  0.00     0.066 A 
ATOM     23  C   UNK d   0      12.613  -3.023  12.075  0.00  0.00     0.062 C 
ATOM     24  C   UNK d   0      14.482  -1.962  10.527  0.00  0.00    -0.020 A 
ATOM     25  C   UNK d   0      11.664  -4.032  12.296  0.00  0.00     0.041 A 
ATOM     26  N   UNK d   0      10.742  -4.576  11.492  0.00  0.00    -0.355 N 
ATOM     27  C   UNK d   0      11.618  -4.650  13.564  0.00  0.00    -0.022 A 
ATOM     28  C   UNK d   0      10.113  -5.524  12.204  0.00  0.00     0.042 A 
ATOM     29  H   UNK d   0      10.519  -4.276  10.438  0.00  0.00     0.166 HD
ATOM     30  C   UNK d   0       9.073  -6.401  11.857  0.00  0.00     0.062 C 
ATOM     31  C   UNK d   0      10.640  -5.596  13.515  0.00  0.00    -0.013 A 
ATOM     32  C   UNK d   0       8.890  -7.080  10.663  0.00  0.00     0.066 A 
BRANCH   8  33
ATOM     33  C   UNK d   0       7.575  -9.320   8.061  0.00  0.00     0.151 C 
BRANCH  33  34
ATOM     34  C   UNK d   0       7.733 -10.720   8.493  0.00  0.00     0.143 C 
ATOM     35  O   UNK d   0       6.754 -11.388   8.855  0.00  0.00    -0.650 OA
BRANCH  34  36
ATOM     36  O   UNK d   0       8.985 -11.290   8.495  0.00  0.00    -0.776 OA
ATOM     37  H   UNK d   0       9.238 -12.023   9.171  0.00  0.00     0.167 HD
ENDBRANCH  34  36
ENDBRANCH  33  34
ENDBRANCH   8  33
BRANCH  31  38
ATOM     38  C   UNK d   0      10.238  -6.522  14.639  0.00  0.00     0.151 C 
BRANCH  38  39
ATOM     39  C   UNK d   0      10.499  -7.914  14.340  0.00  0.00     0.143 C 
ATOM     40  O   UNK d   0       9.632  -8.796  14.469  0.00  0.00    -0.650 OA
BRANCH  39  41
ATOM     41  O   UNK d   0      11.764  -8.294  13.891  0.00  0.00    -0.776 OA
ATOM     42  H   UNK d   0      11.796  -8.915  13.076  0.00  0.00     0.167 HD
ENDBRANCH  39  41
ENDBRANCH  38  39
ENDBRANCH  31  38
BRANCH  27  43
ATOM     43  C   UNK d   0      12.451  -4.379  14.793  0.00  0.00     0.052 C 
BRANCH  43  44
ATOM     44  C   UNK d   0      13.225  -5.570  15.257  0.00  0.00     0.115 C 
BRANCH  44  45
ATOM     45  C   UNK d   0      14.639  -5.336  14.864  0.00  0.00     0.139 C 
ATOM     46  O   UNK d   0      15.507  -6.152  15.262  0.00  0.00    -0.650 OA
BRANCH  45  47
ATOM     47  O   UNK d   0      15.031  -4.270  14.083  0.00  0.00    -0.776 OA
ATOM     48  H   UNK d   0      14.422  -3.851  13.361  0.00  0.00     0.167 HD
ENDBRANCH  45  47
ENDBRANCH  44  45
ENDBRANCH  43  44
ENDBRANCH  27  43
BRANCH  24  49
ATOM     49  C   UNK d   0      15.116  -0.936  11.373  0.00  0.00     0.052 C 
BRANCH  49  50
ATOM     50  C   UNK d   0      16.041  -1.581  12.373  0.00  0.00     0.115 C 
BRANCH  50  51
ATOM     51  C   UNK d   0      15.932  -1.141  13.758  0.00  0.00     0.139 C 
ATOM     52  O   UNK d   0      14.881  -1.273  14.429  0.00  0.00    -0.650 OA
BRANCH  51  53
ATOM     53  O   UNK d   0      17.022  -0.548  14.377  0.00  0.00    -0.776 OA
ATOM     54  H   UNK d   0      17.847  -0.380  13.829  0.00  0.00     0.167 HD
ENDBRANCH  51  53
ENDBRANCH  50  51
ENDBRANCH  49  50
ENDBRANCH  24  49
BRANCH  21  55
ATOM     55  C   UNK d   0      15.917  -1.680   8.483  0.00  0.00     0.151 C 
BRANCH  55  56
ATOM     56  C   UNK d   0      17.241  -2.215   8.833  0.00  0.00     0.143 C 
ATOM     57  O   UNK d   0      18.271  -1.513   8.848  0.00  0.00    -0.650 OA
BRANCH  56  58
ATOM     58  O   UNK d   0      17.329  -3.568   9.160  0.00  0.00    -0.776 OA
ATOM     59  H   UNK d   0      17.691  -3.764  10.110  0.00  0.00     0.167 HD
ENDBRANCH  56  58
ENDBRANCH  55  56
ENDBRANCH  21  55
BRANCH  18  60
ATOM     60  C   UNK d   0      12.660  -4.011   4.909  0.00  0.00     0.151 C 
BRANCH  60  61
ATOM     61  C   UNK d   0      11.584  -3.013   4.809  0.00  0.00     0.143 C 
ATOM     62  O   UNK d   0      10.821  -2.837   3.859  0.00  0.00    -0.650 OA
BRANCH  61  63
ATOM     63  O   UNK d   0      11.430  -2.178   5.942  0.00  0.00    -0.776 OA
ATOM     64  H   UNK d   0      10.822  -2.437   6.699  0.00  0.00     0.167 HD
ENDBRANCH  61  63
ENDBRANCH  60  61
ENDBRANCH  18  60
BRANCH  14  65
ATOM     65  C   UNK d   0      10.573  -6.206   4.719  0.00  0.00     0.052 C 
BRANCH  65  66
ATOM     66  C   UNK d   0      11.057  -7.454   4.071  0.00  0.00     0.115 C 
BRANCH  66  67
ATOM     67  C   UNK d   0      12.311  -7.452   3.371  0.00  0.00     0.139 C 
ATOM     68  O   UNK d   0      12.499  -6.574   2.450  0.00  0.00    -0.650 OA
BRANCH  67  69
ATOM     69  O   UNK d   0      13.395  -8.308   3.560  0.00  0.00    -0.776 OA
ATOM     70  H   UNK d   0      14.136  -8.258   2.846  0.00  0.00     0.167 HD
ENDBRANCH  67  69
ENDBRANCH  66  67
ENDBRANCH  65  66
ENDBRANCH  14  65
ENDBRANCH   6   7
ENDBRANCH   5   6
ENDBRANCH   2   5
TORSDOF 28
ENDMDL
MODEL 6
REMARK VINA RESULT:      -9.0     30.152     34.075
REMARK  28 active torsions:
REMARK  status: ('A' for Active; 'I' for Inactive)
REMARK    1  A    between atoms: C_2  and  O_3 
REMARK    2  A    between atoms: C_2  and  C_4 
REMARK    3  A    between atoms: C_4  and  C_5 
REMARK    4  A    between atoms: C_5  and  C_6 
REMARK    5  A    between atoms: C_7  and  C_8 
REMARK    6  A    between atoms: C_8  and  C_9 
REMARK    7  A    between atoms: C_9  and  O_11 
REMARK    8  A    between atoms: C_28  and  C_29 
REMARK    9  A    between atoms: C_29  and  C_30 
REMARK   10  A    between atoms: C_30  and  O_32 
REMARK   11  A    between atoms: C_33  and  C_34 
REMARK   12  A    between atoms: C_34  and  C_35 
REMARK   13  A    between atoms: C_35  and  C_36 
REMARK   14  A    between atoms: C_36  and  O_38 
REMARK   15  A    between atoms: C_39  and  C_40 
REMARK   16  A    between atoms: C_40  and  C_41 
REMARK   17  A    between atoms: C_41  and  C_42 
REMARK   18  A    between atoms: C_42  and  O_44 
REMARK   19  A    between atoms: C_45  and  C_46 
REMARK   20  A    between atoms: C_46  and  C_47 
REMARK   21  A    between atoms: C_47  and  O_49 
REMARK   22  A    between atoms: C_50  and  C_51 
REMARK   23  A    between atoms: C_51  and  C_52 
REMARK   24  A    between atoms: C_52  and  O_54 
REMARK   25  A    between atoms: C_55  and  C_56 
REMARK   26  A    between atoms: C_56  and  C_57 
REMARK   27  A    between atoms: C_57  and  C_58 
REMARK   28  A    between atoms: C_58  and  O_60 
ROOT
ATOM      1  O   UNK d   0     -15.143   5.669  -5.476  0.00  0.00    -0.650 OA
ATOM      2  C   UNK d   0     -14.669   4.781  -6.219  0.00  0.00     0.139 C 
ENDROOT
BRANCH   2   3
ATOM      3  O   UNK d   0     -15.150   4.645  -7.499  0.00  0.00    -0.776 OA
ATOM      4  H   UNK d   0     -16.091   4.287  -7.673  0.00  0.00     0.167 HD
ENDBRANCH   2   3
BRANCH   2   5
ATOM      5  C   UNK d   0     -13.593   3.880  -5.715  0.00  0.00     0.115 C 
BRANCH   5   6
ATOM      6  C   UNK d   0     -14.182   2.815  -4.830  0.00  0.00     0.052 C 
BRANCH   6   7
ATOM      7  C   UNK d   0     -14.550   1.565  -5.593  0.00  0.00    -0.020 A 
ATOM      8  C   UNK d   0     -15.354   0.605  -5.211  0.00  0.00    -0.011 A 
ATOM      9  C   UNK d   0     -15.392  -0.390  -6.270  0.00  0.00     0.067 A 
ATOM     10  C   UNK d   0     -16.053  -1.608  -6.491  0.00  0.00     0.062 C 
ATOM     11  N   UNK d   0     -14.577   0.042  -7.255  0.00  0.00    -0.248 NA
ATOM     12  C   UNK d   0     -16.179  -2.296  -7.703  0.00  0.00     0.041 A 
ATOM     13  N   UNK d   0     -15.285  -2.540  -8.680  0.00  0.00    -0.355 N 
ATOM     14  C   UNK d   0     -17.437  -2.809  -8.067  0.00  0.00    -0.022 A 
ATOM     15  C   UNK d   0     -15.946  -3.188  -9.659  0.00  0.00     0.042 A 
ATOM     16  H   UNK d   0     -14.205  -2.278  -8.671  0.00  0.00     0.166 HD
ATOM     17  C   UNK d   0     -15.492  -3.676 -10.900  0.00  0.00     0.062 C 
ATOM     18  C   UNK d   0     -17.298  -3.374  -9.310  0.00  0.00    -0.013 A 
ATOM     19  C   UNK d   0     -14.686  -3.062 -11.825  0.00  0.00     0.067 A 
ATOM     20  N   UNK d   0     -14.078  -1.936 -11.445  0.00  0.00    -0.248 NA
ATOM     21  C   UNK d   0     -14.300  -3.313 -13.204  0.00  0.00    -0.011 A 
ATOM     22  C   UNK d   0     -13.323  -1.431 -12.475  0.00  0.00     0.066 A 
ATOM     23  C   UNK d   0     -12.604  -0.276 -12.204  0.00  0.00     0.062 C 
ATOM     24  C   UNK d   0     -13.505  -2.353 -13.580  0.00  0.00    -0.020 A 
ATOM     25  C   UNK d   0     -12.481   0.392 -10.976  0.00  0.00     0.041 A 
ATOM     26  N   UNK d   0     -13.372   0.648 -10.011  0.00  0.00    -0.355 N 
ATOM     27  C   UNK d   0     -11.216   0.903 -10.610  0.00  0.00    -0.022 A 
ATOM     28  C   UNK d   0     -12.717   1.301  -9.038  0.00  0.00     0.042 A 
ATOM     29  H   UNK d   0     -14.460   0.392 -10.027  0.00  0.00     0.166 HD
ATOM     30  C   UNK d   0     -13.159   1.800  -7.803  0.00  0.00     0.062 C 
ATOM     31  C   UNK d   0     -11.357   1.479  -9.385  0.00  0.00    -0.013 A 
ATOM     32  C   UNK d   0     -14.041   1.213  -6.910  0.00  0.00     0.066 A 
BRANCH   8  33
ATOM     33  C   UNK d   0     -16.094   0.524  -3.939  0.00  0.00     0.151 C 
BRANCH  33  34
ATOM     34  C   UNK d   0     -15.274  -0.007  -2.835  0.00  0.00     0.143 C 
ATOM     35  O   UNK d   0     -15.215   0.583  -1.746  0.00  0.00    -0.650 OA
BRANCH  34  36
ATOM     36  O   UNK d   0     -14.566  -1.171  -3.019  0.00  0.00    -0.776 OA
ATOM     37  H   UNK d   0     -14.504  -1.618  -3.944  0.00  0.00     0.167 HD
ENDBRANCH  34  36
ENDBRANCH  33  34
ENDBRANCH   8  33
BRANCH  31  38
ATOM     38  C   UNK d   0     -10.264   2.147  -8.583  0.00  0.00     0.151 C 
BRANCH  38  39
ATOM     39  C   UNK d   0     -10.124   3.555  -8.888  0.00  0.00     0.143 C 
ATOM     40  O   UNK d   0     -11.104   4.288  -9.110  0.00  0.00    -0.650 OA
BRANCH  39  41
ATOM     41  O   UNK d   0      -8.851   4.123  -8.938  0.00  0.00    -0.776 OA
ATOM     42  H   UNK d   0      -8.800   5.145  -8.884  0.00  0.00     0.167 HD
ENDBRANCH  39  41
ENDBRANCH  38  39
ENDBRANCH  31  38
BRANCH  27  43
ATOM     43  C   UNK d   0      -9.912   0.865 -11.366  0.00  0.00     0.052 C 
BRANCH  43  44
ATOM     44  C   UNK d   0      -9.574   2.162 -12.027  0.00  0.00     0.115 C 
BRANCH  44  45
ATOM     45  C   UNK d   0      -9.302   1.851 -13.455  0.00  0.00     0.139 C 
ATOM     46  O   UNK d   0     -10.280   1.610 -14.205  0.00  0.00    -0.650 OA
BRANCH  45  47
ATOM     47  O   UNK d   0      -8.030   1.824 -13.984  0.00  0.00    -0.776 OA
ATOM     48  H   UNK d   0      -7.395   2.639 -13.959  0.00  0.00     0.167 HD
ENDBRANCH  45  47
ENDBRANCH  44  45
ENDBRANCH  43  44
ENDBRANCH  27  43
BRANCH  24  49
ATOM     49  C   UNK d   0     -12.848  -2.233 -14.892  0.00  0.00     0.052 C 
BRANCH  49  50
ATOM     50  C   UNK d   0     -13.303  -0.979 -15.594  0.00  0.00     0.115 C 
BRANCH  50  51
ATOM     51  C   UNK d   0     -14.711  -0.895 -15.958  0.00  0.00     0.139 C 
ATOM     52  O   UNK d   0     -15.510  -0.113 -15.392  0.00  0.00    -0.650 OA
BRANCH  51  53
ATOM     53  O   UNK d   0     -15.208  -1.704 -16.968  0.00  0.00    -0.776 OA
ATOM     54  H   UNK d   0     -14.556  -2.246 -17.508  0.00  0.00     0.167 HD
ENDBRANCH  51  53
ENDBRANCH  50  51
ENDBRANCH  49  50
ENDBRANCH  24  49
BRANCH  21  55
ATOM     55  C   UNK d   0     -14.761  -4.489 -14.000  0.00  0.00     0.151 C 
BRANCH  55  56
ATOM     56  C   UNK d   0     -14.205  -5.752 -13.491  0.00  0.00     0.143 C 
ATOM     57  O   UNK d   0     -14.917  -6.727 -13.183  0.00  0.00    -0.650 OA
BRANCH  56  58
ATOM     58  O   UNK d   0     -12.820  -5.843 -13.354  0.00  0.00    -0.776 OA
ATOM     59  H   UNK d   0     -12.277  -5.306 -14.053  0.00  0.00     0.167 HD
ENDBRANCH  56  58
ENDBRANCH  55  56
ENDBRANCH  21  55
BRANCH  18  60
ATOM     60  C   UNK d   0     -18.408  -4.038 -10.087  0.00  0.00     0.151 C 
BRANCH  60  61
ATOM     61  C   UNK d   0     -18.957  -3.001 -10.973  0.00  0.00     0.143 C 
ATOM     62  O   UNK d   0     -19.696  -2.068 -10.655  0.00  0.00    -0.650 OA
BRANCH  61  63
ATOM     63  O   UNK d   0     -18.580  -3.108 -12.333  0.00  0.00    -0.776 OA
ATOM     64  H   UNK d   0     -19.262  -3.290 -13.048  0.00  0.00     0.167 HD
ENDBRANCH  61  63
ENDBRANCH  60  61
ENDBRANCH  18  60
BRANCH  14  65
ATOM     65  C   UNK d   0     -18.723  -2.892  -7.295  0.00  0.00     0.052 C 
BRANCH  65  66
ATOM     66  C   UNK d   0     -19.463  -1.602  -7.257  0.00  0.00     0.115 C 
BRANCH  66  67
ATOM     67  C   UNK d   0     -19.828  -1.028  -5.993  0.00  0.00     0.139 C 
ATOM     68  O   UNK d   0     -19.561  -1.685  -4.920  0.00  0.00    -0.650 OA
BRANCH  67  69
ATOM     69  O   UNK d   0     -20.459   0.194  -5.761  0.00  0.00    -0.776 OA
ATOM     70  H   UNK d   0     -21.002   0.575  -6.549  0.00  0.00     0.167 HD
ENDBRANCH  67  69
ENDBRANCH  66  67
ENDBRANCH  65  66
ENDBRANCH  14  65
ENDBRANCH   6   7
ENDBRANCH   5   6
ENDBRANCH   2   5
TORSDOF 28
ENDMDL
MODEL 7
REMARK VINA RESULT:      -9.0      2.367      7.786
REMARK  28 active torsions:
REMARK  status: ('A' for Active; 'I' for Inactive)
REMARK    1  A    between atoms: C_2  and  O_3 
REMARK    2  A    between atoms: C_2  and  C_4 
REMARK    3  A    between atoms: C_4  and  C_5 
REMARK    4  A    between atoms: C_5  and  C_6 
REMARK    5  A    between atoms: C_7  and  C_8 
REMARK    6  A    between atoms: C_8  and  C_9 
REMARK    7  A    between atoms: C_9  and  O_11 
REMARK    8  A    between atoms: C_28  and  C_29 
REMARK    9  A    between atoms: C_29  and  C_30 
REMARK   10  A    between atoms: C_30  and  O_32 
REMARK   11  A    between atoms: C_33  and  C_34 
REMARK   12  A    between atoms: C_34  and  C_35 
REMARK   13  A    between atoms: C_35  and  C_36 
REMARK   14  A    between atoms: C_36  and  O_38 
REMARK   15  A    between atoms: C_39  and  C_40 
REMARK   16  A    between atoms: C_40  and  C_41 
REMARK   17  A    between atoms: C_41  and  C_42 
REMARK   18  A    between atoms: C_42  and  O_44 
REMARK   19  A    between atoms: C_45  and  C_46 
REMARK   20  A    between atoms: C_46  and  C_47 
REMARK   21  A    between atoms: C_47  and  O_49 
REMARK   22  A    between atoms: C_50  and  C_51 
REMARK   23  A    between atoms: C_51  and  C_52 
REMARK   24  A    between atoms: C_52  and  O_54 
REMARK   25  A    between atoms: C_55  and  C_56 
REMARK   26  A    between atoms: C_56  and  C_57 
REMARK   27  A    between atoms: C_57  and  C_58 
REMARK   28  A    between atoms: C_58  and  O_60 
ROOT
ATOM      1  O   UNK d   0      12.246  -0.516  16.341  0.00  0.00    -0.650 OA
ATOM      2  C   UNK d   0      11.181  -0.601  16.993  0.00  0.00     0.139 C 
ENDROOT
BRANCH   2   3
ATOM      3  O   UNK d   0      10.528   0.549  17.368  0.00  0.00    -0.776 OA
ATOM      4  H   UNK d   0       9.874   0.551  18.154  0.00  0.00     0.167 HD
ENDBRANCH   2   3
BRANCH   2   5
ATOM      5  C   UNK d   0      10.631  -1.937  17.358  0.00  0.00     0.115 C 
BRANCH   5   6
ATOM      6  C   UNK d   0      11.631  -3.014  17.035  0.00  0.00     0.052 C 
BRANCH   6   7
ATOM      7  C   UNK d   0      11.230  -3.837  15.833  0.00  0.00    -0.020 A 
ATOM      8  C   UNK d   0      10.354  -4.807  15.787  0.00  0.00    -0.011 A 
ATOM      9  C   UNK d   0      10.313  -5.304  14.421  0.00  0.00     0.067 A 
ATOM     10  C   UNK d   0       9.594  -6.287  13.723  0.00  0.00     0.062 C 
ATOM     11  N   UNK d   0      11.200  -4.582  13.705  0.00  0.00    -0.248 NA
ATOM     12  C   UNK d   0       9.491  -6.436  12.336  0.00  0.00     0.041 A 
ATOM     13  N   UNK d   0      10.417  -6.343  11.363  0.00  0.00    -0.355 N 
ATOM     14  C   UNK d   0       8.225  -6.672  11.769  0.00  0.00    -0.022 A 
ATOM     15  C   UNK d   0       9.771  -6.506  10.193  0.00  0.00     0.042 A 
ATOM     16  H   UNK d   0      11.510  -6.185  11.501  0.00  0.00     0.166 HD
ATOM     17  C   UNK d   0      10.259  -6.502   8.871  0.00  0.00     0.062 C 
ATOM     18  C   UNK d   0       8.395  -6.714  10.407  0.00  0.00    -0.013 A 
ATOM     19  C   UNK d   0      11.145  -5.637   8.282  0.00  0.00     0.067 A 
ATOM     20  N   UNK d   0      11.797  -4.796   9.089  0.00  0.00    -0.248 NA
ATOM     21  C   UNK d   0      11.587  -5.357   6.926  0.00  0.00    -0.011 A 
ATOM     22  C   UNK d   0      12.632  -3.986   8.359  0.00  0.00     0.066 A 
ATOM     23  C   UNK d   0      13.402  -3.085   9.080  0.00  0.00     0.062 C 
ATOM     24  C   UNK d   0      12.454  -4.387   6.977  0.00  0.00    -0.020 A 
ATOM     25  C   UNK d   0      13.501  -2.961  10.474  0.00  0.00     0.041 A 
ATOM     26  N   UNK d   0      12.578  -3.038  11.440  0.00  0.00    -0.355 N 
ATOM     27  C   UNK d   0      14.773  -2.728  11.043  0.00  0.00    -0.022 A 
ATOM     28  C   UNK d   0      13.219  -2.867  12.607  0.00  0.00     0.042 A 
ATOM     29  H   UNK d   0      11.479  -3.186  11.299  0.00  0.00     0.166 HD
ATOM     30  C   UNK d   0      12.744  -2.859  13.928  0.00  0.00     0.062 C 
ATOM     31  C   UNK d   0      14.603  -2.668  12.392  0.00  0.00    -0.013 A 
ATOM     32  C   UNK d   0      11.785  -3.682  14.497  0.00  0.00     0.066 A 
BRANCH   8  33
ATOM     33  C   UNK d   0       9.546  -5.325  16.906  0.00  0.00     0.151 C 
BRANCH  33  34
ATOM     34  C   UNK d   0       8.114  -5.001  16.774  0.00  0.00     0.143 C 
ATOM     35  O   UNK d   0       7.685  -3.878  17.076  0.00  0.00    -0.650 OA
BRANCH  34  36
ATOM     36  O   UNK d   0       7.244  -5.961  16.311  0.00  0.00    -0.776 OA
ATOM     37  H   UNK d   0       7.395  -6.959  16.510  0.00  0.00     0.167 HD
ENDBRANCH  34  36
ENDBRANCH  33  34
ENDBRANCH   8  33
BRANCH  31  38
ATOM     38  C   UNK d   0      15.690  -2.449  13.418  0.00  0.00     0.151 C 
BRANCH  38  39
ATOM     39  C   UNK d   0      15.916  -1.048  13.706  0.00  0.00     0.143 C 
ATOM     40  O   UNK d   0      15.095  -0.165  13.400  0.00  0.00    -0.650 OA
BRANCH  39  41
ATOM     41  O   UNK d   0      17.090  -0.661  14.351  0.00  0.00    -0.776 OA
ATOM     42  H   UNK d   0      17.970  -0.855  13.863  0.00  0.00     0.167 HD
ENDBRANCH  39  41
ENDBRANCH  38  39
ENDBRANCH  31  38
BRANCH  27  43
ATOM     43  C   UNK d   0      16.110  -2.563  10.365  0.00  0.00     0.052 C 
BRANCH  43  44
ATOM     44  C   UNK d   0      16.517  -1.135  10.202  0.00  0.00     0.115 C 
BRANCH  44  45
ATOM     45  C   UNK d   0      17.205  -1.037   8.888  0.00  0.00     0.139 C 
ATOM     46  O   UNK d   0      16.497  -0.917   7.857  0.00  0.00    -0.650 OA
BRANCH  45  47
ATOM     47  O   UNK d   0      18.576  -1.066   8.758  0.00  0.00    -0.776 OA
ATOM     48  H   UNK d   0      19.069  -1.761   8.174  0.00  0.00     0.167 HD
ENDBRANCH  45  47
ENDBRANCH  44  45
ENDBRANCH  43  44
ENDBRANCH  27  43
BRANCH  24  49
ATOM     49  C   UNK d   0      13.183  -3.812   5.834  0.00  0.00     0.052 C 
BRANCH  49  50
ATOM     50  C   UNK d   0      12.493  -2.564   5.345  0.00  0.00     0.115 C 
BRANCH  50  51
ATOM     51  C   UNK d   0      11.924  -2.600   4.005  0.00  0.00     0.139 C 
ATOM     52  O   UNK d   0      12.405  -1.949   3.048  0.00  0.00    -0.650 OA
BRANCH  51  53
ATOM     53  O   UNK d   0      10.804  -3.378   3.756  0.00  0.00    -0.776 OA
ATOM     54  H   UNK d   0      10.494  -4.010   4.474  0.00  0.00     0.167 HD
ENDBRANCH  51  53
ENDBRANCH  50  51
ENDBRANCH  49  50
ENDBRANCH  24  49
BRANCH  21  55
ATOM     55  C   UNK d   0      11.099  -6.091   5.720  0.00  0.00     0.151 C 
BRANCH  55  56
ATOM     56  C   UNK d   0      11.159  -7.549   5.901  0.00  0.00     0.143 C 
ATOM     57  O   UNK d   0      12.227  -8.163   6.094  0.00  0.00    -0.650 OA
BRANCH  56  58
ATOM     58  O   UNK d   0       9.960  -8.258   5.853  0.00  0.00    -0.776 OA
ATOM     59  H   UNK d   0       9.951  -9.138   6.401  0.00  0.00     0.167 HD
ENDBRANCH  56  58
ENDBRANCH  55  56
ENDBRANCH  21  55
BRANCH  18  60
ATOM     60  C   UNK d   0       7.289  -6.939   9.405  0.00  0.00     0.151 C 
BRANCH  60  61
ATOM     61  C   UNK d   0       7.578  -8.233   8.769  0.00  0.00     0.143 C 
ATOM     62  O   UNK d   0       7.720  -8.453   7.566  0.00  0.00    -0.650 OA
BRANCH  61  63
ATOM     63  O   UNK d   0       7.700  -9.327   9.658  0.00  0.00    -0.776 OA
ATOM     64  H   UNK d   0       7.169  -9.365  10.510  0.00  0.00     0.167 HD
ENDBRANCH  61  63
ENDBRANCH  60  61
ENDBRANCH  18  60
BRANCH  14  65
ATOM     65  C   UNK d   0       6.899  -6.955  12.414  0.00  0.00     0.052 C 
BRANCH  65  66
ATOM     66  C   UNK d   0       6.699  -8.396  12.725  0.00  0.00     0.115 C 
BRANCH  66  67
ATOM     67  C   UNK d   0       7.337  -8.972  13.875  0.00  0.00     0.139 C 
ATOM     68  O   UNK d   0       6.899  -8.656  15.042  0.00  0.00    -0.650 OA
BRANCH  67  69
ATOM     69  O   UNK d   0       8.410  -9.861  13.899  0.00  0.00    -0.776 OA
ATOM     70  H   UNK d   0       8.569 -10.347  14.793  0.00  0.00     0.167 HD
ENDBRANCH  67  69
ENDBRANCH  66  67
ENDBRANCH  65  66
ENDBRANCH  14  65
ENDBRANCH   6   7
ENDBRANCH   5   6
ENDBRANCH   2   5
TORSDOF 28
ENDMDL
MODEL 8
REMARK VINA RESULT:      -9.0     28.928     32.000
REMARK  28 active torsions:
REMARK  status: ('A' for Active; 'I' for Inactive)
REMARK    1  A    between atoms: C_2  and  O_3 
REMARK    2  A    between atoms: C_2  and  C_4 
REMARK    3  A    between atoms: C_4  and  C_5 
REMARK    4  A    between atoms: C_5  and  C_6 
REMARK    5  A    between atoms: C_7  and  C_8 
REMARK    6  A    between atoms: C_8  and  C_9 
REMARK    7  A    between atoms: C_9  and  O_11 
REMARK    8  A    between atoms: C_28  and  C_29 
REMARK    9  A    between atoms: C_29  and  C_30 
REMARK   10  A    between atoms: C_30  and  O_32 
REMARK   11  A    between atoms: C_33  and  C_34 
REMARK   12  A    between atoms: C_34  and  C_35 
REMARK   13  A    between atoms: C_35  and  C_36 
REMARK   14  A    between atoms: C_36  and  O_38 
REMARK   15  A    between atoms: C_39  and  C_40 
REMARK   16  A    between atoms: C_40  and  C_41 
REMARK   17  A    between atoms: C_41  and  C_42 
REMARK   18  A    between atoms: C_42  and  O_44 
REMARK   19  A    between atoms: C_45  and  C_46 
REMARK   20  A    between atoms: C_46  and  C_47 
REMARK   21  A    between atoms: C_47  and  O_49 
REMARK   22  A    between atoms: C_50  and  C_51 
REMARK   23  A    between atoms: C_51  and  C_52 
REMARK   24  A    between atoms: C_52  and  O_54 
REMARK   25  A    between atoms: C_55  and  C_56 
REMARK   26  A    between atoms: C_56  and  C_57 
REMARK   27  A    between atoms: C_57  and  C_58 
REMARK   28  A    between atoms: C_58  and  O_60 
ROOT
ATOM      1  O   UNK d   0     -18.848  -4.650  -7.739  0.00  0.00    -0.650 OA
ATOM      2  C   UNK d   0     -18.306  -3.563  -8.037  0.00  0.00     0.139 C 
ENDROOT
BRANCH   2   3
ATOM      3  O   UNK d   0     -18.169  -3.218  -9.360  0.00  0.00    -0.776 OA
ATOM      4  H   UNK d   0     -18.768  -3.631 -10.077  0.00  0.00     0.167 HD
ENDBRANCH   2   3
BRANCH   2   5
ATOM      5  C   UNK d   0     -17.813  -2.654  -6.963  0.00  0.00     0.115 C 
BRANCH   5   6
ATOM      6  C   UNK d   0     -16.461  -3.105  -6.482  0.00  0.00     0.052 C 
BRANCH   6   7
ATOM      7  C   UNK d   0     -15.333  -2.297  -7.077  0.00  0.00    -0.020 A 
ATOM      8  C   UNK d   0     -14.540  -2.636  -8.061  0.00  0.00    -0.011 A 
ATOM      9  C   UNK d   0     -13.606  -1.544  -8.276  0.00  0.00     0.067 A 
ATOM     10  C   UNK d   0     -12.550  -1.274  -9.161  0.00  0.00     0.062 C 
ATOM     11  N   UNK d   0     -13.898  -0.583  -7.375  0.00  0.00    -0.248 NA
ATOM     12  C   UNK d   0     -11.939  -0.038  -9.399  0.00  0.00     0.041 A 
ATOM     13  N   UNK d   0     -11.553   0.937  -8.554  0.00  0.00    -0.355 N 
ATOM     14  C   UNK d   0     -11.697   0.358 -10.727  0.00  0.00    -0.022 A 
ATOM     15  C   UNK d   0     -11.080   1.945  -9.312  0.00  0.00     0.042 A 
ATOM     16  H   UNK d   0     -11.596   0.906  -7.443  0.00  0.00     0.166 HD
ATOM     17  C   UNK d   0     -10.551   3.197  -8.941  0.00  0.00     0.062 C 
ATOM     18  C   UNK d   0     -11.155   1.618 -10.680  0.00  0.00    -0.013 A 
ATOM     19  C   UNK d   0     -11.021   4.091  -8.013  0.00  0.00     0.067 A 
ATOM     20  N   UNK d   0     -11.992   3.666  -7.201  0.00  0.00    -0.248 NA
ATOM     21  C   UNK d   0     -10.741   5.473  -7.659  0.00  0.00    -0.011 A 
ATOM     22  C   UNK d   0     -12.369   4.670  -6.343  0.00  0.00     0.066 A 
ATOM     23  C   UNK d   0     -13.349   4.351  -5.414  0.00  0.00     0.062 C 
ATOM     24  C   UNK d   0     -11.536   5.806  -6.684  0.00  0.00    -0.020 A 
ATOM     25  C   UNK d   0     -13.941   3.100  -5.183  0.00  0.00     0.041 A 
ATOM     26  N   UNK d   0     -14.338   2.137  -6.024  0.00  0.00    -0.355 N 
ATOM     27  C   UNK d   0     -14.179   2.701  -3.850  0.00  0.00    -0.022 A 
ATOM     28  C   UNK d   0     -14.818   1.135  -5.270  0.00  0.00     0.042 A 
ATOM     29  H   UNK d   0     -14.304   2.174  -7.140  0.00  0.00     0.166 HD
ATOM     30  C   UNK d   0     -15.356  -0.112  -5.627  0.00  0.00     0.062 C 
ATOM     31  C   UNK d   0     -14.733   1.459  -3.896  0.00  0.00    -0.013 A 
ATOM     32  C   UNK d   0     -14.928  -0.974  -6.623  0.00  0.00     0.066 A 
BRANCH   8  33
ATOM     33  C   UNK d   0     -14.568  -3.896  -8.826  0.00  0.00     0.151 C 
BRANCH  33  34
ATOM     34  C   UNK d   0     -13.599  -4.888  -8.326  0.00  0.00     0.143 C 
ATOM     35  O   UNK d   0     -13.504  -5.131  -7.114  0.00  0.00    -0.650 OA
BRANCH  34  36
ATOM     36  O   UNK d   0     -12.789  -5.550  -9.219  0.00  0.00    -0.776 OA
ATOM     37  H   UNK d   0     -12.358  -6.454  -8.981  0.00  0.00     0.167 HD
ENDBRANCH  34  36
ENDBRANCH  33  34
ENDBRANCH   8  33
BRANCH  31  38
ATOM     38  C   UNK d   0     -15.146   0.623  -2.707  0.00  0.00     0.151 C 
BRANCH  38  39
ATOM     39  C   UNK d   0     -14.036  -0.089  -2.109  0.00  0.00     0.143 C 
ATOM     40  O   UNK d   0     -13.723   0.051  -0.914  0.00  0.00    -0.650 OA
BRANCH  39  41
ATOM     41  O   UNK d   0     -13.284  -0.967  -2.889  0.00  0.00    -0.776 OA
ATOM     42  H   UNK d   0     -12.673  -1.621  -2.389  0.00  0.00     0.167 HD
ENDBRANCH  39  41
ENDBRANCH  38  39
ENDBRANCH  31  38
BRANCH  27  43
ATOM     43  C   UNK d   0     -13.907   3.443  -2.565  0.00  0.00     0.052 C 
BRANCH  43  44
ATOM     44  C   UNK d   0     -15.061   4.274  -2.106  0.00  0.00     0.115 C 
BRANCH  44  45
ATOM     45  C   UNK d   0     -15.223   4.010  -0.653  0.00  0.00     0.139 C 
ATOM     46  O   UNK d   0     -14.272   4.306   0.112  0.00  0.00    -0.650 OA
BRANCH  45  47
ATOM     47  O   UNK d   0     -16.368   3.463  -0.116  0.00  0.00    -0.776 OA
ATOM     48  H   UNK d   0     -17.107   3.030  -0.694  0.00  0.00     0.167 HD
ENDBRANCH  45  47
ENDBRANCH  44  45
ENDBRANCH  43  44
ENDBRANCH  27  43
BRANCH  24  49
ATOM     49  C   UNK d   0     -11.564   7.107  -5.992  0.00  0.00     0.052 C 
BRANCH  49  50
ATOM     50  C   UNK d   0     -12.040   8.188  -6.928  0.00  0.00     0.115 C 
BRANCH  50  51
ATOM     51  C   UNK d   0     -13.361   8.022  -7.518  0.00  0.00     0.139 C 
ATOM     52  O   UNK d   0     -14.327   7.531  -6.888  0.00  0.00    -0.650 OA
BRANCH  51  53
ATOM     53  O   UNK d   0     -13.581   8.414  -8.830  0.00  0.00    -0.776 OA
ATOM     54  H   UNK d   0     -13.376   9.365  -9.082  0.00  0.00     0.167 HD
ENDBRANCH  51  53
ENDBRANCH  50  51
ENDBRANCH  49  50
ENDBRANCH  24  49
BRANCH  21  55
ATOM     55  C   UNK d   0      -9.706   6.313  -8.329  0.00  0.00     0.151 C 
BRANCH  55  56
ATOM     56  C   UNK d   0      -8.391   6.190  -7.681  0.00  0.00     0.143 C 
ATOM     57  O   UNK d   0      -8.033   6.920  -6.736  0.00  0.00    -0.650 OA
BRANCH  56  58
ATOM     58  O   UNK d   0      -7.522   5.210  -8.157  0.00  0.00    -0.776 OA
ATOM     59  H   UNK d   0      -7.903   4.623  -8.921  0.00  0.00     0.167 HD
ENDBRANCH  56  58
ENDBRANCH  55  56
ENDBRANCH  21  55
BRANCH  18  60
ATOM     60  C   UNK d   0     -10.749   2.430 -11.885  0.00  0.00     0.151 C 
BRANCH  60  61
ATOM     61  C   UNK d   0      -9.320   2.153 -12.095  0.00  0.00     0.143 C 
ATOM     62  O   UNK d   0      -8.374   2.588 -11.437  0.00  0.00    -0.650 OA
BRANCH  61  63
ATOM     63  O   UNK d   0      -9.026   1.289 -13.178  0.00  0.00    -0.776 OA
ATOM     64  H   UNK d   0      -8.280   1.495 -13.818  0.00  0.00     0.167 HD
ENDBRANCH  61  63
ENDBRANCH  60  61
ENDBRANCH  18  60
BRANCH  14  65
ATOM     65  C   UNK d   0     -11.847  -0.396 -12.018  0.00  0.00     0.052 C 
BRANCH  65  66
ATOM     66  C   UNK d   0     -13.054   0.006 -12.789  0.00  0.00     0.115 C 
BRANCH  66  67
ATOM     67  C   UNK d   0     -14.256   0.368 -12.093  0.00  0.00     0.139 C 
ATOM     68  O   UNK d   0     -14.583   1.610 -12.037  0.00  0.00    -0.650 OA
BRANCH  67  69
ATOM     69  O   UNK d   0     -15.153  -0.479 -11.442  0.00  0.00    -0.776 OA
ATOM     70  H   UNK d   0     -15.425  -1.327 -11.960  0.00  0.00     0.167 HD
ENDBRANCH  67  69
ENDBRANCH  66  67
ENDBRANCH  65  66
ENDBRANCH  14  65
ENDBRANCH   6   7
ENDBRANCH   5   6
ENDBRANCH   2   5
TORSDOF 28
ENDMDL
MODEL 9
REMARK VINA RESULT:      -8.9      2.255      8.718
REMARK  28 active torsions:
REMARK  status: ('A' for Active; 'I' for Inactive)
REMARK    1  A    between atoms: C_2  and  O_3 
REMARK    2  A    between atoms: C_2  and  C_4 
REMARK    3  A    between atoms: C_4  and  C_5 
REMARK    4  A    between atoms: C_5  and  C_6 
REMARK    5  A    between atoms: C_7  and  C_8 
REMARK    6  A    between atoms: C_8  and  C_9 
REMARK    7  A    between atoms: C_9  and  O_11 
REMARK    8  A    between atoms: C_28  and  C_29 
REMARK    9  A    between atoms: C_29  and  C_30 
REMARK   10  A    between atoms: C_30  and  O_32 
REMARK   11  A    between atoms: C_33  and  C_34 
REMARK   12  A    between atoms: C_34  and  C_35 
REMARK   13  A    between atoms: C_35  and  C_36 
REMARK   14  A    between atoms: C_36  and  O_38 
REMARK   15  A    between atoms: C_39  and  C_40 
REMARK   16  A    between atoms: C_40  and  C_41 
REMARK   17  A    between atoms: C_41  and  C_42 
REMARK   18  A    between atoms: C_42  and  O_44 
REMARK   19  A    between atoms: C_45  and  C_46 
REMARK   20  A    between atoms: C_46  and  C_47 
REMARK   21  A    between atoms: C_47  and  O_49 
REMARK   22  A    between atoms: C_50  and  C_51 
REMARK   23  A    between atoms: C_51  and  C_52 
REMARK   24  A    between atoms: C_52  and  O_54 
REMARK   25  A    between atoms: C_55  and  C_56 
REMARK   26  A    between atoms: C_56  and  C_57 
REMARK   27  A    between atoms: C_57  and  C_58 
REMARK   28  A    between atoms: C_58  and  O_60 
ROOT
ATOM      1  O   UNK d   0      11.471  -7.035  16.320  0.00  0.00    -0.650 OA
ATOM      2  C   UNK d   0      12.083  -6.864  15.243  0.00  0.00     0.139 C 
ENDROOT
BRANCH   2   3
ATOM      3  O   UNK d   0      12.233  -7.921  14.378  0.00  0.00    -0.776 OA
ATOM      4  H   UNK d   0      12.359  -8.873  14.726  0.00  0.00     0.167 HD
ENDBRANCH   2   3
BRANCH   2   5
ATOM      5  C   UNK d   0      12.643  -5.524  14.905  0.00  0.00     0.115 C 
BRANCH   5   6
ATOM      6  C   UNK d   0      11.533  -4.516  14.779  0.00  0.00     0.052 C 
BRANCH   6   7
ATOM      7  C   UNK d   0      11.616  -3.718  13.500  0.00  0.00    -0.020 A 
ATOM      8  C   UNK d   0      11.833  -2.434  13.373  0.00  0.00    -0.011 A 
ATOM      9  C   UNK d   0      11.817  -2.118  11.954  0.00  0.00     0.067 A 
ATOM     10  C   UNK d   0      11.999  -0.967  11.171  0.00  0.00     0.062 C 
ATOM     11  N   UNK d   0      11.577  -3.268  11.290  0.00  0.00    -0.248 NA
ATOM     12  C   UNK d   0      12.224  -0.909   9.791  0.00  0.00     0.041 A 
ATOM     13  N   UNK d   0      11.656  -1.580   8.771  0.00  0.00    -0.355 N 
ATOM     14  C   UNK d   0      13.238  -0.066   9.302  0.00  0.00    -0.022 A 
ATOM     15  C   UNK d   0      12.290  -1.191   7.649  0.00  0.00     0.042 A 
ATOM     16  H   UNK d   0      10.811  -2.300   8.841  0.00  0.00     0.166 HD
ATOM     17  C   UNK d   0      12.094  -1.579   6.308  0.00  0.00     0.062 C 
ATOM     18  C   UNK d   0      13.289  -0.243   7.942  0.00  0.00    -0.013 A 
ATOM     19  C   UNK d   0      11.913  -2.837   5.792  0.00  0.00     0.067 A 
ATOM     20  N   UNK d   0      11.693  -3.823   6.665  0.00  0.00    -0.248 NA
ATOM     21  C   UNK d   0      11.909  -3.431   4.466  0.00  0.00    -0.011 A 
ATOM     22  C   UNK d   0      11.547  -5.019   6.006  0.00  0.00     0.066 A 
ATOM     23  C   UNK d   0      11.274  -6.128   6.794  0.00  0.00     0.062 C 
ATOM     24  C   UNK d   0      11.698  -4.709   4.598  0.00  0.00    -0.020 A 
ATOM     25  C   UNK d   0      11.039  -6.163   8.177  0.00  0.00     0.041 A 
ATOM     26  N   UNK d   0      11.613  -5.507   9.192  0.00  0.00    -0.355 N 
ATOM     27  C   UNK d   0      10.018  -7.006   8.667  0.00  0.00    -0.022 A 
ATOM     28  C   UNK d   0      10.989  -5.900  10.314  0.00  0.00     0.042 A 
ATOM     29  H   UNK d   0      12.469  -4.792   9.122  0.00  0.00     0.166 HD
ATOM     30  C   UNK d   0      11.179  -5.529  11.654  0.00  0.00     0.062 C 
ATOM     31  C   UNK d   0       9.978  -6.845  10.017  0.00  0.00    -0.013 A 
ATOM     32  C   UNK d   0      11.447  -4.268  12.163  0.00  0.00     0.066 A 
BRANCH   8  33
ATOM     33  C   UNK d   0      12.052  -1.462  14.460  0.00  0.00     0.151 C 
BRANCH  33  34
ATOM     34  C   UNK d   0      13.242  -0.620  14.242  0.00  0.00     0.143 C 
ATOM     35  O   UNK d   0      14.382  -1.070  14.428  0.00  0.00    -0.650 OA
BRANCH  34  36
ATOM     36  O   UNK d   0      13.083   0.682  13.827  0.00  0.00    -0.776 OA
ATOM     37  H   UNK d   0      12.369   0.937  13.131  0.00  0.00     0.167 HD
ENDBRANCH  34  36
ENDBRANCH  33  34
ENDBRANCH   8  33
BRANCH  31  38
ATOM     38  C   UNK d   0       9.031  -7.535  10.970  0.00  0.00     0.151 C 
BRANCH  38  39
ATOM     39  C   UNK d   0       7.848  -6.750  11.254  0.00  0.00     0.143 C 
ATOM     40  O   UNK d   0       7.140  -6.266  10.353  0.00  0.00    -0.650 OA
BRANCH  39  41
ATOM     41  O   UNK d   0       7.477  -6.522  12.578  0.00  0.00    -0.776 OA
ATOM     42  H   UNK d   0       6.576  -6.058  12.732  0.00  0.00     0.167 HD
ENDBRANCH  39  41
ENDBRANCH  38  39
ENDBRANCH  31  38
BRANCH  27  43
ATOM     43  C   UNK d   0       9.101  -7.938   7.914  0.00  0.00     0.052 C 
BRANCH  43  44
ATOM     44  C   UNK d   0       9.509  -9.373   8.010  0.00  0.00     0.115 C 
BRANCH  44  45
ATOM     45  C   UNK d   0       8.272 -10.148   8.285  0.00  0.00     0.139 C 
ATOM     46  O   UNK d   0       7.169  -9.550   8.210  0.00  0.00    -0.650 OA
BRANCH  45  47
ATOM     47  O   UNK d   0       8.286 -11.487   8.611  0.00  0.00    -0.776 OA
ATOM     48  H   UNK d   0       7.443 -12.083   8.568  0.00  0.00     0.167 HD
ENDBRANCH  45  47
ENDBRANCH  44  45
ENDBRANCH  43  44
ENDBRANCH  27  43
BRANCH  24  49
ATOM     49  C   UNK d   0      11.579  -5.687   3.504  0.00  0.00     0.052 C 
BRANCH  49  50
ATOM     50  C   UNK d   0      12.942  -6.044   2.968  0.00  0.00     0.115 C 
BRANCH  50  51
ATOM     51  C   UNK d   0      13.006  -6.572   1.612  0.00  0.00     0.139 C 
ATOM     52  O   UNK d   0      11.997  -6.660   0.872  0.00  0.00    -0.650 OA
BRANCH  51  53
ATOM     53  O   UNK d   0      14.220  -7.002   1.099  0.00  0.00    -0.776 OA
ATOM     54  H   UNK d   0      14.523  -6.628   0.218  0.00  0.00     0.167 HD
ENDBRANCH  51  53
ENDBRANCH  50  51
ENDBRANCH  49  50
ENDBRANCH  24  49
BRANCH  21  55
ATOM     55  C   UNK d   0      12.112  -2.659   3.204  0.00  0.00     0.151 C 
BRANCH  55  56
ATOM     56  C   UNK d   0      13.499  -2.192   3.060  0.00  0.00     0.143 C 
ATOM     57  O   UNK d   0      14.475  -2.827   3.506  0.00  0.00    -0.650 OA
BRANCH  56  58
ATOM     58  O   UNK d   0      13.713  -0.986   2.394  0.00  0.00    -0.776 OA
ATOM     59  H   UNK d   0      12.851  -0.466   2.147  0.00  0.00     0.167 HD
ENDBRANCH  56  58
ENDBRANCH  55  56
ENDBRANCH  21  55
BRANCH  18  60
ATOM     60  C   UNK d   0      14.245   0.464   7.013  0.00  0.00     0.151 C 
BRANCH  60  61
ATOM     61  C   UNK d   0      15.582  -0.057   7.337  0.00  0.00     0.143 C 
ATOM     62  O   UNK d   0      15.868  -1.206   7.677  0.00  0.00    -0.650 OA
BRANCH  61  63
ATOM     63  O   UNK d   0      16.635   0.883   7.239  0.00  0.00    -0.776 OA
ATOM     64  H   UNK d   0      16.759   1.597   7.935  0.00  0.00     0.167 HD
ENDBRANCH  61  63
ENDBRANCH  60  61
ENDBRANCH  18  60
BRANCH  14  65
ATOM     65  C   UNK d   0      14.088   0.956  10.004  0.00  0.00     0.052 C 
BRANCH  65  66
ATOM     66  C   UNK d   0      13.471   2.309  10.024  0.00  0.00     0.115 C 
BRANCH  66  67
ATOM     67  C   UNK d   0      13.792   3.221  11.087  0.00  0.00     0.139 C 
ATOM     68  O   UNK d   0      13.515   4.467  10.930  0.00  0.00    -0.650 OA
BRANCH  67  69
ATOM     69  O   UNK d   0      14.386   2.927  12.313  0.00  0.00    -0.776 OA
ATOM     70  H   UNK d   0      15.249   3.446  12.529  0.00  0.00     0.167 HD
ENDBRANCH  67  69
ENDBRANCH  66  67
ENDBRANCH  65  66
ENDBRANCH  14  65
ENDBRANCH   6   7
ENDBRANCH   5   6
ENDBRANCH   2   5
TORSDOF 28
ENDMDL
MODEL 10
REMARK VINA RESULT:      -8.8     29.809     33.897
REMARK  28 active torsions:
REMARK  status: ('A' for Active; 'I' for Inactive)
REMARK    1  A    between atoms: C_2  and  O_3 
REMARK    2  A    between atoms: C_2  and  C_4 
REMARK    3  A    between atoms: C_4  and  C_5 
REMARK    4  A    between atoms: C_5  and  C_6 
REMARK    5  A    between atoms: C_7  and  C_8 
REMARK    6  A    between atoms: C_8  and  C_9 
REMARK    7  A    between atoms: C_9  and  O_11 
REMARK    8  A    between atoms: C_28  and  C_29 
REMARK    9  A    between atoms: C_29  and  C_30 
REMARK   10  A    between atoms: C_30  and  O_32 
REMARK   11  A    between atoms: C_33  and  C_34 
REMARK   12  A    between atoms: C_34  and  C_35 
REMARK   13  A    between atoms: C_35  and  C_36 
REMARK   14  A    between atoms: C_36  and  O_38 
REMARK   15  A    between atoms: C_39  and  C_40 
REMARK   16  A    between atoms: C_40  and  C_41 
REMARK   17  A    between atoms: C_41  and  C_42 
REMARK   18  A    between atoms: C_42  and  O_44 
REMARK   19  A    between atoms: C_45  and  C_46 
REMARK   20  A    between atoms: C_46  and  C_47 
REMARK   21  A    between atoms: C_47  and  O_49 
REMARK   22  A    between atoms: C_50  and  C_51 
REMARK   23  A    between atoms: C_51  and  C_52 
REMARK   24  A    between atoms: C_52  and  O_54 
REMARK   25  A    between atoms: C_55  and  C_56 
REMARK   26  A    between atoms: C_56  and  C_57 
REMARK   27  A    between atoms: C_57  and  C_58 
REMARK   28  A    between atoms: C_58  and  O_60 
ROOT
ATOM      1  O   UNK d   0     -11.656  -1.485 -13.848  0.00  0.00    -0.650 OA
ATOM      2  C   UNK d   0     -12.754  -2.047 -14.058  0.00  0.00     0.139 C 
ENDROOT
BRANCH   2   3
ATOM      3  O   UNK d   0     -13.903  -1.294 -14.078  0.00  0.00    -0.776 OA
ATOM      4  H   UNK d   0     -14.758  -1.624 -13.625  0.00  0.00     0.167 HD
ENDBRANCH   2   3
BRANCH   2   5
ATOM      5  C   UNK d   0     -12.810  -3.519 -14.284  0.00  0.00     0.115 C 
BRANCH   5   6
ATOM      6  C   UNK d   0     -12.579  -4.250 -12.989  0.00  0.00     0.052 C 
BRANCH   6   7
ATOM      7  C   UNK d   0     -13.785  -4.220 -12.082  0.00  0.00    -0.020 A 
ATOM      8  C   UNK d   0     -14.866  -4.952 -12.166  0.00  0.00    -0.011 A 
ATOM      9  C   UNK d   0     -15.753  -4.564 -11.081  0.00  0.00     0.067 A 
ATOM     10  C   UNK d   0     -17.014  -4.962 -10.613  0.00  0.00     0.062 C 
ATOM     11  N   UNK d   0     -15.134  -3.584 -10.389  0.00  0.00    -0.248 NA
ATOM     12  C   UNK d   0     -17.593  -4.660  -9.375  0.00  0.00     0.041 A 
ATOM     13  N   UNK d   0     -17.633  -3.512  -8.672  0.00  0.00    -0.355 N 
ATOM     14  C   UNK d   0     -18.215  -5.689  -8.645  0.00  0.00    -0.022 A 
ATOM     15  C   UNK d   0     -18.258  -3.788  -7.512  0.00  0.00     0.042 A 
ATOM     16  H   UNK d   0     -17.245  -2.522  -8.998  0.00  0.00     0.166 HD
ATOM     17  C   UNK d   0     -18.566  -2.953  -6.420  0.00  0.00     0.062 C 
ATOM     18  C   UNK d   0     -18.637  -5.143  -7.458  0.00  0.00    -0.013 A 
ATOM     19  C   UNK d   0     -17.774  -2.024  -5.793  0.00  0.00     0.067 A 
ATOM     20  N   UNK d   0     -16.625  -1.706  -6.394  0.00  0.00    -0.248 NA
ATOM     21  C   UNK d   0     -17.843  -1.251  -4.565  0.00  0.00    -0.011 A 
ATOM     22  C   UNK d   0     -15.937  -0.782  -5.647  0.00  0.00     0.066 A 
ATOM     23  C   UNK d   0     -14.736  -0.332  -6.176  0.00  0.00     0.062 C 
ATOM     24  C   UNK d   0     -16.763  -0.529  -4.483  0.00  0.00    -0.020 A 
ATOM     25  C   UNK d   0     -14.179  -0.638  -7.427  0.00  0.00     0.041 A 
ATOM     26  N   UNK d   0     -14.126  -1.783  -8.119  0.00  0.00    -0.355 N 
ATOM     27  C   UNK d   0     -13.558   0.396  -8.161  0.00  0.00    -0.022 A 
ATOM     28  C   UNK d   0     -13.495  -1.512  -9.273  0.00  0.00     0.042 A 
ATOM     29  H   UNK d   0     -14.507  -2.779  -7.786  0.00  0.00     0.166 HD
ATOM     30  C   UNK d   0     -13.174  -2.335 -10.364  0.00  0.00     0.062 C 
ATOM     31  C   UNK d   0     -13.124  -0.148  -9.331  0.00  0.00    -0.013 A 
ATOM     32  C   UNK d   0     -13.946  -3.331 -10.940  0.00  0.00     0.066 A 
BRANCH   8  33
ATOM     33  C   UNK d   0     -15.158  -5.987 -13.175  0.00  0.00     0.151 C 
BRANCH  33  34
ATOM     34  C   UNK d   0     -14.452  -7.254 -12.912  0.00  0.00     0.143 C 
ATOM     35  O   UNK d   0     -14.488  -7.783 -11.792  0.00  0.00    -0.650 OA
BRANCH  34  36
ATOM     36  O   UNK d   0     -13.742  -7.855 -13.927  0.00  0.00    -0.776 OA
ATOM     37  H   UNK d   0     -13.069  -8.609 -13.734  0.00  0.00     0.167 HD
ENDBRANCH  34  36
ENDBRANCH  33  34
ENDBRANCH   8  33
BRANCH  31  38
ATOM     38  C   UNK d   0     -12.410   0.584 -10.444  0.00  0.00     0.151 C 
BRANCH  38  39
ATOM     39  C   UNK d   0     -13.305   1.012 -11.498  0.00  0.00     0.143 C 
ATOM     40  O   UNK d   0     -14.504   1.267 -11.291  0.00  0.00    -0.650 OA
BRANCH  39  41
ATOM     41  O   UNK d   0     -12.817   1.149 -12.798  0.00  0.00    -0.776 OA
ATOM     42  H   UNK d   0     -13.150   0.470 -13.489  0.00  0.00     0.167 HD
ENDBRANCH  39  41
ENDBRANCH  38  39
ENDBRANCH  31  38
BRANCH  27  43
ATOM     43  C   UNK d   0     -13.367   1.847  -7.798  0.00  0.00     0.052 C 
BRANCH  43  44
ATOM     44  C   UNK d   0     -14.653   2.576  -7.578  0.00  0.00     0.115 C 
BRANCH  44  45
ATOM     45  C   UNK d   0     -14.298   3.996  -7.322  0.00  0.00     0.139 C 
ATOM     46  O   UNK d   0     -13.108   4.352  -7.513  0.00  0.00    -0.650 OA
BRANCH  45  47
ATOM     47  O   UNK d   0     -15.215   4.930  -6.891  0.00  0.00    -0.776 OA
ATOM     48  H   UNK d   0     -16.177   4.681  -6.608  0.00  0.00     0.167 HD
ENDBRANCH  45  47
ENDBRANCH  44  45
ENDBRANCH  43  44
ENDBRANCH  27  43
BRANCH  24  49
ATOM     49  C   UNK d   0     -16.440   0.433  -3.415  0.00  0.00     0.052 C 
BRANCH  49  50
ATOM     50  C   UNK d   0     -15.520  -0.199  -2.402  0.00  0.00     0.115 C 
BRANCH  50  51
ATOM     51  C   UNK d   0     -14.092   0.041  -2.560  0.00  0.00     0.139 C 
ATOM     52  O   UNK d   0     -13.591   1.189  -2.524  0.00  0.00    -0.650 OA
BRANCH  51  53
ATOM     53  O   UNK d   0     -13.235  -1.030  -2.762  0.00  0.00    -0.776 OA
ATOM     54  H   UNK d   0     -12.409  -1.092  -2.192  0.00  0.00     0.167 HD
ENDBRANCH  51  53
ENDBRANCH  50  51
ENDBRANCH  49  50
ENDBRANCH  24  49
BRANCH  21  55
ATOM     55  C   UNK d   0     -18.984  -1.311  -3.603  0.00  0.00     0.151 C 
BRANCH  55  56
ATOM     56  C   UNK d   0     -19.948  -0.221  -3.823  0.00  0.00     0.143 C 
ATOM     57  O   UNK d   0     -20.730  -0.197  -4.793  0.00  0.00    -0.650 OA
BRANCH  56  58
ATOM     58  O   UNK d   0     -19.974   0.819  -2.895  0.00  0.00    -0.776 OA
ATOM     59  H   UNK d   0     -20.034   1.768  -3.306  0.00  0.00     0.167 HD
ENDBRANCH  56  58
ENDBRANCH  55  56
ENDBRANCH  21  55
BRANCH  18  60
ATOM     60  C   UNK d   0     -19.351  -5.899  -6.365  0.00  0.00     0.151 C 
BRANCH  60  61
ATOM     61  C   UNK d   0     -18.297  -6.511  -5.542  0.00  0.00     0.143 C 
ATOM     62  O   UNK d   0     -17.309  -5.951  -5.065  0.00  0.00    -0.650 OA
BRANCH  61  63
ATOM     63  O   UNK d   0     -18.459  -7.893  -5.286  0.00  0.00    -0.776 OA
ATOM     64  H   UNK d   0     -18.970  -8.215  -4.482  0.00  0.00     0.167 HD
ENDBRANCH  61  63
ENDBRANCH  60  61
ENDBRANCH  18  60
BRANCH  14  65
ATOM     65  C   UNK d   0     -18.525  -7.110  -9.022  0.00  0.00     0.052 C 
BRANCH  65  66
ATOM     66  C   UNK d   0     -17.377  -8.032  -8.809  0.00  0.00     0.115 C 
BRANCH  66  67
ATOM     67  C   UNK d   0     -17.621  -9.402  -8.457  0.00  0.00     0.139 C 
ATOM     68  O   UNK d   0     -17.738 -10.267  -9.401  0.00  0.00    -0.650 OA
BRANCH  67  69
ATOM     69  O   UNK d   0     -17.753  -9.944  -7.179  0.00  0.00    -0.776 OA
ATOM     70  H   UNK d   0     -17.022  -9.681  -6.503  0.00  0.00     0.167 HD
ENDBRANCH  67  69
ENDBRANCH  66  67
ENDBRANCH  65  66
ENDBRANCH  14  65
ENDBRANCH   6   7
ENDBRANCH   5   6
ENDBRANCH   2   5
TORSDOF 28
ENDMDL
MODEL 11
REMARK VINA RESULT:      -8.8     30.372     34.073
REMARK  28 active torsions:
REMARK  status: ('A' for Active; 'I' for Inactive)
REMARK    1  A    between atoms: C_2  and  O_3 
REMARK    2  A    between atoms: C_2  and  C_4 
REMARK    3  A    between atoms: C_4  and  C_5 
REMARK    4  A    between atoms: C_5  and  C_6 
REMARK    5  A    between atoms: C_7  and  C_8 
REMARK    6  A    between atoms: C_8  and  C_9 
REMARK    7  A    between atoms: C_9  and  O_11 
REMARK    8  A    between atoms: C_28  and  C_29 
REMARK    9  A    between atoms: C_29  and  C_30 
REMARK   10  A    between atoms: C_30  and  O_32 
REMARK   11  A    between atoms: C_33  and  C_34 
REMARK   12  A    between atoms: C_34  and  C_35 
REMARK   13  A    between atoms: C_35  and  C_36 
REMARK   14  A    between atoms: C_36  and  O_38 
REMARK   15  A    between atoms: C_39  and  C_40 
REMARK   16  A    between atoms: C_40  and  C_41 
REMARK   17  A    between atoms: C_41  and  C_42 
REMARK   18  A    between atoms: C_42  and  O_44 
REMARK   19  A    between atoms: C_45  and  C_46 
REMARK   20  A    between atoms: C_46  and  C_47 
REMARK   21  A    between atoms: C_47  and  O_49 
REMARK   22  A    between atoms: C_50  and  C_51 
REMARK   23  A    between atoms: C_51  and  C_52 
REMARK   24  A    between atoms: C_52  and  O_54 
REMARK   25  A    between atoms: C_55  and  C_56 
REMARK   26  A    between atoms: C_56  and  C_57 
REMARK   27  A    between atoms: C_57  and  C_58 
REMARK   28  A    between atoms: C_58  and  O_60 
ROOT
ATOM      1  O   UNK d   0     -13.308  -7.074 -13.734  0.00  0.00    -0.650 OA
ATOM      2  C   UNK d   0     -14.337  -7.161 -13.028  0.00  0.00     0.139 C 
ENDROOT
BRANCH   2   3
ATOM      3  O   UNK d   0     -14.236  -7.651 -11.748  0.00  0.00    -0.776 OA
ATOM      4  H   UNK d   0     -15.058  -7.998 -11.250  0.00  0.00     0.167 HD
ENDBRANCH   2   3
BRANCH   2   5
ATOM      5  C   UNK d   0     -15.657  -6.739 -13.575  0.00  0.00     0.115 C 
BRANCH   5   6
ATOM      6  C   UNK d   0     -15.671  -5.251 -13.803  0.00  0.00     0.052 C 
BRANCH   6   7
ATOM      7  C   UNK d   0     -15.150  -4.477 -12.616  0.00  0.00    -0.020 A 
ATOM      8  C   UNK d   0     -14.070  -3.741 -12.554  0.00  0.00    -0.011 A 
ATOM      9  C   UNK d   0     -13.975  -3.202 -11.208  0.00  0.00     0.067 A 
ATOM     10  C   UNK d   0     -13.097  -2.351 -10.518  0.00  0.00     0.062 C 
ATOM     11  N   UNK d   0     -15.036  -3.665 -10.515  0.00  0.00    -0.248 NA
ATOM     12  C   UNK d   0     -13.322  -1.716  -9.292  0.00  0.00     0.041 A 
ATOM     13  N   UNK d   0     -13.873  -2.166  -8.148  0.00  0.00    -0.355 N 
ATOM     14  C   UNK d   0     -12.994  -0.355  -9.160  0.00  0.00    -0.022 A 
ATOM     15  C   UNK d   0     -13.910  -1.124  -7.297  0.00  0.00     0.042 A 
ATOM     16  H   UNK d   0     -14.212  -3.205  -7.940  0.00  0.00     0.166 HD
ATOM     17  C   UNK d   0     -14.384  -1.042  -5.973  0.00  0.00     0.062 C 
ATOM     18  C   UNK d   0     -13.368   0.030  -7.896  0.00  0.00    -0.013 A 
ATOM     19  C   UNK d   0     -15.545  -1.542  -5.439  0.00  0.00     0.067 A 
ATOM     20  N   UNK d   0     -16.245  -2.387  -6.200  0.00  0.00    -0.248 NA
ATOM     21  C   UNK d   0     -16.276  -1.380  -4.194  0.00  0.00    -0.011 A 
ATOM     22  C   UNK d   0     -17.382  -2.789  -5.543  0.00  0.00     0.066 A 
ATOM     23  C   UNK d   0     -18.187  -3.702  -6.207  0.00  0.00     0.062 C 
ATOM     24  C   UNK d   0     -17.353  -2.109  -4.263  0.00  0.00    -0.020 A 
ATOM     25  C   UNK d   0     -17.937  -4.338  -7.433  0.00  0.00     0.041 A 
ATOM     26  N   UNK d   0     -17.403  -3.887  -8.574  0.00  0.00    -0.355 N 
ATOM     27  C   UNK d   0     -18.263  -5.706  -7.563  0.00  0.00    -0.022 A 
ATOM     28  C   UNK d   0     -17.373  -4.923  -9.428  0.00  0.00     0.042 A 
ATOM     29  H   UNK d   0     -17.073  -2.840  -8.785  0.00  0.00     0.166 HD
ATOM     30  C   UNK d   0     -16.913  -5.016 -10.751  0.00  0.00     0.062 C 
ATOM     31  C   UNK d   0     -17.909  -6.084  -8.822  0.00  0.00    -0.013 A 
ATOM     32  C   UNK d   0     -15.783  -4.437 -11.306  0.00  0.00     0.066 A 
BRANCH   8  33
ATOM     33  C   UNK d   0     -13.104  -3.495 -13.641  0.00  0.00     0.151 C 
BRANCH  33  34
ATOM     34  C   UNK d   0     -13.460  -2.326 -14.466  0.00  0.00     0.143 C 
ATOM     35  O   UNK d   0     -14.612  -1.869 -14.459  0.00  0.00    -0.650 OA
BRANCH  34  36
ATOM     36  O   UNK d   0     -12.498  -1.738 -15.255  0.00  0.00    -0.776 OA
ATOM     37  H   UNK d   0     -11.523  -1.655 -14.936  0.00  0.00     0.167 HD
ENDBRANCH  34  36
ENDBRANCH  33  34
ENDBRANCH   8  33
BRANCH  31  38
ATOM     38  C   UNK d   0     -18.057  -7.467  -9.412  0.00  0.00     0.151 C 
BRANCH  38  39
ATOM     39  C   UNK d   0     -16.897  -8.302  -9.184  0.00  0.00     0.143 C 
ATOM     40  O   UNK d   0     -15.737  -7.900  -9.388  0.00  0.00    -0.650 OA
BRANCH  39  41
ATOM     41  O   UNK d   0     -17.070  -9.605  -8.719  0.00  0.00    -0.776 OA
ATOM     42  H   UNK d   0     -16.272 -10.034  -8.239  0.00  0.00     0.167 HD
ENDBRANCH  39  41
ENDBRANCH  38  39
ENDBRANCH  31  38
BRANCH  27  43
ATOM     43  C   UNK d   0     -18.886  -6.642  -6.559  0.00  0.00     0.052 C 
BRANCH  43  44
ATOM     44  C   UNK d   0     -17.954  -7.034  -5.459  0.00  0.00     0.115 C 
BRANCH  44  45
ATOM     45  C   UNK d   0     -17.868  -8.517  -5.483  0.00  0.00     0.139 C 
ATOM     46  O   UNK d   0     -18.671  -9.145  -6.217  0.00  0.00    -0.650 OA
BRANCH  45  47
ATOM     47  O   UNK d   0     -16.946  -9.225  -4.743  0.00  0.00    -0.776 OA
ATOM     48  H   UNK d   0     -17.210  -9.990  -4.101  0.00  0.00     0.167 HD
ENDBRANCH  45  47
ENDBRANCH  44  45
ENDBRANCH  43  44
ENDBRANCH  27  43
BRANCH  24  49
ATOM     49  C   UNK d   0     -18.362  -2.270  -3.202  0.00  0.00     0.052 C 
BRANCH  49  50
ATOM     50  C   UNK d   0     -19.731  -1.911  -3.722  0.00  0.00     0.115 C 
BRANCH  50  51
ATOM     51  C   UNK d   0     -20.369  -0.732  -3.154  0.00  0.00     0.139 C 
ATOM     52  O   UNK d   0     -20.290   0.402  -3.684  0.00  0.00    -0.650 OA
BRANCH  51  53
ATOM     53  O   UNK d   0     -21.097  -0.844  -1.980  0.00  0.00    -0.776 OA
ATOM     54  H   UNK d   0     -20.603  -0.788  -1.107  0.00  0.00     0.167 HD
ENDBRANCH  51  53
ENDBRANCH  50  51
ENDBRANCH  49  50
ENDBRANCH  24  49
BRANCH  21  55
ATOM     55  C   UNK d   0     -15.822  -0.517  -3.064  0.00  0.00     0.151 C 
BRANCH  55  56
ATOM     56  C   UNK d   0     -16.218   0.887  -3.248  0.00  0.00     0.143 C 
ATOM     57  O   UNK d   0     -15.406   1.831  -3.188  0.00  0.00    -0.650 OA
BRANCH  56  58
ATOM     58  O   UNK d   0     -17.562   1.155  -3.500  0.00  0.00    -0.776 OA
ATOM     59  H   UNK d   0     -17.744   1.704  -4.360  0.00  0.00     0.167 HD
ENDBRANCH  56  58
ENDBRANCH  55  56
ENDBRANCH  21  55
BRANCH  18  60
ATOM     60  C   UNK d   0     -13.205   1.419  -7.332  0.00  0.00     0.151 C 
BRANCH  60  61
ATOM     61  C   UNK d   0     -14.517   2.068  -7.470  0.00  0.00     0.143 C 
ATOM     62  O   UNK d   0     -15.104   2.339  -8.518  0.00  0.00    -0.650 OA
BRANCH  61  63
ATOM     63  O   UNK d   0     -15.154   2.406  -6.252  0.00  0.00    -0.776 OA
ATOM     64  H   UNK d   0     -16.156   2.405  -6.173  0.00  0.00     0.167 HD
ENDBRANCH  61  63
ENDBRANCH  60  61
ENDBRANCH  18  60
BRANCH  14  65
ATOM     65  C   UNK d   0     -12.271   0.575 -10.093  0.00  0.00     0.052 C 
BRANCH  65  66
ATOM     66  C   UNK d   0     -10.839   0.215 -10.279  0.00  0.00     0.115 C 
BRANCH  66  67
ATOM     67  C   UNK d   0      -9.816   1.053  -9.719  0.00  0.00     0.139 C 
ATOM     68  O   UNK d   0     -10.124   1.823  -8.736  0.00  0.00    -0.650 OA
BRANCH  67  69
ATOM     69  O   UNK d   0      -8.482   1.149 -10.113  0.00  0.00    -0.776 OA
ATOM     70  H   UNK d   0      -8.190   2.063 -10.487  0.00  0.00     0.167 HD
ENDBRANCH  67  69
ENDBRANCH  66  67
ENDBRANCH  65  66
ENDBRANCH  14  65
ENDBRANCH   6   7
ENDBRANCH   5   6
ENDBRANCH   2   5
TORSDOF 28
ENDMDL
MODEL 12
REMARK VINA RESULT:      -8.8      1.884      3.828
REMARK  28 active torsions:
REMARK  status: ('A' for Active; 'I' for Inactive)
REMARK    1  A    between atoms: C_2  and  O_3 
REMARK    2  A    between atoms: C_2  and  C_4 
REMARK    3  A    between atoms: C_4  and  C_5 
REMARK    4  A    between atoms: C_5  and  C_6 
REMARK    5  A    between atoms: C_7  and  C_8 
REMARK    6  A    between atoms: C_8  and  C_9 
REMARK    7  A    between atoms: C_9  and  O_11 
REMARK    8  A    between atoms: C_28  and  C_29 
REMARK    9  A    between atoms: C_29  and  C_30 
REMARK   10  A    between atoms: C_30  and  O_32 
REMARK   11  A    between atoms: C_33  and  C_34 
REMARK   12  A    between atoms: C_34  and  C_35 
REMARK   13  A    between atoms: C_35  and  C_36 
REMARK   14  A    between atoms: C_36  and  O_38 
REMARK   15  A    between atoms: C_39  and  C_40 
REMARK   16  A    between atoms: C_40  and  C_41 
REMARK   17  A    between atoms: C_41  and  C_42 
REMARK   18  A    between atoms: C_42  and  O_44 
REMARK   19  A    between atoms: C_45  and  C_46 
REMARK   20  A    between atoms: C_46  and  C_47 
REMARK   21  A    between atoms: C_47  and  O_49 
REMARK   22  A    between atoms: C_50  and  C_51 
REMARK   23  A    between atoms: C_51  and  C_52 
REMARK   24  A    between atoms: C_52  and  O_54 
REMARK   25  A    between atoms: C_55  and  C_56 
REMARK   26  A    between atoms: C_56  and  C_57 
REMARK   27  A    between atoms: C_57  and  C_58 
REMARK   28  A    between atoms: C_58  and  O_60 
ROOT
ATOM      1  O   UNK d   0      12.494  -7.615   4.114  0.00  0.00    -0.650 OA
ATOM      2  C   UNK d   0      11.272  -7.401   3.956  0.00  0.00     0.139 C 
ENDROOT
BRANCH   2   3
ATOM      3  O   UNK d   0      10.743  -7.421   2.688  0.00  0.00    -0.776 OA
ATOM      4  H   UNK d   0      10.198  -8.219   2.356  0.00  0.00     0.167 HD
ENDBRANCH   2   3
BRANCH   2   5
ATOM      5  C   UNK d   0      10.402  -7.126   5.134  0.00  0.00     0.115 C 
BRANCH   5   6
ATOM      6  C   UNK d   0      10.593  -8.192   6.179  0.00  0.00     0.052 C 
BRANCH   6   7
ATOM      7  C   UNK d   0      10.412  -7.668   7.583  0.00  0.00    -0.020 A 
ATOM      8  C   UNK d   0       9.644  -8.156   8.524  0.00  0.00    -0.011 A 
ATOM      9  C   UNK d   0       9.792  -7.314   9.700  0.00  0.00     0.067 A 
ATOM     10  C   UNK d   0       9.280  -7.301  11.007  0.00  0.00     0.062 C 
ATOM     11  N   UNK d   0      10.664  -6.334   9.384  0.00  0.00    -0.248 NA
ATOM     12  C   UNK d   0       9.756  -6.563  12.096  0.00  0.00     0.041 A 
ATOM     13  N   UNK d   0      10.171  -5.285  12.186  0.00  0.00    -0.355 N 
ATOM     14  C   UNK d   0       9.909  -7.204  13.338  0.00  0.00    -0.022 A 
ATOM     15  C   UNK d   0      10.591  -5.102  13.453  0.00  0.00     0.042 A 
ATOM     16  H   UNK d   0      10.150  -4.522  11.377  0.00  0.00     0.166 HD
ATOM     17  C   UNK d   0      11.119  -3.957  14.083  0.00  0.00     0.062 C 
ATOM     18  C   UNK d   0      10.442  -6.283  14.205  0.00  0.00    -0.013 A 
ATOM     19  C   UNK d   0      12.066  -3.079  13.622  0.00  0.00     0.067 A 
ATOM     20  N   UNK d   0      12.410  -3.180  12.336  0.00  0.00    -0.248 NA
ATOM     21  C   UNK d   0      12.862  -2.005  14.194  0.00  0.00    -0.011 A 
ATOM     22  C   UNK d   0      13.373  -2.251  12.025  0.00  0.00     0.066 A 
ATOM     23  C   UNK d   0      13.797  -2.220  10.705  0.00  0.00     0.062 C 
ATOM     24  C   UNK d   0      13.627  -1.527  13.256  0.00  0.00    -0.020 A 
ATOM     25  C   UNK d   0      13.297  -2.961   9.623  0.00  0.00     0.041 A 
ATOM     26  N   UNK d   0      12.898  -4.235   9.529  0.00  0.00    -0.355 N 
ATOM     27  C   UNK d   0      13.139  -2.315   8.378  0.00  0.00    -0.022 A 
ATOM     28  C   UNK d   0      12.487  -4.423   8.265  0.00  0.00     0.042 A 
ATOM     29  H   UNK d   0      12.930  -5.003  10.341  0.00  0.00     0.166 HD
ATOM     30  C   UNK d   0      11.968  -5.558   7.622  0.00  0.00     0.062 C 
ATOM     31  C   UNK d   0      12.627  -3.233   7.513  0.00  0.00    -0.013 A 
ATOM     32  C   UNK d   0      11.075  -6.491   8.124  0.00  0.00     0.066 A 
BRANCH   8  33
ATOM     33  C   UNK d   0       8.773  -9.342   8.430  0.00  0.00     0.151 C 
BRANCH  33  34
ATOM     34  C   UNK d   0       7.420  -9.100   8.962  0.00  0.00     0.143 C 
ATOM     35  O   UNK d   0       6.859  -9.939   9.681  0.00  0.00    -0.650 OA
BRANCH  34  36
ATOM     36  O   UNK d   0       6.773  -7.926   8.653  0.00  0.00    -0.776 OA
ATOM     37  H   UNK d   0       6.252  -7.399   9.367  0.00  0.00     0.167 HD
ENDBRANCH  34  36
ENDBRANCH  33  34
ENDBRANCH   8  33
BRANCH  31  38
ATOM     38  C   UNK d   0      12.278  -2.993   6.063  0.00  0.00     0.151 C 
BRANCH  38  39
ATOM     39  C   UNK d   0      13.324  -3.414   5.156  0.00  0.00     0.143 C 
ATOM     40  O   UNK d   0      14.346  -2.734   4.957  0.00  0.00    -0.650 OA
BRANCH  39  41
ATOM     41  O   UNK d   0      13.196  -4.625   4.475  0.00  0.00    -0.776 OA
ATOM     42  H   UNK d   0      14.047  -5.185   4.364  0.00  0.00     0.167 HD
ENDBRANCH  39  41
ENDBRANCH  38  39
ENDBRANCH  31  38
BRANCH  27  43
ATOM     43  C   UNK d   0      13.454  -0.892   7.989  0.00  0.00     0.052 C 
BRANCH  43  44
ATOM     44  C   UNK d   0      14.911  -0.648   7.768  0.00  0.00     0.115 C 
BRANCH  44  45
ATOM     45  C   UNK d   0      15.022   0.167   6.531  0.00  0.00     0.139 C 
ATOM     46  O   UNK d   0      16.034   0.898   6.392  0.00  0.00    -0.650 OA
BRANCH  45  47
ATOM     47  O   UNK d   0      14.068   0.150   5.536  0.00  0.00    -0.776 OA
ATOM     48  H   UNK d   0      13.212   0.726   5.570  0.00  0.00     0.167 HD
ENDBRANCH  45  47
ENDBRANCH  44  45
ENDBRANCH  43  44
ENDBRANCH  27  43
BRANCH  24  49
ATOM     49  C   UNK d   0      14.567  -0.402  13.391  0.00  0.00     0.052 C 
BRANCH  49  50
ATOM     50  C   UNK d   0      15.855  -0.866  14.021  0.00  0.00     0.115 C 
BRANCH  50  51
ATOM     51  C   UNK d   0      16.567  -1.950  13.356  0.00  0.00     0.139 C 
ATOM     52  O   UNK d   0      17.281  -1.769  12.342  0.00  0.00    -0.650 OA
BRANCH  51  53
ATOM     53  O   UNK d   0      16.462  -3.243  13.848  0.00  0.00    -0.776 OA
ATOM     54  H   UNK d   0      15.758  -3.844  13.457  0.00  0.00     0.167 HD
ENDBRANCH  51  53
ENDBRANCH  50  51
ENDBRANCH  49  50
ENDBRANCH  24  49
BRANCH  21  55
ATOM     55  C   UNK d   0      12.770  -1.565  15.618  0.00  0.00     0.151 C 
BRANCH  55  56
ATOM     56  C   UNK d   0      11.642  -0.648  15.840  0.00  0.00     0.143 C 
ATOM     57  O   UNK d   0      11.679   0.557  15.521  0.00  0.00    -0.650 OA
BRANCH  56  58
ATOM     58  O   UNK d   0      10.492  -1.165  16.434  0.00  0.00    -0.776 OA
ATOM     59  H   UNK d   0       9.828  -1.616  15.779  0.00  0.00     0.167 HD
ENDBRANCH  56  58
ENDBRANCH  55  56
ENDBRANCH  21  55
BRANCH  18  60
ATOM     60  C   UNK d   0      10.779  -6.550  15.651  0.00  0.00     0.151 C 
BRANCH  60  61
ATOM     61  C   UNK d   0      12.116  -7.162  15.648  0.00  0.00     0.143 C 
ATOM     62  O   UNK d   0      12.392  -8.344  15.852  0.00  0.00    -0.650 OA
BRANCH  61  63
ATOM     63  O   UNK d   0      13.185  -6.273  15.378  0.00  0.00    -0.776 OA
ATOM     64  H   UNK d   0      13.191  -5.341  15.752  0.00  0.00     0.167 HD
ENDBRANCH  61  63
ENDBRANCH  60  61
ENDBRANCH  18  60
BRANCH  14  65
ATOM     65  C   UNK d   0       9.501  -8.578  13.790  0.00  0.00     0.052 C 
BRANCH  65  66
ATOM     66  C   UNK d   0       8.079  -8.651  14.218  0.00  0.00     0.115 C 
BRANCH  66  67
ATOM     67  C   UNK d   0       7.113  -9.294  13.371  0.00  0.00     0.139 C 
ATOM     68  O   UNK d   0       6.889 -10.549  13.539  0.00  0.00    -0.650 OA
BRANCH  67  69
ATOM     69  O   UNK d   0       6.356  -8.719  12.351  0.00  0.00    -0.776 OA
ATOM     70  H   UNK d   0       5.654  -9.333  11.913  0.00  0.00     0.167 HD
ENDBRANCH  67  69
ENDBRANCH  66  67
ENDBRANCH  65  66
ENDBRANCH  14  65
ENDBRANCH   6   7
ENDBRANCH   5   6
ENDBRANCH   2   5
TORSDOF 28
ENDMDL
MODEL 13
REMARK VINA RESULT:      -8.7     30.033     33.992
REMARK  28 active torsions:
REMARK  status: ('A' for Active; 'I' for Inactive)
REMARK    1  A    between atoms: C_2  and  O_3 
REMARK    2  A    between atoms: C_2  and  C_4 
REMARK    3  A    between atoms: C_4  and  C_5 
REMARK    4  A    between atoms: C_5  and  C_6 
REMARK    5  A    between atoms: C_7  and  C_8 
REMARK    6  A    between atoms: C_8  and  C_9 
REMARK    7  A    between atoms: C_9  and  O_11 
REMARK    8  A    between atoms: C_28  and  C_29 
REMARK    9  A    between atoms: C_29  and  C_30 
REMARK   10  A    between atoms: C_30  and  O_32 
REMARK   11  A    between atoms: C_33  and  C_34 
REMARK   12  A    between atoms: C_34  and  C_35 
REMARK   13  A    between atoms: C_35  and  C_36 
REMARK   14  A    between atoms: C_36  and  O_38 
REMARK   15  A    between atoms: C_39  and  C_40 
REMARK   16  A    between atoms: C_40  and  C_41 
REMARK   17  A    between atoms: C_41  and  C_42 
REMARK   18  A    between atoms: C_42  and  O_44 
REMARK   19  A    between atoms: C_45  and  C_46 
REMARK   20  A    between atoms: C_46  and  C_47 
REMARK   21  A    between atoms: C_47  and  O_49 
REMARK   22  A    between atoms: C_50  and  C_51 
REMARK   23  A    between atoms: C_51  and  C_52 
REMARK   24  A    between atoms: C_52  and  O_54 
REMARK   25  A    between atoms: C_55  and  C_56 
REMARK   26  A    between atoms: C_56  and  C_57 
REMARK   27  A    between atoms: C_57  and  C_58 
REMARK   28  A    between atoms: C_58  and  O_60 
ROOT
ATOM      1  O   UNK d   0      -9.647   2.771  -9.503  0.00  0.00    -0.650 OA
ATOM      2  C   UNK d   0      -9.006   2.192 -10.409  0.00  0.00     0.139 C 
ENDROOT
BRANCH   2   3
ATOM      3  O   UNK d   0      -7.637   2.299 -10.439  0.00  0.00    -0.776 OA
ATOM      4  H   UNK d   0      -7.166   3.144 -10.109  0.00  0.00     0.167 HD
ENDBRANCH   2   3
BRANCH   2   5
ATOM      5  C   UNK d   0      -9.727   1.397 -11.444  0.00  0.00     0.115 C 
BRANCH   5   6
ATOM      6  C   UNK d   0     -11.104   1.962 -11.665  0.00  0.00     0.052 C 
BRANCH   6   7
ATOM      7  C   UNK d   0     -12.183   0.910 -11.583  0.00  0.00    -0.020 A 
ATOM      8  C   UNK d   0     -12.720   0.238 -12.570  0.00  0.00    -0.011 A 
ATOM      9  C   UNK d   0     -13.720  -0.654 -12.009  0.00  0.00     0.067 A 
ATOM     10  C   UNK d   0     -14.606  -1.623 -12.506  0.00  0.00     0.062 C 
ATOM     11  N   UNK d   0     -13.730  -0.456 -10.674  0.00  0.00    -0.248 NA
ATOM     12  C   UNK d   0     -15.306  -2.587 -11.773  0.00  0.00     0.041 A 
ATOM     13  N   UNK d   0     -15.966  -2.504 -10.602  0.00  0.00    -0.355 N 
ATOM     14  C   UNK d   0     -15.328  -3.914 -12.241  0.00  0.00    -0.022 A 
ATOM     15  C   UNK d   0     -16.400  -3.746 -10.312  0.00  0.00     0.042 A 
ATOM     16  H   UNK d   0     -16.139  -1.583 -10.003  0.00  0.00     0.166 HD
ATOM     17  C   UNK d   0     -17.141  -4.219  -9.211  0.00  0.00     0.062 C 
ATOM     18  C   UNK d   0     -16.019  -4.656 -11.316  0.00  0.00    -0.013 A 
ATOM     19  C   UNK d   0     -16.975  -3.946  -7.877  0.00  0.00     0.067 A 
ATOM     20  N   UNK d   0     -16.138  -2.954  -7.563  0.00  0.00    -0.248 NA
ATOM     21  C   UNK d   0     -17.486  -4.486  -6.628  0.00  0.00    -0.011 A 
ATOM     22  C   UNK d   0     -16.063  -2.808  -6.199  0.00  0.00     0.066 A 
ATOM     23  C   UNK d   0     -15.253  -1.783  -5.733  0.00  0.00     0.062 C 
ATOM     24  C   UNK d   0     -16.945  -3.819  -5.650  0.00  0.00    -0.020 A 
ATOM     25  C   UNK d   0     -14.569  -0.816  -6.487  0.00  0.00     0.041 A 
ATOM     26  N   UNK d   0     -13.900  -0.902  -7.643  0.00  0.00    -0.355 N 
ATOM     27  C   UNK d   0     -14.551   0.516  -6.018  0.00  0.00    -0.022 A 
ATOM     28  C   UNK d   0     -13.458   0.333  -7.930  0.00  0.00     0.042 A 
ATOM     29  H   UNK d   0     -13.718  -1.830  -8.238  0.00  0.00     0.166 HD
ATOM     30  C   UNK d   0     -12.712   0.817  -9.016  0.00  0.00     0.062 C 
ATOM     31  C   UNK d   0     -13.851   1.250  -6.926  0.00  0.00    -0.013 A 
ATOM     32  C   UNK d   0     -12.828   0.473 -10.354  0.00  0.00     0.066 A 
BRANCH   8  33
ATOM     33  C   UNK d   0     -12.388   0.354 -14.002  0.00  0.00     0.151 C 
BRANCH  33  34
ATOM     34  C   UNK d   0     -11.941  -0.922 -14.589  0.00  0.00     0.143 C 
ATOM     35  O   UNK d   0     -11.058  -1.600 -14.043  0.00  0.00    -0.650 OA
BRANCH  34  36
ATOM     36  O   UNK d   0     -12.513  -1.364 -15.760  0.00  0.00    -0.776 OA
ATOM     37  H   UNK d   0     -13.324  -1.997 -15.753  0.00  0.00     0.167 HD
ENDBRANCH  34  36
ENDBRANCH  33  34
ENDBRANCH   8  33
BRANCH  31  38
ATOM     38  C   UNK d   0     -13.580   2.734  -6.853  0.00  0.00     0.151 C 
BRANCH  38  39
ATOM     39  C   UNK d   0     -14.668   3.530  -7.382  0.00  0.00     0.143 C 
ATOM     40  O   UNK d   0     -15.202   3.282  -8.477  0.00  0.00    -0.650 OA
BRANCH  39  41
ATOM     41  O   UNK d   0     -15.145   4.615  -6.646  0.00  0.00    -0.776 OA
ATOM     42  H   UNK d   0     -14.518   5.420  -6.552  0.00  0.00     0.167 HD
ENDBRANCH  39  41
ENDBRANCH  38  39
ENDBRANCH  31  38
BRANCH  27  43
ATOM     43  C   UNK d   0     -15.158   1.100  -4.768  0.00  0.00     0.052 C 
BRANCH  43  44
ATOM     44  C   UNK d   0     -14.231   1.082  -3.596  0.00  0.00     0.115 C 
BRANCH  44  45
ATOM     45  C   UNK d   0     -14.071   2.493  -3.159  0.00  0.00     0.139 C 
ATOM     46  O   UNK d   0     -15.108   3.159  -2.916  0.00  0.00    -0.650 OA
BRANCH  45  47
ATOM     47  O   UNK d   0     -12.839   3.093  -3.007  0.00  0.00    -0.776 OA
ATOM     48  H   UNK d   0     -12.006   2.583  -2.672  0.00  0.00     0.167 HD
ENDBRANCH  45  47
ENDBRANCH  44  45
ENDBRANCH  43  44
ENDBRANCH  27  43
BRANCH  24  49
ATOM     49  C   UNK d   0     -17.213  -4.011  -4.215  0.00  0.00     0.052 C 
BRANCH  49  50
ATOM     50  C   UNK d   0     -18.357  -3.136  -3.773  0.00  0.00     0.115 C 
BRANCH  50  51
ATOM     51  C   UNK d   0     -18.257  -2.526  -2.454  0.00  0.00     0.139 C 
ATOM     52  O   UNK d   0     -19.042  -2.807  -1.517  0.00  0.00    -0.650 OA
BRANCH  51  53
ATOM     53  O   UNK d   0     -17.262  -1.594  -2.203  0.00  0.00    -0.776 OA
ATOM     54  H   UNK d   0     -17.389  -0.958  -1.435  0.00  0.00     0.167 HD
ENDBRANCH  51  53
ENDBRANCH  50  51
ENDBRANCH  49  50
ENDBRANCH  24  49
BRANCH  21  55
ATOM     55  C   UNK d   0     -18.464  -5.610  -6.543  0.00  0.00     0.151 C 
BRANCH  55  56
ATOM     56  C   UNK d   0     -17.817  -6.920  -6.717  0.00  0.00     0.143 C 
ATOM     57  O   UNK d   0     -18.441  -7.996  -6.646  0.00  0.00    -0.650 OA
BRANCH  56  58
ATOM     58  O   UNK d   0     -16.447  -6.937  -6.972  0.00  0.00    -0.776 OA
ATOM     59  H   UNK d   0     -15.870  -7.365  -6.225  0.00  0.00     0.167 HD
ENDBRANCH  56  58
ENDBRANCH  55  56
ENDBRANCH  21  55
BRANCH  18  60
ATOM     60  C   UNK d   0     -16.277  -6.139 -11.416  0.00  0.00     0.151 C 
BRANCH  60  61
ATOM     61  C   UNK d   0     -15.143  -6.793 -10.744  0.00  0.00     0.143 C 
ATOM     62  O   UNK d   0     -14.788  -6.644  -9.574  0.00  0.00    -0.650 OA
BRANCH  61  63
ATOM     63  O   UNK d   0     -14.396  -7.684 -11.551  0.00  0.00    -0.776 OA
ATOM     64  H   UNK d   0     -14.852  -8.303 -12.198  0.00  0.00     0.167 HD
ENDBRANCH  61  63
ENDBRANCH  60  61
ENDBRANCH  18  60
BRANCH  14  65
ATOM     65  C   UNK d   0     -14.837  -4.507 -13.530  0.00  0.00     0.052 C 
BRANCH  65  66
ATOM     66  C   UNK d   0     -13.415  -4.177 -13.818  0.00  0.00     0.115 C 
BRANCH  66  67
ATOM     67  C   UNK d   0     -12.410  -5.196 -13.699  0.00  0.00     0.139 C 
ATOM     68  O   UNK d   0     -12.785  -6.405 -13.474  0.00  0.00    -0.650 OA
BRANCH  67  69
ATOM     69  O   UNK d   0     -11.027  -5.046 -13.797  0.00  0.00    -0.776 OA
ATOM     70  H   UNK d   0     -10.680  -4.671 -14.691  0.00  0.00     0.167 HD
ENDBRANCH  67  69
ENDBRANCH  66  67
ENDBRANCH  65  66
ENDBRANCH  14  65
ENDBRANCH   6   7
ENDBRANCH   5   6
ENDBRANCH   2   5
TORSDOF 28
ENDMDL
MODEL 14
REMARK VINA RESULT:      -8.7      2.519      8.058
REMARK  28 active torsions:
REMARK  status: ('A' for Active; 'I' for Inactive)
REMARK    1  A    between atoms: C_2  and  O_3 
REMARK    2  A    between atoms: C_2  and  C_4 
REMARK    3  A    between atoms: C_4  and  C_5 
REMARK    4  A    between atoms: C_5  and  C_6 
REMARK    5  A    between atoms: C_7  and  C_8 
REMARK    6  A    between atoms: C_8  and  C_9 
REMARK    7  A    between atoms: C_9  and  O_11 
REMARK    8  A    between atoms: C_28  and  C_29 
REMARK    9  A    between atoms: C_29  and  C_30 
REMARK   10  A    between atoms: C_30  and  O_32 
REMARK   11  A    between atoms: C_33  and  C_34 
REMARK   12  A    between atoms: C_34  and  C_35 
REMARK   13  A    between atoms: C_35  and  C_36 
REMARK   14  A    between atoms: C_36  and  O_38 
REMARK   15  A    between atoms: C_39  and  C_40 
REMARK   16  A    between atoms: C_40  and  C_41 
REMARK   17  A    between atoms: C_41  and  C_42 
REMARK   18  A    between atoms: C_42  and  O_44 
REMARK   19  A    between atoms: C_45  and  C_46 
REMARK   20  A    between atoms: C_46  and  C_47 
REMARK   21  A    between atoms: C_47  and  O_49 
REMARK   22  A    between atoms: C_50  and  C_51 
REMARK   23  A    between atoms: C_51  and  C_52 
REMARK   24  A    between atoms: C_52  and  O_54 
REMARK   25  A    between atoms: C_55  and  C_56 
REMARK   26  A    between atoms: C_56  and  C_57 
REMARK   27  A    between atoms: C_57  and  C_58 
REMARK   28  A    between atoms: C_58  and  O_60 
ROOT
ATOM      1  O   UNK d   0       5.765  -8.345  10.827  0.00  0.00    -0.650 OA
ATOM      2  C   UNK d   0       6.594  -9.067  10.229  0.00  0.00     0.139 C 
ENDROOT
BRANCH   2   3
ATOM      3  O   UNK d   0       6.981 -10.258  10.794  0.00  0.00    -0.776 OA
ATOM      4  H   UNK d   0       6.706 -11.152  10.381  0.00  0.00     0.167 HD
ENDBRANCH   2   3
BRANCH   2   5
ATOM      5  C   UNK d   0       7.154  -8.633   8.918  0.00  0.00     0.115 C 
BRANCH   5   6
ATOM      6  C   UNK d   0       8.587  -9.075   8.795  0.00  0.00     0.052 C 
BRANCH   6   7
ATOM      7  C   UNK d   0       9.558  -7.921   8.866  0.00  0.00    -0.020 A 
ATOM      8  C   UNK d   0      10.263  -7.410   7.889  0.00  0.00    -0.011 A 
ATOM      9  C   UNK d   0      11.060  -6.324   8.436  0.00  0.00     0.067 A 
ATOM     10  C   UNK d   0      11.978  -5.389   7.933  0.00  0.00     0.062 C 
ATOM     11  N   UNK d   0      10.782  -6.248   9.754  0.00  0.00    -0.248 NA
ATOM     12  C   UNK d   0      12.438  -4.230   8.566  0.00  0.00     0.041 A 
ATOM     13  N   UNK d   0      12.823  -4.006   9.837  0.00  0.00    -0.355 N 
ATOM     14  C   UNK d   0      12.489  -3.029   7.833  0.00  0.00    -0.022 A 
ATOM     15  C   UNK d   0      13.109  -2.694   9.932  0.00  0.00     0.042 A 
ATOM     16  H   UNK d   0      12.909  -4.765  10.645  0.00  0.00     0.166 HD
ATOM     17  C   UNK d   0      13.556  -1.934  11.031  0.00  0.00     0.062 C 
ATOM     18  C   UNK d   0      12.911  -2.048   8.696  0.00  0.00    -0.013 A 
ATOM     19  C   UNK d   0      13.111  -1.950  12.328  0.00  0.00     0.067 A 
ATOM     20  N   UNK d   0      12.283  -2.940  12.672  0.00  0.00    -0.248 NA
ATOM     21  C   UNK d   0      13.297  -1.119  13.506  0.00  0.00    -0.011 A 
ATOM     22  C   UNK d   0      11.913  -2.816  13.988  0.00  0.00     0.066 A 
ATOM     23  C   UNK d   0      11.079  -3.804  14.490  0.00  0.00     0.062 C 
ATOM     24  C   UNK d   0      12.590  -1.629  14.473  0.00  0.00    -0.020 A 
ATOM     25  C   UNK d   0      10.638  -4.968  13.841  0.00  0.00     0.041 A 
ATOM     26  N   UNK d   0      10.241  -5.187  12.582  0.00  0.00    -0.355 N 
ATOM     27  C   UNK d   0      10.591  -6.173  14.576  0.00  0.00    -0.022 A 
ATOM     28  C   UNK d   0       9.947  -6.493  12.487  0.00  0.00     0.042 A 
ATOM     29  H   UNK d   0      10.145  -4.421  11.773  0.00  0.00     0.166 HD
ATOM     30  C   UNK d   0       9.492  -7.260  11.403  0.00  0.00     0.062 C 
ATOM     31  C   UNK d   0      10.156  -7.143  13.726  0.00  0.00    -0.013 A 
ATOM     32  C   UNK d   0       9.885  -7.182  10.076  0.00  0.00     0.066 A 
BRANCH   8  33
ATOM     33  C   UNK d   0      10.269  -7.845   6.480  0.00  0.00     0.151 C 
BRANCH  33  34
ATOM     34  C   UNK d   0      11.622  -7.876   5.897  0.00  0.00     0.143 C 
ATOM     35  O   UNK d   0      11.876  -7.272   4.845  0.00  0.00    -0.650 OA
BRANCH  34  36
ATOM     36  O   UNK d   0      12.615  -8.585   6.533  0.00  0.00    -0.776 OA
ATOM     37  H   UNK d   0      13.015  -8.264   7.425  0.00  0.00     0.167 HD
ENDBRANCH  34  36
ENDBRANCH  33  34
ENDBRANCH   8  33
BRANCH  31  38
ATOM     38  C   UNK d   0       9.962  -8.603  14.064  0.00  0.00     0.151 C 
BRANCH  38  39
ATOM     39  C   UNK d   0       8.566  -8.982  14.135  0.00  0.00     0.143 C 
ATOM     40  O   UNK d   0       7.694  -8.225  14.596  0.00  0.00    -0.650 OA
BRANCH  39  41
ATOM     41  O   UNK d   0       8.172 -10.238  13.674  0.00  0.00    -0.776 OA
ATOM     42  H   UNK d   0       7.463 -10.731  14.226  0.00  0.00     0.167 HD
ENDBRANCH  39  41
ENDBRANCH  38  39
ENDBRANCH  31  38
BRANCH  27  43
ATOM     43  C   UNK d   0      10.936  -6.428  16.022  0.00  0.00     0.052 C 
BRANCH  43  44
ATOM     44  C   UNK d   0       9.791  -6.191  16.953  0.00  0.00     0.115 C 
BRANCH  44  45
ATOM     45  C   UNK d   0       9.429  -7.514  17.526  0.00  0.00     0.139 C 
ATOM     46  O   UNK d   0      10.324  -8.168  18.115  0.00  0.00    -0.650 OA
BRANCH  45  47
ATOM     47  O   UNK d   0       8.159  -8.043  17.440  0.00  0.00    -0.776 OA
ATOM     48  H   UNK d   0       7.963  -9.050  17.559  0.00  0.00     0.167 HD
ENDBRANCH  45  47
ENDBRANCH  44  45
ENDBRANCH  43  44
ENDBRANCH  27  43
BRANCH  24  49
ATOM     49  C   UNK d   0      12.517  -1.125  15.855  0.00  0.00     0.052 C 
BRANCH  49  50
ATOM     50  C   UNK d   0      11.093  -0.788  16.217  0.00  0.00     0.115 C 
BRANCH  50  51
ATOM     51  C   UNK d   0      10.683   0.602  16.077  0.00  0.00     0.139 C 
ATOM     52  O   UNK d   0      10.537   1.367  17.060  0.00  0.00    -0.650 OA
BRANCH  51  53
ATOM     53  O   UNK d   0      10.436   1.121  14.815  0.00  0.00    -0.776 OA
ATOM     54  H   UNK d   0      10.336   2.117  14.721  0.00  0.00     0.167 HD
ENDBRANCH  51  53
ENDBRANCH  50  51
ENDBRANCH  49  50
ENDBRANCH  24  49
BRANCH  21  55
ATOM     55  C   UNK d   0      14.166   0.094  13.544  0.00  0.00     0.151 C 
BRANCH  55  56
ATOM     56  C   UNK d   0      13.652   1.167  12.679  0.00  0.00     0.143 C 
ATOM     57  O   UNK d   0      14.215   1.508  11.620  0.00  0.00    -0.650 OA
BRANCH  56  58
ATOM     58  O   UNK d   0      12.485   1.819  13.075  0.00  0.00    -0.776 OA
ATOM     59  H   UNK d   0      11.910   2.194  12.300  0.00  0.00     0.167 HD
ENDBRANCH  56  58
ENDBRANCH  55  56
ENDBRANCH  21  55
BRANCH  18  60
ATOM     60  C   UNK d   0      13.100  -0.597   8.329  0.00  0.00     0.151 C 
BRANCH  60  61
ATOM     61  C   UNK d   0      14.552  -0.396   8.209  0.00  0.00     0.143 C 
ATOM     62  O   UNK d   0      15.335  -1.040   7.510  0.00  0.00    -0.650 OA
BRANCH  61  63
ATOM     63  O   UNK d   0      15.081   0.658   8.991  0.00  0.00    -0.776 OA
ATOM     64  H   UNK d   0      14.664   1.572   8.980  0.00  0.00     0.167 HD
ENDBRANCH  61  63
ENDBRANCH  60  61
ENDBRANCH  18  60
BRANCH  14  65
ATOM     65  C   UNK d   0      12.266  -2.762   6.372  0.00  0.00     0.052 C 
BRANCH  65  66
ATOM     66  C   UNK d   0      13.401  -3.206   5.519  0.00  0.00     0.115 C 
BRANCH  66  67
ATOM     67  C   UNK d   0      13.163  -3.571   4.151  0.00  0.00     0.139 C 
ATOM     68  O   UNK d   0      13.681  -2.846   3.224  0.00  0.00    -0.650 OA
BRANCH  67  69
ATOM     69  O   UNK d   0      12.416  -4.647   3.672  0.00  0.00    -0.776 OA
ATOM     70  H   UNK d   0      11.415  -4.640   3.913  0.00  0.00     0.167 HD
ENDBRANCH  67  69
ENDBRANCH  66  67
ENDBRANCH  65  66
ENDBRANCH  14  65
ENDBRANCH   6   7
ENDBRANCH   5   6
ENDBRANCH   2   5
TORSDOF 28
ENDMDL
MODEL 15
REMARK VINA RESULT:      -8.6      2.370      8.635
REMARK  28 active torsions:
REMARK  status: ('A' for Active; 'I' for Inactive)
REMARK    1  A    between atoms: C_2  and  O_3 
REMARK    2  A    between atoms: C_2  and  C_4 
REMARK    3  A    between atoms: C_4  and  C_5 
REMARK    4  A    between atoms: C_5  and  C_6 
REMARK    5  A    between atoms: C_7  and  C_8 
REMARK    6  A    between atoms: C_8  and  C_9 
REMARK    7  A    between atoms: C_9  and  O_11 
REMARK    8  A    between atoms: C_28  and  C_29 
REMARK    9  A    between atoms: C_29  and  C_30 
REMARK   10  A    between atoms: C_30  and  O_32 
REMARK   11  A    between atoms: C_33  and  C_34 
REMARK   12  A    between atoms: C_34  and  C_35 
REMARK   13  A    between atoms: C_35  and  C_36 
REMARK   14  A    between atoms: C_36  and  O_38 
REMARK   15  A    between atoms: C_39  and  C_40 
REMARK   16  A    between atoms: C_40  and  C_41 
REMARK   17  A    between atoms: C_41  and  C_42 
REMARK   18  A    between atoms: C_42  and  O_44 
REMARK   19  A    between atoms: C_45  and  C_46 
REMARK   20  A    between atoms: C_46  and  C_47 
REMARK   21  A    between atoms: C_47  and  O_49 
REMARK   22  A    between atoms: C_50  and  C_51 
REMARK   23  A    between atoms: C_51  and  C_52 
REMARK   24  A    between atoms: C_52  and  O_54 
REMARK   25  A    between atoms: C_55  and  C_56 
REMARK   26  A    between atoms: C_56  and  C_57 
REMARK   27  A    between atoms: C_57  and  C_58 
REMARK   28  A    between atoms: C_58  and  O_60 
ROOT
ATOM      1  O   UNK d   0      10.732  -1.447   4.187  0.00  0.00    -0.650 OA
ATOM      2  C   UNK d   0      11.877  -1.916   4.374  0.00  0.00     0.139 C 
ENDROOT
BRANCH   2   3
ATOM      3  O   UNK d   0      12.175  -3.173   3.904  0.00  0.00    -0.776 OA
ATOM      4  H   UNK d   0      11.468  -3.741   3.433  0.00  0.00     0.167 HD
ENDBRANCH   2   3
BRANCH   2   5
ATOM      5  C   UNK d   0      12.904  -1.117   5.100  0.00  0.00     0.115 C 
BRANCH   5   6
ATOM      6  C   UNK d   0      13.981  -2.021   5.635  0.00  0.00     0.052 C 
BRANCH   6   7
ATOM      7  C   UNK d   0      13.913  -2.183   7.134  0.00  0.00    -0.020 A 
ATOM      8  C   UNK d   0      14.628  -1.562   8.038  0.00  0.00    -0.011 A 
ATOM      9  C   UNK d   0      14.217  -2.051   9.343  0.00  0.00     0.067 A 
ATOM     10  C   UNK d   0      14.562  -1.787  10.678  0.00  0.00     0.062 C 
ATOM     11  N   UNK d   0      13.251  -2.971   9.141  0.00  0.00    -0.248 NA
ATOM     12  C   UNK d   0      13.855  -2.160  11.826  0.00  0.00     0.041 A 
ATOM     13  N   UNK d   0      13.244  -3.315  12.154  0.00  0.00    -0.355 N 
ATOM     14  C   UNK d   0      13.653  -1.208  12.841  0.00  0.00    -0.022 A 
ATOM     15  C   UNK d   0      12.654  -3.117  13.348  0.00  0.00     0.042 A 
ATOM     16  H   UNK d   0      13.246  -4.257  11.563  0.00  0.00     0.166 HD
ATOM     17  C   UNK d   0      11.888  -3.991  14.145  0.00  0.00     0.062 C 
ATOM     18  C   UNK d   0      12.888  -1.807  13.811  0.00  0.00    -0.013 A 
ATOM     19  C   UNK d   0      10.881  -4.843  13.768  0.00  0.00     0.067 A 
ATOM     20  N   UNK d   0      10.712  -5.037  12.458  0.00  0.00    -0.248 NA
ATOM     21  C   UNK d   0       9.872  -5.634  14.451  0.00  0.00    -0.011 A 
ATOM     22  C   UNK d   0       9.664  -5.896  12.234  0.00  0.00     0.066 A 
ATOM     23  C   UNK d   0       9.401  -6.216  10.911  0.00  0.00     0.062 C 
ATOM     24  C   UNK d   0       9.160  -6.245  13.548  0.00  0.00    -0.020 A 
ATOM     25  C   UNK d   0      10.131  -5.841   9.773  0.00  0.00     0.041 A 
ATOM     26  N   UNK d   0      10.726  -4.689   9.440  0.00  0.00    -0.355 N 
ATOM     27  C   UNK d   0      10.337  -6.799   8.756  0.00  0.00    -0.022 A 
ATOM     28  C   UNK d   0      11.308  -4.881   8.245  0.00  0.00     0.042 A 
ATOM     29  H   UNK d   0      10.713  -3.740  10.030  0.00  0.00     0.166 HD
ATOM     30  C   UNK d   0      12.064  -4.017   7.438  0.00  0.00     0.062 C 
ATOM     31  C   UNK d   0      11.081  -6.200   7.786  0.00  0.00    -0.013 A 
ATOM     32  C   UNK d   0      13.021  -3.097   7.833  0.00  0.00     0.066 A 
BRANCH   8  33
ATOM     33  C   UNK d   0      15.673  -0.550   7.797  0.00  0.00     0.151 C 
BRANCH  33  34
ATOM     34  C   UNK d   0      15.162   0.830   7.888  0.00  0.00     0.143 C 
ATOM     35  O   UNK d   0      14.321   1.251   7.081  0.00  0.00    -0.650 OA
BRANCH  34  36
ATOM     36  O   UNK d   0      15.628   1.659   8.882  0.00  0.00    -0.776 OA
ATOM     37  H   UNK d   0      16.569   1.537   9.281  0.00  0.00     0.167 HD
ENDBRANCH  34  36
ENDBRANCH  33  34
ENDBRANCH   8  33
BRANCH  31  38
ATOM     38  C   UNK d   0      11.560  -6.843   6.506  0.00  0.00     0.151 C 
BRANCH  38  39
ATOM     39  C   UNK d   0      10.705  -6.548   5.375  0.00  0.00     0.143 C 
ATOM     40  O   UNK d   0      10.857  -5.532   4.674  0.00  0.00    -0.650 OA
BRANCH  39  41
ATOM     41  O   UNK d   0       9.672  -7.425   5.049  0.00  0.00    -0.776 OA
ATOM     42  H   UNK d   0       9.116  -7.794   5.827  0.00  0.00     0.167 HD
ENDBRANCH  39  41
ENDBRANCH  38  39
ENDBRANCH  31  38
BRANCH  27  43
ATOM     43  C   UNK d   0       9.861  -8.228   8.675  0.00  0.00     0.052 C 
BRANCH  43  44
ATOM     44  C   UNK d   0       8.502  -8.364   8.068  0.00  0.00     0.115 C 
BRANCH  44  45
ATOM     45  C   UNK d   0       7.672  -9.113   9.047  0.00  0.00     0.139 C 
ATOM     46  O   UNK d   0       6.861  -8.465   9.753  0.00  0.00    -0.650 OA
BRANCH  45  47
ATOM     47  O   UNK d   0       7.754 -10.480   9.205  0.00  0.00    -0.776 OA
ATOM     48  H   UNK d   0       8.377 -11.073   8.634  0.00  0.00     0.167 HD
ENDBRANCH  45  47
ENDBRANCH  44  45
ENDBRANCH  43  44
ENDBRANCH  27  43
BRANCH  24  49
ATOM     49  C   UNK d   0       8.052  -7.181  13.803  0.00  0.00     0.052 C 
BRANCH  49  50
ATOM     50  C   UNK d   0       8.584  -8.573  14.031  0.00  0.00     0.115 C 
BRANCH  50  51
ATOM     51  C   UNK d   0       7.914  -9.383  15.039  0.00  0.00     0.139 C 
ATOM     52  O   UNK d   0       7.890  -9.069  16.253  0.00  0.00    -0.650 OA
BRANCH  51  53
ATOM     53  O   UNK d   0       7.273 -10.554  14.664  0.00  0.00    -0.776 OA
ATOM     54  H   UNK d   0       7.458 -11.388  15.194  0.00  0.00     0.167 HD
ENDBRANCH  51  53
ENDBRANCH  50  51
ENDBRANCH  49  50
ENDBRANCH  24  49
BRANCH  21  55
ATOM     55  C   UNK d   0       9.726  -5.700  15.936  0.00  0.00     0.151 C 
BRANCH  55  56
ATOM     56  C   UNK d   0      10.554  -6.765  16.524  0.00  0.00     0.143 C 
ATOM     57  O   UNK d   0      11.693  -7.046  16.100  0.00  0.00    -0.650 OA
BRANCH  56  58
ATOM     58  O   UNK d   0      10.027  -7.477  17.599  0.00  0.00    -0.776 OA
ATOM     59  H   UNK d   0      10.506  -8.373  17.805  0.00  0.00     0.167 HD
ENDBRANCH  56  58
ENDBRANCH  55  56
ENDBRANCH  21  55
BRANCH  18  60
ATOM     60  C   UNK d   0      12.426  -1.141  15.083  0.00  0.00     0.151 C 
BRANCH  60  61
ATOM     61  C   UNK d   0      11.000  -0.840  14.886  0.00  0.00     0.143 C 
ATOM     62  O   UNK d   0      10.513  -0.047  14.080  0.00  0.00    -0.650 OA
BRANCH  61  63
ATOM     63  O   UNK d   0      10.113  -1.554  15.727  0.00  0.00    -0.776 OA
ATOM     64  H   UNK d   0       9.289  -1.994  15.357  0.00  0.00     0.167 HD
ENDBRANCH  61  63
ENDBRANCH  60  61
ENDBRANCH  18  60
BRANCH  14  65
ATOM     65  C   UNK d   0      14.206   0.179  13.009  0.00  0.00     0.052 C 
BRANCH  65  66
ATOM     66  C   UNK d   0      13.263   1.239  12.561  0.00  0.00     0.115 C 
BRANCH  66  67
ATOM     67  C   UNK d   0      12.456   1.026  11.392  0.00  0.00     0.139 C 
ATOM     68  O   UNK d   0      12.898   1.440  10.258  0.00  0.00    -0.650 OA
BRANCH  67  69
ATOM     69  O   UNK d   0      11.209   0.408  11.318  0.00  0.00    -0.776 OA
ATOM     70  H   UNK d   0      11.133  -0.506  11.788  0.00  0.00     0.167 HD
ENDBRANCH  67  69
ENDBRANCH  66  67
ENDBRANCH  65  66
ENDBRANCH  14  65
ENDBRANCH   6   7
ENDBRANCH   5   6
ENDBRANCH   2   5
TORSDOF 28
ENDMDL
MODEL 16
REMARK VINA RESULT:      -8.6     30.232     34.436
REMARK  28 active torsions:
REMARK  status: ('A' for Active; 'I' for Inactive)
REMARK    1  A    between atoms: C_2  and  O_3 
REMARK    2  A    between atoms: C_2  and  C_4 
REMARK    3  A    between atoms: C_4  and  C_5 
REMARK    4  A    between atoms: C_5  and  C_6 
REMARK    5  A    between atoms: C_7  and  C_8 
REMARK    6  A    between atoms: C_8  and  C_9 
REMARK    7  A    between atoms: C_9  and  O_11 
REMARK    8  A    between atoms: C_28  and  C_29 
REMARK    9  A    between atoms: C_29  and  C_30 
REMARK   10  A    between atoms: C_30  and  O_32 
REMARK   11  A    between atoms: C_33  and  C_34 
REMARK   12  A    between atoms: C_34  and  C_35 
REMARK   13  A    between atoms: C_35  and  C_36 
REMARK   14  A    between atoms: C_36  and  O_38 
REMARK   15  A    between atoms: C_39  and  C_40 
REMARK   16  A    between atoms: C_40  and  C_41 
REMARK   17  A    between atoms: C_41  and  C_42 
REMARK   18  A    between atoms: C_42  and  O_44 
REMARK   19  A    between atoms: C_45  and  C_46 
REMARK   20  A    between atoms: C_46  and  C_47 
REMARK   21  A    between atoms: C_47  and  O_49 
REMARK   22  A    between atoms: C_50  and  C_51 
REMARK   23  A    between atoms: C_51  and  C_52 
REMARK   24  A    between atoms: C_52  and  O_54 
REMARK   25  A    between atoms: C_55  and  C_56 
REMARK   26  A    between atoms: C_56  and  C_57 
REMARK   27  A    between atoms: C_57  and  C_58 
REMARK   28  A    between atoms: C_58  and  O_60 
ROOT
ATOM      1  O   UNK d   0      -7.881   2.351 -10.695  0.00  0.00    -0.650 OA
ATOM      2  C   UNK d   0      -8.864   2.489  -9.933  0.00  0.00     0.139 C 
ENDROOT
BRANCH   2   3
ATOM      3  O   UNK d   0      -9.167   3.738  -9.444  0.00  0.00    -0.776 OA
ATOM      4  H   UNK d   0      -9.151   4.560 -10.051  0.00  0.00     0.167 HD
ENDBRANCH   2   3
BRANCH   2   5
ATOM      5  C   UNK d   0      -9.695   1.309  -9.562  0.00  0.00     0.115 C 
BRANCH   5   6
ATOM      6  C   UNK d   0     -11.134   1.720  -9.401  0.00  0.00     0.052 C 
BRANCH   6   7
ATOM      7  C   UNK d   0     -12.097   0.667  -9.894  0.00  0.00    -0.020 A 
ATOM      8  C   UNK d   0     -12.423   0.401 -11.133  0.00  0.00    -0.011 A 
ATOM      9  C   UNK d   0     -13.390  -0.685 -11.115  0.00  0.00     0.067 A 
ATOM     10  C   UNK d   0     -14.094  -1.429 -12.075  0.00  0.00     0.062 C 
ATOM     11  N   UNK d   0     -13.599  -1.014  -9.823  0.00  0.00    -0.248 NA
ATOM     12  C   UNK d   0     -14.779  -2.633 -11.878  0.00  0.00     0.041 A 
ATOM     13  N   UNK d   0     -15.595  -3.036 -10.885  0.00  0.00    -0.355 N 
ATOM     14  C   UNK d   0     -14.599  -3.677 -12.802  0.00  0.00    -0.022 A 
ATOM     15  C   UNK d   0     -15.930  -4.313 -11.152  0.00  0.00     0.042 A 
ATOM     16  H   UNK d   0     -15.942  -2.425 -10.023  0.00  0.00     0.166 HD
ATOM     17  C   UNK d   0     -16.757  -5.207 -10.443  0.00  0.00     0.062 C 
ATOM     18  C   UNK d   0     -15.324  -4.750 -12.346  0.00  0.00    -0.013 A 
ATOM     19  C   UNK d   0     -16.800  -5.458  -9.096  0.00  0.00     0.067 A 
ATOM     20  N   UNK d   0     -16.122  -4.625  -8.303  0.00  0.00    -0.248 NA
ATOM     21  C   UNK d   0     -17.413  -6.460  -8.239  0.00  0.00    -0.011 A 
ATOM     22  C   UNK d   0     -16.245  -5.009  -6.990  0.00  0.00     0.066 A 
ATOM     23  C   UNK d   0     -15.617  -4.205  -6.051  0.00  0.00     0.062 C 
ATOM     24  C   UNK d   0     -17.081  -6.194  -7.009  0.00  0.00    -0.020 A 
ATOM     25  C   UNK d   0     -14.945  -2.992  -6.268  0.00  0.00     0.041 A 
ATOM     26  N   UNK d   0     -14.123  -2.596  -7.247  0.00  0.00    -0.355 N 
ATOM     27  C   UNK d   0     -15.130  -1.942  -5.342  0.00  0.00    -0.022 A 
ATOM     28  C   UNK d   0     -13.780  -1.326  -6.978  0.00  0.00     0.042 A 
ATOM     29  H   UNK d   0     -13.766  -3.215  -8.106  0.00  0.00     0.166 HD
ATOM     30  C   UNK d   0     -12.951  -0.428  -7.669  0.00  0.00     0.062 C 
ATOM     31  C   UNK d   0     -14.397  -0.884  -5.784  0.00  0.00    -0.013 A 
ATOM     32  C   UNK d   0     -12.850  -0.238  -9.038  0.00  0.00     0.066 A 
BRANCH   8  33
ATOM     33  C   UNK d   0     -11.918   1.072 -12.345  0.00  0.00     0.151 C 
BRANCH  33  34
ATOM     34  C   UNK d   0     -10.828   0.326 -12.998  0.00  0.00     0.143 C 
ATOM     35  O   UNK d   0     -11.055  -0.730 -13.605  0.00  0.00    -0.650 OA
BRANCH  34  36
ATOM     36  O   UNK d   0      -9.542   0.810 -12.930  0.00  0.00    -0.776 OA
ATOM     37  H   UNK d   0      -8.742   0.183 -12.771  0.00  0.00     0.167 HD
ENDBRANCH  34  36
ENDBRANCH  33  34
ENDBRANCH   8  33
BRANCH  31  38
ATOM     38  C   UNK d   0     -14.298   0.470  -5.122  0.00  0.00     0.151 C 
BRANCH  38  39
ATOM     39  C   UNK d   0     -14.988   1.507  -5.858  0.00  0.00     0.143 C 
ATOM     40  O   UNK d   0     -14.660   2.705  -5.787  0.00  0.00    -0.650 OA
BRANCH  39  41
ATOM     41  O   UNK d   0     -16.061   1.166  -6.681  0.00  0.00    -0.776 OA
ATOM     42  H   UNK d   0     -15.844   0.967  -7.663  0.00  0.00     0.167 HD
ENDBRANCH  39  41
ENDBRANCH  38  39
ENDBRANCH  31  38
BRANCH  27  43
ATOM     43  C   UNK d   0     -15.958  -1.911  -4.082  0.00  0.00     0.052 C 
BRANCH  43  44
ATOM     44  C   UNK d   0     -17.367  -1.471  -4.310  0.00  0.00     0.115 C 
BRANCH  44  45
ATOM     45  C   UNK d   0     -17.667  -0.450  -3.272  0.00  0.00     0.139 C 
ATOM     46  O   UNK d   0     -18.017  -0.849  -2.134  0.00  0.00    -0.650 OA
BRANCH  45  47
ATOM     47  O   UNK d   0     -17.570   0.905  -3.506  0.00  0.00    -0.776 OA
ATOM     48  H   UNK d   0     -17.271   1.296  -4.414  0.00  0.00     0.167 HD
ENDBRANCH  45  47
ENDBRANCH  44  45
ENDBRANCH  43  44
ENDBRANCH  27  43
BRANCH  24  49
ATOM     49  C   UNK d   0     -17.515  -6.935  -5.812  0.00  0.00     0.052 C 
BRANCH  49  50
ATOM     50  C   UNK d   0     -16.534  -8.032  -5.489  0.00  0.00     0.115 C 
BRANCH  50  51
ATOM     51  C   UNK d   0     -17.076  -9.367  -5.276  0.00  0.00     0.139 C 
ATOM     52  O   UNK d   0     -16.428 -10.277  -4.705  0.00  0.00    -0.650 OA
BRANCH  51  53
ATOM     53  O   UNK d   0     -18.356  -9.667  -5.715  0.00  0.00    -0.776 OA
ATOM     54  H   UNK d   0     -19.077  -8.980  -5.582  0.00  0.00     0.167 HD
ENDBRANCH  51  53
ENDBRANCH  50  51
ENDBRANCH  49  50
ENDBRANCH  24  49
BRANCH  21  55
ATOM     55  C   UNK d   0     -18.270  -7.575  -8.739  0.00  0.00     0.151 C 
BRANCH  55  56
ATOM     56  C   UNK d   0     -17.498  -8.810  -8.953  0.00  0.00     0.143 C 
ATOM     57  O   UNK d   0     -17.969  -9.945  -8.744  0.00  0.00    -0.650 OA
BRANCH  56  58
ATOM     58  O   UNK d   0     -16.188  -8.685  -9.411  0.00  0.00    -0.776 OA
ATOM     59  H   UNK d   0     -16.092  -8.261 -10.352  0.00  0.00     0.167 HD
ENDBRANCH  56  58
ENDBRANCH  55  56
ENDBRANCH  21  55
BRANCH  18  60
ATOM     60  C   UNK d   0     -15.408  -6.091 -13.031  0.00  0.00     0.151 C 
BRANCH  60  61
ATOM     61  C   UNK d   0     -14.305  -6.894 -12.482  0.00  0.00     0.143 C 
ATOM     62  O   UNK d   0     -14.323  -7.581 -11.460  0.00  0.00    -0.650 OA
BRANCH  61  63
ATOM     63  O   UNK d   0     -13.103  -6.857 -13.230  0.00  0.00    -0.776 OA
ATOM     64  H   UNK d   0     -13.036  -6.321 -14.077  0.00  0.00     0.167 HD
ENDBRANCH  61  63
ENDBRANCH  60  61
ENDBRANCH  18  60
BRANCH  14  65
ATOM     65  C   UNK d   0     -13.880  -3.707 -14.121  0.00  0.00     0.052 C 
BRANCH  65  66
ATOM     66  C   UNK d   0     -14.607  -2.981 -15.196  0.00  0.00     0.115 C 
BRANCH  66  67
ATOM     67  C   UNK d   0     -14.149  -1.686 -15.616  0.00  0.00     0.139 C 
ATOM     68  O   UNK d   0     -15.015  -0.748 -15.768  0.00  0.00    -0.650 OA
BRANCH  67  69
ATOM     69  O   UNK d   0     -12.840  -1.293 -15.894  0.00  0.00    -0.776 OA
ATOM     70  H   UNK d   0     -12.563  -0.370 -15.529  0.00  0.00     0.167 HD
ENDBRANCH  67  69
ENDBRANCH  66  67
ENDBRANCH  65  66
ENDBRANCH  14  65
ENDBRANCH   6   7
ENDBRANCH   5   6
ENDBRANCH   2   5
TORSDOF 28
ENDMDL
MODEL 17
REMARK VINA RESULT:      -8.6     30.546     34.225
REMARK  28 active torsions:
REMARK  status: ('A' for Active; 'I' for Inactive)
REMARK    1  A    between atoms: C_2  and  O_3 
REMARK    2  A    between atoms: C_2  and  C_4 
REMARK    3  A    between atoms: C_4  and  C_5 
REMARK    4  A    between atoms: C_5  and  C_6 
REMARK    5  A    between atoms: C_7  and  C_8 
REMARK    6  A    between atoms: C_8  and  C_9 
REMARK    7  A    between atoms: C_9  and  O_11 
REMARK    8  A    between atoms: C_28  and  C_29 
REMARK    9  A    between atoms: C_29  and  C_30 
REMARK   10  A    between atoms: C_30  and  O_32 
REMARK   11  A    between atoms: C_33  and  C_34 
REMARK   12  A    between atoms: C_34  and  C_35 
REMARK   13  A    between atoms: C_35  and  C_36 
REMARK   14  A    between atoms: C_36  and  O_38 
REMARK   15  A    between atoms: C_39  and  C_40 
REMARK   16  A    between atoms: C_40  and  C_41 
REMARK   17  A    between atoms: C_41  and  C_42 
REMARK   18  A    between atoms: C_42  and  O_44 
REMARK   19  A    between atoms: C_45  and  C_46 
REMARK   20  A    between atoms: C_46  and  C_47 
REMARK   21  A    between atoms: C_47  and  O_49 
REMARK   22  A    between atoms: C_50  and  C_51 
REMARK   23  A    between atoms: C_51  and  C_52 
REMARK   24  A    between atoms: C_52  and  O_54 
REMARK   25  A    between atoms: C_55  and  C_56 
REMARK   26  A    between atoms: C_56  and  C_57 
REMARK   27  A    between atoms: C_57  and  C_58 
REMARK   28  A    between atoms: C_58  and  O_60 
ROOT
ATOM      1  O   UNK d   0     -16.913  -0.503  -1.254  0.00  0.00    -0.650 OA
ATOM      2  C   UNK d   0     -17.737  -0.310  -2.176  0.00  0.00     0.139 C 
ENDROOT
BRANCH   2   3
ATOM      3  O   UNK d   0     -19.038  -0.722  -2.014  0.00  0.00    -0.776 OA
ATOM      4  H   UNK d   0     -19.782  -0.052  -1.805  0.00  0.00     0.167 HD
ENDBRANCH   2   3
BRANCH   2   5
ATOM      5  C   UNK d   0     -17.307   0.359  -3.437  0.00  0.00     0.115 C 
BRANCH   5   6
ATOM      6  C   UNK d   0     -15.829   0.638  -3.396  0.00  0.00     0.052 C 
BRANCH   6   7
ATOM      7  C   UNK d   0     -15.224   0.765  -4.774  0.00  0.00    -0.020 A 
ATOM      8  C   UNK d   0     -14.405   1.691  -5.204  0.00  0.00    -0.011 A 
ATOM      9  C   UNK d   0     -14.101   1.404  -6.596  0.00  0.00     0.067 A 
ATOM     10  C   UNK d   0     -13.299   1.976  -7.596  0.00  0.00     0.062 C 
ATOM     11  N   UNK d   0     -14.782   0.288  -6.933  0.00  0.00    -0.248 NA
ATOM     12  C   UNK d   0     -12.913   1.395  -8.808  0.00  0.00     0.041 A 
ATOM     13  N   UNK d   0     -13.608   0.668  -9.704  0.00  0.00    -0.355 N 
ATOM     14  C   UNK d   0     -11.569   1.492  -9.212  0.00  0.00    -0.022 A 
ATOM     15  C   UNK d   0     -12.738   0.296 -10.662  0.00  0.00     0.042 A 
ATOM     16  H   UNK d   0     -14.696   0.440  -9.670  0.00  0.00     0.166 HD
ATOM     17  C   UNK d   0     -12.936  -0.471 -11.828  0.00  0.00     0.062 C 
ATOM     18  C   UNK d   0     -11.449   0.794 -10.388  0.00  0.00    -0.013 A 
ATOM     19  C   UNK d   0     -13.634  -1.641 -11.982  0.00  0.00     0.067 A 
ATOM     20  N   UNK d   0     -14.401  -2.027 -10.959  0.00  0.00    -0.248 NA
ATOM     21  C   UNK d   0     -13.766  -2.650 -13.020  0.00  0.00    -0.011 A 
ATOM     22  C   UNK d   0     -15.023  -3.216 -11.252  0.00  0.00     0.066 A 
ATOM     23  C   UNK d   0     -15.884  -3.715 -10.286  0.00  0.00     0.062 C 
ATOM     24  C   UNK d   0     -14.577  -3.571 -12.585  0.00  0.00    -0.020 A 
ATOM     25  C   UNK d   0     -16.269  -3.109  -9.080  0.00  0.00     0.041 A 
ATOM     26  N   UNK d   0     -15.575  -2.400  -8.182  0.00  0.00    -0.355 N 
ATOM     27  C   UNK d   0     -17.619  -3.204  -8.678  0.00  0.00    -0.022 A 
ATOM     28  C   UNK d   0     -16.438  -2.035  -7.221  0.00  0.00     0.042 A 
ATOM     29  H   UNK d   0     -14.479  -2.180  -8.212  0.00  0.00     0.166 HD
ATOM     30  C   UNK d   0     -16.253  -1.281  -6.052  0.00  0.00     0.062 C 
ATOM     31  C   UNK d   0     -17.735  -2.526  -7.503  0.00  0.00    -0.013 A 
ATOM     32  C   UNK d   0     -15.477  -0.146  -5.881  0.00  0.00     0.066 A 
BRANCH   8  33
ATOM     33  C   UNK d   0     -13.878   2.832  -4.434  0.00  0.00     0.151 C 
BRANCH  33  34
ATOM     34  C   UNK d   0     -13.739   4.054  -5.248  0.00  0.00     0.143 C 
ATOM     35  O   UNK d   0     -14.730   4.590  -5.764  0.00  0.00    -0.650 OA
BRANCH  34  36
ATOM     36  O   UNK d   0     -12.492   4.602  -5.435  0.00  0.00    -0.776 OA
ATOM     37  H   UNK d   0     -11.696   4.336  -4.839  0.00  0.00     0.167 HD
ENDBRANCH  34  36
ENDBRANCH  33  34
ENDBRANCH   8  33
BRANCH  31  38
ATOM     38  C   UNK d   0     -19.002  -2.344  -6.701  0.00  0.00     0.151 C 
BRANCH  38  39
ATOM     39  C   UNK d   0     -19.670  -1.091  -6.984  0.00  0.00     0.143 C 
ATOM     40  O   UNK d   0     -19.292  -0.011  -6.497  0.00  0.00    -0.650 OA
BRANCH  39  41
ATOM     41  O   UNK d   0     -20.778  -1.080  -7.831  0.00  0.00    -0.776 OA
ATOM     42  H   UNK d   0     -21.570  -0.495  -7.547  0.00  0.00     0.167 HD
ENDBRANCH  39  41
ENDBRANCH  38  39
ENDBRANCH  31  38
BRANCH  27  43
ATOM     43  C   UNK d   0     -18.773  -3.901  -9.353  0.00  0.00     0.052 C 
BRANCH  43  44
ATOM     44  C   UNK d   0     -18.803  -3.696 -10.833  0.00  0.00     0.115 C 
BRANCH  44  45
ATOM     45  C   UNK d   0     -19.001  -2.241 -11.056  0.00  0.00     0.139 C 
ATOM     46  O   UNK d   0     -18.244  -1.659 -11.872  0.00  0.00    -0.650 OA
BRANCH  45  47
ATOM     47  O   UNK d   0     -19.978  -1.512 -10.413  0.00  0.00    -0.776 OA
ATOM     48  H   UNK d   0     -20.733  -1.951  -9.862  0.00  0.00     0.167 HD
ENDBRANCH  45  47
ENDBRANCH  44  45
ENDBRANCH  43  44
ENDBRANCH  27  43
BRANCH  24  49
ATOM     49  C   UNK d   0     -15.020  -4.760 -13.331  0.00  0.00     0.052 C 
BRANCH  49  50
ATOM     50  C   UNK d   0     -14.401  -6.005 -12.749  0.00  0.00     0.115 C 
BRANCH  50  51
ATOM     51  C   UNK d   0     -13.292  -6.601 -13.482  0.00  0.00     0.139 C 
ATOM     52  O   UNK d   0     -12.211  -5.999 -13.680  0.00  0.00    -0.650 OA
BRANCH  51  53
ATOM     53  O   UNK d   0     -13.417  -7.885 -13.992  0.00  0.00    -0.776 OA
ATOM     54  H   UNK d   0     -13.150  -8.657 -13.406  0.00  0.00     0.167 HD
ENDBRANCH  51  53
ENDBRANCH  50  51
ENDBRANCH  49  50
ENDBRANCH  24  49
BRANCH  21  55
ATOM     55  C   UNK d   0     -13.071  -2.586 -14.340  0.00  0.00     0.151 C 
BRANCH  55  56
ATOM     56  C   UNK d   0     -13.619  -1.526 -15.201  0.00  0.00     0.143 C 
ATOM     57  O   UNK d   0     -14.838  -1.273 -15.267  0.00  0.00    -0.650 OA
BRANCH  56  58
ATOM     58  O   UNK d   0     -12.722  -0.784 -15.968  0.00  0.00    -0.776 OA
ATOM     59  H   UNK d   0     -13.079   0.133 -16.290  0.00  0.00     0.167 HD
ENDBRANCH  56  58
ENDBRANCH  55  56
ENDBRANCH  21  55
BRANCH  18  60
ATOM     60  C   UNK d   0     -10.170   0.630 -11.170  0.00  0.00     0.151 C 
BRANCH  60  61
ATOM     61  C   UNK d   0     -10.162   1.714 -12.163  0.00  0.00     0.143 C 
ATOM     62  O   UNK d   0     -11.052   2.541 -12.366  0.00  0.00    -0.650 OA
BRANCH  61  63
ATOM     63  O   UNK d   0      -8.995   1.794 -12.960  0.00  0.00    -0.776 OA
ATOM     64  H   UNK d   0      -8.881   1.216 -13.773  0.00  0.00     0.167 HD
ENDBRANCH  61  63
ENDBRANCH  60  61
ENDBRANCH  18  60
BRANCH  14  65
ATOM     65  C   UNK d   0     -10.424   2.270  -8.629  0.00  0.00     0.052 C 
BRANCH  65  66
ATOM     66  C   UNK d   0     -10.275   3.624  -9.229  0.00  0.00     0.115 C 
BRANCH  66  67
ATOM     67  C   UNK d   0     -10.565   4.788  -8.440  0.00  0.00     0.139 C 
ATOM     68  O   UNK d   0     -11.790   5.034  -8.137  0.00  0.00    -0.650 OA
BRANCH  67  69
ATOM     69  O   UNK d   0      -9.663   5.725  -7.938  0.00  0.00    -0.776 OA
ATOM     70  H   UNK d   0      -9.483   6.541  -8.540  0.00  0.00     0.167 HD
ENDBRANCH  67  69
ENDBRANCH  66  67
ENDBRANCH  65  66
ENDBRANCH  14  65
ENDBRANCH   6   7
ENDBRANCH   5   6
ENDBRANCH   2   5
TORSDOF 28
ENDMDL
MODEL 18
REMARK VINA RESULT:      -8.5     29.928     33.463
REMARK  28 active torsions:
REMARK  status: ('A' for Active; 'I' for Inactive)
REMARK    1  A    between atoms: C_2  and  O_3 
REMARK    2  A    between atoms: C_2  and  C_4 
REMARK    3  A    between atoms: C_4  and  C_5 
REMARK    4  A    between atoms: C_5  and  C_6 
REMARK    5  A    between atoms: C_7  and  C_8 
REMARK    6  A    between atoms: C_8  and  C_9 
REMARK    7  A    between atoms: C_9  and  O_11 
REMARK    8  A    between atoms: C_28  and  C_29 
REMARK    9  A    between atoms: C_29  and  C_30 
REMARK   10  A    between atoms: C_30  and  O_32 
REMARK   11  A    between atoms: C_33  and  C_34 
REMARK   12  A    between atoms: C_34  and  C_35 
REMARK   13  A    between atoms: C_35  and  C_36 
REMARK   14  A    between atoms: C_36  and  O_38 
REMARK   15  A    between atoms: C_39  and  C_40 
REMARK   16  A    between atoms: C_40  and  C_41 
REMARK   17  A    between atoms: C_41  and  C_42 
REMARK   18  A    between atoms: C_42  and  O_44 
REMARK   19  A    between atoms: C_45  and  C_46 
REMARK   20  A    between atoms: C_46  and  C_47 
REMARK   21  A    between atoms: C_47  and  O_49 
REMARK   22  A    between atoms: C_50  and  C_51 
REMARK   23  A    between atoms: C_51  and  C_52 
REMARK   24  A    between atoms: C_52  and  O_54 
REMARK   25  A    between atoms: C_55  and  C_56 
REMARK   26  A    between atoms: C_56  and  C_57 
REMARK   27  A    between atoms: C_57  and  C_58 
REMARK   28  A    between atoms: C_58  and  O_60 
ROOT
ATOM      1  O   UNK d   0     -12.219   5.003  -8.033  0.00  0.00    -0.650 OA
ATOM      2  C   UNK d   0     -11.730   4.996  -6.881  0.00  0.00     0.139 C 
ENDROOT
BRANCH   2   3
ATOM      3  O   UNK d   0     -10.703   5.857  -6.580  0.00  0.00    -0.776 OA
ATOM      4  H   UNK d   0     -10.786   6.530  -5.814  0.00  0.00     0.167 HD
ENDBRANCH   2   3
BRANCH   2   5
ATOM      5  C   UNK d   0     -12.260   4.059  -5.850  0.00  0.00     0.115 C 
BRANCH   5   6
ATOM      6  C   UNK d   0     -13.751   3.917  -5.997  0.00  0.00     0.052 C 
BRANCH   6   7
ATOM      7  C   UNK d   0     -14.193   2.475  -6.067  0.00  0.00    -0.020 A 
ATOM      8  C   UNK d   0     -14.709   1.750  -5.108  0.00  0.00    -0.011 A 
ATOM      9  C   UNK d   0     -14.967   0.423  -5.642  0.00  0.00     0.067 A 
ATOM     10  C   UNK d   0     -15.513  -0.775  -5.156  0.00  0.00     0.062 C 
ATOM     11  N   UNK d   0     -14.572   0.427  -6.932  0.00  0.00    -0.248 NA
ATOM     12  C   UNK d   0     -15.940  -1.877  -5.906  0.00  0.00     0.041 A 
ATOM     13  N   UNK d   0     -15.387  -2.494  -6.967  0.00  0.00    -0.355 N 
ATOM     14  C   UNK d   0     -17.177  -2.471  -5.599  0.00  0.00    -0.022 A 
ATOM     15  C   UNK d   0     -16.245  -3.460  -7.346  0.00  0.00     0.042 A 
ATOM     16  H   UNK d   0     -14.400  -2.265  -7.427  0.00  0.00     0.166 HD
ATOM     17  C   UNK d   0     -16.160  -4.398  -8.394  0.00  0.00     0.062 C 
ATOM     18  C   UNK d   0     -17.380  -3.476  -6.512  0.00  0.00    -0.013 A 
ATOM     19  C   UNK d   0     -15.776  -4.203  -9.696  0.00  0.00     0.067 A 
ATOM     20  N   UNK d   0     -15.217  -3.027  -9.993  0.00  0.00    -0.248 NA
ATOM     21  C   UNK d   0     -15.827  -4.975 -10.927  0.00  0.00    -0.011 A 
ATOM     22  C   UNK d   0     -14.901  -2.973 -11.328  0.00  0.00     0.066 A 
ATOM     23  C   UNK d   0     -14.276  -1.815 -11.767  0.00  0.00     0.062 C 
ATOM     24  C   UNK d   0     -15.317  -4.247 -11.879  0.00  0.00    -0.020 A 
ATOM     25  C   UNK d   0     -13.845  -0.724 -10.996  0.00  0.00     0.041 A 
ATOM     26  N   UNK d   0     -14.401  -0.101  -9.950  0.00  0.00    -0.355 N 
ATOM     27  C   UNK d   0     -12.600  -0.131 -11.302  0.00  0.00    -0.022 A 
ATOM     28  C   UNK d   0     -13.551   0.868  -9.576  0.00  0.00     0.042 A 
ATOM     29  H   UNK d   0     -15.397  -0.326  -9.496  0.00  0.00     0.166 HD
ATOM     30  C   UNK d   0     -13.627   1.814  -8.541  0.00  0.00     0.062 C 
ATOM     31  C   UNK d   0     -12.406   0.876 -10.408  0.00  0.00    -0.013 A 
ATOM     32  C   UNK d   0     -14.097   1.632  -7.250  0.00  0.00     0.066 A 
BRANCH   8  33
ATOM     33  C   UNK d   0     -14.984   2.180  -3.725  0.00  0.00     0.151 C 
BRANCH  33  34
ATOM     34  C   UNK d   0     -13.835   1.976  -2.824  0.00  0.00     0.143 C 
ATOM     35  O   UNK d   0     -13.615   0.867  -2.315  0.00  0.00    -0.650 OA
BRANCH  34  36
ATOM     36  O   UNK d   0     -12.999   3.032  -2.546  0.00  0.00    -0.776 OA
ATOM     37  H   UNK d   0     -13.359   3.907  -2.142  0.00  0.00     0.167 HD
ENDBRANCH  34  36
ENDBRANCH  33  34
ENDBRANCH   8  33
BRANCH  31  38
ATOM     38  C   UNK d   0     -11.202   1.786 -10.337  0.00  0.00     0.151 C 
BRANCH  38  39
ATOM     39  C   UNK d   0     -10.274   1.408  -9.292  0.00  0.00     0.143 C 
ATOM     40  O   UNK d   0      -9.818   0.256  -9.192  0.00  0.00    -0.650 OA
BRANCH  39  41
ATOM     41  O   UNK d   0      -9.867   2.361  -8.359  0.00  0.00    -0.776 OA
ATOM     42  H   UNK d   0     -10.421   2.432  -7.500  0.00  0.00     0.167 HD
ENDBRANCH  39  41
ENDBRANCH  38  39
ENDBRANCH  31  38
BRANCH  27  43
ATOM     43  C   UNK d   0     -11.614  -0.479 -12.389  0.00  0.00     0.052 C 
BRANCH  43  44
ATOM     44  C   UNK d   0     -11.476   0.589 -13.424  0.00  0.00     0.115 C 
BRANCH  44  45
ATOM     45  C   UNK d   0     -11.513  -0.093 -14.745  0.00  0.00     0.139 C 
ATOM     46  O   UNK d   0     -12.391  -0.971 -14.933  0.00  0.00    -0.650 OA
BRANCH  45  47
ATOM     47  O   UNK d   0     -10.633   0.203 -15.763  0.00  0.00    -0.776 OA
ATOM     48  H   UNK d   0     -10.643  -0.287 -16.673  0.00  0.00     0.167 HD
ENDBRANCH  45  47
ENDBRANCH  44  45
ENDBRANCH  43  44
ENDBRANCH  27  43
BRANCH  24  49
ATOM     49  C   UNK d   0     -15.138  -4.656 -13.283  0.00  0.00     0.052 C 
BRANCH  49  50
ATOM     50  C   UNK d   0     -13.922  -5.535 -13.421  0.00  0.00     0.115 C 
BRANCH  50  51
ATOM     51  C   UNK d   0     -12.659  -4.879 -13.734  0.00  0.00     0.139 C 
ATOM     52  O   UNK d   0     -11.550  -5.449 -13.602  0.00  0.00    -0.650 OA
BRANCH  51  53
ATOM     53  O   UNK d   0     -12.660  -3.572 -14.195  0.00  0.00    -0.776 OA
ATOM     54  H   UNK d   0     -12.394  -2.843 -13.556  0.00  0.00     0.167 HD
ENDBRANCH  51  53
ENDBRANCH  50  51
ENDBRANCH  49  50
ENDBRANCH  24  49
BRANCH  21  55
ATOM     55  C   UNK d   0     -16.376  -6.359 -11.022  0.00  0.00     0.151 C 
BRANCH  55  56
ATOM     56  C   UNK d   0     -15.566  -7.327 -10.267  0.00  0.00     0.143 C 
ATOM     57  O   UNK d   0     -14.382  -7.589 -10.558  0.00  0.00    -0.650 OA
BRANCH  56  58
ATOM     58  O   UNK d   0     -16.164  -7.968  -9.183  0.00  0.00    -0.776 OA
ATOM     59  H   UNK d   0     -17.136  -7.672  -8.983  0.00  0.00     0.167 HD
ENDBRANCH  56  58
ENDBRANCH  55  56
ENDBRANCH  21  55
BRANCH  18  60
ATOM     60  C   UNK d   0     -18.593  -4.371  -6.557  0.00  0.00     0.151 C 
BRANCH  60  61
ATOM     61  C   UNK d   0     -18.158  -5.668  -6.014  0.00  0.00     0.143 C 
ATOM     62  O   UNK d   0     -17.737  -5.894  -4.879  0.00  0.00    -0.650 OA
BRANCH  61  63
ATOM     63  O   UNK d   0     -18.243  -6.756  -6.915  0.00  0.00    -0.776 OA
ATOM     64  H   UNK d   0     -18.593  -7.650  -6.617  0.00  0.00     0.167 HD
ENDBRANCH  61  63
ENDBRANCH  60  61
ENDBRANCH  18  60
BRANCH  14  65
ATOM     65  C   UNK d   0     -18.126  -2.228  -4.460  0.00  0.00     0.052 C 
BRANCH  65  66
ATOM     66  C   UNK d   0     -19.233  -1.298  -4.812  0.00  0.00     0.115 C 
BRANCH  66  67
ATOM     67  C   UNK d   0     -19.884  -0.543  -3.780  0.00  0.00     0.139 C 
ATOM     68  O   UNK d   0     -20.951  -1.024  -3.248  0.00  0.00    -0.650 OA
BRANCH  67  69
ATOM     69  O   UNK d   0     -19.501   0.691  -3.254  0.00  0.00    -0.776 OA
ATOM     70  H   UNK d   0     -19.771   0.864  -2.275  0.00  0.00     0.167 HD
ENDBRANCH  67  69
ENDBRANCH  66  67
ENDBRANCH  65  66
ENDBRANCH  14  65
ENDBRANCH   6   7
ENDBRANCH   5   6
ENDBRANCH   2   5
TORSDOF 28
ENDMDL
MODEL 19
REMARK VINA RESULT:      -8.5      2.326      8.754
REMARK  28 active torsions:
REMARK  status: ('A' for Active; 'I' for Inactive)
REMARK    1  A    between atoms: C_2  and  O_3 
REMARK    2  A    between atoms: C_2  and  C_4 
REMARK    3  A    between atoms: C_4  and  C_5 
REMARK    4  A    between atoms: C_5  and  C_6 
REMARK    5  A    between atoms: C_7  and  C_8 
REMARK    6  A    between atoms: C_8  and  C_9 
REMARK    7  A    between atoms: C_9  and  O_11 
REMARK    8  A    between atoms: C_28  and  C_29 
REMARK    9  A    between atoms: C_29  and  C_30 
REMARK   10  A    between atoms: C_30  and  O_32 
REMARK   11  A    between atoms: C_33  and  C_34 
REMARK   12  A    between atoms: C_34  and  C_35 
REMARK   13  A    between atoms: C_35  and  C_36 
REMARK   14  A    between atoms: C_36  and  O_38 
REMARK   15  A    between atoms: C_39  and  C_40 
REMARK   16  A    between atoms: C_40  and  C_41 
REMARK   17  A    between atoms: C_41  and  C_42 
REMARK   18  A    between atoms: C_42  and  O_44 
REMARK   19  A    between atoms: C_45  and  C_46 
REMARK   20  A    between atoms: C_46  and  C_47 
REMARK   21  A    between atoms: C_47  and  O_49 
REMARK   22  A    between atoms: C_50  and  C_51 
REMARK   23  A    between atoms: C_51  and  C_52 
REMARK   24  A    between atoms: C_52  and  O_54 
REMARK   25  A    between atoms: C_55  and  C_56 
REMARK   26  A    between atoms: C_56  and  C_57 
REMARK   27  A    between atoms: C_57  and  C_58 
REMARK   28  A    between atoms: C_58  and  O_60 
ROOT
ATOM      1  O   UNK d   0      12.085  -2.150   3.677  0.00  0.00    -0.650 OA
ATOM      2  C   UNK d   0      12.850  -2.629   4.543  0.00  0.00     0.139 C 
ENDROOT
BRANCH   2   3
ATOM      3  O   UNK d   0      13.277  -3.929   4.419  0.00  0.00    -0.776 OA
ATOM      4  H   UNK d   0      12.612  -4.691   4.269  0.00  0.00     0.167 HD
ENDBRANCH   2   3
BRANCH   2   5
ATOM      5  C   UNK d   0      13.291  -1.795   5.696  0.00  0.00     0.115 C 
BRANCH   5   6
ATOM      6  C   UNK d   0      14.473  -2.432   6.374  0.00  0.00     0.052 C 
BRANCH   6   7
ATOM      7  C   UNK d   0      14.248  -2.651   7.851  0.00  0.00    -0.020 A 
ATOM      8  C   UNK d   0      14.921  -2.133   8.847  0.00  0.00    -0.011 A 
ATOM      9  C   UNK d   0      14.347  -2.639  10.083  0.00  0.00     0.067 A 
ATOM     10  C   UNK d   0      14.582  -2.462  11.455  0.00  0.00     0.062 C 
ATOM     11  N   UNK d   0      13.333  -3.463   9.745  0.00  0.00    -0.248 NA
ATOM     12  C   UNK d   0      13.739  -2.822  12.512  0.00  0.00     0.041 A 
ATOM     13  N   UNK d   0      13.007  -3.932  12.724  0.00  0.00    -0.355 N 
ATOM     14  C   UNK d   0      13.519  -1.899  13.551  0.00  0.00    -0.022 A 
ATOM     15  C   UNK d   0      12.323  -3.734  13.867  0.00  0.00     0.042 A 
ATOM     16  H   UNK d   0      12.990  -4.845  12.089  0.00  0.00     0.166 HD
ATOM     17  C   UNK d   0      11.415  -4.573  14.544  0.00  0.00     0.062 C 
ATOM     18  C   UNK d   0      12.617  -2.471  14.414  0.00  0.00    -0.013 A 
ATOM     19  C   UNK d   0      10.383  -5.318  14.034  0.00  0.00     0.067 A 
ATOM     20  N   UNK d   0      10.326  -5.441  12.705  0.00  0.00    -0.248 NA
ATOM     21  C   UNK d   0       9.251  -6.047  14.580  0.00  0.00    -0.011 A 
ATOM     22  C   UNK d   0       9.237  -6.197  12.343  0.00  0.00     0.066 A 
ATOM     23  C   UNK d   0       9.078  -6.437  10.986  0.00  0.00     0.062 C 
ATOM     24  C   UNK d   0       8.582  -6.555  13.585  0.00  0.00    -0.020 A 
ATOM     25  C   UNK d   0       9.943  -6.078   9.941  0.00  0.00     0.041 A 
ATOM     26  N   UNK d   0      10.659  -4.968   9.723  0.00  0.00    -0.355 N 
ATOM     27  C   UNK d   0      10.166  -7.006   8.901  0.00  0.00    -0.022 A 
ATOM     28  C   UNK d   0      11.335  -5.159   8.579  0.00  0.00     0.042 A 
ATOM     29  H   UNK d   0      10.667  -4.047  10.356  0.00  0.00     0.166 HD
ATOM     30  C   UNK d   0      12.234  -4.330   7.889  0.00  0.00     0.062 C 
ATOM     31  C   UNK d   0      11.047  -6.433   8.035  0.00  0.00    -0.013 A 
ATOM     32  C   UNK d   0      13.221  -3.513   8.417  0.00  0.00     0.066 A 
BRANCH   8  33
ATOM     33  C   UNK d   0      16.063  -1.205   8.755  0.00  0.00     0.151 C 
BRANCH  33  34
ATOM     34  C   UNK d   0      17.363  -1.884   8.902  0.00  0.00     0.143 C 
ATOM     35  O   UNK d   0      17.423  -3.095   9.158  0.00  0.00    -0.650 OA
BRANCH  34  36
ATOM     36  O   UNK d   0      18.523  -1.160   8.753  0.00  0.00    -0.776 OA
ATOM     37  H   UNK d   0      18.551  -0.150   8.946  0.00  0.00     0.167 HD
ENDBRANCH  34  36
ENDBRANCH  33  34
ENDBRANCH   8  33
BRANCH  31  38
ATOM     38  C   UNK d   0      11.593  -7.061   6.774  0.00  0.00     0.151 C 
BRANCH  38  39
ATOM     39  C   UNK d   0      10.831  -6.707   5.595  0.00  0.00     0.143 C 
ATOM     40  O   UNK d   0      11.140  -5.748   4.866  0.00  0.00    -0.650 OA
BRANCH  39  41
ATOM     41  O   UNK d   0       9.708  -7.460   5.253  0.00  0.00    -0.776 OA
ATOM     42  H   UNK d   0       8.803  -7.119   5.591  0.00  0.00     0.167 HD
ENDBRANCH  39  41
ENDBRANCH  38  39
ENDBRANCH  31  38
BRANCH  27  43
ATOM     43  C   UNK d   0       9.585  -8.384   8.705  0.00  0.00     0.052 C 
BRANCH  43  44
ATOM     44  C   UNK d   0       8.180  -8.365   8.196  0.00  0.00     0.115 C 
BRANCH  44  45
ATOM     45  C   UNK d   0       7.376  -9.183   9.140  0.00  0.00     0.139 C 
ATOM     46  O   UNK d   0       6.491  -8.605   9.818  0.00  0.00    -0.650 OA
BRANCH  45  47
ATOM     47  O   UNK d   0       7.557 -10.540   9.295  0.00  0.00    -0.776 OA
ATOM     48  H   UNK d   0       7.098 -11.086  10.042  0.00  0.00     0.167 HD
ENDBRANCH  45  47
ENDBRANCH  44  45
ENDBRANCH  43  44
ENDBRANCH  27  43
BRANCH  24  49
ATOM     49  C   UNK d   0       7.382  -7.403  13.689  0.00  0.00     0.052 C 
BRANCH  49  50
ATOM     50  C   UNK d   0       7.722  -8.836  13.368  0.00  0.00     0.115 C 
BRANCH  50  51
ATOM     51  C   UNK d   0       7.239  -9.856  14.289  0.00  0.00     0.139 C 
ATOM     52  O   UNK d   0       6.360 -10.692  13.971  0.00  0.00    -0.650 OA
BRANCH  51  53
ATOM     53  O   UNK d   0       7.757  -9.922  15.573  0.00  0.00    -0.776 OA
ATOM     54  H   UNK d   0       7.115  -9.908  16.346  0.00  0.00     0.167 HD
ENDBRANCH  51  53
ENDBRANCH  50  51
ENDBRANCH  49  50
ENDBRANCH  24  49
BRANCH  21  55
ATOM     55  C   UNK d   0       8.958  -6.163  16.039  0.00  0.00     0.151 C 
BRANCH  55  56
ATOM     56  C   UNK d   0       9.735  -7.239  16.674  0.00  0.00     0.143 C 
ATOM     57  O   UNK d   0       9.969  -7.271  17.898  0.00  0.00    -0.650 OA
BRANCH  56  58
ATOM     58  O   UNK d   0      10.223  -8.257  15.856  0.00  0.00    -0.776 OA
ATOM     59  H   UNK d   0      10.495  -7.957  14.902  0.00  0.00     0.167 HD
ENDBRANCH  56  58
ENDBRANCH  55  56
ENDBRANCH  21  55
BRANCH  18  60
ATOM     60  C   UNK d   0      12.091  -1.821  15.670  0.00  0.00     0.151 C 
BRANCH  60  61
ATOM     61  C   UNK d   0      10.755  -1.310  15.330  0.00  0.00     0.143 C 
ATOM     62  O   UNK d   0      10.467  -0.530  14.422  0.00  0.00    -0.650 OA
BRANCH  61  63
ATOM     63  O   UNK d   0       9.702  -1.781  16.152  0.00  0.00    -0.776 OA
ATOM     64  H   UNK d   0       8.993  -2.392  15.787  0.00  0.00     0.167 HD
ENDBRANCH  61  63
ENDBRANCH  60  61
ENDBRANCH  18  60
BRANCH  14  65
ATOM     65  C   UNK d   0      14.165  -0.573  13.839  0.00  0.00     0.052 C 
BRANCH  65  66
ATOM     66  C   UNK d   0      13.384   0.579  13.314  0.00  0.00     0.115 C 
BRANCH  66  67
ATOM     67  C   UNK d   0      13.744   1.169  12.055  0.00  0.00     0.139 C 
ATOM     68  O   UNK d   0      14.450   2.244  12.060  0.00  0.00    -0.650 OA
BRANCH  67  69
ATOM     69  O   UNK d   0      13.419   0.716  10.777  0.00  0.00    -0.776 OA
ATOM     70  H   UNK d   0      12.760  -0.075  10.736  0.00  0.00     0.167 HD
ENDBRANCH  67  69
ENDBRANCH  66  67
ENDBRANCH  65  66
ENDBRANCH  14  65
ENDBRANCH   6   7
ENDBRANCH   5   6
ENDBRANCH   2   5
TORSDOF 28
ENDMDL
MODEL 20
REMARK VINA RESULT:      -8.5     30.198     33.267
REMARK  28 active torsions:
REMARK  status: ('A' for Active; 'I' for Inactive)
REMARK    1  A    between atoms: C_2  and  O_3 
REMARK    2  A    between atoms: C_2  and  C_4 
REMARK    3  A    between atoms: C_4  and  C_5 
REMARK    4  A    between atoms: C_5  and  C_6 
REMARK    5  A    between atoms: C_7  and  C_8 
REMARK    6  A    between atoms: C_8  and  C_9 
REMARK    7  A    between atoms: C_9  and  O_11 
REMARK    8  A    between atoms: C_28  and  C_29 
REMARK    9  A    between atoms: C_29  and  C_30 
REMARK   10  A    between atoms: C_30  and  O_32 
REMARK   11  A    between atoms: C_33  and  C_34 
REMARK   12  A    between atoms: C_34  and  C_35 
REMARK   13  A    between atoms: C_35  and  C_36 
REMARK   14  A    between atoms: C_36  and  O_38 
REMARK   15  A    between atoms: C_39  and  C_40 
REMARK   16  A    between atoms: C_40  and  C_41 
REMARK   17  A    between atoms: C_41  and  C_42 
REMARK   18  A    between atoms: C_42  and  O_44 
REMARK   19  A    between atoms: C_45  and  C_46 
REMARK   20  A    between atoms: C_46  and  C_47 
REMARK   21  A    between atoms: C_47  and  O_49 
REMARK   22  A    between atoms: C_50  and  C_51 
REMARK   23  A    between atoms: C_51  and  C_52 
REMARK   24  A    between atoms: C_52  and  O_54 
REMARK   25  A    between atoms: C_55  and  C_56 
REMARK   26  A    between atoms: C_56  and  C_57 
REMARK   27  A    between atoms: C_57  and  C_58 
REMARK   28  A    between atoms: C_58  and  O_60 
ROOT
ATOM      1  O   UNK d   0     -18.002  -9.596  -7.225  0.00  0.00    -0.650 OA
ATOM      2  C   UNK d   0     -17.490  -9.527  -8.364  0.00  0.00     0.139 C 
ENDROOT
BRANCH   2   3
ATOM      3  O   UNK d   0     -17.506 -10.634  -9.178  0.00  0.00    -0.776 OA
ATOM      4  H   UNK d   0     -16.814 -10.752  -9.922  0.00  0.00     0.167 HD
ENDBRANCH   2   3
BRANCH   2   5
ATOM      5  C   UNK d   0     -16.868  -8.254  -8.829  0.00  0.00     0.115 C 
BRANCH   5   6
ATOM      6  C   UNK d   0     -17.930  -7.311  -9.324  0.00  0.00     0.052 C 
BRANCH   6   7
ATOM      7  C   UNK d   0     -17.833  -5.943  -8.692  0.00  0.00    -0.020 A 
ATOM      8  C   UNK d   0     -18.591  -5.444  -7.749  0.00  0.00    -0.011 A 
ATOM      9  C   UNK d   0     -18.125  -4.096  -7.471  0.00  0.00     0.067 A 
ATOM     10  C   UNK d   0     -18.478  -3.064  -6.587  0.00  0.00     0.062 C 
ATOM     11  N   UNK d   0     -17.083  -3.854  -8.294  0.00  0.00    -0.248 NA
ATOM     12  C   UNK d   0     -17.729  -1.926  -6.270  0.00  0.00     0.041 A 
ATOM     13  N   UNK d   0     -17.016  -1.089  -7.048  0.00  0.00    -0.355 N 
ATOM     14  C   UNK d   0     -17.603  -1.548  -4.921  0.00  0.00    -0.022 A 
ATOM     15  C   UNK d   0     -16.433  -0.196  -6.226  0.00  0.00     0.042 A 
ATOM     16  H   UNK d   0     -16.941  -1.118  -8.157  0.00  0.00     0.166 HD
ATOM     17  C   UNK d   0     -15.586   0.893  -6.514  0.00  0.00     0.062 C 
ATOM     18  C   UNK d   0     -16.778  -0.451  -4.885  0.00  0.00    -0.013 A 
ATOM     19  C   UNK d   0     -14.512   0.948  -7.365  0.00  0.00     0.067 A 
ATOM     20  N   UNK d   0     -14.339  -0.089  -8.189  0.00  0.00    -0.248 NA
ATOM     21  C   UNK d   0     -13.429   1.883  -7.622  0.00  0.00    -0.011 A 
ATOM     22  C   UNK d   0     -13.222   0.100  -8.965  0.00  0.00     0.066 A 
ATOM     23  C   UNK d   0     -12.945  -0.889  -9.897  0.00  0.00     0.062 C 
ATOM     24  C   UNK d   0     -12.676   1.379  -8.556  0.00  0.00    -0.020 A 
ATOM     25  C   UNK d   0     -13.717  -2.019 -10.209  0.00  0.00     0.041 A 
ATOM     26  N   UNK d   0     -14.414  -2.859  -9.435  0.00  0.00    -0.355 N 
ATOM     27  C   UNK d   0     -13.847  -2.394 -11.564  0.00  0.00    -0.022 A 
ATOM     28  C   UNK d   0     -14.988  -3.756 -10.251  0.00  0.00     0.042 A 
ATOM     29  H   UNK d   0     -14.479  -2.835  -8.319  0.00  0.00     0.166 HD
ATOM     30  C   UNK d   0     -15.826  -4.849  -9.977  0.00  0.00     0.062 C 
ATOM     31  C   UNK d   0     -14.651  -3.492 -11.599  0.00  0.00    -0.013 A 
ATOM     32  C   UNK d   0     -16.857  -4.926  -9.054  0.00  0.00     0.066 A 
BRANCH   8  33
ATOM     33  C   UNK d   0     -19.723  -6.109  -7.078  0.00  0.00     0.151 C 
BRANCH  33  34
ATOM     34  C   UNK d   0     -19.310  -6.882  -5.893  0.00  0.00     0.143 C 
ATOM     35  O   UNK d   0     -18.358  -6.511  -5.192  0.00  0.00    -0.650 OA
BRANCH  34  36
ATOM     36  O   UNK d   0     -19.992  -8.030  -5.564  0.00  0.00    -0.776 OA
ATOM     37  H   UNK d   0     -20.374  -8.172  -4.619  0.00  0.00     0.167 HD
ENDBRANCH  34  36
ENDBRANCH  33  34
ENDBRANCH   8  33
BRANCH  31  38
ATOM     38  C   UNK d   0     -15.084  -4.240 -12.839  0.00  0.00     0.151 C 
BRANCH  38  39
ATOM     39  C   UNK d   0     -14.314  -5.445 -13.066  0.00  0.00     0.143 C 
ATOM     40  O   UNK d   0     -14.836  -6.504 -13.457  0.00  0.00    -0.650 OA
BRANCH  39  41
ATOM     41  O   UNK d   0     -12.938  -5.432 -12.842  0.00  0.00    -0.776 OA
ATOM     42  H   UNK d   0     -12.491  -4.513 -12.768  0.00  0.00     0.167 HD
ENDBRANCH  39  41
ENDBRANCH  38  39
ENDBRANCH  31  38
BRANCH  27  43
ATOM     43  C   UNK d   0     -13.248  -1.763 -12.795  0.00  0.00     0.052 C 
BRANCH  43  44
ATOM     44  C   UNK d   0     -14.174  -0.814 -13.484  0.00  0.00     0.115 C 
BRANCH  44  45
ATOM     45  C   UNK d   0     -14.270  -1.264 -14.897  0.00  0.00     0.139 C 
ATOM     46  O   UNK d   0     -13.530  -2.208 -15.269  0.00  0.00    -0.650 OA
BRANCH  45  47
ATOM     47  O   UNK d   0     -15.137  -0.695 -15.805  0.00  0.00    -0.776 OA
ATOM     48  H   UNK d   0     -14.919  -0.612 -16.811  0.00  0.00     0.167 HD
ENDBRANCH  45  47
ENDBRANCH  44  45
ENDBRANCH  43  44
ENDBRANCH  27  43
BRANCH  24  49
ATOM     49  C   UNK d   0     -11.487   2.015  -9.150  0.00  0.00     0.052 C 
BRANCH  49  50
ATOM     50  C   UNK d   0     -10.322   1.059  -9.141  0.00  0.00     0.115 C 
BRANCH  50  51
ATOM     51  C   UNK d   0      -9.349   1.185 -10.218  0.00  0.00     0.139 C 
ATOM     52  O   UNK d   0      -8.363   1.957 -10.152  0.00  0.00    -0.650 OA
BRANCH  51  53
ATOM     53  O   UNK d   0      -9.502   0.433 -11.372  0.00  0.00    -0.776 OA
ATOM     54  H   UNK d   0      -8.679   0.193 -11.896  0.00  0.00     0.167 HD
ENDBRANCH  51  53
ENDBRANCH  50  51
ENDBRANCH  49  50
ENDBRANCH  24  49
BRANCH  21  55
ATOM     55  C   UNK d   0     -13.264   3.185  -6.910  0.00  0.00     0.151 C 
BRANCH  55  56
ATOM     56  C   UNK d   0     -14.423   4.069  -7.101  0.00  0.00     0.143 C 
ATOM     57  O   UNK d   0     -15.118   4.057  -8.136  0.00  0.00    -0.650 OA
BRANCH  56  58
ATOM     58  O   UNK d   0     -14.744   4.951  -6.070  0.00  0.00    -0.776 OA
ATOM     59  H   UNK d   0     -13.949   5.219  -5.462  0.00  0.00     0.167 HD
ENDBRANCH  56  58
ENDBRANCH  55  56
ENDBRANCH  21  55
BRANCH  18  60
ATOM     60  C   UNK d   0     -16.364   0.278  -3.631  0.00  0.00     0.151 C 
BRANCH  60  61
ATOM     61  C   UNK d   0     -15.050  -0.270  -3.260  0.00  0.00     0.143 C 
ATOM     62  O   UNK d   0     -14.763  -1.454  -3.083  0.00  0.00    -0.650 OA
BRANCH  61  63
ATOM     63  O   UNK d   0     -14.022   0.689  -3.095  0.00  0.00    -0.776 OA
ATOM     64  H   UNK d   0     -13.614   1.153  -3.887  0.00  0.00     0.167 HD
ENDBRANCH  61  63
ENDBRANCH  60  61
ENDBRANCH  18  60
BRANCH  14  65
ATOM     65  C   UNK d   0     -18.274  -2.079  -3.686  0.00  0.00     0.052 C 
BRANCH  65  66
ATOM     66  C   UNK d   0     -19.724  -1.754  -3.627  0.00  0.00     0.115 C 
BRANCH  66  67
ATOM     67  C   UNK d   0     -20.157  -0.549  -2.977  0.00  0.00     0.139 C 
ATOM     68  O   UNK d   0     -21.019  -0.639  -2.028  0.00  0.00    -0.650 OA
BRANCH  67  69
ATOM     69  O   UNK d   0     -19.753   0.759  -3.246  0.00  0.00    -0.776 OA
ATOM     70  H   UNK d   0     -19.980   1.456  -2.523  0.00  0.00     0.167 HD
ENDBRANCH  67  69
ENDBRANCH  66  67
ENDBRANCH  65  66
ENDBRANCH  14  65
ENDBRANCH   6   7
ENDBRANCH   5   6
ENDBRANCH   2   5
TORSDOF 28
ENDMDL
