MODEL 1
REMARK VINA RESULT:      -9.8      0.000      0.000
REMARK  16 active torsions:
REMARK  status: ('A' for Active; 'I' for Inactive)
REMARK    1  A    between atoms: C_6  and  C_7 
REMARK    2  A    between atoms: C_7  and  C_8 
REMARK    3  A    between atoms: C_8  and  C_9 
REMARK    4  A    between atoms: C_9  and  O_11 
REMARK    5  A    between atoms: C_16  and  C_17 
REMARK    6  A    between atoms: C_17  and  C_18 
REMARK    7  A    between atoms: C_18  and  C_19 
REMARK    8  A    between atoms: C_19  and  O_21 
REMARK    9  A    between atoms: C_28  and  C_29 
REMARK   10  A    between atoms: C_29  and  C_30 
REMARK   11  A    between atoms: C_30  and  C_31 
REMARK   12  A    between atoms: C_31  and  O_33 
REMARK   13  A    between atoms: C_42  and  C_43 
REMARK   14  A    between atoms: C_43  and  C_44 
REMARK   15  A    between atoms: C_44  and  C_45 
REMARK   16  A    between atoms: C_45  and  O_47 
ROOT
HETATM    1  C   UNK     0     -23.048  -3.789  -1.916  0.00  0.00     0.051 C 
HETATM    2  C   UNK     0     -22.565  -4.619  -0.744  0.00  0.00    -0.031 A 
HETATM    3  C   UNK     0     -21.837  -5.798  -0.741  0.00  0.00     0.021 A 
HETATM    4  N   UNK     0     -21.657  -6.203   0.538  0.00  0.00    -0.361 N 
HETATM    5  C   UNK     0     -22.246  -5.302   1.352  0.00  0.00     0.022 A 
HETATM    6  C   UNK     0     -22.826  -4.299   0.582  0.00  0.00    -0.027 A 
HETATM    7  C   UNK     0     -22.256  -5.233   2.847  0.00  0.00     0.115 C 
HETATM    8  C   UNK     0     -20.943  -5.527   3.551  0.00  0.00     0.021 A 
HETATM    9  N   UNK     0     -19.696  -5.224   3.157  0.00  0.00    -0.361 N 
HETATM   10  C   UNK     0     -18.834  -5.759   4.047  0.00  0.00     0.022 A 
HETATM   11  C   UNK     0     -19.545  -6.417   5.047  0.00  0.00    -0.027 A 
HETATM   12  C   UNK     0     -20.874  -6.274   4.741  0.00  0.00    -0.031 A 
HETATM   13  C   UNK     0     -22.023  -6.825   5.556  0.00  0.00     0.051 C 
HETATM   14  C   UNK     0     -17.311  -5.718   3.963  0.00  0.00     0.115 C 
HETATM   15  C   UNK     0     -16.744  -6.395   2.725  0.00  0.00     0.021 A 
HETATM   16  N   UNK     0     -17.000  -6.098   1.437  0.00  0.00    -0.361 N 
HETATM   17  C   UNK     0     -16.362  -6.969   0.651  0.00  0.00     0.022 A 
HETATM   18  C   UNK     0     -15.649  -7.870   1.466  0.00  0.00    -0.027 A 
HETATM   19  C   UNK     0     -15.895  -7.499   2.763  0.00  0.00    -0.031 A 
HETATM   20  C   UNK     0     -15.286  -8.190   3.969  0.00  0.00     0.051 C 
HETATM   21  C   UNK     0     -16.379  -7.113  -0.853  0.00  0.00     0.115 C 
HETATM   22  C   UNK     0     -17.666  -6.782  -1.572  0.00  0.00     0.022 A 
HETATM   23  N   UNK     0     -18.921  -7.067  -1.201  0.00  0.00    -0.361 N 
HETATM   24  C   UNK     0     -19.765  -6.458  -2.058  0.00  0.00     0.021 A 
HETATM   25  C   UNK     0     -19.035  -5.773  -3.011  0.00  0.00    -0.031 A 
HETATM   26  C   UNK     0     -19.531  -4.975  -4.199  0.00  0.00     0.051 C 
HETATM   27  C   UNK     0     -17.689  -5.965  -2.721  0.00  0.00    -0.027 A 
HETATM   28  C   UNK     0     -21.282  -6.413  -1.995  0.00  0.00     0.115 C 
HETATM   29  H   UNK     0     -21.149  -7.143   0.856  0.00  0.00     0.165 HD
HETATM   30  H   UNK     0     -19.423  -4.590   2.279  0.00  0.00     0.165 HD
HETATM   31  H   UNK     0     -17.605  -5.227   1.073  0.00  0.00     0.165 HD
HETATM   32  H   UNK     0     -19.223  -7.737  -0.354  0.00  0.00     0.165 HD
ENDROOT
BRANCH   6  33
HETATM   33  C   UNK     0     -23.602  -3.078   1.006  0.00  0.00     0.051 C 
BRANCH  33  34
HETATM   34  C   UNK     0     -25.084  -3.368   1.033  0.00  0.00     0.114 C 
BRANCH  34  35
HETATM   35  C   UNK     0     -25.460  -3.641   2.450  0.00  0.00     0.139 C 
HETATM   36  O   UNK     0     -25.439  -2.708   3.305  0.00  0.00    -0.650 OA
BRANCH  35  37
HETATM   37  O   UNK     0     -25.844  -4.900   2.894  0.00  0.00    -0.776 OA
HETATM   38  H   UNK     0     -26.319  -5.556   2.295  0.00  0.00     0.167 HD
ENDBRANCH  35  37
ENDBRANCH  34  35
ENDBRANCH  33  34
ENDBRANCH   6  33
BRANCH  27  39
HETATM   39  C   UNK     0     -16.592  -5.434  -3.574  0.00  0.00     0.051 C 
BRANCH  39  40
HETATM   40  C   UNK     0     -15.598  -4.555  -2.959  0.00  0.00     0.114 C 
BRANCH  40  41
HETATM   41  C   UNK     0     -14.214  -4.945  -2.806  0.00  0.00     0.139 C 
HETATM   42  O   UNK     0     -13.495  -5.296  -3.751  0.00  0.00    -0.650 OA
BRANCH  41  43
HETATM   43  O   UNK     0     -13.631  -4.931  -1.507  0.00  0.00    -0.776 OA
HETATM   44  H   UNK     0     -12.767  -4.407  -1.441  0.00  0.00     0.167 HD
ENDBRANCH  41  43
ENDBRANCH  40  41
ENDBRANCH  39  40
ENDBRANCH  27  39
BRANCH  11  45
HETATM   45  C   UNK     0     -19.017  -7.152   6.250  0.00  0.00     0.051 C 
BRANCH  45  46
HETATM   46  C   UNK     0     -18.351  -6.279   7.250  0.00  0.00     0.114 C 
BRANCH  46  47
HETATM   47  C   UNK     0     -17.688  -7.171   8.243  0.00  0.00     0.139 C 
HETATM   48  O   UNK     0     -17.526  -8.365   7.952  0.00  0.00    -0.650 OA
BRANCH  47  49
HETATM   49  O   UNK     0     -17.267  -6.684   9.455  0.00  0.00    -0.776 OA
HETATM   50  H   UNK     0     -16.765  -7.269  10.133  0.00  0.00     0.167 HD
ENDBRANCH  47  49
ENDBRANCH  46  47
ENDBRANCH  45  46
ENDBRANCH  11  45
BRANCH  18  51
HETATM   51  C   UNK     0     -14.764  -9.010   1.033  0.00  0.00     0.051 C 
BRANCH  51  52
HETATM   52  C   UNK     0     -15.645 -10.250   1.010  0.00  0.00     0.114 C 
BRANCH  52  53
HETATM   53  C   UNK     0     -15.036 -11.371   1.751  0.00  0.00     0.139 C 
HETATM   54  O   UNK     0     -14.072 -11.166   2.506  0.00  0.00    -0.650 OA
BRANCH  53  55
HETATM   55  O   UNK     0     -15.538 -12.640   1.597  0.00  0.00    -0.776 OA
HETATM   56  H   UNK     0     -16.064 -12.970   0.823  0.00  0.00     0.167 HD
ENDBRANCH  53  55
ENDBRANCH  52  53
ENDBRANCH  51  52
ENDBRANCH  18  51
TORSDOF 16
ENDMDL
MODEL 2
REMARK VINA RESULT:      -9.5      2.411      6.924
REMARK  16 active torsions:
REMARK  status: ('A' for Active; 'I' for Inactive)
REMARK    1  A    between atoms: C_6  and  C_7 
REMARK    2  A    between atoms: C_7  and  C_8 
REMARK    3  A    between atoms: C_8  and  C_9 
REMARK    4  A    between atoms: C_9  and  O_11 
REMARK    5  A    between atoms: C_16  and  C_17 
REMARK    6  A    between atoms: C_17  and  C_18 
REMARK    7  A    between atoms: C_18  and  C_19 
REMARK    8  A    between atoms: C_19  and  O_21 
REMARK    9  A    between atoms: C_28  and  C_29 
REMARK   10  A    between atoms: C_29  and  C_30 
REMARK   11  A    between atoms: C_30  and  C_31 
REMARK   12  A    between atoms: C_31  and  O_33 
REMARK   13  A    between atoms: C_42  and  C_43 
REMARK   14  A    between atoms: C_43  and  C_44 
REMARK   15  A    between atoms: C_44  and  C_45 
REMARK   16  A    between atoms: C_45  and  O_47 
ROOT
HETATM    1  C   UNK     0     -17.924  -5.375  -3.932  0.00  0.00     0.051 C 
HETATM    2  C   UNK     0     -19.108  -5.764  -3.069  0.00  0.00    -0.031 A 
HETATM    3  C   UNK     0     -19.169  -6.656  -2.010  0.00  0.00     0.021 A 
HETATM    4  N   UNK     0     -20.443  -6.711  -1.554  0.00  0.00    -0.361 N 
HETATM    5  C   UNK     0     -21.193  -5.868  -2.293  0.00  0.00     0.022 A 
HETATM    6  C   UNK     0     -20.389  -5.260  -3.252  0.00  0.00    -0.027 A 
HETATM    7  C   UNK     0     -22.633  -5.490  -2.140  0.00  0.00     0.115 C 
HETATM    8  C   UNK     0     -23.124  -5.238  -0.725  0.00  0.00     0.021 A 
HETATM    9  N   UNK     0     -22.465  -4.680   0.302  0.00  0.00    -0.361 N 
HETATM   10  C   UNK     0     -23.258  -4.743   1.393  0.00  0.00     0.022 A 
HETATM   11  C   UNK     0     -24.464  -5.351   1.057  0.00  0.00    -0.027 A 
HETATM   12  C   UNK     0     -24.387  -5.665  -0.276  0.00  0.00    -0.031 A 
HETATM   13  C   UNK     0     -25.476  -6.338  -1.080  0.00  0.00     0.051 C 
HETATM   14  C   UNK     0     -22.891  -4.285   2.802  0.00  0.00     0.115 C 
HETATM   15  C   UNK     0     -21.698  -5.015   3.396  0.00  0.00     0.021 A 
HETATM   16  N   UNK     0     -20.447  -5.084   2.902  0.00  0.00    -0.361 N 
HETATM   17  C   UNK     0     -19.711  -5.879   3.681  0.00  0.00     0.022 A 
HETATM   18  C   UNK     0     -20.518  -6.344   4.739  0.00  0.00    -0.027 A 
HETATM   19  C   UNK     0     -21.759  -5.794   4.549  0.00  0.00    -0.031 A 
HETATM   20  C   UNK     0     -22.930  -6.010   5.491  0.00  0.00     0.051 C 
HETATM   21  C   UNK     0     -18.279  -6.337   3.525  0.00  0.00     0.115 C 
HETATM   22  C   UNK     0     -17.763  -6.549   2.121  0.00  0.00     0.022 A 
HETATM   23  N   UNK     0     -18.398  -7.098   1.078  0.00  0.00    -0.361 N 
HETATM   24  C   UNK     0     -17.622  -6.954  -0.015  0.00  0.00     0.021 A 
HETATM   25  C   UNK     0     -16.453  -6.305   0.335  0.00  0.00    -0.031 A 
HETATM   26  C   UNK     0     -15.262  -5.953  -0.531  0.00  0.00     0.051 C 
HETATM   27  C   UNK     0     -16.520  -6.036   1.697  0.00  0.00    -0.027 A 
HETATM   28  C   UNK     0     -17.953  -7.335  -1.448  0.00  0.00     0.115 C 
HETATM   29  H   UNK     0     -20.812  -7.376  -0.738  0.00  0.00     0.165 HD
HETATM   30  H   UNK     0     -21.460  -4.195   0.249  0.00  0.00     0.165 HD
HETATM   31  H   UNK     0     -20.062  -4.521   2.012  0.00  0.00     0.165 HD
HETATM   32  H   UNK     0     -19.383  -7.633   1.111  0.00  0.00     0.165 HD
ENDROOT
BRANCH   6  33
HETATM   33  C   UNK     0     -20.742  -4.253  -4.317  0.00  0.00     0.051 C 
BRANCH  33  34
HETATM   34  C   UNK     0     -21.796  -4.805  -5.248  0.00  0.00     0.114 C 
BRANCH  34  35
HETATM   35  C   UNK     0     -21.319  -4.585  -6.643  0.00  0.00     0.139 C 
HETATM   36  O   UNK     0     -20.091  -4.705  -6.924  0.00  0.00    -0.650 OA
BRANCH  35  37
HETATM   37  O   UNK     0     -22.177  -4.246  -7.683  0.00  0.00    -0.776 OA
HETATM   38  H   UNK     0     -22.281  -4.826  -8.500  0.00  0.00     0.167 HD
ENDBRANCH  35  37
ENDBRANCH  34  35
ENDBRANCH  33  34
ENDBRANCH   6  33
BRANCH  27  39
HETATM   39  C   UNK     0     -15.406  -5.404   2.455  0.00  0.00     0.051 C 
BRANCH  39  40
HETATM   40  C   UNK     0     -14.442  -6.275   3.127  0.00  0.00     0.114 C 
BRANCH  40  41
HETATM   41  C   UNK     0     -14.694  -6.839   4.434  0.00  0.00     0.139 C 
HETATM   42  O   UNK     0     -14.737  -6.165   5.472  0.00  0.00    -0.650 OA
BRANCH  41  43
HETATM   43  O   UNK     0     -14.905  -8.242   4.552  0.00  0.00    -0.776 OA
HETATM   44  H   UNK     0     -14.613  -8.779   3.745  0.00  0.00     0.167 HD
ENDBRANCH  41  43
ENDBRANCH  40  41
ENDBRANCH  39  40
ENDBRANCH  27  39
BRANCH  11  45
HETATM   45  C   UNK     0     -25.654  -5.632   1.935  0.00  0.00     0.051 C 
BRANCH  45  46
HETATM   46  C   UNK     0     -26.784  -4.688   1.745  0.00  0.00     0.114 C 
BRANCH  46  47
HETATM   47  C   UNK     0     -26.528  -3.510   2.623  0.00  0.00     0.139 C 
HETATM   48  O   UNK     0     -26.645  -3.648   3.848  0.00  0.00    -0.650 OA
BRANCH  47  49
HETATM   49  O   UNK     0     -26.172  -2.298   2.086  0.00  0.00    -0.776 OA
HETATM   50  H   UNK     0     -25.856  -2.204   1.114  0.00  0.00     0.167 HD
ENDBRANCH  47  49
ENDBRANCH  46  47
ENDBRANCH  45  46
ENDBRANCH  11  45
BRANCH  18  51
HETATM   51  C   UNK     0     -20.121  -7.245   5.879  0.00  0.00     0.051 C 
BRANCH  51  52
HETATM   52  C   UNK     0     -19.325  -6.382   6.847  0.00  0.00     0.114 C 
BRANCH  52  53
HETATM   53  C   UNK     0     -18.189  -7.120   7.433  0.00  0.00     0.139 C 
HETATM   54  O   UNK     0     -18.154  -7.338   8.655  0.00  0.00    -0.650 OA
BRANCH  53  55
HETATM   55  O   UNK     0     -17.172  -7.559   6.621  0.00  0.00    -0.776 OA
HETATM   56  H   UNK     0     -16.648  -7.001   5.988  0.00  0.00     0.167 HD
ENDBRANCH  53  55
ENDBRANCH  52  53
ENDBRANCH  51  52
ENDBRANCH  18  51
TORSDOF 16
ENDMDL
MODEL 3
REMARK VINA RESULT:      -9.3      7.762     11.732
REMARK  16 active torsions:
REMARK  status: ('A' for Active; 'I' for Inactive)
REMARK    1  A    between atoms: C_6  and  C_7 
REMARK    2  A    between atoms: C_7  and  C_8 
REMARK    3  A    between atoms: C_8  and  C_9 
REMARK    4  A    between atoms: C_9  and  O_11 
REMARK    5  A    between atoms: C_16  and  C_17 
REMARK    6  A    between atoms: C_17  and  C_18 
REMARK    7  A    between atoms: C_18  and  C_19 
REMARK    8  A    between atoms: C_19  and  O_21 
REMARK    9  A    between atoms: C_28  and  C_29 
REMARK   10  A    between atoms: C_29  and  C_30 
REMARK   11  A    between atoms: C_30  and  C_31 
REMARK   12  A    between atoms: C_31  and  O_33 
REMARK   13  A    between atoms: C_42  and  C_43 
REMARK   14  A    between atoms: C_43  and  C_44 
REMARK   15  A    between atoms: C_44  and  C_45 
REMARK   16  A    between atoms: C_45  and  O_47 
ROOT
HETATM    1  C   UNK     0     -30.729  -0.284  10.374  0.00  0.00     0.051 C 
HETATM    2  C   UNK     0     -29.982  -1.579  10.125  0.00  0.00    -0.031 A 
HETATM    3  C   UNK     0     -29.844  -2.303   8.951  0.00  0.00     0.021 A 
HETATM    4  N   UNK     0     -29.115  -3.416   9.202  0.00  0.00    -0.361 N 
HETATM    5  C   UNK     0     -28.778  -3.413  10.508  0.00  0.00     0.022 A 
HETATM    6  C   UNK     0     -29.306  -2.279  11.116  0.00  0.00    -0.027 A 
HETATM    7  C   UNK     0     -27.904  -4.361  11.269  0.00  0.00     0.115 C 
HETATM    8  C   UNK     0     -26.624  -4.807  10.583  0.00  0.00     0.021 A 
HETATM    9  N   UNK     0     -25.819  -4.101   9.775  0.00  0.00    -0.361 N 
HETATM   10  C   UNK     0     -24.850  -4.926   9.323  0.00  0.00     0.022 A 
HETATM   11  C   UNK     0     -25.032  -6.196   9.863  0.00  0.00    -0.027 A 
HETATM   12  C   UNK     0     -26.147  -6.128  10.658  0.00  0.00    -0.031 A 
HETATM   13  C   UNK     0     -26.724  -7.277  11.455  0.00  0.00     0.051 C 
HETATM   14  C   UNK     0     -23.751  -4.566   8.328  0.00  0.00     0.115 C 
HETATM   15  C   UNK     0     -24.272  -4.128   6.968  0.00  0.00     0.021 A 
HETATM   16  N   UNK     0     -25.099  -3.101   6.697  0.00  0.00    -0.361 N 
HETATM   17  C   UNK     0     -25.373  -3.092   5.391  0.00  0.00     0.022 A 
HETATM   18  C   UNK     0     -24.684  -4.158   4.780  0.00  0.00    -0.027 A 
HETATM   19  C   UNK     0     -23.997  -4.799   5.778  0.00  0.00    -0.031 A 
HETATM   20  C   UNK     0     -23.089  -5.993   5.546  0.00  0.00     0.051 C 
HETATM   21  C   UNK     0     -26.298  -2.196   4.598  0.00  0.00     0.115 C 
HETATM   22  C   UNK     0     -27.553  -1.709   5.283  0.00  0.00     0.022 A 
HETATM   23  N   UNK     0     -28.372  -2.389   6.096  0.00  0.00    -0.361 N 
HETATM   24  C   UNK     0     -29.283  -1.529   6.595  0.00  0.00     0.021 A 
HETATM   25  C   UNK     0     -29.051  -0.267   6.083  0.00  0.00    -0.031 A 
HETATM   26  C   UNK     0     -29.827   1.013   6.314  0.00  0.00     0.051 C 
HETATM   27  C   UNK     0     -27.949  -0.357   5.240  0.00  0.00    -0.027 A 
HETATM   28  C   UNK     0     -30.360  -1.812   7.628  0.00  0.00     0.115 C 
HETATM   29  H   UNK     0     -28.877  -4.216   8.463  0.00  0.00     0.165 HD
HETATM   30  H   UNK     0     -25.902  -3.007   9.561  0.00  0.00     0.165 HD
HETATM   31  H   UNK     0     -25.459  -2.337   7.434  0.00  0.00     0.165 HD
HETATM   32  H   UNK     0     -28.342  -3.492   6.291  0.00  0.00     0.165 HD
ENDROOT
BRANCH   6  33
HETATM   33  C   UNK     0     -29.222  -1.818  12.549  0.00  0.00     0.051 C 
BRANCH  33  34
HETATM   34  C   UNK     0     -28.084  -0.841  12.731  0.00  0.00     0.114 C 
BRANCH  34  35
HETATM   35  C   UNK     0     -27.033  -1.525  13.537  0.00  0.00     0.139 C 
HETATM   36  O   UNK     0     -27.177  -1.663  14.787  0.00  0.00    -0.650 OA
BRANCH  35  37
HETATM   37  O   UNK     0     -25.870  -2.036  12.973  0.00  0.00    -0.776 OA
HETATM   38  H   UNK     0     -24.957  -1.695  13.229  0.00  0.00     0.167 HD
ENDBRANCH  35  37
ENDBRANCH  34  35
ENDBRANCH  33  34
ENDBRANCH   6  33
BRANCH  27  39
HETATM   39  C   UNK     0     -27.440   0.794   4.446  0.00  0.00     0.051 C 
BRANCH  39  40
HETATM   40  C   UNK     0     -27.356   0.652   2.992  0.00  0.00     0.114 C 
BRANCH  40  41
HETATM   41  C   UNK     0     -27.371   1.792   2.104  0.00  0.00     0.139 C 
HETATM   42  O   UNK     0     -27.915   1.785   0.992  0.00  0.00    -0.650 OA
BRANCH  41  43
HETATM   43  O   UNK     0     -26.731   2.996   2.515  0.00  0.00    -0.776 OA
HETATM   44  H   UNK     0     -25.946   3.271   1.937  0.00  0.00     0.167 HD
ENDBRANCH  41  43
ENDBRANCH  40  41
ENDBRANCH  39  40
ENDBRANCH  27  39
BRANCH  11  45
HETATM   45  C   UNK     0     -24.202  -7.435   9.656  0.00  0.00     0.051 C 
BRANCH  45  46
HETATM   46  C   UNK     0     -24.427  -8.104   8.349  0.00  0.00     0.114 C 
BRANCH  46  47
HETATM   47  C   UNK     0     -25.531  -9.088   8.541  0.00  0.00     0.139 C 
HETATM   48  O   UNK     0     -26.431  -9.141   7.692  0.00  0.00    -0.650 OA
BRANCH  47  49
HETATM   49  O   UNK     0     -25.551  -9.916   9.635  0.00  0.00    -0.776 OA
HETATM   50  H   UNK     0     -25.901 -10.880   9.582  0.00  0.00     0.167 HD
ENDBRANCH  47  49
ENDBRANCH  46  47
ENDBRANCH  45  46
ENDBRANCH  11  45
BRANCH  18  51
HETATM   51  C   UNK     0     -24.665  -4.534   3.321  0.00  0.00     0.051 C 
BRANCH  51  52
HETATM   52  C   UNK     0     -25.893  -5.401   3.088  0.00  0.00     0.114 C 
BRANCH  52  53
HETATM   53  C   UNK     0     -26.095  -5.695   1.656  0.00  0.00     0.139 C 
HETATM   54  O   UNK     0     -25.327  -5.212   0.808  0.00  0.00    -0.650 OA
BRANCH  53  55
HETATM   55  O   UNK     0     -27.139  -6.500   1.268  0.00  0.00    -0.776 OA
HETATM   56  H   UNK     0     -27.840  -6.268   0.605  0.00  0.00     0.167 HD
ENDBRANCH  53  55
ENDBRANCH  52  53
ENDBRANCH  51  52
ENDBRANCH  18  51
TORSDOF 16
ENDMDL
MODEL 4
REMARK VINA RESULT:      -9.3      2.419      7.451
REMARK  16 active torsions:
REMARK  status: ('A' for Active; 'I' for Inactive)
REMARK    1  A    between atoms: C_6  and  C_7 
REMARK    2  A    between atoms: C_7  and  C_8 
REMARK    3  A    between atoms: C_8  and  C_9 
REMARK    4  A    between atoms: C_9  and  O_11 
REMARK    5  A    between atoms: C_16  and  C_17 
REMARK    6  A    between atoms: C_17  and  C_18 
REMARK    7  A    between atoms: C_18  and  C_19 
REMARK    8  A    between atoms: C_19  and  O_21 
REMARK    9  A    between atoms: C_28  and  C_29 
REMARK   10  A    between atoms: C_29  and  C_30 
REMARK   11  A    between atoms: C_30  and  C_31 
REMARK   12  A    between atoms: C_31  and  O_33 
REMARK   13  A    between atoms: C_42  and  C_43 
REMARK   14  A    between atoms: C_43  and  C_44 
REMARK   15  A    between atoms: C_44  and  C_45 
REMARK   16  A    between atoms: C_45  and  O_47 
ROOT
HETATM    1  C   UNK     0     -15.074  -6.600   3.777  0.00  0.00     0.051 C 
HETATM    2  C   UNK     0     -16.438  -5.965   3.597  0.00  0.00    -0.031 A 
HETATM    3  C   UNK     0     -16.856  -5.024   2.670  0.00  0.00     0.021 A 
HETATM    4  N   UNK     0     -18.155  -4.721   2.902  0.00  0.00    -0.361 N 
HETATM    5  C   UNK     0     -18.577  -5.454   3.953  0.00  0.00     0.022 A 
HETATM    6  C   UNK     0     -17.527  -6.242   4.414  0.00  0.00    -0.027 A 
HETATM    7  C   UNK     0     -19.945  -5.563   4.550  0.00  0.00     0.115 C 
HETATM    8  C   UNK     0     -21.108  -5.652   3.578  0.00  0.00     0.021 A 
HETATM    9  N   UNK     0     -21.156  -6.266   2.385  0.00  0.00    -0.361 N 
HETATM   10  C   UNK     0     -22.358  -6.008   1.829  0.00  0.00     0.022 A 
HETATM   11  C   UNK     0     -23.109  -5.214   2.691  0.00  0.00    -0.027 A 
HETATM   12  C   UNK     0     -22.328  -4.986   3.795  0.00  0.00    -0.031 A 
HETATM   13  C   UNK     0     -22.736  -4.172   5.002  0.00  0.00     0.051 C 
HETATM   14  C   UNK     0     -22.826  -6.453   0.446  0.00  0.00     0.115 C 
HETATM   15  C   UNK     0     -21.975  -5.916  -0.694  0.00  0.00     0.021 A 
HETATM   16  N   UNK     0     -20.655  -6.095  -0.888  0.00  0.00    -0.361 N 
HETATM   17  C   UNK     0     -20.272  -5.404  -1.964  0.00  0.00     0.022 A 
HETATM   18  C   UNK     0     -21.399  -4.751  -2.502  0.00  0.00    -0.027 A 
HETATM   19  C   UNK     0     -22.459  -5.081  -1.698  0.00  0.00    -0.031 A 
HETATM   20  C   UNK     0     -23.882  -4.614  -1.945  0.00  0.00     0.051 C 
HETATM   21  C   UNK     0     -18.895  -5.216  -2.559  0.00  0.00     0.115 C 
HETATM   22  C   UNK     0     -17.724  -5.169  -1.606  0.00  0.00     0.022 A 
HETATM   23  N   UNK     0     -17.649  -4.569  -0.411  0.00  0.00    -0.361 N 
HETATM   24  C   UNK     0     -16.474  -4.904   0.159  0.00  0.00     0.021 A 
HETATM   25  C   UNK     0     -15.770  -5.731  -0.695  0.00  0.00    -0.031 A 
HETATM   26  C   UNK     0     -14.391  -6.332  -0.519  0.00  0.00     0.051 C 
HETATM   27  C   UNK     0     -16.549  -5.915  -1.832  0.00  0.00    -0.027 A 
HETATM   28  C   UNK     0     -15.978  -4.543   1.548  0.00  0.00     0.115 C 
HETATM   29  H   UNK     0     -18.753  -3.961   2.348  0.00  0.00     0.165 HD
HETATM   30  H   UNK     0     -20.361  -6.923   1.955  0.00  0.00     0.165 HD
HETATM   31  H   UNK     0     -19.987  -6.761  -0.281  0.00  0.00     0.165 HD
HETATM   32  H   UNK     0     -18.408  -3.868   0.024  0.00  0.00     0.165 HD
ENDROOT
BRANCH   6  33
HETATM   33  C   UNK     0     -17.480  -7.223   5.558  0.00  0.00     0.051 C 
BRANCH  33  34
HETATM   34  C   UNK     0     -17.213  -6.511   6.863  0.00  0.00     0.114 C 
BRANCH  34  35
HETATM   35  C   UNK     0     -17.858  -7.307   7.946  0.00  0.00     0.139 C 
HETATM   36  O   UNK     0     -17.626  -8.547   8.050  0.00  0.00    -0.650 OA
BRANCH  35  37
HETATM   37  O   UNK     0     -18.724  -6.744   8.875  0.00  0.00    -0.776 OA
HETATM   38  H   UNK     0     -19.187  -7.297   9.579  0.00  0.00     0.167 HD
ENDBRANCH  35  37
ENDBRANCH  34  35
ENDBRANCH  33  34
ENDBRANCH   6  33
BRANCH  27  39
HETATM   39  C   UNK     0     -16.089  -6.695  -3.012  0.00  0.00     0.051 C 
BRANCH  39  40
HETATM   40  C   UNK     0     -15.143  -6.066  -3.934  0.00  0.00     0.114 C 
BRANCH  40  41
HETATM   41  C   UNK     0     -15.517  -4.960  -4.786  0.00  0.00     0.139 C 
HETATM   42  O   UNK     0     -14.746  -4.039  -5.089  0.00  0.00    -0.650 OA
BRANCH  41  43
HETATM   43  O   UNK     0     -16.839  -4.910  -5.313  0.00  0.00    -0.776 OA
HETATM   44  H   UNK     0     -17.551  -4.663  -4.637  0.00  0.00     0.167 HD
ENDBRANCH  41  43
ENDBRANCH  40  41
ENDBRANCH  39  40
ENDBRANCH  27  39
BRANCH  11  45
HETATM   45  C   UNK     0     -24.506  -4.683   2.506  0.00  0.00     0.051 C 
BRANCH  45  46
HETATM   46  C   UNK     0     -24.605  -3.563   1.535  0.00  0.00     0.114 C 
BRANCH  46  47
HETATM   47  C   UNK     0     -26.047  -3.399   1.197  0.00  0.00     0.139 C 
HETATM   48  O   UNK     0     -26.885  -4.037   1.849  0.00  0.00    -0.650 OA
BRANCH  47  49
HETATM   49  O   UNK     0     -26.440  -2.560   0.184  0.00  0.00    -0.776 OA
HETATM   50  H   UNK     0     -26.227  -1.556   0.195  0.00  0.00     0.167 HD
ENDBRANCH  47  49
ENDBRANCH  46  47
ENDBRANCH  45  46
ENDBRANCH  11  45
BRANCH  18  51
HETATM   51  C   UNK     0     -21.465  -3.878  -3.728  0.00  0.00     0.051 C 
BRANCH  51  52
HETATM   52  C   UNK     0     -21.669  -4.816  -4.909  0.00  0.00     0.114 C 
BRANCH  52  53
HETATM   53  C   UNK     0     -20.821  -4.444  -6.059  0.00  0.00     0.139 C 
HETATM   54  O   UNK     0     -19.600  -4.663  -6.027  0.00  0.00    -0.650 OA
BRANCH  53  55
HETATM   55  O   UNK     0     -21.391  -3.853  -7.160  0.00  0.00    -0.776 OA
HETATM   56  H   UNK     0     -22.180  -4.189  -7.661  0.00  0.00     0.167 HD
ENDBRANCH  53  55
ENDBRANCH  52  53
ENDBRANCH  51  52
ENDBRANCH  18  51
TORSDOF 16
ENDMDL
MODEL 5
REMARK VINA RESULT:      -9.3      4.698      8.467
REMARK  16 active torsions:
REMARK  status: ('A' for Active; 'I' for Inactive)
REMARK    1  A    between atoms: C_6  and  C_7 
REMARK    2  A    between atoms: C_7  and  C_8 
REMARK    3  A    between atoms: C_8  and  C_9 
REMARK    4  A    between atoms: C_9  and  O_11 
REMARK    5  A    between atoms: C_16  and  C_17 
REMARK    6  A    between atoms: C_17  and  C_18 
REMARK    7  A    between atoms: C_18  and  C_19 
REMARK    8  A    between atoms: C_19  and  O_21 
REMARK    9  A    between atoms: C_28  and  C_29 
REMARK   10  A    between atoms: C_29  and  C_30 
REMARK   11  A    between atoms: C_30  and  C_31 
REMARK   12  A    between atoms: C_31  and  O_33 
REMARK   13  A    between atoms: C_42  and  C_43 
REMARK   14  A    between atoms: C_43  and  C_44 
REMARK   15  A    between atoms: C_44  and  C_45 
REMARK   16  A    between atoms: C_45  and  O_47 
ROOT
HETATM    1  C   UNK     0     -25.384  -1.277  -0.490  0.00  0.00     0.051 C 
HETATM    2  C   UNK     0     -25.909  -1.574   0.900  0.00  0.00    -0.031 A 
HETATM    3  C   UNK     0     -25.977  -2.783   1.575  0.00  0.00     0.021 A 
HETATM    4  N   UNK     0     -26.550  -2.581   2.785  0.00  0.00    -0.361 N 
HETATM    5  C   UNK     0     -26.839  -1.269   2.900  0.00  0.00     0.022 A 
HETATM    6  C   UNK     0     -26.454  -0.610   1.737  0.00  0.00    -0.027 A 
HETATM    7  C   UNK     0     -27.391  -0.514   4.069  0.00  0.00     0.115 C 
HETATM    8  C   UNK     0     -26.825  -0.863   5.434  0.00  0.00     0.021 A 
HETATM    9  N   UNK     0     -25.568  -1.210   5.754  0.00  0.00    -0.361 N 
HETATM   10  C   UNK     0     -25.541  -1.521   7.067  0.00  0.00     0.022 A 
HETATM   11  C   UNK     0     -26.813  -1.362   7.610  0.00  0.00    -0.027 A 
HETATM   12  C   UNK     0     -27.627  -0.948   6.587  0.00  0.00    -0.031 A 
HETATM   13  C   UNK     0     -29.102  -0.642   6.712  0.00  0.00     0.051 C 
HETATM   14  C   UNK     0     -24.333  -2.031   7.848  0.00  0.00     0.115 C 
HETATM   15  C   UNK     0     -23.778  -3.349   7.333  0.00  0.00     0.021 A 
HETATM   16  N   UNK     0     -23.316  -3.618   6.097  0.00  0.00    -0.361 N 
HETATM   17  C   UNK     0     -22.984  -4.909   6.025  0.00  0.00     0.022 A 
HETATM   18  C   UNK     0     -23.233  -5.508   7.276  0.00  0.00    -0.027 A 
HETATM   19  C   UNK     0     -23.729  -4.519   8.087  0.00  0.00    -0.031 A 
HETATM   20  C   UNK     0     -24.098  -4.729   9.544  0.00  0.00     0.051 C 
HETATM   21  C   UNK     0     -22.488  -5.721   4.850  0.00  0.00     0.115 C 
HETATM   22  C   UNK     0     -23.010  -5.356   3.480  0.00  0.00     0.022 A 
HETATM   23  N   UNK     0     -24.255  -5.003   3.133  0.00  0.00    -0.361 N 
HETATM   24  C   UNK     0     -24.241  -4.622   1.840  0.00  0.00     0.021 A 
HETATM   25  C   UNK     0     -22.959  -4.743   1.339  0.00  0.00    -0.031 A 
HETATM   26  C   UNK     0     -22.455  -4.475  -0.064  0.00  0.00     0.051 C 
HETATM   27  C   UNK     0     -22.153  -5.211   2.370  0.00  0.00    -0.027 A 
HETATM   28  C   UNK     0     -25.392  -4.054   1.027  0.00  0.00     0.115 C 
HETATM   29  H   UNK     0     -26.781  -3.374   3.534  0.00  0.00     0.165 HD
HETATM   30  H   UNK     0     -24.688  -1.187   5.067  0.00  0.00     0.165 HD
HETATM   31  H   UNK     0     -23.176  -2.872   5.272  0.00  0.00     0.165 HD
HETATM   32  H   UNK     0     -25.164  -5.061   3.787  0.00  0.00     0.165 HD
ENDROOT
BRANCH   6  33
HETATM   33  C   UNK     0     -26.566   0.847   1.365  0.00  0.00     0.051 C 
BRANCH  33  34
HETATM   34  C   UNK     0     -25.563   1.674   2.134  0.00  0.00     0.114 C 
BRANCH  34  35
HETATM   35  C   UNK     0     -26.026   3.091   2.092  0.00  0.00     0.139 C 
HETATM   36  O   UNK     0     -25.277   3.992   1.613  0.00  0.00    -0.650 OA
BRANCH  35  37
HETATM   37  O   UNK     0     -27.273   3.486   2.560  0.00  0.00    -0.776 OA
HETATM   38  H   UNK     0     -27.390   3.944   3.450  0.00  0.00     0.167 HD
ENDBRANCH  35  37
ENDBRANCH  34  35
ENDBRANCH  33  34
ENDBRANCH   6  33
BRANCH  27  39
HETATM   39  C   UNK     0     -20.712  -5.534   2.190  0.00  0.00     0.051 C 
BRANCH  39  40
HETATM   40  C   UNK     0     -20.356  -6.854   1.670  0.00  0.00     0.114 C 
BRANCH  40  41
HETATM   41  C   UNK     0     -19.341  -7.034   0.656  0.00  0.00     0.139 C 
HETATM   42  O   UNK     0     -18.529  -7.970   0.661  0.00  0.00    -0.650 OA
BRANCH  41  43
HETATM   43  O   UNK     0     -19.256  -6.097  -0.412  0.00  0.00    -0.776 OA
HETATM   44  H   UNK     0     -18.534  -6.301  -1.093  0.00  0.00     0.167 HD
ENDBRANCH  41  43
ENDBRANCH  40  41
ENDBRANCH  39  40
ENDBRANCH  27  39
BRANCH  11  45
HETATM   45  C   UNK     0     -27.266  -1.583   9.028  0.00  0.00     0.051 C 
BRANCH  45  46
HETATM   46  C   UNK     0     -27.159  -2.991   9.487  0.00  0.00     0.114 C 
BRANCH  46  47
HETATM   47  C   UNK     0     -28.255  -3.756   8.826  0.00  0.00     0.139 C 
HETATM   48  O   UNK     0     -27.956  -4.726   8.116  0.00  0.00    -0.650 OA
BRANCH  47  49
HETATM   49  O   UNK     0     -29.567  -3.393   8.997  0.00  0.00    -0.776 OA
HETATM   50  H   UNK     0     -29.842  -2.427   9.213  0.00  0.00     0.167 HD
ENDBRANCH  47  49
ENDBRANCH  46  47
ENDBRANCH  45  46
ENDBRANCH  11  45
BRANCH  18  51
HETATM   51  C   UNK     0     -22.992  -6.938   7.684  0.00  0.00     0.051 C 
BRANCH  51  52
HETATM   52  C   UNK     0     -24.168  -7.739   7.145  0.00  0.00     0.114 C 
BRANCH  52  53
HETATM   53  C   UNK     0     -25.142  -8.065   8.205  0.00  0.00     0.139 C 
HETATM   54  O   UNK     0     -24.959  -9.053   8.934  0.00  0.00    -0.650 OA
BRANCH  53  55
HETATM   55  O   UNK     0     -26.250  -7.272   8.377  0.00  0.00    -0.776 OA
HETATM   56  H   UNK     0     -27.195  -7.573   8.338  0.00  0.00     0.167 HD
ENDBRANCH  53  55
ENDBRANCH  52  53
ENDBRANCH  51  52
ENDBRANCH  18  51
TORSDOF 16
ENDMDL
MODEL 6
REMARK VINA RESULT:      -9.0      7.509     12.716
REMARK  16 active torsions:
REMARK  status: ('A' for Active; 'I' for Inactive)
REMARK    1  A    between atoms: C_6  and  C_7 
REMARK    2  A    between atoms: C_7  and  C_8 
REMARK    3  A    between atoms: C_8  and  C_9 
REMARK    4  A    between atoms: C_9  and  O_11 
REMARK    5  A    between atoms: C_16  and  C_17 
REMARK    6  A    between atoms: C_17  and  C_18 
REMARK    7  A    between atoms: C_18  and  C_19 
REMARK    8  A    between atoms: C_19  and  O_21 
REMARK    9  A    between atoms: C_28  and  C_29 
REMARK   10  A    between atoms: C_29  and  C_30 
REMARK   11  A    between atoms: C_30  and  C_31 
REMARK   12  A    between atoms: C_31  and  O_33 
REMARK   13  A    between atoms: C_42  and  C_43 
REMARK   14  A    between atoms: C_43  and  C_44 
REMARK   15  A    between atoms: C_44  and  C_45 
REMARK   16  A    between atoms: C_45  and  O_47 
ROOT
HETATM    1  C   UNK     0     -26.563  -1.446   2.042  0.00  0.00     0.051 C 
HETATM    2  C   UNK     0     -25.938  -2.238   3.172  0.00  0.00    -0.031 A 
HETATM    3  C   UNK     0     -25.731  -1.874   4.493  0.00  0.00     0.021 A 
HETATM    4  N   UNK     0     -25.111  -2.889   5.139  0.00  0.00    -0.361 N 
HETATM    5  C   UNK     0     -24.925  -3.896   4.261  0.00  0.00     0.022 A 
HETATM    6  C   UNK     0     -25.428  -3.522   3.020  0.00  0.00    -0.027 A 
HETATM    7  C   UNK     0     -24.373  -5.268   4.489  0.00  0.00     0.115 C 
HETATM    8  C   UNK     0     -24.831  -5.987   5.746  0.00  0.00     0.021 A 
HETATM    9  N   UNK     0     -26.034  -5.949   6.339  0.00  0.00    -0.361 N 
HETATM   10  C   UNK     0     -25.961  -6.667   7.481  0.00  0.00     0.022 A 
HETATM   11  C   UNK     0     -24.679  -7.188   7.622  0.00  0.00    -0.027 A 
HETATM   12  C   UNK     0     -23.961  -6.764   6.532  0.00  0.00    -0.031 A 
HETATM   13  C   UNK     0     -22.511  -7.095   6.258  0.00  0.00     0.051 C 
HETATM   14  C   UNK     0     -27.077  -6.844   8.506  0.00  0.00     0.115 C 
HETATM   15  C   UNK     0     -27.549  -5.543   9.134  0.00  0.00     0.021 A 
HETATM   16  N   UNK     0     -28.056  -4.464   8.508  0.00  0.00    -0.361 N 
HETATM   17  C   UNK     0     -28.282  -3.502   9.405  0.00  0.00     0.022 A 
HETATM   18  C   UNK     0     -27.915  -3.980  10.678  0.00  0.00    -0.027 A 
HETATM   19  C   UNK     0     -27.458  -5.259  10.496  0.00  0.00    -0.031 A 
HETATM   20  C   UNK     0     -26.991  -6.158  11.626  0.00  0.00     0.051 C 
HETATM   21  C   UNK     0     -28.774  -2.086   9.208  0.00  0.00     0.115 C 
HETATM   22  C   UNK     0     -28.362  -1.375   7.940  0.00  0.00     0.022 A 
HETATM   23  N   UNK     0     -27.173  -1.397   7.325  0.00  0.00    -0.361 N 
HETATM   24  C   UNK     0     -27.290  -0.742   6.153  0.00  0.00     0.021 A 
HETATM   25  C   UNK     0     -28.584  -0.277   6.014  0.00  0.00    -0.031 A 
HETATM   26  C   UNK     0     -29.187   0.545   4.894  0.00  0.00     0.051 C 
HETATM   27  C   UNK     0     -29.289  -0.669   7.146  0.00  0.00    -0.027 A 
HETATM   28  C   UNK     0     -26.239  -0.582   5.068  0.00  0.00     0.115 C 
HETATM   29  H   UNK     0     -24.772  -2.872   6.201  0.00  0.00     0.165 HD
HETATM   30  H   UNK     0     -26.951  -5.459   5.930  0.00  0.00     0.165 HD
HETATM   31  H   UNK     0     -28.303  -4.397   7.416  0.00  0.00     0.165 HD
HETATM   32  H   UNK     0     -26.227  -1.839   7.733  0.00  0.00     0.165 HD
ENDROOT
BRANCH   6  33
HETATM   33  C   UNK     0     -25.459  -4.279   1.717  0.00  0.00     0.051 C 
BRANCH  33  34
HETATM   34  C   UNK     0     -26.711  -5.118   1.615  0.00  0.00     0.114 C 
BRANCH  34  35
HETATM   35  C   UNK     0     -26.463  -6.167   0.585  0.00  0.00     0.139 C 
HETATM   36  O   UNK     0     -25.789  -5.896  -0.451  0.00  0.00    -0.650 OA
BRANCH  35  37
HETATM   37  O   UNK     0     -26.945  -7.465   0.705  0.00  0.00    -0.776 OA
HETATM   38  H   UNK     0     -26.417  -8.263   0.390  0.00  0.00     0.167 HD
ENDBRANCH  35  37
ENDBRANCH  34  35
ENDBRANCH  33  34
ENDBRANCH   6  33
BRANCH  27  39
HETATM   39  C   UNK     0     -30.707  -0.288   7.391  0.00  0.00     0.051 C 
BRANCH  39  40
HETATM   40  C   UNK     0     -30.978   0.990   8.049  0.00  0.00     0.114 C 
BRANCH  40  41
HETATM   41  C   UNK     0     -30.342   1.368   9.291  0.00  0.00     0.139 C 
HETATM   42  O   UNK     0     -30.576   0.816  10.374  0.00  0.00    -0.650 OA
BRANCH  41  43
HETATM   43  O   UNK     0     -29.392   2.428   9.286  0.00  0.00    -0.776 OA
HETATM   44  H   UNK     0     -29.704   3.268   8.813  0.00  0.00     0.167 HD
ENDBRANCH  41  43
ENDBRANCH  40  41
ENDBRANCH  39  40
ENDBRANCH  27  39
BRANCH  11  45
HETATM   45  C   UNK     0     -24.130  -8.054   8.724  0.00  0.00     0.051 C 
BRANCH  45  46
HETATM   46  C   UNK     0     -23.931  -7.341  10.012  0.00  0.00     0.114 C 
BRANCH  46  47
HETATM   47  C   UNK     0     -24.334  -8.276  11.101  0.00  0.00     0.139 C 
HETATM   48  O   UNK     0     -23.898  -8.078  12.244  0.00  0.00    -0.650 OA
BRANCH  47  49
HETATM   49  O   UNK     0     -25.168  -9.335  10.845  0.00  0.00    -0.776 OA
HETATM   50  H   UNK     0     -24.825 -10.215  10.444  0.00  0.00     0.167 HD
ENDBRANCH  47  49
ENDBRANCH  46  47
ENDBRANCH  45  46
ENDBRANCH  11  45
BRANCH  18  51
HETATM   51  C   UNK     0     -28.013  -3.263  12.000  0.00  0.00     0.051 C 
BRANCH  51  52
HETATM   52  C   UNK     0     -29.408  -3.547  12.536  0.00  0.00     0.114 C 
BRANCH  52  53
HETATM   53  C   UNK     0     -29.395  -3.820  13.986  0.00  0.00     0.139 C 
HETATM   54  O   UNK     0     -28.792  -3.058  14.757  0.00  0.00    -0.650 OA
BRANCH  53  55
HETATM   55  O   UNK     0     -30.051  -4.924  14.475  0.00  0.00    -0.776 OA
HETATM   56  H   UNK     0     -30.923  -5.274  14.156  0.00  0.00     0.167 HD
ENDBRANCH  53  55
ENDBRANCH  52  53
ENDBRANCH  51  52
ENDBRANCH  18  51
TORSDOF 16
ENDMDL
MODEL 7
REMARK VINA RESULT:      -8.9      5.258      9.483
REMARK  16 active torsions:
REMARK  status: ('A' for Active; 'I' for Inactive)
REMARK    1  A    between atoms: C_6  and  C_7 
REMARK    2  A    between atoms: C_7  and  C_8 
REMARK    3  A    between atoms: C_8  and  C_9 
REMARK    4  A    between atoms: C_9  and  O_11 
REMARK    5  A    between atoms: C_16  and  C_17 
REMARK    6  A    between atoms: C_17  and  C_18 
REMARK    7  A    between atoms: C_18  and  C_19 
REMARK    8  A    between atoms: C_19  and  O_21 
REMARK    9  A    between atoms: C_28  and  C_29 
REMARK   10  A    between atoms: C_29  and  C_30 
REMARK   11  A    between atoms: C_30  and  C_31 
REMARK   12  A    between atoms: C_31  and  O_33 
REMARK   13  A    between atoms: C_42  and  C_43 
REMARK   14  A    between atoms: C_43  and  C_44 
REMARK   15  A    between atoms: C_44  and  C_45 
REMARK   16  A    between atoms: C_45  and  O_47 
ROOT
HETATM    1  C   UNK     0     -25.579  -2.064   1.245  0.00  0.00     0.051 C 
HETATM    2  C   UNK     0     -26.182  -2.329   2.609  0.00  0.00    -0.031 A 
HETATM    3  C   UNK     0     -26.221  -3.506   3.340  0.00  0.00     0.021 A 
HETATM    4  N   UNK     0     -26.890  -3.286   4.496  0.00  0.00    -0.361 N 
HETATM    5  C   UNK     0     -27.271  -1.992   4.522  0.00  0.00     0.022 A 
HETATM    6  C   UNK     0     -26.846  -1.365   3.356  0.00  0.00    -0.027 A 
HETATM    7  C   UNK     0     -27.952  -1.222   5.610  0.00  0.00     0.115 C 
HETATM    8  C   UNK     0     -27.463  -1.466   7.027  0.00  0.00     0.021 A 
HETATM    9  N   UNK     0     -26.214  -1.712   7.450  0.00  0.00    -0.361 N 
HETATM   10  C   UNK     0     -26.261  -1.959   8.776  0.00  0.00     0.022 A 
HETATM   11  C   UNK     0     -27.575  -1.860   9.222  0.00  0.00    -0.027 A 
HETATM   12  C   UNK     0     -28.338  -1.549   8.125  0.00  0.00    -0.031 A 
HETATM   13  C   UNK     0     -29.836  -1.338   8.133  0.00  0.00     0.051 C 
HETATM   14  C   UNK     0     -25.081  -2.348   9.663  0.00  0.00     0.115 C 
HETATM   15  C   UNK     0     -24.408  -3.649   9.256  0.00  0.00     0.021 A 
HETATM   16  N   UNK     0     -23.842  -3.945   8.071  0.00  0.00    -0.361 N 
HETATM   17  C   UNK     0     -23.425  -5.213   8.089  0.00  0.00     0.022 A 
HETATM   18  C   UNK     0     -23.724  -5.766   9.350  0.00  0.00    -0.027 A 
HETATM   19  C   UNK     0     -24.338  -4.776  10.072  0.00  0.00    -0.031 A 
HETATM   20  C   UNK     0     -24.797  -4.940  11.509  0.00  0.00     0.051 C 
HETATM   21  C   UNK     0     -22.795  -6.044   6.994  0.00  0.00     0.115 C 
HETATM   22  C   UNK     0     -23.240  -5.781   5.575  0.00  0.00     0.022 A 
HETATM   23  N   UNK     0     -24.477  -5.529   5.126  0.00  0.00    -0.361 N 
HETATM   24  C   UNK     0     -24.395  -5.210   3.818  0.00  0.00     0.021 A 
HETATM   25  C   UNK     0     -23.076  -5.268   3.413  0.00  0.00    -0.031 A 
HETATM   26  C   UNK     0     -22.490  -5.033   2.036  0.00  0.00     0.051 C 
HETATM   27  C   UNK     0     -22.317  -5.631   4.520  0.00  0.00    -0.027 A 
HETATM   28  C   UNK     0     -25.518  -4.759   2.900  0.00  0.00     0.115 C 
HETATM   29  H   UNK     0     -27.124  -4.056   5.268  0.00  0.00     0.165 HD
HETATM   30  H   UNK     0     -25.289  -1.663   6.824  0.00  0.00     0.165 HD
HETATM   31  H   UNK     0     -23.692  -3.231   7.220  0.00  0.00     0.165 HD
HETATM   32  H   UNK     0     -25.425  -5.617   5.718  0.00  0.00     0.165 HD
ENDROOT
BRANCH   6  33
HETATM   33  C   UNK     0     -27.023   0.062   2.902  0.00  0.00     0.051 C 
BRANCH  33  34
HETATM   34  C   UNK     0     -25.878   0.922   3.381  0.00  0.00     0.114 C 
BRANCH  34  35
HETATM   35  C   UNK     0     -26.229   1.414   4.744  0.00  0.00     0.139 C 
HETATM   36  O   UNK     0     -25.468   1.168   5.725  0.00  0.00    -0.650 OA
BRANCH  35  37
HETATM   37  O   UNK     0     -27.378   2.151   5.003  0.00  0.00    -0.776 OA
HETATM   38  H   UNK     0     -27.341   3.110   5.308  0.00  0.00     0.167 HD
ENDBRANCH  35  37
ENDBRANCH  34  35
ENDBRANCH  33  34
ENDBRANCH   6  33
BRANCH  27  39
HETATM   39  C   UNK     0     -20.849  -5.865   4.455  0.00  0.00     0.051 C 
BRANCH  39  40
HETATM   40  C   UNK     0     -20.144  -6.200   5.692  0.00  0.00     0.114 C 
BRANCH  40  41
HETATM   41  C   UNK     0     -18.855  -6.854   5.692  0.00  0.00     0.139 C 
HETATM   42  O   UNK     0     -18.385  -7.440   6.677  0.00  0.00    -0.650 OA
BRANCH  41  43
HETATM   43  O   UNK     0     -18.071  -6.834   4.504  0.00  0.00    -0.776 OA
HETATM   44  H   UNK     0     -17.251  -6.242   4.553  0.00  0.00     0.167 HD
ENDBRANCH  41  43
ENDBRANCH  40  41
ENDBRANCH  39  40
ENDBRANCH  27  39
BRANCH  11  45
HETATM   45  C   UNK     0     -28.114  -2.042  10.615  0.00  0.00     0.051 C 
BRANCH  45  46
HETATM   46  C   UNK     0     -27.921  -3.408  11.165  0.00  0.00     0.114 C 
BRANCH  46  47
HETATM   47  C   UNK     0     -28.772  -4.332  10.361  0.00  0.00     0.139 C 
HETATM   48  O   UNK     0     -28.219  -5.231   9.712  0.00  0.00    -0.650 OA
BRANCH  47  49
HETATM   49  O   UNK     0     -30.136  -4.190  10.337  0.00  0.00    -0.776 OA
HETATM   50  H   UNK     0     -30.627  -3.542  10.964  0.00  0.00     0.167 HD
ENDBRANCH  47  49
ENDBRANCH  46  47
ENDBRANCH  45  46
ENDBRANCH  11  45
BRANCH  18  51
HETATM   51  C   UNK     0     -23.422  -7.156   9.846  0.00  0.00     0.051 C 
BRANCH  51  52
HETATM   52  C   UNK     0     -24.759  -7.875   9.942  0.00  0.00     0.114 C 
BRANCH  52  53
HETATM   53  C   UNK     0     -25.337  -8.139   8.610  0.00  0.00     0.139 C 
HETATM   54  O   UNK     0     -26.492  -7.765   8.348  0.00  0.00    -0.650 OA
BRANCH  53  55
HETATM   55  O   UNK     0     -24.593  -8.803   7.666  0.00  0.00    -0.776 OA
HETATM   56  H   UNK     0     -24.019  -9.598   7.827  0.00  0.00     0.167 HD
ENDBRANCH  53  55
ENDBRANCH  52  53
ENDBRANCH  51  52
ENDBRANCH  18  51
TORSDOF 16
ENDMDL
MODEL 8
REMARK VINA RESULT:      -8.7      7.479     11.544
REMARK  16 active torsions:
REMARK  status: ('A' for Active; 'I' for Inactive)
REMARK    1  A    between atoms: C_6  and  C_7 
REMARK    2  A    between atoms: C_7  and  C_8 
REMARK    3  A    between atoms: C_8  and  C_9 
REMARK    4  A    between atoms: C_9  and  O_11 
REMARK    5  A    between atoms: C_16  and  C_17 
REMARK    6  A    between atoms: C_17  and  C_18 
REMARK    7  A    between atoms: C_18  and  C_19 
REMARK    8  A    between atoms: C_19  and  O_21 
REMARK    9  A    between atoms: C_28  and  C_29 
REMARK   10  A    between atoms: C_29  and  C_30 
REMARK   11  A    between atoms: C_30  and  C_31 
REMARK   12  A    between atoms: C_31  and  O_33 
REMARK   13  A    between atoms: C_42  and  C_43 
REMARK   14  A    between atoms: C_43  and  C_44 
REMARK   15  A    between atoms: C_44  and  C_45 
REMARK   16  A    between atoms: C_45  and  O_47 
ROOT
HETATM    1  C   UNK     0     -30.784  -0.610  10.290  0.00  0.00     0.051 C 
HETATM    2  C   UNK     0     -29.984  -1.875  10.055  0.00  0.00    -0.031 A 
HETATM    3  C   UNK     0     -29.776  -2.579   8.880  0.00  0.00     0.021 A 
HETATM    4  N   UNK     0     -29.019  -3.670   9.146  0.00  0.00    -0.361 N 
HETATM    5  C   UNK     0     -28.732  -3.671  10.464  0.00  0.00     0.022 A 
HETATM    6  C   UNK     0     -29.323  -2.564  11.064  0.00  0.00    -0.027 A 
HETATM    7  C   UNK     0     -27.856  -4.599  11.247  0.00  0.00     0.115 C 
HETATM    8  C   UNK     0     -26.537  -4.992  10.607  0.00  0.00     0.021 A 
HETATM    9  N   UNK     0     -25.726  -4.249   9.838  0.00  0.00    -0.361 N 
HETATM   10  C   UNK     0     -24.713  -5.035   9.415  0.00  0.00     0.022 A 
HETATM   11  C   UNK     0     -24.871  -6.317   9.933  0.00  0.00    -0.027 A 
HETATM   12  C   UNK     0     -26.018  -6.297  10.685  0.00  0.00    -0.031 A 
HETATM   13  C   UNK     0     -26.584  -7.475  11.446  0.00  0.00     0.051 C 
HETATM   14  C   UNK     0     -23.590  -4.625   8.466  0.00  0.00     0.115 C 
HETATM   15  C   UNK     0     -24.073  -4.188   7.092  0.00  0.00     0.021 A 
HETATM   16  N   UNK     0     -24.924  -3.187   6.801  0.00  0.00    -0.361 N 
HETATM   17  C   UNK     0     -25.149  -3.171   5.485  0.00  0.00     0.022 A 
HETATM   18  C   UNK     0     -24.401  -4.206   4.890  0.00  0.00    -0.027 A 
HETATM   19  C   UNK     0     -23.731  -4.835   5.907  0.00  0.00    -0.031 A 
HETATM   20  C   UNK     0     -22.774  -5.994   5.697  0.00  0.00     0.051 C 
HETATM   21  C   UNK     0     -26.073  -2.297   4.668  0.00  0.00     0.115 C 
HETATM   22  C   UNK     0     -27.370  -1.862   5.309  0.00  0.00     0.022 A 
HETATM   23  N   UNK     0     -28.195  -2.579   6.082  0.00  0.00    -0.361 N 
HETATM   24  C   UNK     0     -29.153  -1.757   6.555  0.00  0.00     0.021 A 
HETATM   25  C   UNK     0     -28.946  -0.482   6.067  0.00  0.00    -0.031 A 
HETATM   26  C   UNK     0     -29.774   0.768   6.282  0.00  0.00     0.051 C 
HETATM   27  C   UNK     0     -27.810  -0.524   5.266  0.00  0.00    -0.027 A 
HETATM   28  C   UNK     0     -30.258  -2.089   7.543  0.00  0.00     0.115 C 
HETATM   29  H   UNK     0     -28.726  -4.452   8.408  0.00  0.00     0.165 HD
HETATM   30  H   UNK     0     -25.838  -3.156   9.633  0.00  0.00     0.165 HD
HETATM   31  H   UNK     0     -25.338  -2.445   7.532  0.00  0.00     0.165 HD
HETATM   32  H   UNK     0     -28.134  -3.683   6.267  0.00  0.00     0.165 HD
ENDROOT
BRANCH   6  33
HETATM   33  C   UNK     0     -29.309  -2.118  12.504  0.00  0.00     0.051 C 
BRANCH  33  34
HETATM   34  C   UNK     0     -30.366  -2.845  13.300  0.00  0.00     0.114 C 
BRANCH  34  35
HETATM   35  C   UNK     0     -29.665  -3.657  14.336  0.00  0.00     0.139 C 
HETATM   36  O   UNK     0     -28.765  -3.133  15.055  0.00  0.00    -0.650 OA
BRANCH  35  37
HETATM   37  O   UNK     0     -29.958  -4.996  14.563  0.00  0.00    -0.776 OA
HETATM   38  H   UNK     0     -30.855  -5.394  14.333  0.00  0.00     0.167 HD
ENDBRANCH  35  37
ENDBRANCH  34  35
ENDBRANCH  33  34
ENDBRANCH   6  33
BRANCH  27  39
HETATM   39  C   UNK     0     -27.311   0.654   4.505  0.00  0.00     0.051 C 
BRANCH  39  40
HETATM   40  C   UNK     0     -27.562   0.707   3.065  0.00  0.00     0.114 C 
BRANCH  40  41
HETATM   41  C   UNK     0     -26.559   0.333   2.093  0.00  0.00     0.139 C 
HETATM   42  O   UNK     0     -25.639   1.082   1.737  0.00  0.00    -0.650 OA
BRANCH  41  43
HETATM   43  O   UNK     0     -26.617  -0.962   1.504  0.00  0.00    -0.776 OA
HETATM   44  H   UNK     0     -25.993  -1.092   0.716  0.00  0.00     0.167 HD
ENDBRANCH  41  43
ENDBRANCH  40  41
ENDBRANCH  39  40
ENDBRANCH  27  39
BRANCH  11  45
HETATM   45  C   UNK     0     -23.992  -7.524   9.744  0.00  0.00     0.051 C 
BRANCH  45  46
HETATM   46  C   UNK     0     -23.180  -7.875  10.937  0.00  0.00     0.114 C 
BRANCH  46  47
HETATM   47  C   UNK     0     -22.157  -6.804  11.107  0.00  0.00     0.139 C 
HETATM   48  O   UNK     0     -21.262  -6.700  10.257  0.00  0.00    -0.650 OA
BRANCH  47  49
HETATM   49  O   UNK     0     -22.204  -5.952  12.181  0.00  0.00    -0.776 OA
HETATM   50  H   UNK     0     -21.911  -6.243  13.121  0.00  0.00     0.167 HD
ENDBRANCH  47  49
ENDBRANCH  46  47
ENDBRANCH  45  46
ENDBRANCH  11  45
BRANCH  18  51
HETATM   51  C   UNK     0     -24.313  -4.562   3.428  0.00  0.00     0.051 C 
BRANCH  51  52
HETATM   52  C   UNK     0     -25.568  -5.361   3.109  0.00  0.00     0.114 C 
BRANCH  52  53
HETATM   53  C   UNK     0     -26.323  -4.773   1.986  0.00  0.00     0.139 C 
HETATM   54  O   UNK     0     -27.469  -5.175   1.729  0.00  0.00    -0.650 OA
BRANCH  53  55
HETATM   55  O   UNK     0     -25.749  -3.782   1.226  0.00  0.00    -0.776 OA
HETATM   56  H   UNK     0     -25.959  -3.578   0.278  0.00  0.00     0.167 HD
ENDBRANCH  53  55
ENDBRANCH  52  53
ENDBRANCH  51  52
ENDBRANCH  18  51
TORSDOF 16
ENDMDL
MODEL 9
REMARK VINA RESULT:      -8.7      3.016      7.957
REMARK  16 active torsions:
REMARK  status: ('A' for Active; 'I' for Inactive)
REMARK    1  A    between atoms: C_6  and  C_7 
REMARK    2  A    between atoms: C_7  and  C_8 
REMARK    3  A    between atoms: C_8  and  C_9 
REMARK    4  A    between atoms: C_9  and  O_11 
REMARK    5  A    between atoms: C_16  and  C_17 
REMARK    6  A    between atoms: C_17  and  C_18 
REMARK    7  A    between atoms: C_18  and  C_19 
REMARK    8  A    between atoms: C_19  and  O_21 
REMARK    9  A    between atoms: C_28  and  C_29 
REMARK   10  A    between atoms: C_29  and  C_30 
REMARK   11  A    between atoms: C_30  and  C_31 
REMARK   12  A    between atoms: C_31  and  O_33 
REMARK   13  A    between atoms: C_42  and  C_43 
REMARK   14  A    between atoms: C_43  and  C_44 
REMARK   15  A    between atoms: C_44  and  C_45 
REMARK   16  A    between atoms: C_45  and  O_47 
ROOT
HETATM    1  C   UNK     0     -17.373  -5.369  -2.328  0.00  0.00     0.051 C 
HETATM    2  C   UNK     0     -18.687  -5.824  -1.728  0.00  0.00    -0.031 A 
HETATM    3  C   UNK     0     -18.919  -6.671  -0.656  0.00  0.00     0.021 A 
HETATM    4  N   UNK     0     -20.255  -6.821  -0.492  0.00  0.00    -0.361 N 
HETATM    5  C   UNK     0     -20.880  -6.081  -1.432  0.00  0.00     0.022 A 
HETATM    6  C   UNK     0     -19.929  -5.447  -2.224  0.00  0.00    -0.027 A 
HETATM    7  C   UNK     0     -22.342  -5.828  -1.627  0.00  0.00     0.115 C 
HETATM    8  C   UNK     0     -23.160  -5.560  -0.376  0.00  0.00     0.021 A 
HETATM    9  N   UNK     0     -22.798  -4.901   0.735  0.00  0.00    -0.361 N 
HETATM   10  C   UNK     0     -23.810  -4.988   1.624  0.00  0.00     0.022 A 
HETATM   11  C   UNK     0     -24.857  -5.715   1.066  0.00  0.00    -0.027 A 
HETATM   12  C   UNK     0     -24.455  -6.079  -0.194  0.00  0.00    -0.031 A 
HETATM   13  C   UNK     0     -25.277  -6.882  -1.176  0.00  0.00     0.051 C 
HETATM   14  C   UNK     0     -23.810  -4.437   3.047  0.00  0.00     0.115 C 
HETATM   15  C   UNK     0     -22.730  -5.030   3.937  0.00  0.00     0.021 A 
HETATM   16  N   UNK     0     -21.399  -5.008   3.739  0.00  0.00    -0.361 N 
HETATM   17  C   UNK     0     -20.799  -5.699   4.711  0.00  0.00     0.022 A 
HETATM   18  C   UNK     0     -21.787  -6.188   5.589  0.00  0.00    -0.027 A 
HETATM   19  C   UNK     0     -22.991  -5.761   5.094  0.00  0.00    -0.031 A 
HETATM   20  C   UNK     0     -24.325  -6.040   5.763  0.00  0.00     0.051 C 
HETATM   21  C   UNK     0     -19.338  -6.033   4.907  0.00  0.00     0.115 C 
HETATM   22  C   UNK     0     -18.501  -6.259   3.670  0.00  0.00     0.022 A 
HETATM   23  N   UNK     0     -18.838  -6.908   2.548  0.00  0.00    -0.361 N 
HETATM   24  C   UNK     0     -17.847  -6.742   1.649  0.00  0.00     0.021 A 
HETATM   25  C   UNK     0     -16.843  -5.976   2.209  0.00  0.00    -0.031 A 
HETATM   26  C   UNK     0     -15.517  -5.556   1.610  0.00  0.00     0.051 C 
HETATM   27  C   UNK     0     -17.239  -5.655   3.503  0.00  0.00    -0.027 A 
HETATM   28  C   UNK     0     -17.813  -7.213   0.205  0.00  0.00     0.115 C 
HETATM   29  H   UNK     0     -20.746  -7.480   0.260  0.00  0.00     0.165 HD
HETATM   30  H   UNK     0     -21.847  -4.330   0.877  0.00  0.00     0.165 HD
HETATM   31  H   UNK     0     -20.866  -4.452   2.924  0.00  0.00     0.165 HD
HETATM   32  H   UNK     0     -19.761  -7.526   2.394  0.00  0.00     0.165 HD
ENDROOT
BRANCH   6  33
HETATM   33  C   UNK     0     -20.108  -4.523  -3.402  0.00  0.00     0.051 C 
BRANCH  33  34
HETATM   34  C   UNK     0     -20.980  -5.162  -4.456  0.00  0.00     0.114 C 
BRANCH  34  35
HETATM   35  C   UNK     0     -20.854  -4.344  -5.696  0.00  0.00     0.139 C 
HETATM   36  O   UNK     0     -20.812  -4.907  -6.829  0.00  0.00    -0.650 OA
BRANCH  35  37
HETATM   37  O   UNK     0     -20.780  -2.957  -5.675  0.00  0.00    -0.776 OA
HETATM   38  H   UNK     0     -21.101  -2.393  -6.445  0.00  0.00     0.167 HD
ENDBRANCH  35  37
ENDBRANCH  34  35
ENDBRANCH  33  34
ENDBRANCH   6  33
BRANCH  27  39
HETATM   39  C   UNK     0     -16.378  -4.893   4.448  0.00  0.00     0.051 C 
BRANCH  39  40
HETATM   40  C   UNK     0     -15.724  -5.623   5.534  0.00  0.00     0.114 C 
BRANCH  40  41
HETATM   41  C   UNK     0     -16.157  -5.510   6.908  0.00  0.00     0.139 C 
HETATM   42  O   UNK     0     -15.903  -4.534   7.627  0.00  0.00    -0.650 OA
BRANCH  41  43
HETATM   43  O   UNK     0     -16.916  -6.568   7.483  0.00  0.00    -0.776 OA
HETATM   44  H   UNK     0     -17.715  -6.859   6.932  0.00  0.00     0.167 HD
ENDBRANCH  41  43
ENDBRANCH  40  41
ENDBRANCH  39  40
ENDBRANCH  27  39
BRANCH  11  45
HETATM   45  C   UNK     0     -26.190  -6.063   1.673  0.00  0.00     0.051 C 
BRANCH  45  46
HETATM   46  C   UNK     0     -27.288  -5.136   1.297  0.00  0.00     0.114 C 
BRANCH  46  47
HETATM   47  C   UNK     0     -26.981  -3.815   1.915  0.00  0.00     0.139 C 
HETATM   48  O   UNK     0     -26.680  -2.869   1.173  0.00  0.00    -0.650 OA
BRANCH  47  49
HETATM   49  O   UNK     0     -27.028  -3.647   3.276  0.00  0.00    -0.776 OA
HETATM   50  H   UNK     0     -26.209  -3.347   3.818  0.00  0.00     0.167 HD
ENDBRANCH  47  49
ENDBRANCH  46  47
ENDBRANCH  45  46
ENDBRANCH  11  45
BRANCH  18  51
HETATM   51  C   UNK     0     -21.591  -6.999   6.844  0.00  0.00     0.051 C 
BRANCH  51  52
HETATM   52  C   UNK     0     -21.350  -5.999   7.965  0.00  0.00     0.114 C 
BRANCH  52  53
HETATM   53  C   UNK     0     -22.314  -6.168   9.069  0.00  0.00     0.139 C 
HETATM   54  O   UNK     0     -23.436  -5.642   9.000  0.00  0.00    -0.650 OA
BRANCH  53  55
HETATM   55  O   UNK     0     -21.961  -6.906  10.173  0.00  0.00    -0.776 OA
HETATM   56  H   UNK     0     -22.153  -6.671  11.118  0.00  0.00     0.167 HD
ENDBRANCH  53  55
ENDBRANCH  52  53
ENDBRANCH  51  52
ENDBRANCH  18  51
TORSDOF 16
ENDMDL
MODEL 10
REMARK VINA RESULT:      -8.4      2.212      8.835
REMARK  16 active torsions:
REMARK  status: ('A' for Active; 'I' for Inactive)
REMARK    1  A    between atoms: C_6  and  C_7 
REMARK    2  A    between atoms: C_7  and  C_8 
REMARK    3  A    between atoms: C_8  and  C_9 
REMARK    4  A    between atoms: C_9  and  O_11 
REMARK    5  A    between atoms: C_16  and  C_17 
REMARK    6  A    between atoms: C_17  and  C_18 
REMARK    7  A    between atoms: C_18  and  C_19 
REMARK    8  A    between atoms: C_19  and  O_21 
REMARK    9  A    between atoms: C_28  and  C_29 
REMARK   10  A    between atoms: C_29  and  C_30 
REMARK   11  A    between atoms: C_30  and  C_31 
REMARK   12  A    between atoms: C_31  and  O_33 
REMARK   13  A    between atoms: C_42  and  C_43 
REMARK   14  A    between atoms: C_43  and  C_44 
REMARK   15  A    between atoms: C_44  and  C_45 
REMARK   16  A    between atoms: C_45  and  O_47 
ROOT
HETATM    1  C   UNK     0     -15.354  -6.263  -1.050  0.00  0.00     0.051 C 
HETATM    2  C   UNK     0     -16.852  -6.484  -0.990  0.00  0.00    -0.031 A 
HETATM    3  C   UNK     0     -17.602  -7.178  -0.054  0.00  0.00     0.021 A 
HETATM    4  N   UNK     0     -18.906  -7.141  -0.418  0.00  0.00    -0.361 N 
HETATM    5  C   UNK     0     -19.004  -6.430  -1.560  0.00  0.00     0.022 A 
HETATM    6  C   UNK     0     -17.738  -6.006  -1.947  0.00  0.00    -0.027 A 
HETATM    7  C   UNK     0     -20.225  -6.017  -2.322  0.00  0.00     0.115 C 
HETATM    8  C   UNK     0     -21.403  -5.519  -1.504  0.00  0.00     0.021 A 
HETATM    9  N   UNK     0     -21.390  -4.798  -0.372  0.00  0.00    -0.361 N 
HETATM   10  C   UNK     0     -22.664  -4.664   0.055  0.00  0.00     0.022 A 
HETATM   11  C   UNK     0     -23.522  -5.308  -0.832  0.00  0.00    -0.027 A 
HETATM   12  C   UNK     0     -22.734  -5.849  -1.816  0.00  0.00    -0.031 A 
HETATM   13  C   UNK     0     -23.237  -6.639  -3.003  0.00  0.00     0.051 C 
HETATM   14  C   UNK     0     -23.117  -3.973   1.337  0.00  0.00     0.115 C 
HETATM   15  C   UNK     0     -22.562  -4.602   2.605  0.00  0.00     0.021 A 
HETATM   16  N   UNK     0     -21.269  -4.768   2.942  0.00  0.00    -0.361 N 
HETATM   17  C   UNK     0     -21.199  -5.424   4.102  0.00  0.00     0.022 A 
HETATM   18  C   UNK     0     -22.509  -5.691   4.547  0.00  0.00    -0.027 A 
HETATM   19  C   UNK     0     -23.353  -5.169   3.602  0.00  0.00    -0.031 A 
HETATM   20  C   UNK     0     -24.867  -5.206   3.709  0.00  0.00     0.051 C 
HETATM   21  C   UNK     0     -19.993  -5.917   4.868  0.00  0.00     0.115 C 
HETATM   22  C   UNK     0     -18.796  -6.374   4.067  0.00  0.00     0.022 A 
HETATM   23  N   UNK     0     -18.780  -7.089   2.935  0.00  0.00    -0.361 N 
HETATM   24  C   UNK     0     -17.509  -7.143   2.487  0.00  0.00     0.021 A 
HETATM   25  C   UNK     0     -16.686  -6.456   3.358  0.00  0.00    -0.031 A 
HETATM   26  C   UNK     0     -15.183  -6.271   3.304  0.00  0.00     0.051 C 
HETATM   27  C   UNK     0     -17.487  -5.954   4.378  0.00  0.00    -0.027 A 
HETATM   28  C   UNK     0     -17.005  -7.763   1.195  0.00  0.00     0.115 C 
HETATM   29  H   UNK     0     -19.743  -7.651   0.114  0.00  0.00     0.165 HD
HETATM   30  H   UNK     0     -20.488  -4.340   0.103  0.00  0.00     0.165 HD
HETATM   31  H   UNK     0     -20.388  -4.372   2.373  0.00  0.00     0.165 HD
HETATM   32  H   UNK     0     -19.660  -7.599   2.463  0.00  0.00     0.165 HD
ENDROOT
BRANCH   6  33
HETATM   33  C   UNK     0     -17.310  -5.195  -3.144  0.00  0.00     0.051 C 
BRANCH  33  34
HETATM   34  C   UNK     0     -16.398  -6.000  -4.039  0.00  0.00     0.114 C 
BRANCH  34  35
HETATM   35  C   UNK     0     -15.567  -5.035  -4.814  0.00  0.00     0.139 C 
HETATM   36  O   UNK     0     -14.953  -4.102  -4.220  0.00  0.00    -0.650 OA
BRANCH  35  37
HETATM   37  O   UNK     0     -15.424  -5.110  -6.194  0.00  0.00    -0.776 OA
HETATM   38  H   UNK     0     -14.522  -5.185  -6.635  0.00  0.00     0.167 HD
ENDBRANCH  35  37
ENDBRANCH  34  35
ENDBRANCH  33  34
ENDBRANCH   6  33
BRANCH  27  39
HETATM   39  C   UNK     0     -16.941  -5.213   5.547  0.00  0.00     0.051 C 
BRANCH  39  40
HETATM   40  C   UNK     0     -16.555  -5.975   6.734  0.00  0.00     0.114 C 
BRANCH  40  41
HETATM   41  C   UNK     0     -17.481  -6.844   7.426  0.00  0.00     0.139 C 
HETATM   42  O   UNK     0     -17.427  -8.080   7.375  0.00  0.00    -0.650 OA
BRANCH  41  43
HETATM   43  O   UNK     0     -18.515  -6.263   8.213  0.00  0.00    -0.776 OA
HETATM   44  H   UNK     0     -18.552  -6.597   9.169  0.00  0.00     0.167 HD
ENDBRANCH  41  43
ENDBRANCH  40  41
ENDBRANCH  39  40
ENDBRANCH  27  39
BRANCH  11  45
HETATM   45  C   UNK     0     -25.022  -5.420  -0.778  0.00  0.00     0.051 C 
BRANCH  45  46
HETATM   46  C   UNK     0     -25.738  -4.262  -1.370  0.00  0.00     0.114 C 
BRANCH  46  47
HETATM   47  C   UNK     0     -26.174  -3.389  -0.243  0.00  0.00     0.139 C 
HETATM   48  O   UNK     0     -26.529  -3.923   0.817  0.00  0.00    -0.650 OA
BRANCH  47  49
HETATM   49  O   UNK     0     -26.183  -2.023  -0.374  0.00  0.00    -0.776 OA
HETATM   50  H   UNK     0     -25.348  -1.453  -0.195  0.00  0.00     0.167 HD
ENDBRANCH  47  49
ENDBRANCH  46  47
ENDBRANCH  45  46
ENDBRANCH  11  45
BRANCH  18  51
HETATM   51  C   UNK     0     -22.933  -6.385   5.815  0.00  0.00     0.051 C 
BRANCH  51  52
HETATM   52  C   UNK     0     -22.846  -5.344   6.921  0.00  0.00     0.114 C 
BRANCH  52  53
HETATM   53  C   UNK     0     -22.511  -5.952   8.223  0.00  0.00     0.139 C 
HETATM   54  O   UNK     0     -23.377  -6.576   8.858  0.00  0.00    -0.650 OA
BRANCH  53  55
HETATM   55  O   UNK     0     -21.241  -5.820   8.729  0.00  0.00    -0.776 OA
HETATM   56  H   UNK     0     -20.396  -5.967   8.229  0.00  0.00     0.167 HD
ENDBRANCH  53  55
ENDBRANCH  52  53
ENDBRANCH  51  52
ENDBRANCH  18  51
TORSDOF 16
ENDMDL
MODEL 11
REMARK VINA RESULT:      -8.4     24.295     29.126
REMARK  16 active torsions:
REMARK  status: ('A' for Active; 'I' for Inactive)
REMARK    1  A    between atoms: C_6  and  C_7 
REMARK    2  A    between atoms: C_7  and  C_8 
REMARK    3  A    between atoms: C_8  and  C_9 
REMARK    4  A    between atoms: C_9  and  O_11 
REMARK    5  A    between atoms: C_16  and  C_17 
REMARK    6  A    between atoms: C_17  and  C_18 
REMARK    7  A    between atoms: C_18  and  C_19 
REMARK    8  A    between atoms: C_19  and  O_21 
REMARK    9  A    between atoms: C_28  and  C_29 
REMARK   10  A    between atoms: C_29  and  C_30 
REMARK   11  A    between atoms: C_30  and  C_31 
REMARK   12  A    between atoms: C_31  and  O_33 
REMARK   13  A    between atoms: C_42  and  C_43 
REMARK   14  A    between atoms: C_43  and  C_44 
REMARK   15  A    between atoms: C_44  and  C_45 
REMARK   16  A    between atoms: C_45  and  O_47 
ROOT
HETATM    1  C   UNK     0       7.656   2.967   8.559  0.00  0.00     0.051 C 
HETATM    2  C   UNK     0       8.178   3.312   7.179  0.00  0.00    -0.031 A 
HETATM    3  C   UNK     0       8.163   2.556   6.018  0.00  0.00     0.021 A 
HETATM    4  N   UNK     0       8.769   3.254   5.028  0.00  0.00    -0.361 N 
HETATM    5  C   UNK     0       9.162   4.442   5.531  0.00  0.00     0.022 A 
HETATM    6  C   UNK     0       8.811   4.510   6.875  0.00  0.00    -0.027 A 
HETATM    7  C   UNK     0       9.791   5.609   4.836  0.00  0.00     0.115 C 
HETATM    8  C   UNK     0       9.221   5.981   3.478  0.00  0.00     0.021 A 
HETATM    9  N   UNK     0       7.946   5.921   3.062  0.00  0.00    -0.361 N 
HETATM   10  C   UNK     0       7.916   6.260   1.755  0.00  0.00     0.022 A 
HETATM   11  C   UNK     0       9.205   6.556   1.321  0.00  0.00    -0.027 A 
HETATM   12  C   UNK     0      10.032   6.382   2.401  0.00  0.00    -0.031 A 
HETATM   13  C   UNK     0      11.529   6.595   2.400  0.00  0.00     0.051 C 
HETATM   14  C   UNK     0       6.684   6.268   0.855  0.00  0.00     0.115 C 
HETATM   15  C   UNK     0       6.019   4.909   0.709  0.00  0.00     0.021 A 
HETATM   16  N   UNK     0       5.517   4.131   1.687  0.00  0.00    -0.361 N 
HETATM   17  C   UNK     0       5.084   2.985   1.157  0.00  0.00     0.022 A 
HETATM   18  C   UNK     0       5.306   3.022  -0.234  0.00  0.00    -0.027 A 
HETATM   19  C   UNK     0       5.890   4.232  -0.502  0.00  0.00    -0.031 A 
HETATM   20  C   UNK     0       6.265   4.698  -1.897  0.00  0.00     0.051 C 
HETATM   21  C   UNK     0       4.507   1.761   1.830  0.00  0.00     0.115 C 
HETATM   22  C   UNK     0       5.034   1.404   3.200  0.00  0.00     0.022 A 
HETATM   23  N   UNK     0       6.296   1.457   3.644  0.00  0.00    -0.361 N 
HETATM   24  C   UNK     0       6.292   1.192   4.965  0.00  0.00     0.021 A 
HETATM   25  C   UNK     0       4.997   0.951   5.381  0.00  0.00    -0.031 A 
HETATM   26  C   UNK     0       4.492   0.573   6.758  0.00  0.00     0.051 C 
HETATM   27  C   UNK     0       4.173   1.081   4.269  0.00  0.00    -0.027 A 
HETATM   28  C   UNK     0       7.470   1.225   5.924  0.00  0.00     0.115 C 
HETATM   29  H   UNK     0       8.949   2.886   3.991  0.00  0.00     0.165 HD
HETATM   30  H   UNK     0       7.059   5.689   3.700  0.00  0.00     0.165 HD
HETATM   31  H   UNK     0       5.423   4.416   2.767  0.00  0.00     0.165 HD
HETATM   32  H   UNK     0       7.208   1.641   3.018  0.00  0.00     0.165 HD
ENDROOT
BRANCH   6  33
HETATM   33  C   UNK     0       9.031   5.613   7.880  0.00  0.00     0.051 C 
BRANCH  33  34
HETATM   34  C   UNK     0      10.505   5.817   8.137  0.00  0.00     0.114 C 
BRANCH  34  35
HETATM   35  C   UNK     0      10.728   7.279   8.322  0.00  0.00     0.139 C 
HETATM   36  O   UNK     0      10.090   8.115   7.618  0.00  0.00    -0.650 OA
BRANCH  35  37
HETATM   37  O   UNK     0      11.623   7.789   9.255  0.00  0.00    -0.776 OA
HETATM   38  H   UNK     0      11.343   8.015  10.196  0.00  0.00     0.167 HD
ENDBRANCH  35  37
ENDBRANCH  34  35
ENDBRANCH  33  34
ENDBRANCH   6  33
BRANCH  27  39
HETATM   39  C   UNK     0       2.708   0.823   4.310  0.00  0.00     0.051 C 
BRANCH  39  40
HETATM   40  C   UNK     0       2.244  -0.561   4.217  0.00  0.00     0.114 C 
BRANCH  40  41
HETATM   41  C   UNK     0       0.846  -0.913   4.326  0.00  0.00     0.139 C 
HETATM   42  O   UNK     0      -0.066  -0.262   3.799  0.00  0.00    -0.650 OA
BRANCH  41  43
HETATM   43  O   UNK     0       0.481  -2.068   5.074  0.00  0.00    -0.776 OA
HETATM   44  H   UNK     0       1.247  -2.702   5.267  0.00  0.00     0.167 HD
ENDBRANCH  41  43
ENDBRANCH  40  41
ENDBRANCH  39  40
ENDBRANCH  27  39
BRANCH  11  45
HETATM   45  C   UNK     0       9.662   6.987  -0.046  0.00  0.00     0.051 C 
BRANCH  45  46
HETATM   46  C   UNK     0       9.996   8.431  -0.146  0.00  0.00     0.114 C 
BRANCH  46  47
HETATM   47  C   UNK     0       8.905   9.084  -0.926  0.00  0.00     0.139 C 
HETATM   48  O   UNK     0       9.174   9.555  -2.039  0.00  0.00    -0.650 OA
BRANCH  47  49
HETATM   49  O   UNK     0       7.631   9.162  -0.422  0.00  0.00    -0.776 OA
HETATM   50  H   UNK     0       7.213   8.399   0.123  0.00  0.00     0.167 HD
ENDBRANCH  47  49
ENDBRANCH  46  47
ENDBRANCH  45  46
ENDBRANCH  11  45
BRANCH  18  51
HETATM   51  C   UNK     0       4.959   1.969  -1.255  0.00  0.00     0.051 C 
BRANCH  51  52
HETATM   52  C   UNK     0       6.232   1.172  -1.494  0.00  0.00     0.114 C 
BRANCH  52  53
HETATM   53  C   UNK     0       6.254  -0.077  -0.708  0.00  0.00     0.139 C 
HETATM   54  O   UNK     0       5.507  -1.019  -1.017  0.00  0.00    -0.650 OA
BRANCH  53  55
HETATM   55  O   UNK     0       7.101  -0.189   0.368  0.00  0.00    -0.776 OA
HETATM   56  H   UNK     0       6.975   0.234   1.257  0.00  0.00     0.167 HD
ENDBRANCH  53  55
ENDBRANCH  52  53
ENDBRANCH  51  52
ENDBRANCH  18  51
TORSDOF 16
ENDMDL
MODEL 12
REMARK VINA RESULT:      -8.1     23.964     26.918
REMARK  16 active torsions:
REMARK  status: ('A' for Active; 'I' for Inactive)
REMARK    1  A    between atoms: C_6  and  C_7 
REMARK    2  A    between atoms: C_7  and  C_8 
REMARK    3  A    between atoms: C_8  and  C_9 
REMARK    4  A    between atoms: C_9  and  O_11 
REMARK    5  A    between atoms: C_16  and  C_17 
REMARK    6  A    between atoms: C_17  and  C_18 
REMARK    7  A    between atoms: C_18  and  C_19 
REMARK    8  A    between atoms: C_19  and  O_21 
REMARK    9  A    between atoms: C_28  and  C_29 
REMARK   10  A    between atoms: C_29  and  C_30 
REMARK   11  A    between atoms: C_30  and  C_31 
REMARK   12  A    between atoms: C_31  and  O_33 
REMARK   13  A    between atoms: C_42  and  C_43 
REMARK   14  A    between atoms: C_43  and  C_44 
REMARK   15  A    between atoms: C_44  and  C_45 
REMARK   16  A    between atoms: C_45  and  O_47 
ROOT
HETATM    1  C   UNK     0      -8.849  19.724   2.209  0.00  0.00     0.051 C 
HETATM    2  C   UNK     0      -8.471  18.353   1.686  0.00  0.00    -0.031 A 
HETATM    3  C   UNK     0      -7.965  17.993   0.447  0.00  0.00     0.021 A 
HETATM    4  N   UNK     0      -7.804  16.649   0.409  0.00  0.00    -0.361 N 
HETATM    5  C   UNK     0      -8.188  16.145   1.600  0.00  0.00     0.022 A 
HETATM    6  C   UNK     0      -8.614  17.184   2.422  0.00  0.00    -0.027 A 
HETATM    7  C   UNK     0      -8.121  14.738   2.105  0.00  0.00     0.115 C 
HETATM    8  C   UNK     0      -6.852  13.963   1.797  0.00  0.00     0.021 A 
HETATM    9  N   UNK     0      -5.590  14.414   1.738  0.00  0.00    -0.361 N 
HETATM   10  C   UNK     0      -4.799  13.396   1.339  0.00  0.00     0.022 A 
HETATM   11  C   UNK     0      -5.571  12.254   1.145  0.00  0.00    -0.027 A 
HETATM   12  C   UNK     0      -6.866  12.604   1.432  0.00  0.00    -0.031 A 
HETATM   13  C   UNK     0      -8.058  11.676   1.363  0.00  0.00     0.051 C 
HETATM   14  C   UNK     0      -3.298  13.471   1.075  0.00  0.00     0.115 C 
HETATM   15  C   UNK     0      -2.914  14.446  -0.026  0.00  0.00     0.021 A 
HETATM   16  N   UNK     0      -3.168  15.767  -0.079  0.00  0.00    -0.361 N 
HETATM   17  C   UNK     0      -2.730  16.252  -1.242  0.00  0.00     0.022 A 
HETATM   18  C   UNK     0      -2.154  15.199  -1.979  0.00  0.00    -0.027 A 
HETATM   19  C   UNK     0      -2.274  14.073  -1.206  0.00  0.00    -0.031 A 
HETATM   20  C   UNK     0      -1.746  12.710  -1.612  0.00  0.00     0.051 C 
HETATM   21  C   UNK     0      -2.837  17.647  -1.816  0.00  0.00     0.115 C 
HETATM   22  C   UNK     0      -4.074  18.446  -1.480  0.00  0.00     0.022 A 
HETATM   23  N   UNK     0      -5.343  18.022  -1.411  0.00  0.00    -0.361 N 
HETATM   24  C   UNK     0      -6.101  19.031  -0.937  0.00  0.00     0.021 A 
HETATM   25  C   UNK     0      -5.303  20.135  -0.706  0.00  0.00    -0.031 A 
HETATM   26  C   UNK     0      -5.700  21.512  -0.215  0.00  0.00     0.051 C 
HETATM   27  C   UNK     0      -4.002  19.785  -1.047  0.00  0.00    -0.027 A 
HETATM   28  C   UNK     0      -7.582  19.001  -0.599  0.00  0.00     0.115 C 
HETATM   29  H   UNK     0      -7.458  16.061  -0.472  0.00  0.00     0.165 HD
HETATM   30  H   UNK     0      -5.247  15.438   2.025  0.00  0.00     0.165 HD
HETATM   31  H   UNK     0      -3.624  16.380   0.742  0.00  0.00     0.165 HD
HETATM   32  H   UNK     0      -5.722  17.019  -1.736  0.00  0.00     0.165 HD
ENDROOT
BRANCH   6  33
HETATM   33  C   UNK     0      -9.141  17.150   3.834  0.00  0.00     0.051 C 
BRANCH  33  34
HETATM   34  C   UNK     0     -10.412  16.337   3.911  0.00  0.00     0.114 C 
BRANCH  34  35
HETATM   35  C   UNK     0     -11.552  17.266   3.667  0.00  0.00     0.139 C 
HETATM   36  O   UNK     0     -12.573  16.869   3.033  0.00  0.00    -0.650 OA
BRANCH  35  37
HETATM   37  O   UNK     0     -11.555  18.582   4.113  0.00  0.00    -0.776 OA
HETATM   38  H   UNK     0     -11.441  19.360   3.483  0.00  0.00     0.167 HD
ENDBRANCH  35  37
ENDBRANCH  34  35
ENDBRANCH  33  34
ENDBRANCH   6  33
BRANCH  27  39
HETATM   39  C   UNK     0      -2.865  20.745  -0.998  0.00  0.00     0.051 C 
BRANCH  39  40
HETATM   40  C   UNK     0      -1.896  20.619   0.089  0.00  0.00     0.114 C 
BRANCH  40  41
HETATM   41  C   UNK     0      -0.483  20.437  -0.155  0.00  0.00     0.139 C 
HETATM   42  O   UNK     0      -0.030  19.639  -0.987  0.00  0.00    -0.650 OA
BRANCH  41  43
HETATM   43  O   UNK     0       0.453  21.208   0.592  0.00  0.00    -0.776 OA
HETATM   44  H   UNK     0       1.131  21.706   0.027  0.00  0.00     0.167 HD
ENDBRANCH  41  43
ENDBRANCH  40  41
ENDBRANCH  39  40
ENDBRANCH  27  39
BRANCH  11  45
HETATM   45  C   UNK     0      -5.131  10.882   0.711  0.00  0.00     0.051 C 
BRANCH  45  46
HETATM   46  C   UNK     0      -3.850  10.437   1.317  0.00  0.00     0.114 C 
BRANCH  46  47
HETATM   47  C   UNK     0      -4.107  10.192   2.765  0.00  0.00     0.139 C 
HETATM   48  O   UNK     0      -3.648  10.993   3.591  0.00  0.00    -0.650 OA
BRANCH  47  49
HETATM   49  O   UNK     0      -4.835   9.104   3.176  0.00  0.00    -0.776 OA
HETATM   50  H   UNK     0      -4.644   8.624   4.063  0.00  0.00     0.167 HD
ENDBRANCH  47  49
ENDBRANCH  46  47
ENDBRANCH  45  46
ENDBRANCH  11  45
BRANCH  18  51
HETATM   51  C   UNK     0      -1.504  15.265  -3.337  0.00  0.00     0.051 C 
BRANCH  51  52
HETATM   52  C   UNK     0      -0.020  15.490  -3.089  0.00  0.00     0.114 C 
BRANCH  52  53
HETATM   53  C   UNK     0       0.458  16.740  -3.712  0.00  0.00     0.139 C 
HETATM   54  O   UNK     0       0.477  16.851  -4.948  0.00  0.00    -0.650 OA
BRANCH  53  55
HETATM   55  O   UNK     0       0.884  17.776  -2.916  0.00  0.00    -0.776 OA
HETATM   56  H   UNK     0       1.475  17.697  -2.122  0.00  0.00     0.167 HD
ENDBRANCH  53  55
ENDBRANCH  52  53
ENDBRANCH  51  52
ENDBRANCH  18  51
TORSDOF 16
ENDMDL
MODEL 13
REMARK VINA RESULT:      -7.9      2.330      3.118
REMARK  16 active torsions:
REMARK  status: ('A' for Active; 'I' for Inactive)
REMARK    1  A    between atoms: C_6  and  C_7 
REMARK    2  A    between atoms: C_7  and  C_8 
REMARK    3  A    between atoms: C_8  and  C_9 
REMARK    4  A    between atoms: C_9  and  O_11 
REMARK    5  A    between atoms: C_16  and  C_17 
REMARK    6  A    between atoms: C_17  and  C_18 
REMARK    7  A    between atoms: C_18  and  C_19 
REMARK    8  A    between atoms: C_19  and  O_21 
REMARK    9  A    between atoms: C_28  and  C_29 
REMARK   10  A    between atoms: C_29  and  C_30 
REMARK   11  A    between atoms: C_30  and  C_31 
REMARK   12  A    between atoms: C_31  and  O_33 
REMARK   13  A    between atoms: C_42  and  C_43 
REMARK   14  A    between atoms: C_43  and  C_44 
REMARK   15  A    between atoms: C_44  and  C_45 
REMARK   16  A    between atoms: C_45  and  O_47 
ROOT
HETATM    1  C   UNK     0     -22.314  -4.165  -3.470  0.00  0.00     0.051 C 
HETATM    2  C   UNK     0     -22.353  -4.754  -2.075  0.00  0.00    -0.031 A 
HETATM    3  C   UNK     0     -21.630  -5.811  -1.545  0.00  0.00     0.021 A 
HETATM    4  N   UNK     0     -22.014  -6.010  -0.262  0.00  0.00    -0.361 N 
HETATM    5  C   UNK     0     -22.961  -5.098   0.040  0.00  0.00     0.022 A 
HETATM    6  C   UNK     0     -23.199  -4.297  -1.072  0.00  0.00    -0.027 A 
HETATM    7  C   UNK     0     -23.641  -4.829   1.346  0.00  0.00     0.115 C 
HETATM    8  C   UNK     0     -22.765  -4.842   2.587  0.00  0.00     0.021 A 
HETATM    9  N   UNK     0     -21.496  -4.426   2.718  0.00  0.00    -0.361 N 
HETATM   10  C   UNK     0     -21.090  -4.713   3.973  0.00  0.00     0.022 A 
HETATM   11  C   UNK     0     -22.128  -5.320   4.672  0.00  0.00    -0.027 A 
HETATM   12  C   UNK     0     -23.187  -5.405   3.804  0.00  0.00    -0.031 A 
HETATM   13  C   UNK     0     -24.541  -5.994   4.132  0.00  0.00     0.051 C 
HETATM   14  C   UNK     0     -19.695  -4.474   4.545  0.00  0.00     0.115 C 
HETATM   15  C   UNK     0     -18.594  -5.227   3.817  0.00  0.00     0.021 A 
HETATM   16  N   UNK     0     -18.266  -5.145   2.514  0.00  0.00    -0.361 N 
HETATM   17  C   UNK     0     -17.290  -6.018   2.251  0.00  0.00     0.022 A 
HETATM   18  C   UNK     0     -16.960  -6.694   3.442  0.00  0.00    -0.027 A 
HETATM   19  C   UNK     0     -17.782  -6.189   4.416  0.00  0.00    -0.031 A 
HETATM   20  C   UNK     0     -17.733  -6.620   5.870  0.00  0.00     0.051 C 
HETATM   21  C   UNK     0     -16.624  -6.365   0.939  0.00  0.00     0.115 C 
HETATM   22  C   UNK     0     -17.473  -6.314  -0.309  0.00  0.00     0.022 A 
HETATM   23  N   UNK     0     -18.741  -6.717  -0.468  0.00  0.00    -0.361 N 
HETATM   24  C   UNK     0     -19.150  -6.352  -1.700  0.00  0.00     0.021 A 
HETATM   25  C   UNK     0     -18.117  -5.707  -2.354  0.00  0.00    -0.031 A 
HETATM   26  C   UNK     0     -18.080  -5.153  -3.763  0.00  0.00     0.051 C 
HETATM   27  C   UNK     0     -17.033  -5.671  -1.484  0.00  0.00    -0.027 A 
HETATM   28  C   UNK     0     -20.535  -6.507  -2.304  0.00  0.00     0.115 C 
HETATM   29  H   UNK     0     -21.643  -6.820   0.408  0.00  0.00     0.165 HD
HETATM   30  H   UNK     0     -20.901  -3.886   1.943  0.00  0.00     0.165 HD
HETATM   31  H   UNK     0     -18.698  -4.423   1.773  0.00  0.00     0.165 HD
HETATM   32  H   UNK     0     -19.346  -7.302   0.273  0.00  0.00     0.165 HD
ENDROOT
BRANCH   6  33
HETATM   33  C   UNK     0     -24.158  -3.148  -1.253  0.00  0.00     0.051 C 
BRANCH  33  34
HETATM   34  C   UNK     0     -25.581  -3.598  -1.019  0.00  0.00     0.114 C 
BRANCH  34  35
HETATM   35  C   UNK     0     -26.216  -2.610  -0.100  0.00  0.00     0.139 C 
HETATM   36  O   UNK     0     -26.432  -1.425  -0.488  0.00  0.00    -0.650 OA
BRANCH  35  37
HETATM   37  O   UNK     0     -26.596  -2.931   1.198  0.00  0.00    -0.776 OA
HETATM   38  H   UNK     0     -27.496  -3.332   1.408  0.00  0.00     0.167 HD
ENDBRANCH  35  37
ENDBRANCH  34  35
ENDBRANCH  33  34
ENDBRANCH   6  33
BRANCH  27  39
HETATM   39  C   UNK     0     -15.707  -5.114  -1.865  0.00  0.00     0.051 C 
BRANCH  39  40
HETATM   40  C   UNK     0     -14.789  -5.964  -2.622  0.00  0.00     0.114 C 
BRANCH  40  41
HETATM   41  C   UNK     0     -14.422  -5.676  -3.990  0.00  0.00     0.139 C 
HETATM   42  O   UNK     0     -15.004  -6.161  -4.970  0.00  0.00    -0.650 OA
BRANCH  41  43
HETATM   43  O   UNK     0     -13.338  -4.790  -4.243  0.00  0.00    -0.776 OA
HETATM   44  H   UNK     0     -13.519  -3.824  -3.996  0.00  0.00     0.167 HD
ENDBRANCH  41  43
ENDBRANCH  40  41
ENDBRANCH  39  40
ENDBRANCH  27  39
BRANCH  11  45
HETATM   45  C   UNK     0     -22.148  -5.807   6.096  0.00  0.00     0.051 C 
BRANCH  45  46
HETATM   46  C   UNK     0     -22.839  -4.891   7.040  0.00  0.00     0.114 C 
BRANCH  46  47
HETATM   47  C   UNK     0     -22.290  -5.162   8.400  0.00  0.00     0.139 C 
HETATM   48  O   UNK     0     -22.864  -4.667   9.380  0.00  0.00    -0.650 OA
BRANCH  47  49
HETATM   49  O   UNK     0     -21.172  -5.941   8.564  0.00  0.00    -0.776 OA
HETATM   50  H   UNK     0     -20.879  -6.629   7.860  0.00  0.00     0.167 HD
ENDBRANCH  47  49
ENDBRANCH  46  47
ENDBRANCH  45  46
ENDBRANCH  11  45
BRANCH  18  51
HETATM   51  C   UNK     0     -15.904  -7.749   3.646  0.00  0.00     0.051 C 
BRANCH  51  52
HETATM   52  C   UNK     0     -14.568  -7.071   3.380  0.00  0.00     0.114 C 
BRANCH  52  53
HETATM   53  C   UNK     0     -14.377  -5.880   4.229  0.00  0.00     0.139 C 
HETATM   54  O   UNK     0     -14.258  -4.759   3.709  0.00  0.00    -0.650 OA
BRANCH  53  55
HETATM   55  O   UNK     0     -14.330  -6.019   5.595  0.00  0.00    -0.776 OA
HETATM   56  H   UNK     0     -15.090  -6.267   6.183  0.00  0.00     0.167 HD
ENDBRANCH  53  55
ENDBRANCH  52  53
ENDBRANCH  51  52
ENDBRANCH  18  51
TORSDOF 16
ENDMDL
MODEL 14
REMARK VINA RESULT:      -7.9     24.774     29.597
REMARK  16 active torsions:
REMARK  status: ('A' for Active; 'I' for Inactive)
REMARK    1  A    between atoms: C_6  and  C_7 
REMARK    2  A    between atoms: C_7  and  C_8 
REMARK    3  A    between atoms: C_8  and  C_9 
REMARK    4  A    between atoms: C_9  and  O_11 
REMARK    5  A    between atoms: C_16  and  C_17 
REMARK    6  A    between atoms: C_17  and  C_18 
REMARK    7  A    between atoms: C_18  and  C_19 
REMARK    8  A    between atoms: C_19  and  O_21 
REMARK    9  A    between atoms: C_28  and  C_29 
REMARK   10  A    between atoms: C_29  and  C_30 
REMARK   11  A    between atoms: C_30  and  C_31 
REMARK   12  A    between atoms: C_31  and  O_33 
REMARK   13  A    between atoms: C_42  and  C_43 
REMARK   14  A    between atoms: C_43  and  C_44 
REMARK   15  A    between atoms: C_44  and  C_45 
REMARK   16  A    between atoms: C_45  and  O_47 
ROOT
HETATM    1  C   UNK     0       7.457   3.073   8.297  0.00  0.00     0.051 C 
HETATM    2  C   UNK     0       8.099   3.354   6.954  0.00  0.00    -0.031 A 
HETATM    3  C   UNK     0       7.927   2.703   5.743  0.00  0.00     0.021 A 
HETATM    4  N   UNK     0       8.730   3.277   4.815  0.00  0.00    -0.361 N 
HETATM    5  C   UNK     0       9.403   4.285   5.407  0.00  0.00     0.022 A 
HETATM    6  C   UNK     0       9.035   4.359   6.746  0.00  0.00    -0.027 A 
HETATM    7  C   UNK     0      10.341   5.285   4.806  0.00  0.00     0.115 C 
HETATM    8  C   UNK     0       9.937   5.879   3.468  0.00  0.00     0.021 A 
HETATM    9  N   UNK     0       8.707   6.185   3.026  0.00  0.00    -0.361 N 
HETATM   10  C   UNK     0       8.813   6.601   1.746  0.00  0.00     0.022 A 
HETATM   11  C   UNK     0      10.149   6.572   1.356  0.00  0.00    -0.027 A 
HETATM   12  C   UNK     0      10.862   6.118   2.436  0.00  0.00    -0.031 A 
HETATM   13  C   UNK     0      12.362   5.928   2.476  0.00  0.00     0.051 C 
HETATM   14  C   UNK     0       7.659   6.991   0.826  0.00  0.00     0.115 C 
HETATM   15  C   UNK     0       6.666   5.868   0.575  0.00  0.00     0.021 A 
HETATM   16  N   UNK     0       5.943   5.191   1.487  0.00  0.00    -0.361 N 
HETATM   17  C   UNK     0       5.244   4.236   0.871  0.00  0.00     0.022 A 
HETATM   18  C   UNK     0       5.516   4.300  -0.510  0.00  0.00    -0.027 A 
HETATM   19  C   UNK     0       6.407   5.327  -0.683  0.00  0.00    -0.031 A 
HETATM   20  C   UNK     0       6.940   5.763  -2.035  0.00  0.00     0.051 C 
HETATM   21  C   UNK     0       4.342   3.167   1.446  0.00  0.00     0.115 C 
HETATM   22  C   UNK     0       4.707   2.599   2.797  0.00  0.00     0.022 A 
HETATM   23  N   UNK     0       5.923   2.288   3.265  0.00  0.00    -0.361 N 
HETATM   24  C   UNK     0       5.803   1.951   4.565  0.00  0.00     0.021 A 
HETATM   25  C   UNK     0       4.475   2.036   4.940  0.00  0.00    -0.031 A 
HETATM   26  C   UNK     0       3.841   1.719   6.278  0.00  0.00     0.051 C 
HETATM   27  C   UNK     0       3.755   2.448   3.825  0.00  0.00    -0.027 A 
HETATM   28  C   UNK     0       6.913   1.612   5.544  0.00  0.00     0.115 C 
HETATM   29  H   UNK     0       8.844   2.940   3.759  0.00  0.00     0.165 HD
HETATM   30  H   UNK     0       7.768   6.156   3.631  0.00  0.00     0.165 HD
HETATM   31  H   UNK     0       5.889   5.422   2.583  0.00  0.00     0.165 HD
HETATM   32  H   UNK     0       6.873   2.263   2.670  0.00  0.00     0.165 HD
ENDROOT
BRANCH   6  33
HETATM   33  C   UNK     0       9.501   5.299   7.829  0.00  0.00     0.051 C 
BRANCH  33  34
HETATM   34  C   UNK     0       8.468   6.369   8.090  0.00  0.00     0.114 C 
BRANCH  34  35
HETATM   35  C   UNK     0       9.075   7.677   7.712  0.00  0.00     0.139 C 
HETATM   36  O   UNK     0      10.288   7.738   7.357  0.00  0.00    -0.650 OA
BRANCH  35  37
HETATM   37  O   UNK     0       8.359   8.868   7.729  0.00  0.00    -0.776 OA
HETATM   38  H   UNK     0       8.561   9.605   8.386  0.00  0.00     0.167 HD
ENDBRANCH  35  37
ENDBRANCH  34  35
ENDBRANCH  33  34
ENDBRANCH   6  33
BRANCH  27  39
HETATM   39  C   UNK     0       2.273   2.585   3.823  0.00  0.00     0.051 C 
BRANCH  39  40
HETATM   40  C   UNK     0       1.698   3.909   4.061  0.00  0.00     0.114 C 
BRANCH  40  41
HETATM   41  C   UNK     0       2.430   4.958   4.734  0.00  0.00     0.139 C 
HETATM   42  O   UNK     0       2.459   5.090   5.965  0.00  0.00    -0.650 OA
BRANCH  41  43
HETATM   43  O   UNK     0       3.163   5.898   3.955  0.00  0.00    -0.776 OA
HETATM   44  H   UNK     0       2.958   6.867   4.166  0.00  0.00     0.167 HD
ENDBRANCH  41  43
ENDBRANCH  40  41
ENDBRANCH  39  40
ENDBRANCH  27  39
BRANCH  11  45
HETATM   45  C   UNK     0      10.751   6.952   0.031  0.00  0.00     0.051 C 
BRANCH  45  46
HETATM   46  C   UNK     0      11.050   8.401  -0.106  0.00  0.00     0.114 C 
BRANCH  46  47
HETATM   47  C   UNK     0      11.199   8.686  -1.562  0.00  0.00     0.139 C 
HETATM   48  O   UNK     0      10.598   9.657  -2.041  0.00  0.00    -0.650 OA
BRANCH  47  49
HETATM   49  O   UNK     0      11.985   7.889  -2.357  0.00  0.00    -0.776 OA
HETATM   50  H   UNK     0      12.809   7.398  -1.991  0.00  0.00     0.167 HD
ENDBRANCH  47  49
ENDBRANCH  46  47
ENDBRANCH  45  46
ENDBRANCH  11  45
BRANCH  18  51
HETATM   51  C   UNK     0       4.942   3.442  -1.608  0.00  0.00     0.051 C 
BRANCH  51  52
HETATM   52  C   UNK     0       6.012   2.418  -1.953  0.00  0.00     0.114 C 
BRANCH  52  53
HETATM   53  C   UNK     0       5.867   1.183  -1.157  0.00  0.00     0.139 C 
HETATM   54  O   UNK     0       4.765   0.618  -1.082  0.00  0.00    -0.650 OA
BRANCH  53  55
HETATM   55  O   UNK     0       6.957   0.667  -0.499  0.00  0.00    -0.776 OA
HETATM   56  H   UNK     0       7.760   1.175  -0.211  0.00  0.00     0.167 HD
ENDBRANCH  53  55
ENDBRANCH  52  53
ENDBRANCH  51  52
ENDBRANCH  18  51
TORSDOF 16
ENDMDL
MODEL 15
REMARK VINA RESULT:      -7.8     23.855     27.057
REMARK  16 active torsions:
REMARK  status: ('A' for Active; 'I' for Inactive)
REMARK    1  A    between atoms: C_6  and  C_7 
REMARK    2  A    between atoms: C_7  and  C_8 
REMARK    3  A    between atoms: C_8  and  C_9 
REMARK    4  A    between atoms: C_9  and  O_11 
REMARK    5  A    between atoms: C_16  and  C_17 
REMARK    6  A    between atoms: C_17  and  C_18 
REMARK    7  A    between atoms: C_18  and  C_19 
REMARK    8  A    between atoms: C_19  and  O_21 
REMARK    9  A    between atoms: C_28  and  C_29 
REMARK   10  A    between atoms: C_29  and  C_30 
REMARK   11  A    between atoms: C_30  and  C_31 
REMARK   12  A    between atoms: C_31  and  O_33 
REMARK   13  A    between atoms: C_42  and  C_43 
REMARK   14  A    between atoms: C_43  and  C_44 
REMARK   15  A    between atoms: C_44  and  C_45 
REMARK   16  A    between atoms: C_45  and  O_47 
ROOT
HETATM    1  C   UNK     0      -4.008  11.013   0.247  0.00  0.00     0.051 C 
HETATM    2  C   UNK     0      -4.643  12.188   0.963  0.00  0.00    -0.031 A 
HETATM    3  C   UNK     0      -4.110  13.433   1.254  0.00  0.00     0.021 A 
HETATM    4  N   UNK     0      -5.028  14.158   1.937  0.00  0.00    -0.361 N 
HETATM    5  C   UNK     0      -6.137  13.404   2.080  0.00  0.00     0.022 A 
HETATM    6  C   UNK     0      -5.930  12.164   1.485  0.00  0.00    -0.027 A 
HETATM    7  C   UNK     0      -7.464  13.765   2.672  0.00  0.00     0.115 C 
HETATM    8  C   UNK     0      -8.020  15.132   2.316  0.00  0.00     0.021 A 
HETATM    9  N   UNK     0      -7.918  15.800   1.156  0.00  0.00    -0.361 N 
HETATM   10  C   UNK     0      -8.483  17.015   1.321  0.00  0.00     0.022 A 
HETATM   11  C   UNK     0      -8.970  17.130   2.620  0.00  0.00    -0.027 A 
HETATM   12  C   UNK     0      -8.682  15.947   3.252  0.00  0.00    -0.031 A 
HETATM   13  C   UNK     0      -9.030  15.614   4.685  0.00  0.00     0.051 C 
HETATM   14  C   UNK     0      -8.538  18.132   0.282  0.00  0.00     0.115 C 
HETATM   15  C   UNK     0      -7.171  18.621  -0.169  0.00  0.00     0.021 A 
HETATM   16  N   UNK     0      -6.187  17.900  -0.738  0.00  0.00    -0.361 N 
HETATM   17  C   UNK     0      -5.120  18.681  -0.920  0.00  0.00     0.022 A 
HETATM   18  C   UNK     0      -5.427  19.976  -0.456  0.00  0.00    -0.027 A 
HETATM   19  C   UNK     0      -6.715  19.925   0.011  0.00  0.00    -0.031 A 
HETATM   20  C   UNK     0      -7.457  21.125   0.571  0.00  0.00     0.051 C 
HETATM   21  C   UNK     0      -3.746  18.341  -1.451  0.00  0.00     0.115 C 
HETATM   22  C   UNK     0      -3.199  16.968  -1.141  0.00  0.00     0.022 A 
HETATM   23  N   UNK     0      -3.288  16.277   0.003  0.00  0.00    -0.361 N 
HETATM   24  C   UNK     0      -2.790  15.042  -0.207  0.00  0.00     0.021 A 
HETATM   25  C   UNK     0      -2.359  14.939  -1.516  0.00  0.00    -0.031 A 
HETATM   26  C   UNK     0      -1.694  13.769  -2.210  0.00  0.00     0.051 C 
HETATM   27  C   UNK     0      -2.610  16.159  -2.133  0.00  0.00    -0.027 A 
HETATM   28  C   UNK     0      -2.760  13.874   0.763  0.00  0.00     0.115 C 
HETATM   29  H   UNK     0      -4.871  15.182   2.348  0.00  0.00     0.165 HD
HETATM   30  H   UNK     0      -7.493  15.398   0.204  0.00  0.00     0.165 HD
HETATM   31  H   UNK     0      -6.262  16.829  -1.062  0.00  0.00     0.165 HD
HETATM   32  H   UNK     0      -3.666  16.670   0.983  0.00  0.00     0.165 HD
ENDROOT
BRANCH   6  33
HETATM   33  C   UNK     0      -6.849  10.973   1.378  0.00  0.00     0.051 C 
BRANCH  33  34
HETATM   34  C   UNK     0      -7.789  11.127   0.206  0.00  0.00     0.114 C 
BRANCH  34  35
HETATM   35  C   UNK     0      -9.176  11.187   0.751  0.00  0.00     0.139 C 
HETATM   36  O   UNK     0      -9.990  12.057   0.327  0.00  0.00    -0.650 OA
BRANCH  35  37
HETATM   37  O   UNK     0      -9.635  10.311   1.727  0.00  0.00    -0.776 OA
HETATM   38  H   UNK     0      -9.110  10.120   2.565  0.00  0.00     0.167 HD
ENDBRANCH  35  37
ENDBRANCH  34  35
ENDBRANCH  33  34
ENDBRANCH   6  33
BRANCH  27  39
HETATM   39  C   UNK     0      -2.214  16.453  -3.537  0.00  0.00     0.051 C 
BRANCH  39  40
HETATM   40  C   UNK     0      -0.886  17.015  -3.781  0.00  0.00     0.114 C 
BRANCH  40  41
HETATM   41  C   UNK     0      -0.472  18.284  -3.226  0.00  0.00     0.139 C 
HETATM   42  O   UNK     0       0.515  18.420  -2.491  0.00  0.00    -0.650 OA
BRANCH  41  43
HETATM   43  O   UNK     0      -1.230  19.451  -3.531  0.00  0.00    -0.776 OA
HETATM   44  H   UNK     0      -1.450  20.029  -2.729  0.00  0.00     0.167 HD
ENDBRANCH  41  43
ENDBRANCH  40  41
ENDBRANCH  39  40
ENDBRANCH  27  39
BRANCH  11  45
HETATM   45  C   UNK     0      -9.681  18.291   3.260  0.00  0.00     0.051 C 
BRANCH  45  46
HETATM   46  C   UNK     0     -11.057  18.517   2.746  0.00  0.00     0.114 C 
BRANCH  46  47
HETATM   47  C   UNK     0     -11.980  17.698   3.582  0.00  0.00     0.139 C 
HETATM   48  O   UNK     0     -12.349  16.596   3.151  0.00  0.00    -0.650 OA
BRANCH  47  49
HETATM   49  O   UNK     0     -12.415  18.153   4.801  0.00  0.00    -0.776 OA
HETATM   50  H   UNK     0     -12.480  19.155   5.017  0.00  0.00     0.167 HD
ENDBRANCH  47  49
ENDBRANCH  46  47
ENDBRANCH  45  46
ENDBRANCH  11  45
BRANCH  18  51
HETATM   51  C   UNK     0      -4.548  21.200  -0.476  0.00  0.00     0.051 C 
BRANCH  51  52
HETATM   52  C   UNK     0      -3.563  21.036   0.672  0.00  0.00     0.114 C 
BRANCH  52  53
HETATM   53  C   UNK     0      -2.203  21.467   0.296  0.00  0.00     0.139 C 
HETATM   54  O   UNK     0      -1.652  20.980  -0.704  0.00  0.00    -0.650 OA
BRANCH  53  55
HETATM   55  O   UNK     0      -1.552  22.405   1.059  0.00  0.00    -0.776 OA
HETATM   56  H   UNK     0      -0.657  22.300   1.475  0.00  0.00     0.167 HD
ENDBRANCH  53  55
ENDBRANCH  52  53
ENDBRANCH  51  52
ENDBRANCH  18  51
TORSDOF 16
ENDMDL
MODEL 16
REMARK VINA RESULT:      -7.8     28.152     30.774
REMARK  16 active torsions:
REMARK  status: ('A' for Active; 'I' for Inactive)
REMARK    1  A    between atoms: C_6  and  C_7 
REMARK    2  A    between atoms: C_7  and  C_8 
REMARK    3  A    between atoms: C_8  and  C_9 
REMARK    4  A    between atoms: C_9  and  O_11 
REMARK    5  A    between atoms: C_16  and  C_17 
REMARK    6  A    between atoms: C_17  and  C_18 
REMARK    7  A    between atoms: C_18  and  C_19 
REMARK    8  A    between atoms: C_19  and  O_21 
REMARK    9  A    between atoms: C_28  and  C_29 
REMARK   10  A    between atoms: C_29  and  C_30 
REMARK   11  A    between atoms: C_30  and  C_31 
REMARK   12  A    between atoms: C_31  and  O_33 
REMARK   13  A    between atoms: C_42  and  C_43 
REMARK   14  A    between atoms: C_43  and  C_44 
REMARK   15  A    between atoms: C_44  and  C_45 
REMARK   16  A    between atoms: C_45  and  O_47 
ROOT
HETATM    1  C   UNK     0       5.005   1.667  15.009  0.00  0.00     0.051 C 
HETATM    2  C   UNK     0       5.132   0.791  16.239  0.00  0.00    -0.031 A 
HETATM    3  C   UNK     0       4.987  -0.583  16.359  0.00  0.00     0.021 A 
HETATM    4  N   UNK     0       5.158  -0.933  17.656  0.00  0.00    -0.361 N 
HETATM    5  C   UNK     0       5.416   0.187  18.363  0.00  0.00     0.022 A 
HETATM    6  C   UNK     0       5.405   1.283  17.508  0.00  0.00    -0.027 A 
HETATM    7  C   UNK     0       5.769   0.338  19.810  0.00  0.00     0.115 C 
HETATM    8  C   UNK     0       6.757  -0.666  20.379  0.00  0.00     0.021 A 
HETATM    9  N   UNK     0       7.816  -1.229  19.778  0.00  0.00    -0.361 N 
HETATM   10  C   UNK     0       8.352  -2.129  20.630  0.00  0.00     0.022 A 
HETATM   11  C   UNK     0       7.623  -2.139  21.816  0.00  0.00    -0.027 A 
HETATM   12  C   UNK     0       6.617  -1.219  21.665  0.00  0.00    -0.031 A 
HETATM   13  C   UNK     0       5.574  -0.884  22.708  0.00  0.00     0.051 C 
HETATM   14  C   UNK     0       9.534  -3.051  20.342  0.00  0.00     0.115 C 
HETATM   15  C   UNK     0       9.301  -4.007  19.183  0.00  0.00     0.021 A 
HETATM   16  N   UNK     0       9.006  -3.694  17.907  0.00  0.00    -0.361 N 
HETATM   17  C   UNK     0       8.809  -4.819  17.215  0.00  0.00     0.022 A 
HETATM   18  C   UNK     0       8.994  -5.916  18.079  0.00  0.00    -0.027 A 
HETATM   19  C   UNK     0       9.303  -5.394  19.308  0.00  0.00    -0.031 A 
HETATM   20  C   UNK     0       9.617  -6.239  20.529  0.00  0.00     0.051 C 
HETATM   21  C   UNK     0       8.389  -5.013  15.776  0.00  0.00     0.115 C 
HETATM   22  C   UNK     0       7.441  -3.997  15.183  0.00  0.00     0.022 A 
HETATM   23  N   UNK     0       6.380  -3.416  15.760  0.00  0.00    -0.361 N 
HETATM   24  C   UNK     0       5.910  -2.468  14.924  0.00  0.00     0.021 A 
HETATM   25  C   UNK     0       6.680  -2.445  13.777  0.00  0.00    -0.031 A 
HETATM   26  C   UNK     0       6.522  -1.587  12.539  0.00  0.00     0.051 C 
HETATM   27  C   UNK     0       7.666  -3.415  13.919  0.00  0.00    -0.027 A 
HETATM   28  C   UNK     0       4.780  -1.485  15.175  0.00  0.00     0.115 C 
HETATM   29  H   UNK     0       5.055  -1.963  18.069  0.00  0.00     0.165 HD
HETATM   30  H   UNK     0       8.219  -0.958  18.772  0.00  0.00     0.165 HD
HETATM   31  H   UNK     0       8.983  -2.661  17.474  0.00  0.00     0.165 HD
HETATM   32  H   UNK     0       5.927  -3.699  16.745  0.00  0.00     0.165 HD
ENDROOT
BRANCH   6  33
HETATM   33  C   UNK     0       5.628   2.745  17.802  0.00  0.00     0.051 C 
BRANCH  33  34
HETATM   34  C   UNK     0       4.391   3.364  18.410  0.00  0.00     0.114 C 
BRANCH  34  35
HETATM   35  C   UNK     0       3.852   4.344  17.424  0.00  0.00     0.139 C 
HETATM   36  O   UNK     0       4.640   5.011  16.693  0.00  0.00    -0.650 OA
BRANCH  35  37
HETATM   37  O   UNK     0       2.491   4.568  17.258  0.00  0.00    -0.776 OA
HETATM   38  H   UNK     0       1.856   3.832  16.993  0.00  0.00     0.167 HD
ENDBRANCH  35  37
ENDBRANCH  34  35
ENDBRANCH  33  34
ENDBRANCH   6  33
BRANCH  27  39
HETATM   39  C   UNK     0       8.649  -3.736  12.849  0.00  0.00     0.051 C 
BRANCH  39  40
HETATM   40  C   UNK     0       8.432  -4.939  12.046  0.00  0.00     0.114 C 
BRANCH  40  41
HETATM   41  C   UNK     0       7.212  -5.710  12.126  0.00  0.00     0.139 C 
HETATM   42  O   UNK     0       7.095  -6.734  12.812  0.00  0.00    -0.650 OA
BRANCH  41  43
HETATM   43  O   UNK     0       6.075  -5.284  11.383  0.00  0.00    -0.776 OA
HETATM   44  H   UNK     0       6.195  -5.316  10.378  0.00  0.00     0.167 HD
ENDBRANCH  41  43
ENDBRANCH  40  41
ENDBRANCH  39  40
ENDBRANCH  27  39
BRANCH  11  45
HETATM   45  C   UNK     0       7.846  -2.968  23.052  0.00  0.00     0.051 C 
BRANCH  45  46
HETATM   46  C   UNK     0       6.704  -3.848  23.406  0.00  0.00     0.114 C 
BRANCH  46  47
HETATM   47  C   UNK     0       6.895  -5.134  22.676  0.00  0.00     0.139 C 
HETATM   48  O   UNK     0       7.504  -6.053  23.242  0.00  0.00    -0.650 OA
BRANCH  47  49
HETATM   49  O   UNK     0       6.409  -5.298  21.403  0.00  0.00    -0.776 OA
HETATM   50  H   UNK     0       5.697  -6.003  21.178  0.00  0.00     0.167 HD
ENDBRANCH  47  49
ENDBRANCH  46  47
ENDBRANCH  45  46
ENDBRANCH  11  45
BRANCH  18  51
HETATM   51  C   UNK     0       8.902  -7.383  17.746  0.00  0.00     0.051 C 
BRANCH  51  52
HETATM   52  C   UNK     0       7.424  -7.738  17.790  0.00  0.00     0.114 C 
BRANCH  52  53
HETATM   53  C   UNK     0       6.986  -8.423  16.558  0.00  0.00     0.139 C 
HETATM   54  O   UNK     0       5.910  -9.042  16.540  0.00  0.00    -0.650 OA
BRANCH  53  55
HETATM   55  O   UNK     0       7.778  -8.375  15.436  0.00  0.00    -0.776 OA
HETATM   56  H   UNK     0       8.093  -7.552  14.979  0.00  0.00     0.167 HD
ENDBRANCH  53  55
ENDBRANCH  52  53
ENDBRANCH  51  52
ENDBRANCH  18  51
TORSDOF 16
ENDMDL
MODEL 17
REMARK VINA RESULT:      -7.8     24.898     27.549
REMARK  16 active torsions:
REMARK  status: ('A' for Active; 'I' for Inactive)
REMARK    1  A    between atoms: C_6  and  C_7 
REMARK    2  A    between atoms: C_7  and  C_8 
REMARK    3  A    between atoms: C_8  and  C_9 
REMARK    4  A    between atoms: C_9  and  O_11 
REMARK    5  A    between atoms: C_16  and  C_17 
REMARK    6  A    between atoms: C_17  and  C_18 
REMARK    7  A    between atoms: C_18  and  C_19 
REMARK    8  A    between atoms: C_19  and  O_21 
REMARK    9  A    between atoms: C_28  and  C_29 
REMARK   10  A    between atoms: C_29  and  C_30 
REMARK   11  A    between atoms: C_30  and  C_31 
REMARK   12  A    between atoms: C_31  and  O_33 
REMARK   13  A    between atoms: C_42  and  C_43 
REMARK   14  A    between atoms: C_43  and  C_44 
REMARK   15  A    between atoms: C_44  and  C_45 
REMARK   16  A    between atoms: C_45  and  O_47 
ROOT
HETATM    1  C   UNK     0      -8.483  22.806   1.000  0.00  0.00     0.051 C 
HETATM    2  C   UNK     0      -8.511  21.311   0.756  0.00  0.00    -0.031 A 
HETATM    3  C   UNK     0      -7.705  20.538  -0.064  0.00  0.00     0.021 A 
HETATM    4  N   UNK     0      -8.112  19.248   0.006  0.00  0.00    -0.361 N 
HETATM    5  C   UNK     0      -9.154  19.181   0.860  0.00  0.00     0.022 A 
HETATM    6  C   UNK     0      -9.433  20.455   1.345  0.00  0.00    -0.027 A 
HETATM    7  C   UNK     0      -9.903  17.984   1.356  0.00  0.00     0.115 C 
HETATM    8  C   UNK     0      -9.073  16.768   1.728  0.00  0.00     0.021 A 
HETATM    9  N   UNK     0      -7.857  16.726   2.294  0.00  0.00    -0.361 N 
HETATM   10  C   UNK     0      -7.468  15.435   2.357  0.00  0.00     0.022 A 
HETATM   11  C   UNK     0      -8.464  14.622   1.825  0.00  0.00    -0.027 A 
HETATM   12  C   UNK     0      -9.479  15.455   1.428  0.00  0.00    -0.031 A 
HETATM   13  C   UNK     0     -10.778  15.010   0.794  0.00  0.00     0.051 C 
HETATM   14  C   UNK     0      -6.124  14.923   2.869  0.00  0.00     0.115 C 
HETATM   15  C   UNK     0      -4.929  15.440   2.085  0.00  0.00     0.021 A 
HETATM   16  N   UNK     0      -4.566  16.722   1.891  0.00  0.00    -0.361 N 
HETATM   17  C   UNK     0      -3.500  16.760   1.088  0.00  0.00     0.022 A 
HETATM   18  C   UNK     0      -3.145  15.438   0.751  0.00  0.00    -0.027 A 
HETATM   19  C   UNK     0      -4.047  14.622   1.383  0.00  0.00    -0.031 A 
HETATM   20  C   UNK     0      -4.005  13.106   1.315  0.00  0.00     0.051 C 
HETATM   21  C   UNK     0      -2.758  17.944   0.513  0.00  0.00     0.115 C 
HETATM   22  C   UNK     0      -3.564  19.177   0.179  0.00  0.00     0.022 A 
HETATM   23  N   UNK     0      -4.779  19.248  -0.381  0.00  0.00    -0.361 N 
HETATM   24  C   UNK     0      -5.180  20.535  -0.362  0.00  0.00     0.021 A 
HETATM   25  C   UNK     0      -4.195  21.314   0.215  0.00  0.00    -0.031 A 
HETATM   26  C   UNK     0      -4.164  22.814   0.421  0.00  0.00     0.051 C 
HETATM   27  C   UNK     0      -3.150  20.467   0.569  0.00  0.00    -0.027 A 
HETATM   28  C   UNK     0      -6.521  21.098  -0.800  0.00  0.00     0.115 C 
HETATM   29  H   UNK     0      -7.685  18.401  -0.578  0.00  0.00     0.165 HD
HETATM   30  H   UNK     0      -7.292  17.603   2.696  0.00  0.00     0.165 HD
HETATM   31  H   UNK     0      -5.043  17.618   2.368  0.00  0.00     0.165 HD
HETATM   32  H   UNK     0      -5.347  18.395  -0.835  0.00  0.00     0.165 HD
ENDROOT
BRANCH   6  33
HETATM   33  C   UNK     0     -10.495  20.913   2.311  0.00  0.00     0.051 C 
BRANCH  33  34
HETATM   34  C   UNK     0     -11.802  21.155   1.594  0.00  0.00     0.114 C 
BRANCH  34  35
HETATM   35  C   UNK     0     -12.899  20.736   2.514  0.00  0.00     0.139 C 
HETATM   36  O   UNK     0     -13.873  21.513   2.738  0.00  0.00    -0.650 OA
BRANCH  35  37
HETATM   37  O   UNK     0     -12.911  19.503   3.153  0.00  0.00    -0.776 OA
HETATM   38  H   UNK     0     -12.063  19.035   3.427  0.00  0.00     0.167 HD
ENDBRANCH  35  37
ENDBRANCH  34  35
ENDBRANCH  33  34
ENDBRANCH   6  33
BRANCH  27  39
HETATM   39  C   UNK     0      -1.874  20.957   1.156  0.00  0.00     0.051 C 
BRANCH  39  40
HETATM   40  C   UNK     0      -0.797  21.349   0.248  0.00  0.00     0.114 C 
BRANCH  40  41
HETATM   41  C   UNK     0       0.277  20.450  -0.109  0.00  0.00     0.139 C 
HETATM   42  O   UNK     0       0.141  19.499  -0.891  0.00  0.00    -0.650 OA
BRANCH  41  43
HETATM   43  O   UNK     0       1.566  20.653   0.459  0.00  0.00    -0.776 OA
HETATM   44  H   UNK     0       1.765  21.613   0.715  0.00  0.00     0.167 HD
ENDBRANCH  41  43
ENDBRANCH  40  41
ENDBRANCH  39  40
ENDBRANCH  27  39
BRANCH  11  45
HETATM   45  C   UNK     0      -8.484  13.123   1.690  0.00  0.00     0.051 C 
BRANCH  45  46
HETATM   46  C   UNK     0      -7.689  12.608   0.546  0.00  0.00     0.114 C 
BRANCH  46  47
HETATM   47  C   UNK     0      -7.452  11.156   0.792  0.00  0.00     0.139 C 
HETATM   48  O   UNK     0      -6.449  10.627   0.292  0.00  0.00    -0.650 OA
BRANCH  47  49
HETATM   49  O   UNK     0      -8.324  10.421   1.553  0.00  0.00    -0.776 OA
HETATM   50  H   UNK     0      -8.903   9.674   1.151  0.00  0.00     0.167 HD
ENDBRANCH  47  49
ENDBRANCH  46  47
ENDBRANCH  45  46
ENDBRANCH  11  45
BRANCH  18  51
HETATM   51  C   UNK     0      -1.997  14.978  -0.109  0.00  0.00     0.051 C 
BRANCH  51  52
HETATM   52  C   UNK     0      -2.584  14.680  -1.480  0.00  0.00     0.114 C 
BRANCH  52  53
HETATM   53  C   UNK     0      -1.966  15.507  -2.534  0.00  0.00     0.139 C 
HETATM   54  O   UNK     0      -1.290  16.502  -2.228  0.00  0.00    -0.650 OA
BRANCH  53  55
HETATM   55  O   UNK     0      -2.146  15.171  -3.854  0.00  0.00    -0.776 OA
HETATM   56  H   UNK     0      -1.545  14.599  -4.399  0.00  0.00     0.167 HD
ENDBRANCH  53  55
ENDBRANCH  52  53
ENDBRANCH  51  52
ENDBRANCH  18  51
TORSDOF 16
ENDMDL
MODEL 18
REMARK VINA RESULT:      -7.7     23.167     25.957
REMARK  16 active torsions:
REMARK  status: ('A' for Active; 'I' for Inactive)
REMARK    1  A    between atoms: C_6  and  C_7 
REMARK    2  A    between atoms: C_7  and  C_8 
REMARK    3  A    between atoms: C_8  and  C_9 
REMARK    4  A    between atoms: C_9  and  O_11 
REMARK    5  A    between atoms: C_16  and  C_17 
REMARK    6  A    between atoms: C_17  and  C_18 
REMARK    7  A    between atoms: C_18  and  C_19 
REMARK    8  A    between atoms: C_19  and  O_21 
REMARK    9  A    between atoms: C_28  and  C_29 
REMARK   10  A    between atoms: C_29  and  C_30 
REMARK   11  A    between atoms: C_30  and  C_31 
REMARK   12  A    between atoms: C_31  and  O_33 
REMARK   13  A    between atoms: C_42  and  C_43 
REMARK   14  A    between atoms: C_43  and  C_44 
REMARK   15  A    between atoms: C_44  and  C_45 
REMARK   16  A    between atoms: C_45  and  O_47 
ROOT
HETATM    1  C   UNK     0      -9.476  20.225   0.255  0.00  0.00     0.051 C 
HETATM    2  C   UNK     0      -9.198  18.743   0.099  0.00  0.00    -0.031 A 
HETATM    3  C   UNK     0      -8.217  18.106  -0.643  0.00  0.00     0.021 A 
HETATM    4  N   UNK     0      -8.365  16.766  -0.512  0.00  0.00    -0.361 N 
HETATM    5  C   UNK     0      -9.414  16.536   0.305  0.00  0.00     0.022 A 
HETATM    6  C   UNK     0      -9.960  17.752   0.704  0.00  0.00    -0.027 A 
HETATM    7  C   UNK     0      -9.935  15.240   0.843  0.00  0.00     0.115 C 
HETATM    8  C   UNK     0      -8.902  14.234   1.318  0.00  0.00     0.021 A 
HETATM    9  N   UNK     0      -7.730  14.465   1.929  0.00  0.00    -0.361 N 
HETATM   10  C   UNK     0      -7.097  13.282   2.083  0.00  0.00     0.022 A 
HETATM   11  C   UNK     0      -7.888  12.261   1.564  0.00  0.00    -0.027 A 
HETATM   12  C   UNK     0      -9.026  12.854   1.081  0.00  0.00    -0.031 A 
HETATM   13  C   UNK     0     -10.180  12.127   0.427  0.00  0.00     0.051 C 
HETATM   14  C   UNK     0      -5.706  13.074   2.673  0.00  0.00     0.115 C 
HETATM   15  C   UNK     0      -4.599  13.778   1.905  0.00  0.00     0.021 A 
HETATM   16  N   UNK     0      -4.487  15.095   1.649  0.00  0.00    -0.361 N 
HETATM   17  C   UNK     0      -3.412  15.303   0.886  0.00  0.00     0.022 A 
HETATM   18  C   UNK     0      -2.788  14.063   0.640  0.00  0.00    -0.027 A 
HETATM   19  C   UNK     0      -3.541  13.117   1.286  0.00  0.00    -0.031 A 
HETATM   20  C   UNK     0      -3.198  11.638   1.309  0.00  0.00     0.051 C 
HETATM   21  C   UNK     0      -2.890  16.581   0.269  0.00  0.00     0.115 C 
HETATM   22  C   UNK     0      -3.906  17.610  -0.168  0.00  0.00     0.022 A 
HETATM   23  N   UNK     0      -5.083  17.409  -0.775  0.00  0.00    -0.361 N 
HETATM   24  C   UNK     0      -5.729  18.590  -0.847  0.00  0.00     0.021 A 
HETATM   25  C   UNK     0      -4.946  19.578  -0.282  0.00  0.00    -0.031 A 
HETATM   26  C   UNK     0      -5.221  21.062  -0.163  0.00  0.00     0.051 C 
HETATM   27  C   UNK     0      -3.773  18.975   0.160  0.00  0.00    -0.027 A 
HETATM   28  C   UNK     0      -7.132  18.852  -1.367  0.00  0.00     0.115 C 
HETATM   29  H   UNK     0      -7.752  15.992  -1.029  0.00  0.00     0.165 HD
HETATM   30  H   UNK     0      -7.368  15.455   2.300  0.00  0.00     0.165 HD
HETATM   31  H   UNK     0      -5.153  15.901   2.054  0.00  0.00     0.165 HD
HETATM   32  H   UNK     0      -5.450  16.438  -1.198  0.00  0.00     0.165 HD
ENDROOT
BRANCH   6  33
HETATM   33  C   UNK     0     -11.137  18.038   1.601  0.00  0.00     0.051 C 
BRANCH  33  34
HETATM   34  C   UNK     0     -10.790  17.760   3.045  0.00  0.00     0.114 C 
BRANCH  34  35
HETATM   35  C   UNK     0     -11.941  17.031   3.649  0.00  0.00     0.139 C 
HETATM   36  O   UNK     0     -12.959  16.755   2.949  0.00  0.00    -0.650 OA
BRANCH  35  37
HETATM   37  O   UNK     0     -11.956  16.623   4.977  0.00  0.00    -0.776 OA
HETATM   38  H   UNK     0     -11.195  16.105   5.386  0.00  0.00     0.167 HD
ENDBRANCH  35  37
ENDBRANCH  34  35
ENDBRANCH  33  34
ENDBRANCH   6  33
BRANCH  27  39
HETATM   39  C   UNK     0      -2.647  19.738   0.765  0.00  0.00     0.051 C 
BRANCH  39  40
HETATM   40  C   UNK     0      -1.786  20.521  -0.120  0.00  0.00     0.114 C 
BRANCH  40  41
HETATM   41  C   UNK     0      -0.356  20.320  -0.180  0.00  0.00     0.139 C 
HETATM   42  O   UNK     0       0.182  19.433  -0.858  0.00  0.00    -0.650 OA
BRANCH  41  43
HETATM   43  O   UNK     0       0.495  21.177   0.574  0.00  0.00    -0.776 OA
HETATM   44  H   UNK     0       1.291  21.534   0.060  0.00  0.00     0.167 HD
ENDBRANCH  41  43
ENDBRANCH  40  41
ENDBRANCH  39  40
ENDBRANCH  27  39
BRANCH  11  45
HETATM   45  C   UNK     0      -7.606  10.783   1.517  0.00  0.00     0.051 C 
BRANCH  45  46
HETATM   46  C   UNK     0      -6.472  10.410   0.633  0.00  0.00     0.114 C 
BRANCH  46  47
HETATM   47  C   UNK     0      -5.935   9.110   1.127  0.00  0.00     0.139 C 
HETATM   48  O   UNK     0      -6.188   8.082   0.484  0.00  0.00    -0.650 OA
BRANCH  47  49
HETATM   49  O   UNK     0      -5.179   9.052   2.270  0.00  0.00    -0.776 OA
HETATM   50  H   UNK     0      -5.006   9.880   2.852  0.00  0.00     0.167 HD
ENDBRANCH  47  49
ENDBRANCH  46  47
ENDBRANCH  45  46
ENDBRANCH  11  45
BRANCH  18  51
HETATM   51  C   UNK     0      -1.532  13.798  -0.148  0.00  0.00     0.051 C 
BRANCH  51  52
HETATM   52  C   UNK     0      -1.978  13.484  -1.568  0.00  0.00     0.114 C 
BRANCH  52  53
HETATM   53  C   UNK     0      -1.617  14.562  -2.509  0.00  0.00     0.139 C 
HETATM   54  O   UNK     0      -2.439  14.950  -3.354  0.00  0.00    -0.650 OA
BRANCH  53  55
HETATM   55  O   UNK     0      -0.367  15.129  -2.445  0.00  0.00    -0.776 OA
HETATM   56  H   UNK     0       0.165  15.458  -3.216  0.00  0.00     0.167 HD
ENDBRANCH  53  55
ENDBRANCH  52  53
ENDBRANCH  51  52
ENDBRANCH  18  51
TORSDOF 16
ENDMDL
MODEL 19
REMARK VINA RESULT:      -7.7     18.434     23.181
REMARK  16 active torsions:
REMARK  status: ('A' for Active; 'I' for Inactive)
REMARK    1  A    between atoms: C_6  and  C_7 
REMARK    2  A    between atoms: C_7  and  C_8 
REMARK    3  A    between atoms: C_8  and  C_9 
REMARK    4  A    between atoms: C_9  and  O_11 
REMARK    5  A    between atoms: C_16  and  C_17 
REMARK    6  A    between atoms: C_17  and  C_18 
REMARK    7  A    between atoms: C_18  and  C_19 
REMARK    8  A    between atoms: C_19  and  O_21 
REMARK    9  A    between atoms: C_28  and  C_29 
REMARK   10  A    between atoms: C_29  and  C_30 
REMARK   11  A    between atoms: C_30  and  C_31 
REMARK   12  A    between atoms: C_31  and  O_33 
REMARK   13  A    between atoms: C_42  and  C_43 
REMARK   14  A    between atoms: C_43  and  C_44 
REMARK   15  A    between atoms: C_44  and  C_45 
REMARK   16  A    between atoms: C_45  and  O_47 
ROOT
HETATM    1  C   UNK     0       6.546  -3.667   2.571  0.00  0.00     0.051 C 
HETATM    2  C   UNK     0       5.859  -2.358   2.900  0.00  0.00    -0.031 A 
HETATM    3  C   UNK     0       5.233  -1.456   2.054  0.00  0.00     0.021 A 
HETATM    4  N   UNK     0       4.785  -0.405   2.782  0.00  0.00    -0.361 N 
HETATM    5  C   UNK     0       5.104  -0.622   4.074  0.00  0.00     0.022 A 
HETATM    6  C   UNK     0       5.779  -1.833   4.184  0.00  0.00    -0.027 A 
HETATM    7  C   UNK     0       4.758   0.182   5.288  0.00  0.00     0.115 C 
HETATM    8  C   UNK     0       3.339   0.719   5.369  0.00  0.00     0.021 A 
HETATM    9  N   UNK     0       2.202   0.143   4.948  0.00  0.00    -0.361 N 
HETATM   10  C   UNK     0       1.193   1.019   5.138  0.00  0.00     0.022 A 
HETATM   11  C   UNK     0       1.693   2.188   5.706  0.00  0.00    -0.027 A 
HETATM   12  C   UNK     0       3.044   2.005   5.854  0.00  0.00    -0.031 A 
HETATM   13  C   UNK     0       4.004   3.017   6.439  0.00  0.00     0.051 C 
HETATM   14  C   UNK     0      -0.267   0.812   4.745  0.00  0.00     0.115 C 
HETATM   15  C   UNK     0      -0.479   0.604   3.254  0.00  0.00     0.021 A 
HETATM   16  N   UNK     0       0.051  -0.357   2.475  0.00  0.00    -0.361 N 
HETATM   17  C   UNK     0      -0.324  -0.152   1.210  0.00  0.00     0.022 A 
HETATM   18  C   UNK     0      -1.146   0.991   1.164  0.00  0.00    -0.027 A 
HETATM   19  C   UNK     0      -1.236   1.455   2.451  0.00  0.00    -0.031 A 
HETATM   20  C   UNK     0      -2.064   2.661   2.857  0.00  0.00     0.051 C 
HETATM   21  C   UNK     0       0.055  -0.899  -0.049  0.00  0.00     0.115 C 
HETATM   22  C   UNK     0       1.449  -1.476  -0.124  0.00  0.00     0.022 A 
HETATM   23  N   UNK     0       2.599  -0.927   0.291  0.00  0.00    -0.361 N 
HETATM   24  C   UNK     0       3.577  -1.846   0.164  0.00  0.00     0.021 A 
HETATM   25  C   UNK     0       3.047  -3.012  -0.355  0.00  0.00    -0.031 A 
HETATM   26  C   UNK     0       3.752  -4.304  -0.712  0.00  0.00     0.051 C 
HETATM   27  C   UNK     0       1.686  -2.799  -0.548  0.00  0.00    -0.027 A 
HETATM   28  C   UNK     0       5.030  -1.722   0.589  0.00  0.00     0.115 C 
HETATM   29  H   UNK     0       4.281   0.501   2.372  0.00  0.00     0.165 HD
HETATM   30  H   UNK     0       2.101  -0.901   4.562  0.00  0.00     0.165 HD
HETATM   31  H   UNK     0       0.664  -1.225   2.831  0.00  0.00     0.165 HD
HETATM   32  H   UNK     0       2.738   0.130   0.637  0.00  0.00     0.165 HD
ENDROOT
BRANCH   6  33
HETATM   33  C   UNK     0       6.349  -2.520   5.399  0.00  0.00     0.051 C 
BRANCH  33  34
HETATM   34  C   UNK     0       7.753  -2.038   5.677  0.00  0.00     0.114 C 
BRANCH  34  35
HETATM   35  C   UNK     0       7.729  -1.324   6.986  0.00  0.00     0.139 C 
HETATM   36  O   UNK     0       8.609  -0.456   7.255  0.00  0.00    -0.650 OA
BRANCH  35  37
HETATM   37  O   UNK     0       6.762  -1.568   7.954  0.00  0.00    -0.776 OA
HETATM   38  H   UNK     0       6.836  -1.198   8.888  0.00  0.00     0.167 HD
ENDBRANCH  35  37
ENDBRANCH  34  35
ENDBRANCH  33  34
ENDBRANCH   6  33
BRANCH  27  39
HETATM   39  C   UNK     0       0.787  -3.813  -1.163  0.00  0.00     0.051 C 
BRANCH  39  40
HETATM   40  C   UNK     0      -0.251  -4.418  -0.328  0.00  0.00     0.114 C 
BRANCH  40  41
HETATM   41  C   UNK     0      -1.369  -5.140  -0.891  0.00  0.00     0.139 C 
HETATM   42  O   UNK     0      -2.187  -5.772  -0.209  0.00  0.00    -0.650 OA
BRANCH  41  43
HETATM   43  O   UNK     0      -1.555  -5.135  -2.302  0.00  0.00    -0.776 OA
HETATM   44  H   UNK     0      -1.820  -4.236  -2.687  0.00  0.00     0.167 HD
ENDBRANCH  41  43
ENDBRANCH  40  41
ENDBRANCH  39  40
ENDBRANCH  27  39
BRANCH  11  45
HETATM   45  C   UNK     0       0.948   3.434   6.103  0.00  0.00     0.051 C 
BRANCH  45  46
HETATM   46  C   UNK     0       0.593   4.317   4.962  0.00  0.00     0.114 C 
BRANCH  46  47
HETATM   47  C   UNK     0       1.467   5.522   5.047  0.00  0.00     0.139 C 
HETATM   48  O   UNK     0       1.968   5.815   6.142  0.00  0.00    -0.650 OA
BRANCH  47  49
HETATM   49  O   UNK     0       1.712   6.292   3.938  0.00  0.00    -0.776 OA
HETATM   50  H   UNK     0       2.370   6.000   3.206  0.00  0.00     0.167 HD
ENDBRANCH  47  49
ENDBRANCH  46  47
ENDBRANCH  45  46
ENDBRANCH  11  45
BRANCH  18  51
HETATM   51  C   UNK     0      -1.825   1.596  -0.037  0.00  0.00     0.051 C 
BRANCH  51  52
HETATM   52  C   UNK     0      -3.095   0.789  -0.260  0.00  0.00     0.114 C 
BRANCH  52  53
HETATM   53  C   UNK     0      -4.257   1.656  -0.535  0.00  0.00     0.139 C 
HETATM   54  O   UNK     0      -4.099   2.742  -1.115  0.00  0.00    -0.650 OA
BRANCH  53  55
HETATM   55  O   UNK     0      -5.511   1.256  -0.141  0.00  0.00    -0.776 OA
HETATM   56  H   UNK     0      -6.371   1.570  -0.526  0.00  0.00     0.167 HD
ENDBRANCH  53  55
ENDBRANCH  52  53
ENDBRANCH  51  52
ENDBRANCH  18  51
TORSDOF 16
ENDMDL
MODEL 20
REMARK VINA RESULT:      -7.5     21.299     25.569
REMARK  16 active torsions:
REMARK  status: ('A' for Active; 'I' for Inactive)
REMARK    1  A    between atoms: C_6  and  C_7 
REMARK    2  A    between atoms: C_7  and  C_8 
REMARK    3  A    between atoms: C_8  and  C_9 
REMARK    4  A    between atoms: C_9  and  O_11 
REMARK    5  A    between atoms: C_16  and  C_17 
REMARK    6  A    between atoms: C_17  and  C_18 
REMARK    7  A    between atoms: C_18  and  C_19 
REMARK    8  A    between atoms: C_19  and  O_21 
REMARK    9  A    between atoms: C_28  and  C_29 
REMARK   10  A    between atoms: C_29  and  C_30 
REMARK   11  A    between atoms: C_30  and  C_31 
REMARK   12  A    between atoms: C_31  and  O_33 
REMARK   13  A    between atoms: C_42  and  C_43 
REMARK   14  A    between atoms: C_43  and  C_44 
REMARK   15  A    between atoms: C_44  and  C_45 
REMARK   16  A    between atoms: C_45  and  O_47 
ROOT
HETATM    1  C   UNK     0       0.716   2.002  -0.336  0.00  0.00     0.051 C 
HETATM    2  C   UNK     0       2.074   1.525   0.137  0.00  0.00    -0.031 A 
HETATM    3  C   UNK     0       3.051   2.211   0.841  0.00  0.00     0.021 A 
HETATM    4  N   UNK     0       4.119   1.398   1.021  0.00  0.00    -0.361 N 
HETATM    5  C   UNK     0       3.840   0.206   0.455  0.00  0.00     0.022 A 
HETATM    6  C   UNK     0       2.570   0.252  -0.110  0.00  0.00    -0.027 A 
HETATM    7  C   UNK     0       4.641  -1.059   0.455  0.00  0.00     0.115 C 
HETATM    8  C   UNK     0       5.303  -1.446   1.766  0.00  0.00     0.021 A 
HETATM    9  N   UNK     0       4.845  -1.277   3.016  0.00  0.00    -0.361 N 
HETATM   10  C   UNK     0       5.805  -1.685   3.873  0.00  0.00     0.022 A 
HETATM   11  C   UNK     0       6.907  -2.139   3.155  0.00  0.00    -0.027 A 
HETATM   12  C   UNK     0       6.598  -1.991   1.827  0.00  0.00    -0.031 A 
HETATM   13  C   UNK     0       7.502  -2.361   0.673  0.00  0.00     0.051 C 
HETATM   14  C   UNK     0       5.742  -1.615   5.396  0.00  0.00     0.115 C 
HETATM   15  C   UNK     0       5.594  -0.204   5.942  0.00  0.00     0.021 A 
HETATM   16  N   UNK     0       4.609   0.677   5.684  0.00  0.00    -0.361 N 
HETATM   17  C   UNK     0       4.880   1.830   6.300  0.00  0.00     0.022 A 
HETATM   18  C   UNK     0       6.095   1.691   7.000  0.00  0.00    -0.027 A 
HETATM   19  C   UNK     0       6.531   0.412   6.769  0.00  0.00    -0.031 A 
HETATM   20  C   UNK     0       7.797  -0.170   7.372  0.00  0.00     0.051 C 
HETATM   21  C   UNK     0       4.135   3.145   6.272  0.00  0.00     0.115 C 
HETATM   22  C   UNK     0       3.435   3.523   4.987  0.00  0.00     0.022 A 
HETATM   23  N   UNK     0       3.865   3.362   3.729  0.00  0.00    -0.361 N 
HETATM   24  C   UNK     0       2.864   3.702   2.893  0.00  0.00     0.021 A 
HETATM   25  C   UNK     0       1.765   4.101   3.630  0.00  0.00    -0.031 A 
HETATM   26  C   UNK     0       0.424   4.609   3.143  0.00  0.00     0.051 C 
HETATM   27  C   UNK     0       2.107   3.995   4.973  0.00  0.00    -0.027 A 
HETATM   28  C   UNK     0       2.843   3.600   1.377  0.00  0.00     0.115 C 
HETATM   29  H   UNK     0       5.078   1.684   1.513  0.00  0.00     0.165 HD
HETATM   30  H   UNK     0       3.825  -0.916   3.297  0.00  0.00     0.165 HD
HETATM   31  H   UNK     0       3.679   0.467   5.095  0.00  0.00     0.165 HD
HETATM   32  H   UNK     0       4.895   3.048   3.419  0.00  0.00     0.165 HD
ENDROOT
BRANCH   6  33
HETATM   33  C   UNK     0       1.802  -0.808  -0.859  0.00  0.00     0.051 C 
BRANCH  33  34
HETATM   34  C   UNK     0       0.875  -1.555   0.071  0.00  0.00     0.114 C 
BRANCH  34  35
HETATM   35  C   UNK     0       1.214  -3.004  -0.030  0.00  0.00     0.139 C 
HETATM   36  O   UNK     0       2.259  -3.373  -0.641  0.00  0.00    -0.650 OA
BRANCH  35  37
HETATM   37  O   UNK     0       0.422  -3.999   0.529  0.00  0.00    -0.776 OA
HETATM   38  H   UNK     0      -0.026  -4.705  -0.033  0.00  0.00     0.167 HD
ENDBRANCH  35  37
ENDBRANCH  34  35
ENDBRANCH  33  34
ENDBRANCH   6  33
BRANCH  27  39
HETATM   39  C   UNK     0       1.196   4.408   6.076  0.00  0.00     0.051 C 
BRANCH  39  40
HETATM   40  C   UNK     0       0.314   3.399   6.661  0.00  0.00     0.114 C 
BRANCH  40  41
HETATM   41  C   UNK     0       0.410   1.998   6.318  0.00  0.00     0.139 C 
HETATM   42  O   UNK     0       1.138   1.196   6.919  0.00  0.00    -0.650 OA
BRANCH  41  43
HETATM   43  O   UNK     0      -0.365   1.497   5.234  0.00  0.00    -0.776 OA
HETATM   44  H   UNK     0       0.160   1.334   4.383  0.00  0.00     0.167 HD
ENDBRANCH  41  43
ENDBRANCH  40  41
ENDBRANCH  39  40
ENDBRANCH  27  39
BRANCH  11  45
HETATM   45  C   UNK     0       8.206  -2.694   3.675  0.00  0.00     0.051 C 
BRANCH  45  46
HETATM   46  C   UNK     0       9.326  -1.719   3.672  0.00  0.00     0.114 C 
BRANCH  46  47
HETATM   47  C   UNK     0      10.044  -1.867   4.971  0.00  0.00     0.139 C 
HETATM   48  O   UNK     0       9.944  -2.939   5.584  0.00  0.00    -0.650 OA
BRANCH  47  49
HETATM   49  O   UNK     0      10.797  -0.838   5.479  0.00  0.00    -0.776 OA
HETATM   50  H   UNK     0      11.349  -0.217   4.875  0.00  0.00     0.167 HD
ENDBRANCH  47  49
ENDBRANCH  46  47
ENDBRANCH  45  46
ENDBRANCH  11  45
BRANCH  18  51
HETATM   51  C   UNK     0       6.791   2.714   7.860  0.00  0.00     0.051 C 
BRANCH  51  52
HETATM   52  C   UNK     0       7.846   3.365   6.978  0.00  0.00     0.114 C 
BRANCH  52  53
HETATM   53  C   UNK     0       8.364   4.612   7.572  0.00  0.00     0.139 C 
HETATM   54  O   UNK     0       8.788   5.520   6.838  0.00  0.00    -0.650 OA
BRANCH  53  55
HETATM   55  O   UNK     0       8.379   4.761   8.937  0.00  0.00    -0.776 OA
HETATM   56  H   UNK     0       9.080   4.425   9.554  0.00  0.00     0.167 HD
ENDBRANCH  53  55
ENDBRANCH  52  53
ENDBRANCH  51  52
ENDBRANCH  18  51
TORSDOF 16
ENDMDL
