MODEL 1
REMARK VINA RESULT:      -9.0      0.000      0.000
REMARK  28 active torsions:
REMARK  status: ('A' for Active; 'I' for Inactive)
REMARK    1  A    between atoms: C_2  and  O_3 
REMARK    2  A    between atoms: C_2  and  C_4 
REMARK    3  A    between atoms: C_4  and  C_5 
REMARK    4  A    between atoms: C_5  and  C_6 
REMARK    5  A    between atoms: C_7  and  C_8 
REMARK    6  A    between atoms: C_8  and  C_9 
REMARK    7  A    between atoms: C_9  and  O_11 
REMARK    8  A    between atoms: C_28  and  C_29 
REMARK    9  A    between atoms: C_29  and  C_30 
REMARK   10  A    between atoms: C_30  and  O_32 
REMARK   11  A    between atoms: C_33  and  C_34 
REMARK   12  A    between atoms: C_34  and  C_35 
REMARK   13  A    between atoms: C_35  and  C_36 
REMARK   14  A    between atoms: C_36  and  O_38 
REMARK   15  A    between atoms: C_39  and  C_40 
REMARK   16  A    between atoms: C_40  and  C_41 
REMARK   17  A    between atoms: C_41  and  C_42 
REMARK   18  A    between atoms: C_42  and  O_44 
REMARK   19  A    between atoms: C_45  and  C_46 
REMARK   20  A    between atoms: C_46  and  C_47 
REMARK   21  A    between atoms: C_47  and  O_49 
REMARK   22  A    between atoms: C_50  and  C_51 
REMARK   23  A    between atoms: C_51  and  C_52 
REMARK   24  A    between atoms: C_52  and  O_54 
REMARK   25  A    between atoms: C_55  and  C_56 
REMARK   26  A    between atoms: C_56  and  C_57 
REMARK   27  A    between atoms: C_57  and  C_58 
REMARK   28  A    between atoms: C_58  and  O_60 
ROOT
ATOM      1  O   UNK d   0     -15.858  -5.644  -4.375  0.00  0.00    -0.650 OA
ATOM      2  C   UNK d   0     -16.900  -6.335  -4.334  0.00  0.00     0.139 C 
ENDROOT
BRANCH   2   3
ATOM      3  O   UNK d   0     -18.079  -5.752  -3.935  0.00  0.00    -0.776 OA
ATOM      4  H   UNK d   0     -18.967  -6.253  -4.009  0.00  0.00     0.167 HD
ENDBRANCH   2   3
BRANCH   2   5
ATOM      5  C   UNK d   0     -16.859  -7.775  -4.713  0.00  0.00     0.115 C 
BRANCH   5   6
ATOM      6  C   UNK d   0     -15.523  -8.113  -5.317  0.00  0.00     0.052 C 
BRANCH   6   7
ATOM      7  C   UNK d   0     -15.580  -8.238  -6.821  0.00  0.00    -0.020 A 
ATOM      8  C   UNK d   0     -15.768  -9.325  -7.525  0.00  0.00    -0.011 A 
ATOM      9  C   UNK d   0     -15.736  -8.956  -8.931  0.00  0.00     0.067 A 
ATOM     10  C   UNK d   0     -15.888  -9.622 -10.156  0.00  0.00     0.062 C 
ATOM     11  N   UNK d   0     -15.517  -7.625  -8.990  0.00  0.00    -0.248 NA
ATOM     12  C   UNK d   0     -16.102  -9.046 -11.413  0.00  0.00     0.041 A 
ATOM     13  N   UNK d   0     -15.543  -7.973 -12.003  0.00  0.00    -0.355 N 
ATOM     14  C   UNK d   0     -17.095  -9.588 -12.250  0.00  0.00    -0.022 A 
ATOM     15  C   UNK d   0     -16.161  -7.815 -13.189  0.00  0.00     0.042 A 
ATOM     16  H   UNK d   0     -14.714  -7.351 -11.598  0.00  0.00     0.166 HD
ATOM     17  C   UNK d   0     -15.965  -6.853 -14.200  0.00  0.00     0.062 C 
ATOM     18  C   UNK d   0     -17.140  -8.808 -13.379  0.00  0.00    -0.013 A 
ATOM     19  C   UNK d   0     -15.808  -5.496 -14.080  0.00  0.00     0.067 A 
ATOM     20  N   UNK d   0     -15.615  -5.015 -12.849  0.00  0.00    -0.248 NA
ATOM     21  C   UNK d   0     -15.808  -4.360 -14.987  0.00  0.00    -0.011 A 
ATOM     22  C   UNK d   0     -15.491  -3.648 -12.885  0.00  0.00     0.066 A 
ATOM     23  C   UNK d   0     -15.247  -3.019 -11.673  0.00  0.00     0.062 C 
ATOM     24  C   UNK d   0     -15.626  -3.281 -14.281  0.00  0.00    -0.020 A 
ATOM     25  C   UNK d   0     -15.022  -3.617 -10.423  0.00  0.00     0.041 A 
ATOM     26  N   UNK d   0     -15.589  -4.675  -9.831  0.00  0.00    -0.355 N 
ATOM     27  C   UNK d   0     -14.023  -3.075  -9.586  0.00  0.00    -0.022 A 
ATOM     28  C   UNK d   0     -14.980  -4.830  -8.644  0.00  0.00     0.042 A 
ATOM     29  H   UNK d   0     -16.428  -5.292 -10.234  0.00  0.00     0.166 HD
ATOM     30  C   UNK d   0     -15.171  -5.776  -7.625  0.00  0.00     0.062 C 
ATOM     31  C   UNK d   0     -13.989  -3.837  -8.459  0.00  0.00    -0.013 A 
ATOM     32  C   UNK d   0     -15.415  -7.134  -7.755  0.00  0.00     0.066 A 
BRANCH   8  33
ATOM     33  C   UNK d   0     -15.973 -10.690  -7.008  0.00  0.00     0.151 C 
BRANCH  33  34
ATOM     34  C   UNK d   0     -17.394 -11.079  -6.970  0.00  0.00     0.143 C 
ATOM     35  O   UNK d   0     -18.280 -10.235  -6.777  0.00  0.00    -0.650 OA
BRANCH  34  36
ATOM     36  O   UNK d   0     -17.739 -12.399  -7.151  0.00  0.00    -0.776 OA
ATOM     37  H   UNK d   0     -17.230 -13.154  -6.671  0.00  0.00     0.167 HD
ENDBRANCH  34  36
ENDBRANCH  33  34
ENDBRANCH   8  33
BRANCH  31  38
ATOM     38  C   UNK d   0     -13.063  -3.644  -7.281  0.00  0.00     0.151 C 
BRANCH  38  39
ATOM     39  C   UNK d   0     -11.790  -4.313  -7.451  0.00  0.00     0.143 C 
ATOM     40  O   UNK d   0     -10.743  -3.694  -7.712  0.00  0.00    -0.650 OA
BRANCH  39  41
ATOM     41  O   UNK d   0     -11.720  -5.699  -7.321  0.00  0.00    -0.776 OA
ATOM     42  H   UNK d   0     -11.536  -6.234  -8.175  0.00  0.00     0.167 HD
ENDBRANCH  39  41
ENDBRANCH  38  39
ENDBRANCH  31  38
BRANCH  27  43
ATOM     43  C   UNK d   0     -13.122  -1.887  -9.814  0.00  0.00     0.052 C 
BRANCH  43  44
ATOM     44  C   UNK d   0     -13.229  -0.850  -8.744  0.00  0.00     0.115 C 
BRANCH  44  45
ATOM     45  C   UNK d   0     -11.852  -0.349  -8.498  0.00  0.00     0.139 C 
ATOM     46  O   UNK d   0     -11.717   0.818  -8.054  0.00  0.00    -0.650 OA
BRANCH  45  47
ATOM     47  O   UNK d   0     -10.727  -1.110  -8.732  0.00  0.00    -0.776 OA
ATOM     48  H   UNK d   0      -9.888  -0.739  -9.206  0.00  0.00     0.167 HD
ENDBRANCH  45  47
ENDBRANCH  44  45
ENDBRANCH  43  44
ENDBRANCH  27  43
BRANCH  24  49
ATOM     49  C   UNK d   0     -15.521  -1.908 -14.804  0.00  0.00     0.052 C 
BRANCH  49  50
ATOM     50  C   UNK d   0     -16.813  -1.163 -14.585  0.00  0.00     0.115 C 
BRANCH  50  51
ATOM     51  C   UNK d   0     -16.772   0.288 -14.707  0.00  0.00     0.139 C 
ATOM     52  O   UNK d   0     -16.414   0.868 -15.759  0.00  0.00    -0.650 OA
BRANCH  51  53
ATOM     53  O   UNK d   0     -17.138   1.078 -13.628  0.00  0.00    -0.776 OA
ATOM     54  H   UNK d   0     -17.907   1.714 -13.744  0.00  0.00     0.167 HD
ENDBRANCH  51  53
ENDBRANCH  50  51
ENDBRANCH  49  50
ENDBRANCH  24  49
BRANCH  21  55
ATOM     55  C   UNK d   0     -15.986  -4.472 -16.465  0.00  0.00     0.151 C 
BRANCH  55  56
ATOM     56  C   UNK d   0     -17.351  -4.882 -16.827  0.00  0.00     0.143 C 
ATOM     57  O   UNK d   0     -18.361  -4.481 -16.216  0.00  0.00    -0.650 OA
BRANCH  56  58
ATOM     58  O   UNK d   0     -17.503  -5.756 -17.903  0.00  0.00    -0.776 OA
ATOM     59  H   UNK d   0     -17.297  -5.344 -18.831  0.00  0.00     0.167 HD
ENDBRANCH  56  58
ENDBRANCH  55  56
ENDBRANCH  21  55
BRANCH  18  60
ATOM     60  C   UNK d   0     -18.075  -9.027 -14.543  0.00  0.00     0.151 C 
BRANCH  60  61
ATOM     61  C   UNK d   0     -19.243  -8.170 -14.289  0.00  0.00     0.143 C 
ATOM     62  O   UNK d   0     -20.070  -8.292 -13.384  0.00  0.00    -0.650 OA
BRANCH  61  63
ATOM     63  O   UNK d   0     -19.412  -7.097 -15.197  0.00  0.00    -0.776 OA
ATOM     64  H   UNK d   0     -19.380  -7.248 -16.189  0.00  0.00     0.167 HD
ENDBRANCH  61  63
ENDBRANCH  60  61
ENDBRANCH  18  60
BRANCH  14  65
ATOM     65  C   UNK d   0     -17.926 -10.831 -12.108  0.00  0.00     0.052 C 
BRANCH  65  66
ATOM     66  C   UNK d   0     -17.110 -12.056 -11.897  0.00  0.00     0.115 C 
BRANCH  66  67
ATOM     67  C   UNK d   0     -17.636 -13.136 -11.111  0.00  0.00     0.139 C 
ATOM     68  O   UNK d   0     -17.319 -13.200  -9.866  0.00  0.00    -0.650 OA
BRANCH  67  69
ATOM     69  O   UNK d   0     -18.477 -14.166 -11.530  0.00  0.00    -0.776 OA
ATOM     70  H   UNK d   0     -18.292 -14.540 -12.472  0.00  0.00     0.167 HD
ENDBRANCH  67  69
ENDBRANCH  66  67
ENDBRANCH  65  66
ENDBRANCH  14  65
ENDBRANCH   6   7
ENDBRANCH   5   6
ENDBRANCH   2   5
TORSDOF 28
ENDMDL
MODEL 2
REMARK VINA RESULT:      -9.0      4.615     12.738
REMARK  28 active torsions:
REMARK  status: ('A' for Active; 'I' for Inactive)
REMARK    1  A    between atoms: C_2  and  O_3 
REMARK    2  A    between atoms: C_2  and  C_4 
REMARK    3  A    between atoms: C_4  and  C_5 
REMARK    4  A    between atoms: C_5  and  C_6 
REMARK    5  A    between atoms: C_7  and  C_8 
REMARK    6  A    between atoms: C_8  and  C_9 
REMARK    7  A    between atoms: C_9  and  O_11 
REMARK    8  A    between atoms: C_28  and  C_29 
REMARK    9  A    between atoms: C_29  and  C_30 
REMARK   10  A    between atoms: C_30  and  O_32 
REMARK   11  A    between atoms: C_33  and  C_34 
REMARK   12  A    between atoms: C_34  and  C_35 
REMARK   13  A    between atoms: C_35  and  C_36 
REMARK   14  A    between atoms: C_36  and  O_38 
REMARK   15  A    between atoms: C_39  and  C_40 
REMARK   16  A    between atoms: C_40  and  C_41 
REMARK   17  A    between atoms: C_41  and  C_42 
REMARK   18  A    between atoms: C_42  and  O_44 
REMARK   19  A    between atoms: C_45  and  C_46 
REMARK   20  A    between atoms: C_46  and  C_47 
REMARK   21  A    between atoms: C_47  and  O_49 
REMARK   22  A    between atoms: C_50  and  C_51 
REMARK   23  A    between atoms: C_51  and  C_52 
REMARK   24  A    between atoms: C_52  and  O_54 
REMARK   25  A    between atoms: C_55  and  C_56 
REMARK   26  A    between atoms: C_56  and  C_57 
REMARK   27  A    between atoms: C_57  and  C_58 
REMARK   28  A    between atoms: C_58  and  O_60 
ROOT
ATOM      1  O   UNK d   0     -16.595  -5.540 -22.449  0.00  0.00    -0.650 OA
ATOM      2  C   UNK d   0     -16.924  -6.740 -22.319  0.00  0.00     0.139 C 
ENDROOT
BRANCH   2   3
ATOM      3  O   UNK d   0     -17.554  -7.382 -23.357  0.00  0.00    -0.776 OA
ATOM      4  H   UNK d   0     -18.133  -6.866 -24.023  0.00  0.00     0.167 HD
ENDBRANCH   2   3
BRANCH   2   5
ATOM      5  C   UNK d   0     -16.633  -7.462 -21.047  0.00  0.00     0.115 C 
BRANCH   5   6
ATOM      6  C   UNK d   0     -17.787  -7.314 -20.093  0.00  0.00     0.052 C 
BRANCH   6   7
ATOM      7  C   UNK d   0     -17.474  -7.851 -18.716  0.00  0.00    -0.020 A 
ATOM      8  C   UNK d   0     -16.628  -7.366 -17.844  0.00  0.00    -0.011 A 
ATOM      9  C   UNK d   0     -16.662  -8.222 -16.669  0.00  0.00     0.067 A 
ATOM     10  C   UNK d   0     -16.033  -8.244 -15.415  0.00  0.00     0.062 C 
ATOM     11  N   UNK d   0     -17.552  -9.206 -16.916  0.00  0.00    -0.248 NA
ATOM     12  C   UNK d   0     -16.402  -8.999 -14.296  0.00  0.00     0.041 A 
ATOM     13  N   UNK d   0     -16.797 -10.281 -14.182  0.00  0.00    -0.355 N 
ATOM     14  C   UNK d   0     -16.446  -8.372 -13.037  0.00  0.00    -0.022 A 
ATOM     15  C   UNK d   0     -17.099 -10.482 -12.885  0.00  0.00     0.042 A 
ATOM     16  H   UNK d   0     -16.844 -11.035 -14.999  0.00  0.00     0.166 HD
ATOM     17  C   UNK d   0     -17.558 -11.637 -12.223  0.00  0.00     0.062 C 
ATOM     18  C   UNK d   0     -16.891  -9.307 -12.136  0.00  0.00    -0.013 A 
ATOM     19  C   UNK d   0     -18.536 -12.519 -12.605  0.00  0.00     0.067 A 
ATOM     20  N   UNK d   0     -18.997 -12.408 -13.854  0.00  0.00    -0.248 NA
ATOM     21  C   UNK d   0     -19.268 -13.606 -11.975  0.00  0.00    -0.011 A 
ATOM     22  C   UNK d   0     -19.976 -13.342 -14.086  0.00  0.00     0.066 A 
ATOM     23  C   UNK d   0     -20.518 -13.362 -15.363  0.00  0.00     0.062 C 
ATOM     24  C   UNK d   0     -20.112 -14.080 -12.846  0.00  0.00    -0.020 A 
ATOM     25  C   UNK d   0     -20.125 -12.605 -16.477  0.00  0.00     0.041 A 
ATOM     26  N   UNK d   0     -19.746 -11.326 -16.592  0.00  0.00    -0.355 N 
ATOM     27  C   UNK d   0     -20.076 -13.236 -17.739  0.00  0.00    -0.022 A 
ATOM     28  C   UNK d   0     -19.453 -11.121 -17.886  0.00  0.00     0.042 A 
ATOM     29  H   UNK d   0     -19.710 -10.568 -15.772  0.00  0.00     0.166 HD
ATOM     30  C   UNK d   0     -19.004  -9.975 -18.560  0.00  0.00     0.062 C 
ATOM     31  C   UNK d   0     -19.652 -12.305 -18.636  0.00  0.00    -0.013 A 
ATOM     32  C   UNK d   0     -18.076  -9.039 -18.131  0.00  0.00     0.066 A 
BRANCH   8  33
ATOM     33  C   UNK d   0     -15.779  -6.172 -18.004  0.00  0.00     0.151 C 
BRANCH  33  34
ATOM     34  C   UNK d   0     -16.357  -4.972 -17.372  0.00  0.00     0.143 C 
ATOM     35  O   UNK d   0     -17.493  -4.579 -17.672  0.00  0.00    -0.650 OA
BRANCH  34  36
ATOM     36  O   UNK d   0     -15.621  -4.280 -16.437  0.00  0.00    -0.776 OA
ATOM     37  H   UNK d   0     -15.718  -4.474 -15.431  0.00  0.00     0.167 HD
ENDBRANCH  34  36
ENDBRANCH  33  34
ENDBRANCH   8  33
BRANCH  31  38
ATOM     38  C   UNK d   0     -19.434 -12.526 -20.115  0.00  0.00     0.151 C 
BRANCH  38  39
ATOM     39  C   UNK d   0     -18.102 -13.003 -20.421  0.00  0.00     0.143 C 
ATOM     40  O   UNK d   0     -17.089 -12.561 -19.852  0.00  0.00    -0.650 OA
BRANCH  39  41
ATOM     41  O   UNK d   0     -17.934 -13.995 -21.387  0.00  0.00    -0.776 OA
ATOM     42  H   UNK d   0     -17.117 -13.910 -21.999  0.00  0.00     0.167 HD
ENDBRANCH  39  41
ENDBRANCH  38  39
ENDBRANCH  31  38
BRANCH  27  43
ATOM     43  C   UNK d   0     -20.413 -14.658 -18.113  0.00  0.00     0.052 C 
BRANCH  43  44
ATOM     44  C   UNK d   0     -19.214 -15.546 -18.200  0.00  0.00     0.115 C 
BRANCH  44  45
ATOM     45  C   UNK d   0     -19.452 -16.469 -19.340  0.00  0.00     0.139 C 
ATOM     46  O   UNK d   0     -19.984 -16.003 -20.378  0.00  0.00    -0.650 OA
BRANCH  45  47
ATOM     47  O   UNK d   0     -19.109 -17.803 -19.305  0.00  0.00    -0.776 OA
ATOM     48  H   UNK d   0     -19.474 -18.494 -19.981  0.00  0.00     0.167 HD
ENDBRANCH  45  47
ENDBRANCH  44  45
ENDBRANCH  43  44
ENDBRANCH  27  43
BRANCH  24  49
ATOM     49  C   UNK d   0     -21.027 -15.216 -12.639  0.00  0.00     0.052 C 
BRANCH  49  50
ATOM     50  C   UNK d   0     -22.439 -14.724 -12.455  0.00  0.00     0.115 C 
BRANCH  50  51
ATOM     51  C   UNK d   0     -22.982 -14.752 -11.103  0.00  0.00     0.139 C 
ATOM     52  O   UNK d   0     -24.185 -14.505 -10.852  0.00  0.00    -0.650 OA
BRANCH  51  53
ATOM     53  O   UNK d   0     -22.151 -15.059 -10.036  0.00  0.00    -0.776 OA
ATOM     54  H   UNK d   0     -21.176 -15.211 -10.222  0.00  0.00     0.167 HD
ENDBRANCH  51  53
ENDBRANCH  50  51
ENDBRANCH  49  50
ENDBRANCH  24  49
BRANCH  21  55
ATOM     55  C   UNK d   0     -19.043 -14.060 -10.571  0.00  0.00     0.151 C 
BRANCH  55  56
ATOM     56  C   UNK d   0     -17.652 -13.852 -10.140  0.00  0.00     0.143 C 
ATOM     57  O   UNK d   0     -16.702 -14.530 -10.577  0.00  0.00    -0.650 OA
BRANCH  56  58
ATOM     58  O   UNK d   0     -17.407 -12.850  -9.202  0.00  0.00    -0.776 OA
ATOM     59  H   UNK d   0     -18.039 -12.032  -9.263  0.00  0.00     0.167 HD
ENDBRANCH  56  58
ENDBRANCH  55  56
ENDBRANCH  21  55
BRANCH  18  60
ATOM     60  C   UNK d   0     -17.097  -9.059 -10.662  0.00  0.00     0.151 C 
BRANCH  60  61
ATOM     61  C   UNK d   0     -15.907  -9.604  -9.991  0.00  0.00     0.143 C 
ATOM     62  O   UNK d   0     -14.733  -9.470 -10.338  0.00  0.00    -0.650 OA
BRANCH  61  63
ATOM     63  O   UNK d   0     -16.168 -10.360  -8.823  0.00  0.00    -0.776 OA
ATOM     64  H   UNK d   0     -16.997 -10.921  -8.743  0.00  0.00     0.167 HD
ENDBRANCH  61  63
ENDBRANCH  60  61
ENDBRANCH  18  60
BRANCH  14  65
ATOM     65  C   UNK d   0     -16.010  -7.000 -12.609  0.00  0.00     0.052 C 
BRANCH  65  66
ATOM     66  C   UNK d   0     -14.549  -6.776 -12.771  0.00  0.00     0.115 C 
BRANCH  66  67
ATOM     67  C   UNK d   0     -13.714  -6.653 -11.609  0.00  0.00     0.139 C 
ATOM     68  O   UNK d   0     -13.809  -5.588 -10.895  0.00  0.00    -0.650 OA
BRANCH  67  69
ATOM     69  O   UNK d   0     -12.777  -7.568 -11.131  0.00  0.00    -0.776 OA
ATOM     70  H   UNK d   0     -11.811  -7.435 -11.464  0.00  0.00     0.167 HD
ENDBRANCH  67  69
ENDBRANCH  66  67
ENDBRANCH  65  66
ENDBRANCH  14  65
ENDBRANCH   6   7
ENDBRANCH   5   6
ENDBRANCH   2   5
TORSDOF 28
ENDMDL
MODEL 3
REMARK VINA RESULT:      -8.9      3.312      9.639
REMARK  28 active torsions:
REMARK  status: ('A' for Active; 'I' for Inactive)
REMARK    1  A    between atoms: C_2  and  O_3 
REMARK    2  A    between atoms: C_2  and  C_4 
REMARK    3  A    between atoms: C_4  and  C_5 
REMARK    4  A    between atoms: C_5  and  C_6 
REMARK    5  A    between atoms: C_7  and  C_8 
REMARK    6  A    between atoms: C_8  and  C_9 
REMARK    7  A    between atoms: C_9  and  O_11 
REMARK    8  A    between atoms: C_28  and  C_29 
REMARK    9  A    between atoms: C_29  and  C_30 
REMARK   10  A    between atoms: C_30  and  O_32 
REMARK   11  A    between atoms: C_33  and  C_34 
REMARK   12  A    between atoms: C_34  and  C_35 
REMARK   13  A    between atoms: C_35  and  C_36 
REMARK   14  A    between atoms: C_36  and  O_38 
REMARK   15  A    between atoms: C_39  and  C_40 
REMARK   16  A    between atoms: C_40  and  C_41 
REMARK   17  A    between atoms: C_41  and  C_42 
REMARK   18  A    between atoms: C_42  and  O_44 
REMARK   19  A    between atoms: C_45  and  C_46 
REMARK   20  A    between atoms: C_46  and  C_47 
REMARK   21  A    between atoms: C_47  and  O_49 
REMARK   22  A    between atoms: C_50  and  C_51 
REMARK   23  A    between atoms: C_51  and  C_52 
REMARK   24  A    between atoms: C_52  and  O_54 
REMARK   25  A    between atoms: C_55  and  C_56 
REMARK   26  A    between atoms: C_56  and  C_57 
REMARK   27  A    between atoms: C_57  and  C_58 
REMARK   28  A    between atoms: C_58  and  O_60 
ROOT
ATOM      1  O   UNK d   0     -13.798  -5.376  -6.400  0.00  0.00    -0.650 OA
ATOM      2  C   UNK d   0     -13.353  -6.361  -7.030  0.00  0.00     0.139 C 
ENDROOT
BRANCH   2   3
ATOM      3  O   UNK d   0     -11.995  -6.554  -7.108  0.00  0.00    -0.776 OA
ATOM      4  H   UNK d   0     -11.440  -6.108  -7.841  0.00  0.00     0.167 HD
ENDBRANCH   2   3
BRANCH   2   5
ATOM      5  C   UNK d   0     -14.292  -7.312  -7.690  0.00  0.00     0.115 C 
BRANCH   5   6
ATOM      6  C   UNK d   0     -13.986  -7.405  -9.161  0.00  0.00     0.052 C 
BRANCH   6   7
ATOM      7  C   UNK d   0     -15.220  -7.647  -9.997  0.00  0.00    -0.020 A 
ATOM      8  C   UNK d   0     -15.876  -6.778 -10.721  0.00  0.00    -0.011 A 
ATOM      9  C   UNK d   0     -16.997  -7.468 -11.338  0.00  0.00     0.067 A 
ATOM     10  C   UNK d   0     -18.037  -7.127 -12.216  0.00  0.00     0.062 C 
ATOM     11  N   UNK d   0     -16.949  -8.754 -10.929  0.00  0.00    -0.248 NA
ATOM     12  C   UNK d   0     -18.869  -8.001 -12.924  0.00  0.00     0.041 A 
ATOM     13  N   UNK d   0     -19.484  -9.138 -12.549  0.00  0.00    -0.355 N 
ATOM     14  C   UNK d   0     -19.115  -7.752 -14.287  0.00  0.00    -0.022 A 
ATOM     15  C   UNK d   0     -20.108  -9.622 -13.640  0.00  0.00     0.042 A 
ATOM     16  H   UNK d   0     -19.494  -9.581 -11.529  0.00  0.00     0.166 HD
ATOM     17  C   UNK d   0     -20.894 -10.779 -13.805  0.00  0.00     0.062 C 
ATOM     18  C   UNK d   0     -19.898  -8.780 -14.750  0.00  0.00    -0.013 A 
ATOM     19  C   UNK d   0     -20.660 -12.053 -13.353  0.00  0.00     0.067 A 
ATOM     20  N   UNK d   0     -19.668 -12.209 -12.473  0.00  0.00    -0.248 NA
ATOM     21  C   UNK d   0     -21.227 -13.369 -13.597  0.00  0.00    -0.011 A 
ATOM     22  C   UNK d   0     -19.543 -13.532 -12.125  0.00  0.00     0.066 A 
ATOM     23  C   UNK d   0     -18.570 -13.833 -11.184  0.00  0.00     0.062 C 
ATOM     24  C   UNK d   0     -20.566 -14.230 -12.878  0.00  0.00    -0.020 A 
ATOM     25  C   UNK d   0     -17.753 -12.938 -10.475  0.00  0.00     0.041 A 
ATOM     26  N   UNK d   0     -17.129 -11.816 -10.851  0.00  0.00    -0.355 N 
ATOM     27  C   UNK d   0     -17.511 -13.186  -9.106  0.00  0.00    -0.022 A 
ATOM     28  C   UNK d   0     -16.500 -11.337  -9.767  0.00  0.00     0.042 A 
ATOM     29  H   UNK d   0     -17.112 -11.379 -11.880  0.00  0.00     0.166 HD
ATOM     30  C   UNK d   0     -15.707 -10.192  -9.591  0.00  0.00     0.062 C 
ATOM     31  C   UNK d   0     -16.719 -12.178  -8.650  0.00  0.00    -0.013 A 
ATOM     32  C   UNK d   0     -15.902  -8.926 -10.121  0.00  0.00     0.066 A 
BRANCH   8  33
ATOM     33  C   UNK d   0     -15.559  -5.348 -10.891  0.00  0.00     0.151 C 
BRANCH  33  34
ATOM     34  C   UNK d   0     -15.038  -5.035 -12.234  0.00  0.00     0.143 C 
ATOM     35  O   UNK d   0     -14.372  -5.867 -12.868  0.00  0.00    -0.650 OA
BRANCH  34  36
ATOM     36  O   UNK d   0     -15.294  -3.802 -12.788  0.00  0.00    -0.776 OA
ATOM     37  H   UNK d   0     -14.989  -2.935 -12.325  0.00  0.00     0.167 HD
ENDBRANCH  34  36
ENDBRANCH  33  34
ENDBRANCH   8  33
BRANCH  31  38
ATOM     38  C   UNK d   0     -16.211 -12.012  -7.237  0.00  0.00     0.151 C 
BRANCH  38  39
ATOM     39  C   UNK d   0     -16.820 -10.894  -6.549  0.00  0.00     0.143 C 
ATOM     40  O   UNK d   0     -18.047 -10.695  -6.558  0.00  0.00    -0.650 OA
BRANCH  39  41
ATOM     41  O   UNK d   0     -16.013  -9.999  -5.846  0.00  0.00    -0.776 OA
ATOM     42  H   UNK d   0     -16.382  -9.645  -4.958  0.00  0.00     0.167 HD
ENDBRANCH  39  41
ENDBRANCH  38  39
ENDBRANCH  31  38
BRANCH  27  43
ATOM     43  C   UNK d   0     -17.992 -14.322  -8.238  0.00  0.00     0.052 C 
BRANCH  43  44
ATOM     44  C   UNK d   0     -17.034 -15.468  -8.180  0.00  0.00     0.115 C 
BRANCH  44  45
ATOM     45  C   UNK d   0     -17.840 -16.704  -8.355  0.00  0.00     0.139 C 
ATOM     46  O   UNK d   0     -19.005 -16.591  -8.810  0.00  0.00    -0.650 OA
BRANCH  45  47
ATOM     47  O   UNK d   0     -17.361 -17.959  -8.045  0.00  0.00    -0.776 OA
ATOM     48  H   UNK d   0     -16.392 -18.126  -7.730  0.00  0.00     0.167 HD
ENDBRANCH  45  47
ENDBRANCH  44  45
ENDBRANCH  43  44
ENDBRANCH  27  43
BRANCH  24  49
ATOM     49  C   UNK d   0     -20.834 -15.676 -12.793  0.00  0.00     0.052 C 
BRANCH  49  50
ATOM     50  C   UNK d   0     -21.202 -16.059 -11.382  0.00  0.00     0.115 C 
BRANCH  50  51
ATOM     51  C   UNK d   0     -22.405 -15.459 -10.823  0.00  0.00     0.139 C 
ATOM     52  O   UNK d   0     -23.511 -15.485 -11.413  0.00  0.00    -0.650 OA
BRANCH  51  53
ATOM     53  O   UNK d   0     -22.348 -14.827  -9.590  0.00  0.00    -0.776 OA
ATOM     54  H   UNK d   0     -21.541 -14.265  -9.382  0.00  0.00     0.167 HD
ENDBRANCH  51  53
ENDBRANCH  50  51
ENDBRANCH  49  50
ENDBRANCH  24  49
BRANCH  21  55
ATOM     55  C   UNK d   0     -22.373 -13.627 -14.518  0.00  0.00     0.151 C 
BRANCH  55  56
ATOM     56  C   UNK d   0     -23.546 -12.806 -14.183  0.00  0.00     0.143 C 
ATOM     57  O   UNK d   0     -23.901 -11.825 -14.865  0.00  0.00    -0.650 OA
BRANCH  56  58
ATOM     58  O   UNK d   0     -24.281 -13.156 -13.051  0.00  0.00    -0.776 OA
ATOM     59  H   UNK d   0     -23.989 -14.041 -12.598  0.00  0.00     0.167 HD
ENDBRANCH  56  58
ENDBRANCH  55  56
ENDBRANCH  21  55
BRANCH  18  60
ATOM     60  C   UNK d   0     -20.394  -8.918 -16.168  0.00  0.00     0.151 C 
BRANCH  60  61
ATOM     61  C   UNK d   0     -21.842  -8.665 -16.116  0.00  0.00     0.143 C 
ATOM     62  O   UNK d   0     -22.415  -7.748 -15.526  0.00  0.00    -0.650 OA
BRANCH  61  63
ATOM     63  O   UNK d   0     -22.642  -9.590 -16.830  0.00  0.00    -0.776 OA
ATOM     64  H   UNK d   0     -22.271 -10.476 -17.123  0.00  0.00     0.167 HD
ENDBRANCH  61  63
ENDBRANCH  60  61
ENDBRANCH  18  60
BRANCH  14  65
ATOM     65  C   UNK d   0     -18.751  -6.578 -15.151  0.00  0.00     0.052 C 
BRANCH  65  66
ATOM     66  C   UNK d   0     -17.390  -6.691 -15.743  0.00  0.00     0.115 C 
BRANCH  66  67
ATOM     67  C   UNK d   0     -16.466  -5.599 -15.616  0.00  0.00     0.139 C 
ATOM     68  O   UNK d   0     -16.900  -4.478 -15.159  0.00  0.00    -0.650 OA
BRANCH  67  69
ATOM     69  O   UNK d   0     -15.109  -5.589 -15.935  0.00  0.00    -0.776 OA
ATOM     70  H   UNK d   0     -14.858  -5.105 -16.809  0.00  0.00     0.167 HD
ENDBRANCH  67  69
ENDBRANCH  66  67
ENDBRANCH  65  66
ENDBRANCH  14  65
ENDBRANCH   6   7
ENDBRANCH   5   6
ENDBRANCH   2   5
TORSDOF 28
ENDMDL
MODEL 4
REMARK VINA RESULT:      -8.7      3.685      9.798
REMARK  28 active torsions:
REMARK  status: ('A' for Active; 'I' for Inactive)
REMARK    1  A    between atoms: C_2  and  O_3 
REMARK    2  A    between atoms: C_2  and  C_4 
REMARK    3  A    between atoms: C_4  and  C_5 
REMARK    4  A    between atoms: C_5  and  C_6 
REMARK    5  A    between atoms: C_7  and  C_8 
REMARK    6  A    between atoms: C_8  and  C_9 
REMARK    7  A    between atoms: C_9  and  O_11 
REMARK    8  A    between atoms: C_28  and  C_29 
REMARK    9  A    between atoms: C_29  and  C_30 
REMARK   10  A    between atoms: C_30  and  O_32 
REMARK   11  A    between atoms: C_33  and  C_34 
REMARK   12  A    between atoms: C_34  and  C_35 
REMARK   13  A    between atoms: C_35  and  C_36 
REMARK   14  A    between atoms: C_36  and  O_38 
REMARK   15  A    between atoms: C_39  and  C_40 
REMARK   16  A    between atoms: C_40  and  C_41 
REMARK   17  A    between atoms: C_41  and  C_42 
REMARK   18  A    between atoms: C_42  and  O_44 
REMARK   19  A    between atoms: C_45  and  C_46 
REMARK   20  A    between atoms: C_46  and  C_47 
REMARK   21  A    between atoms: C_47  and  O_49 
REMARK   22  A    between atoms: C_50  and  C_51 
REMARK   23  A    between atoms: C_51  and  C_52 
REMARK   24  A    between atoms: C_52  and  O_54 
REMARK   25  A    between atoms: C_55  and  C_56 
REMARK   26  A    between atoms: C_56  and  C_57 
REMARK   27  A    between atoms: C_57  and  C_58 
REMARK   28  A    between atoms: C_58  and  O_60 
ROOT
ATOM      1  O   UNK d   0     -13.140  -6.727  -6.181  0.00  0.00    -0.650 OA
ATOM      2  C   UNK d   0     -13.890  -7.671  -6.514  0.00  0.00     0.139 C 
ENDROOT
BRANCH   2   3
ATOM      3  O   UNK d   0     -13.684  -8.918  -5.974  0.00  0.00    -0.776 OA
ATOM      4  H   UNK d   0     -13.253  -9.030  -5.054  0.00  0.00     0.167 HD
ENDBRANCH   2   3
BRANCH   2   5
ATOM      5  C   UNK d   0     -14.995  -7.441  -7.487  0.00  0.00     0.115 C 
BRANCH   5   6
ATOM      6  C   UNK d   0     -14.530  -7.761  -8.882  0.00  0.00     0.052 C 
BRANCH   6   7
ATOM      7  C   UNK d   0     -15.673  -8.080  -9.816  0.00  0.00    -0.020 A 
ATOM      8  C   UNK d   0     -16.310  -7.256 -10.609  0.00  0.00    -0.011 A 
ATOM      9  C   UNK d   0     -17.335  -8.014 -11.307  0.00  0.00     0.067 A 
ATOM     10  C   UNK d   0     -18.313  -7.740 -12.276  0.00  0.00     0.062 C 
ATOM     11  N   UNK d   0     -17.255  -9.290 -10.874  0.00  0.00    -0.248 NA
ATOM     12  C   UNK d   0     -19.033  -8.667 -13.038  0.00  0.00     0.041 A 
ATOM     13  N   UNK d   0     -19.618  -9.831 -12.697  0.00  0.00    -0.355 N 
ATOM     14  C   UNK d   0     -19.173  -8.449 -14.421  0.00  0.00    -0.022 A 
ATOM     15  C   UNK d   0     -20.118 -10.361 -13.830  0.00  0.00     0.042 A 
ATOM     16  H   UNK d   0     -19.692 -10.261 -11.674  0.00  0.00     0.166 HD
ATOM     17  C   UNK d   0     -20.825 -11.561 -14.041  0.00  0.00     0.062 C 
ATOM     18  C   UNK d   0     -19.859  -9.523 -14.931  0.00  0.00    -0.013 A 
ATOM     19  C   UNK d   0     -20.564 -12.815 -13.549  0.00  0.00     0.067 A 
ATOM     20  N   UNK d   0     -19.644 -12.906 -12.585  0.00  0.00    -0.248 NA
ATOM     21  C   UNK d   0     -21.038 -14.162 -13.818  0.00  0.00    -0.011 A 
ATOM     22  C   UNK d   0     -19.481 -14.216 -12.206  0.00  0.00     0.066 A 
ATOM     23  C   UNK d   0     -18.577 -14.452 -11.180  0.00  0.00     0.062 C 
ATOM     24  C   UNK d   0     -20.397 -14.978 -13.031  0.00  0.00    -0.020 A 
ATOM     25  C   UNK d   0     -17.873 -13.506 -10.419  0.00  0.00     0.041 A 
ATOM     26  N   UNK d   0     -17.279 -12.356 -10.760  0.00  0.00    -0.355 N 
ATOM     27  C   UNK d   0     -17.737 -13.724  -9.030  0.00  0.00    -0.022 A 
ATOM     28  C   UNK d   0     -16.771 -11.830  -9.634  0.00  0.00     0.042 A 
ATOM     29  H   UNK d   0     -17.196 -11.931 -11.790  0.00  0.00     0.166 HD
ATOM     30  C   UNK d   0     -16.058 -10.642  -9.410  0.00  0.00     0.062 C 
ATOM     31  C   UNK d   0     -17.041 -12.668  -8.526  0.00  0.00    -0.013 A 
ATOM     32  C   UNK d   0     -16.274  -9.396  -9.977  0.00  0.00     0.066 A 
BRANCH   8  33
ATOM     33  C   UNK d   0     -16.055  -5.814 -10.775  0.00  0.00     0.151 C 
BRANCH  33  34
ATOM     34  C   UNK d   0     -15.093  -5.525 -11.854  0.00  0.00     0.143 C 
ATOM     35  O   UNK d   0     -14.016  -6.135 -11.926  0.00  0.00    -0.650 OA
BRANCH  34  36
ATOM     36  O   UNK d   0     -15.396  -4.565 -12.791  0.00  0.00    -0.776 OA
ATOM     37  H   UNK d   0     -16.293  -4.574 -13.295  0.00  0.00     0.167 HD
ENDBRANCH  34  36
ENDBRANCH  33  34
ENDBRANCH   8  33
BRANCH  31  38
ATOM     38  C   UNK d   0     -16.666 -12.458  -7.078  0.00  0.00     0.151 C 
BRANCH  38  39
ATOM     39  C   UNK d   0     -17.003 -11.135  -6.596  0.00  0.00     0.143 C 
ATOM     40  O   UNK d   0     -16.151 -10.361  -6.126  0.00  0.00    -0.650 OA
BRANCH  39  41
ATOM     41  O   UNK d   0     -18.327 -10.699  -6.657  0.00  0.00    -0.776 OA
ATOM     42  H   UNK d   0     -19.007 -11.208  -6.084  0.00  0.00     0.167 HD
ENDBRANCH  39  41
ENDBRANCH  38  39
ENDBRANCH  31  38
BRANCH  27  43
ATOM     43  C   UNK d   0     -18.230 -14.873  -8.188  0.00  0.00     0.052 C 
BRANCH  43  44
ATOM     44  C   UNK d   0     -17.133 -15.766  -7.706  0.00  0.00     0.115 C 
BRANCH  44  45
ATOM     45  C   UNK d   0     -16.841 -16.715  -8.812  0.00  0.00     0.139 C 
ATOM     46  O   UNK d   0     -17.747 -17.512  -9.162  0.00  0.00    -0.650 OA
BRANCH  45  47
ATOM     47  O   UNK d   0     -15.629 -16.751  -9.467  0.00  0.00    -0.776 OA
ATOM     48  H   UNK d   0     -14.815 -16.190  -9.168  0.00  0.00     0.167 HD
ENDBRANCH  45  47
ENDBRANCH  44  45
ENDBRANCH  43  44
ENDBRANCH  27  43
BRANCH  24  49
ATOM     49  C   UNK d   0     -20.594 -16.435 -12.945  0.00  0.00     0.052 C 
BRANCH  49  50
ATOM     50  C   UNK d   0     -21.839 -16.750 -12.156  0.00  0.00     0.115 C 
BRANCH  50  51
ATOM     51  C   UNK d   0     -21.803 -16.485 -10.724  0.00  0.00     0.139 C 
ATOM     52  O   UNK d   0     -20.939 -16.985  -9.965  0.00  0.00    -0.650 OA
BRANCH  51  53
ATOM     53  O   UNK d   0     -22.754 -15.652 -10.156  0.00  0.00    -0.776 OA
ATOM     54  H   UNK d   0     -23.687 -16.006 -10.039  0.00  0.00     0.167 HD
ENDBRANCH  51  53
ENDBRANCH  50  51
ENDBRANCH  49  50
ENDBRANCH  24  49
BRANCH  21  55
ATOM     55  C   UNK d   0     -22.084 -14.493 -14.830  0.00  0.00     0.151 C 
BRANCH  55  56
ATOM     56  C   UNK d   0     -21.522 -14.621 -16.183  0.00  0.00     0.143 C 
ATOM     57  O   UNK d   0     -21.254 -15.723 -16.701  0.00  0.00    -0.650 OA
BRANCH  56  58
ATOM     58  O   UNK d   0     -21.287 -13.450 -16.901  0.00  0.00    -0.776 OA
ATOM     59  H   UNK d   0     -21.287 -13.562 -17.931  0.00  0.00     0.167 HD
ENDBRANCH  56  58
ENDBRANCH  55  56
ENDBRANCH  21  55
BRANCH  18  60
ATOM     60  C   UNK d   0     -20.223  -9.705 -16.384  0.00  0.00     0.151 C 
BRANCH  60  61
ATOM     61  C   UNK d   0     -19.116 -10.464 -16.985  0.00  0.00     0.143 C 
ATOM     62  O   UNK d   0     -18.913 -11.676 -16.897  0.00  0.00    -0.650 OA
BRANCH  61  63
ATOM     63  O   UNK d   0     -18.200  -9.696 -17.743  0.00  0.00    -0.776 OA
ATOM     64  H   UNK d   0     -17.223  -9.677 -17.510  0.00  0.00     0.167 HD
ENDBRANCH  61  63
ENDBRANCH  60  61
ENDBRANCH  18  60
BRANCH  14  65
ATOM     65  C   UNK d   0     -18.799  -7.267 -15.270  0.00  0.00     0.052 C 
BRANCH  65  66
ATOM     66  C   UNK d   0     -19.734  -6.120 -15.116  0.00  0.00     0.115 C 
BRANCH  66  67
ATOM     67  C   UNK d   0     -21.123  -6.365 -14.848  0.00  0.00     0.139 C 
ATOM     68  O   UNK d   0     -21.600  -6.011 -13.708  0.00  0.00    -0.650 OA
BRANCH  67  69
ATOM     69  O   UNK d   0     -22.062  -6.959 -15.690  0.00  0.00    -0.776 OA
ATOM     70  H   UNK d   0     -22.403  -7.887 -15.398  0.00  0.00     0.167 HD
ENDBRANCH  67  69
ENDBRANCH  66  67
ENDBRANCH  65  66
ENDBRANCH  14  65
ENDBRANCH   6   7
ENDBRANCH   5   6
ENDBRANCH   2   5
TORSDOF 28
ENDMDL
MODEL 5
REMARK VINA RESULT:      -8.7      3.762      6.210
REMARK  28 active torsions:
REMARK  status: ('A' for Active; 'I' for Inactive)
REMARK    1  A    between atoms: C_2  and  O_3 
REMARK    2  A    between atoms: C_2  and  C_4 
REMARK    3  A    between atoms: C_4  and  C_5 
REMARK    4  A    between atoms: C_5  and  C_6 
REMARK    5  A    between atoms: C_7  and  C_8 
REMARK    6  A    between atoms: C_8  and  C_9 
REMARK    7  A    between atoms: C_9  and  O_11 
REMARK    8  A    between atoms: C_28  and  C_29 
REMARK    9  A    between atoms: C_29  and  C_30 
REMARK   10  A    between atoms: C_30  and  O_32 
REMARK   11  A    between atoms: C_33  and  C_34 
REMARK   12  A    between atoms: C_34  and  C_35 
REMARK   13  A    between atoms: C_35  and  C_36 
REMARK   14  A    between atoms: C_36  and  O_38 
REMARK   15  A    between atoms: C_39  and  C_40 
REMARK   16  A    between atoms: C_40  and  C_41 
REMARK   17  A    between atoms: C_41  and  C_42 
REMARK   18  A    between atoms: C_42  and  O_44 
REMARK   19  A    between atoms: C_45  and  C_46 
REMARK   20  A    between atoms: C_46  and  C_47 
REMARK   21  A    between atoms: C_47  and  O_49 
REMARK   22  A    between atoms: C_50  and  C_51 
REMARK   23  A    between atoms: C_51  and  C_52 
REMARK   24  A    between atoms: C_52  and  O_54 
REMARK   25  A    between atoms: C_55  and  C_56 
REMARK   26  A    between atoms: C_56  and  C_57 
REMARK   27  A    between atoms: C_57  and  C_58 
REMARK   28  A    between atoms: C_58  and  O_60 
ROOT
ATOM      1  O   UNK d   0     -17.244 -10.133  -7.759  0.00  0.00    -0.650 OA
ATOM      2  C   UNK d   0     -16.182 -10.448  -8.340  0.00  0.00     0.139 C 
ENDROOT
BRANCH   2   3
ATOM      3  O   UNK d   0     -15.232 -11.171  -7.661  0.00  0.00    -0.776 OA
ATOM      4  H   UNK d   0     -15.327 -12.181  -7.535  0.00  0.00     0.167 HD
ENDBRANCH   2   3
BRANCH   2   5
ATOM      5  C   UNK d   0     -15.954 -10.039  -9.755  0.00  0.00     0.115 C 
BRANCH   5   6
ATOM      6  C   UNK d   0     -17.270  -9.798 -10.443  0.00  0.00     0.052 C 
BRANCH   6   7
ATOM      7  C   UNK d   0     -17.201 -10.041 -11.932  0.00  0.00    -0.020 A 
ATOM      8  C   UNK d   0     -17.227 -11.192 -12.554  0.00  0.00    -0.011 A 
ATOM      9  C   UNK d   0     -17.126 -10.928 -13.980  0.00  0.00     0.067 A 
ATOM     10  C   UNK d   0     -17.118 -11.698 -15.154  0.00  0.00     0.062 C 
ATOM     11  N   UNK d   0     -17.036  -9.591 -14.135  0.00  0.00    -0.248 NA
ATOM     12  C   UNK d   0     -17.293 -11.244 -16.466  0.00  0.00     0.041 A 
ATOM     13  N   UNK d   0     -16.800 -10.165 -17.104  0.00  0.00    -0.355 N 
ATOM     14  C   UNK d   0     -18.161 -11.948 -17.319  0.00  0.00    -0.022 A 
ATOM     15  C   UNK d   0     -17.339 -10.163 -18.337  0.00  0.00     0.042 A 
ATOM     16  H   UNK d   0     -16.070  -9.431 -16.697  0.00  0.00     0.166 HD
ATOM     17  C   UNK d   0     -17.164  -9.265 -19.409  0.00  0.00     0.062 C 
ATOM     18  C   UNK d   0     -18.198 -11.265 -18.510  0.00  0.00    -0.013 A 
ATOM     19  C   UNK d   0     -17.152  -7.893 -19.392  0.00  0.00     0.067 A 
ATOM     20  N   UNK d   0     -17.101  -7.304 -18.194  0.00  0.00    -0.248 NA
ATOM     21  C   UNK d   0     -17.197  -6.836 -20.388  0.00  0.00    -0.011 A 
ATOM     22  C   UNK d   0     -17.111  -5.938 -18.335  0.00  0.00     0.066 A 
ATOM     23  C   UNK d   0     -17.023  -5.197 -17.165  0.00  0.00     0.062 C 
ATOM     24  C   UNK d   0     -17.176  -5.694 -19.763  0.00  0.00    -0.020 A 
ATOM     25  C   UNK d   0     -16.835  -5.672 -15.858  0.00  0.00     0.041 A 
ATOM     26  N   UNK d   0     -17.336  -6.736 -15.219  0.00  0.00    -0.355 N 
ATOM     27  C   UNK d   0     -15.960  -4.967 -15.004  0.00  0.00    -0.022 A 
ATOM     28  C   UNK d   0     -16.807  -6.736 -13.986  0.00  0.00     0.042 A 
ATOM     29  H   UNK d   0     -18.078  -7.467 -15.626  0.00  0.00     0.166 HD
ATOM     30  C   UNK d   0     -16.979  -7.617 -12.907  0.00  0.00     0.062 C 
ATOM     31  C   UNK d   0     -15.936  -5.634 -13.817  0.00  0.00    -0.013 A 
ATOM     32  C   UNK d   0     -17.076  -9.000 -12.940  0.00  0.00     0.066 A 
BRANCH   8  33
ATOM     33  C   UNK d   0     -17.333 -12.528 -11.940  0.00  0.00     0.151 C 
BRANCH  33  34
ATOM     34  C   UNK d   0     -18.711 -13.052 -11.949  0.00  0.00     0.143 C 
ATOM     35  O   UNK d   0     -18.937 -14.253 -11.742  0.00  0.00    -0.650 OA
BRANCH  34  36
ATOM     36  O   UNK d   0     -19.759 -12.194 -12.192  0.00  0.00    -0.776 OA
ATOM     37  H   UNK d   0     -20.681 -12.545 -12.484  0.00  0.00     0.167 HD
ENDBRANCH  34  36
ENDBRANCH  33  34
ENDBRANCH   8  33
BRANCH  31  38
ATOM     38  C   UNK d   0     -15.125  -5.257 -12.599  0.00  0.00     0.151 C 
BRANCH  38  39
ATOM     39  C   UNK d   0     -14.031  -6.171 -12.347  0.00  0.00     0.143 C 
ATOM     40  O   UNK d   0     -13.318  -6.623 -13.260  0.00  0.00    -0.650 OA
BRANCH  39  41
ATOM     41  O   UNK d   0     -13.755  -6.567 -11.039  0.00  0.00    -0.776 OA
ATOM     42  H   UNK d   0     -12.847  -7.012 -10.873  0.00  0.00     0.167 HD
ENDBRANCH  39  41
ENDBRANCH  38  39
ENDBRANCH  31  38
BRANCH  27  43
ATOM     43  C   UNK d   0     -15.167  -3.712 -15.268  0.00  0.00     0.052 C 
BRANCH  43  44
ATOM     44  C   UNK d   0     -15.964  -2.461 -15.089  0.00  0.00     0.115 C 
BRANCH  44  45
ATOM     45  C   UNK d   0     -15.207  -1.608 -14.136  0.00  0.00     0.139 C 
ATOM     46  O   UNK d   0     -15.854  -0.981 -13.260  0.00  0.00    -0.650 OA
BRANCH  45  47
ATOM     47  O   UNK d   0     -13.835  -1.483 -14.172  0.00  0.00    -0.776 OA
ATOM     48  H   UNK d   0     -13.197  -2.291 -14.093  0.00  0.00     0.167 HD
ENDBRANCH  45  47
ENDBRANCH  44  45
ENDBRANCH  43  44
ENDBRANCH  27  43
BRANCH  24  49
ATOM     49  C   UNK d   0     -17.169  -4.361 -20.389  0.00  0.00     0.052 C 
BRANCH  49  50
ATOM     50  C   UNK d   0     -18.531  -4.036 -20.947  0.00  0.00     0.115 C 
BRANCH  50  51
ATOM     51  C   UNK d   0     -18.583  -3.489 -22.297  0.00  0.00     0.139 C 
ATOM     52  O   UNK d   0     -18.609  -4.214 -23.319  0.00  0.00    -0.650 OA
BRANCH  51  53
ATOM     53  O   UNK d   0     -18.603  -2.115 -22.480  0.00  0.00    -0.776 OA
ATOM     54  H   UNK d   0     -18.217  -1.744 -23.330  0.00  0.00     0.167 HD
ENDBRANCH  51  53
ENDBRANCH  50  51
ENDBRANCH  49  50
ENDBRANCH  24  49
BRANCH  21  55
ATOM     55  C   UNK d   0     -17.250  -7.076 -21.860  0.00  0.00     0.151 C 
BRANCH  55  56
ATOM     56  C   UNK d   0     -18.620  -7.344 -22.325  0.00  0.00     0.143 C 
ATOM     57  O   UNK d   0     -19.571  -7.546 -21.545  0.00  0.00    -0.650 OA
BRANCH  56  58
ATOM     58  O   UNK d   0     -18.845  -7.367 -23.701  0.00  0.00    -0.776 OA
ATOM     59  H   UNK d   0     -18.354  -8.125 -24.210  0.00  0.00     0.167 HD
ENDBRANCH  56  58
ENDBRANCH  55  56
ENDBRANCH  21  55
BRANCH  18  60
ATOM     60  C   UNK d   0     -19.016 -11.668 -19.712  0.00  0.00     0.151 C 
BRANCH  60  61
ATOM     61  C   UNK d   0     -20.160 -10.743 -19.750  0.00  0.00     0.143 C 
ATOM     62  O   UNK d   0     -20.858 -10.387 -18.800  0.00  0.00    -0.650 OA
BRANCH  61  63
ATOM     63  O   UNK d   0     -20.469 -10.221 -21.029  0.00  0.00    -0.776 OA
ATOM     64  H   UNK d   0     -19.862 -10.377 -21.814  0.00  0.00     0.167 HD
ENDBRANCH  61  63
ENDBRANCH  60  61
ENDBRANCH  18  60
BRANCH  14  65
ATOM     65  C   UNK d   0     -18.873 -13.258 -17.131  0.00  0.00     0.052 C 
BRANCH  65  66
ATOM     66  C   UNK d   0     -20.330 -13.096 -16.877  0.00  0.00     0.115 C 
BRANCH  66  67
ATOM     67  C   UNK d   0     -20.777 -12.242 -15.813  0.00  0.00     0.139 C 
ATOM     68  O   UNK d   0     -20.838 -12.725 -14.623  0.00  0.00    -0.650 OA
BRANCH  67  69
ATOM     69  O   UNK d   0     -21.169 -10.906 -15.898  0.00  0.00    -0.776 OA
ATOM     70  H   UNK d   0     -20.457 -10.212 -15.628  0.00  0.00     0.167 HD
ENDBRANCH  67  69
ENDBRANCH  66  67
ENDBRANCH  65  66
ENDBRANCH  14  65
ENDBRANCH   6   7
ENDBRANCH   5   6
ENDBRANCH   2   5
TORSDOF 28
ENDMDL
MODEL 6
REMARK VINA RESULT:      -8.6      3.484      7.125
REMARK  28 active torsions:
REMARK  status: ('A' for Active; 'I' for Inactive)
REMARK    1  A    between atoms: C_2  and  O_3 
REMARK    2  A    between atoms: C_2  and  C_4 
REMARK    3  A    between atoms: C_4  and  C_5 
REMARK    4  A    between atoms: C_5  and  C_6 
REMARK    5  A    between atoms: C_7  and  C_8 
REMARK    6  A    between atoms: C_8  and  C_9 
REMARK    7  A    between atoms: C_9  and  O_11 
REMARK    8  A    between atoms: C_28  and  C_29 
REMARK    9  A    between atoms: C_29  and  C_30 
REMARK   10  A    between atoms: C_30  and  O_32 
REMARK   11  A    between atoms: C_33  and  C_34 
REMARK   12  A    between atoms: C_34  and  C_35 
REMARK   13  A    between atoms: C_35  and  C_36 
REMARK   14  A    between atoms: C_36  and  O_38 
REMARK   15  A    between atoms: C_39  and  C_40 
REMARK   16  A    between atoms: C_40  and  C_41 
REMARK   17  A    between atoms: C_41  and  C_42 
REMARK   18  A    between atoms: C_42  and  O_44 
REMARK   19  A    between atoms: C_45  and  C_46 
REMARK   20  A    between atoms: C_46  and  C_47 
REMARK   21  A    between atoms: C_47  and  O_49 
REMARK   22  A    between atoms: C_50  and  C_51 
REMARK   23  A    between atoms: C_51  and  C_52 
REMARK   24  A    between atoms: C_52  and  O_54 
REMARK   25  A    between atoms: C_55  and  C_56 
REMARK   26  A    between atoms: C_56  and  C_57 
REMARK   27  A    between atoms: C_57  and  C_58 
REMARK   28  A    between atoms: C_58  and  O_60 
ROOT
ATOM      1  O   UNK d   0     -14.214  -5.886  -9.861  0.00  0.00    -0.650 OA
ATOM      2  C   UNK d   0     -13.871  -7.022  -9.465  0.00  0.00     0.139 C 
ENDROOT
BRANCH   2   3
ATOM      3  O   UNK d   0     -12.992  -7.761 -10.220  0.00  0.00    -0.776 OA
ATOM      4  H   UNK d   0     -12.443  -8.516  -9.803  0.00  0.00     0.167 HD
ENDBRANCH   2   3
BRANCH   2   5
ATOM      5  C   UNK d   0     -14.413  -7.566  -8.187  0.00  0.00     0.115 C 
BRANCH   5   6
ATOM      6  C   UNK d   0     -15.908  -7.707  -8.278  0.00  0.00     0.052 C 
BRANCH   6   7
ATOM      7  C   UNK d   0     -16.330  -8.854  -9.165  0.00  0.00    -0.020 A 
ATOM      8  C   UNK d   0     -16.330 -10.130  -8.874  0.00  0.00    -0.011 A 
ATOM      9  C   UNK d   0     -16.810 -10.852 -10.040  0.00  0.00     0.067 A 
ATOM     10  C   UNK d   0     -17.060 -12.194 -10.368  0.00  0.00     0.062 C 
ATOM     11  N   UNK d   0     -17.074  -9.938 -10.997  0.00  0.00    -0.248 NA
ATOM     12  C   UNK d   0     -17.791 -12.678 -11.459  0.00  0.00     0.041 A 
ATOM     13  N   UNK d   0     -17.808 -12.301 -12.752  0.00  0.00    -0.355 N 
ATOM     14  C   UNK d   0     -18.734 -13.699 -11.247  0.00  0.00    -0.022 A 
ATOM     15  C   UNK d   0     -18.743 -13.052 -13.363  0.00  0.00     0.042 A 
ATOM     16  H   UNK d   0     -17.158 -11.533 -13.226  0.00  0.00     0.166 HD
ATOM     17  C   UNK d   0     -19.166 -13.068 -14.708  0.00  0.00     0.062 C 
ATOM     18  C   UNK d   0     -19.346 -13.940 -12.452  0.00  0.00    -0.013 A 
ATOM     19  C   UNK d   0     -19.446 -12.012 -15.536  0.00  0.00     0.067 A 
ATOM     20  N   UNK d   0     -19.095 -10.797 -15.107  0.00  0.00    -0.248 NA
ATOM     21  C   UNK d   0     -20.075 -11.842 -16.835  0.00  0.00    -0.011 A 
ATOM     22  C   UNK d   0     -19.450  -9.844 -16.031  0.00  0.00     0.066 A 
ATOM     23  C   UNK d   0     -19.108  -8.535 -15.728  0.00  0.00     0.062 C 
ATOM     24  C   UNK d   0     -20.078 -10.571 -17.117  0.00  0.00    -0.020 A 
ATOM     25  C   UNK d   0     -18.363  -8.071 -14.633  0.00  0.00     0.041 A 
ATOM     26  N   UNK d   0     -18.356  -8.435 -13.345  0.00  0.00    -0.355 N 
ATOM     27  C   UNK d   0     -17.413  -7.049 -14.848  0.00  0.00    -0.022 A 
ATOM     28  C   UNK d   0     -17.430  -7.682 -12.731  0.00  0.00     0.042 A 
ATOM     29  H   UNK d   0     -19.018  -9.199 -12.867  0.00  0.00     0.166 HD
ATOM     30  C   UNK d   0     -17.007  -7.649 -11.393  0.00  0.00     0.062 C 
ATOM     31  C   UNK d   0     -16.818  -6.797 -13.650  0.00  0.00    -0.013 A 
ATOM     32  C   UNK d   0     -16.807  -8.717 -10.533  0.00  0.00     0.066 A 
BRANCH   8  33
ATOM     33  C   UNK d   0     -15.915 -10.747  -7.601  0.00  0.00     0.151 C 
BRANCH  33  34
ATOM     34  C   UNK d   0     -17.003 -11.501  -6.951  0.00  0.00     0.143 C 
ATOM     35  O   UNK d   0     -16.882 -12.709  -6.705  0.00  0.00    -0.650 OA
BRANCH  34  36
ATOM     36  O   UNK d   0     -18.168 -10.850  -6.616  0.00  0.00    -0.776 OA
ATOM     37  H   UNK d   0     -18.191 -10.149  -5.863  0.00  0.00     0.167 HD
ENDBRANCH  34  36
ENDBRANCH  33  34
ENDBRANCH   8  33
BRANCH  31  38
ATOM     38  C   UNK d   0     -15.724  -5.786 -13.393  0.00  0.00     0.151 C 
BRANCH  38  39
ATOM     39  C   UNK d   0     -14.409  -6.282 -13.740  0.00  0.00     0.143 C 
ATOM     40  O   UNK d   0     -13.858  -7.203 -13.113  0.00  0.00    -0.650 OA
BRANCH  39  41
ATOM     41  O   UNK d   0     -13.725  -5.715 -14.815  0.00  0.00    -0.776 OA
ATOM     42  H   UNK d   0     -14.288  -5.432 -15.623  0.00  0.00     0.167 HD
ENDBRANCH  39  41
ENDBRANCH  38  39
ENDBRANCH  31  38
BRANCH  27  43
ATOM     43  C   UNK d   0     -17.061  -6.319 -16.120  0.00  0.00     0.052 C 
BRANCH  43  44
ATOM     44  C   UNK d   0     -17.673  -4.959 -16.210  0.00  0.00     0.115 C 
BRANCH  44  45
ATOM     45  C   UNK d   0     -16.654  -4.075 -16.833  0.00  0.00     0.139 C 
ATOM     46  O   UNK d   0     -16.955  -3.487 -17.901  0.00  0.00    -0.650 OA
BRANCH  45  47
ATOM     47  O   UNK d   0     -15.405  -3.873 -16.286  0.00  0.00    -0.776 OA
ATOM     48  H   UNK d   0     -15.058  -2.940 -16.013  0.00  0.00     0.167 HD
ENDBRANCH  45  47
ENDBRANCH  44  45
ENDBRANCH  43  44
ENDBRANCH  27  43
BRANCH  24  49
ATOM     49  C   UNK d   0     -20.586  -9.957 -18.356  0.00  0.00     0.052 C 
BRANCH  49  50
ATOM     50  C   UNK d   0     -22.079  -9.770 -18.275  0.00  0.00     0.115 C 
BRANCH  50  51
ATOM     51  C   UNK d   0     -22.672  -9.723 -16.945  0.00  0.00     0.139 C 
ATOM     52  O   UNK d   0     -23.151 -10.735 -16.381  0.00  0.00    -0.650 OA
BRANCH  51  53
ATOM     53  O   UNK d   0     -22.721  -8.519 -16.258  0.00  0.00    -0.776 OA
ATOM     54  H   UNK d   0     -22.309  -7.710 -16.687  0.00  0.00     0.167 HD
ENDBRANCH  51  53
ENDBRANCH  50  51
ENDBRANCH  49  50
ENDBRANCH  24  49
BRANCH  21  55
ATOM     55  C   UNK d   0     -20.603 -12.967 -17.662  0.00  0.00     0.151 C 
BRANCH  55  56
ATOM     56  C   UNK d   0     -19.569 -13.542 -18.536  0.00  0.00     0.143 C 
ATOM     57  O   UNK d   0     -18.858 -14.507 -18.196  0.00  0.00    -0.650 OA
BRANCH  56  58
ATOM     58  O   UNK d   0     -19.393 -12.970 -19.795  0.00  0.00    -0.776 OA
ATOM     59  H   UNK d   0     -19.106 -13.632 -20.539  0.00  0.00     0.167 HD
ENDBRANCH  56  58
ENDBRANCH  55  56
ENDBRANCH  21  55
BRANCH  18  60
ATOM     60  C   UNK d   0     -20.435 -14.959 -12.680  0.00  0.00     0.151 C 
BRANCH  60  61
ATOM     61  C   UNK d   0     -21.704 -14.251 -12.454  0.00  0.00     0.143 C 
ATOM     62  O   UNK d   0     -22.271 -13.478 -13.227  0.00  0.00    -0.650 OA
BRANCH  61  63
ATOM     63  O   UNK d   0     -22.321 -14.504 -11.205  0.00  0.00    -0.776 OA
ATOM     64  H   UNK d   0     -23.318 -14.453 -11.100  0.00  0.00     0.167 HD
ENDBRANCH  61  63
ENDBRANCH  60  61
ENDBRANCH  18  60
BRANCH  14  65
ATOM     65  C   UNK d   0     -19.029 -14.525 -10.026  0.00  0.00     0.052 C 
BRANCH  65  66
ATOM     66  C   UNK d   0     -18.084 -15.660  -9.850  0.00  0.00     0.115 C 
BRANCH  66  67
ATOM     67  C   UNK d   0     -17.829 -16.176  -8.534  0.00  0.00     0.139 C 
ATOM     68  O   UNK d   0     -17.336 -17.358  -8.424  0.00  0.00    -0.650 OA
BRANCH  67  69
ATOM     69  O   UNK d   0     -18.053 -15.544  -7.312  0.00  0.00    -0.776 OA
ATOM     70  H   UNK d   0     -17.618 -14.617  -7.200  0.00  0.00     0.167 HD
ENDBRANCH  67  69
ENDBRANCH  66  67
ENDBRANCH  65  66
ENDBRANCH  14  65
ENDBRANCH   6   7
ENDBRANCH   5   6
ENDBRANCH   2   5
TORSDOF 28
ENDMDL
MODEL 7
REMARK VINA RESULT:      -8.6      4.515     10.715
REMARK  28 active torsions:
REMARK  status: ('A' for Active; 'I' for Inactive)
REMARK    1  A    between atoms: C_2  and  O_3 
REMARK    2  A    between atoms: C_2  and  C_4 
REMARK    3  A    between atoms: C_4  and  C_5 
REMARK    4  A    between atoms: C_5  and  C_6 
REMARK    5  A    between atoms: C_7  and  C_8 
REMARK    6  A    between atoms: C_8  and  C_9 
REMARK    7  A    between atoms: C_9  and  O_11 
REMARK    8  A    between atoms: C_28  and  C_29 
REMARK    9  A    between atoms: C_29  and  C_30 
REMARK   10  A    between atoms: C_30  and  O_32 
REMARK   11  A    between atoms: C_33  and  C_34 
REMARK   12  A    between atoms: C_34  and  C_35 
REMARK   13  A    between atoms: C_35  and  C_36 
REMARK   14  A    between atoms: C_36  and  O_38 
REMARK   15  A    between atoms: C_39  and  C_40 
REMARK   16  A    between atoms: C_40  and  C_41 
REMARK   17  A    between atoms: C_41  and  C_42 
REMARK   18  A    between atoms: C_42  and  O_44 
REMARK   19  A    between atoms: C_45  and  C_46 
REMARK   20  A    between atoms: C_46  and  C_47 
REMARK   21  A    between atoms: C_47  and  O_49 
REMARK   22  A    between atoms: C_50  and  C_51 
REMARK   23  A    between atoms: C_51  and  C_52 
REMARK   24  A    between atoms: C_52  and  O_54 
REMARK   25  A    between atoms: C_55  and  C_56 
REMARK   26  A    between atoms: C_56  and  C_57 
REMARK   27  A    between atoms: C_57  and  C_58 
REMARK   28  A    between atoms: C_58  and  O_60 
ROOT
ATOM      1  O   UNK d   0     -17.082 -10.777 -20.080  0.00  0.00    -0.650 OA
ATOM      2  C   UNK d   0     -16.664 -10.525 -18.928  0.00  0.00     0.139 C 
ENDROOT
BRANCH   2   3
ATOM      3  O   UNK d   0     -15.973 -11.490 -18.236  0.00  0.00    -0.776 OA
ATOM      4  H   UNK d   0     -15.170 -11.965 -18.653  0.00  0.00     0.167 HD
ENDBRANCH   2   3
BRANCH   2   5
ATOM      5  C   UNK d   0     -16.917  -9.189 -18.317  0.00  0.00     0.115 C 
BRANCH   5   6
ATOM      6  C   UNK d   0     -18.388  -9.006 -18.062  0.00  0.00     0.052 C 
BRANCH   6   7
ATOM      7  C   UNK d   0     -18.963 -10.085 -17.176  0.00  0.00    -0.020 A 
ATOM      8  C   UNK d   0     -19.940 -10.910 -17.453  0.00  0.00    -0.011 A 
ATOM      9  C   UNK d   0     -20.148 -11.761 -16.293  0.00  0.00     0.067 A 
ATOM     10  C   UNK d   0     -20.996 -12.827 -15.958  0.00  0.00     0.062 C 
ATOM     11  N   UNK d   0     -19.257 -11.380 -15.353  0.00  0.00    -0.248 NA
ATOM     12  C   UNK d   0     -20.861 -13.712 -14.883  0.00  0.00     0.041 A 
ATOM     13  N   UNK d   0     -20.532 -13.498 -13.595  0.00  0.00    -0.355 N 
ATOM     14  C   UNK d   0     -21.030 -15.090 -15.110  0.00  0.00    -0.022 A 
ATOM     15  C   UNK d   0     -20.479 -14.705 -13.001  0.00  0.00     0.042 A 
ATOM     16  H   UNK d   0     -20.359 -12.512 -13.111  0.00  0.00     0.166 HD
ATOM     17  C   UNK d   0     -20.183 -15.055 -11.669  0.00  0.00     0.062 C 
ATOM     18  C   UNK d   0     -20.785 -15.728 -13.919  0.00  0.00    -0.013 A 
ATOM     19  C   UNK d   0     -19.178 -14.593 -10.858  0.00  0.00     0.067 A 
ATOM     20  N   UNK d   0     -18.493 -13.530 -11.290  0.00  0.00    -0.248 NA
ATOM     21  C   UNK d   0     -18.607 -14.978  -9.578  0.00  0.00    -0.011 A 
ATOM     22  C   UNK d   0     -17.516 -13.194 -10.386  0.00  0.00     0.066 A 
ATOM     23  C   UNK d   0     -16.750 -12.079 -10.693  0.00  0.00     0.062 C 
ATOM     24  C   UNK d   0     -17.632 -14.158  -9.310  0.00  0.00    -0.020 A 
ATOM     25  C   UNK d   0     -16.910 -11.196 -11.772  0.00  0.00     0.041 A 
ATOM     26  N   UNK d   0     -17.223 -11.410 -13.056  0.00  0.00    -0.355 N 
ATOM     27  C   UNK d   0     -16.745  -9.812 -11.543  0.00  0.00    -0.022 A 
ATOM     28  C   UNK d   0     -17.268 -10.208 -13.653  0.00  0.00     0.042 A 
ATOM     29  H   UNK d   0     -17.386 -12.402 -13.543  0.00  0.00     0.166 HD
ATOM     30  C   UNK d   0     -17.552  -9.846 -14.979  0.00  0.00     0.062 C 
ATOM     31  C   UNK d   0     -16.970  -9.180 -12.727  0.00  0.00    -0.013 A 
ATOM     32  C   UNK d   0     -18.514 -10.377 -15.822  0.00  0.00     0.066 A 
BRANCH   8  33
ATOM     33  C   UNK d   0     -20.711 -10.979 -18.709  0.00  0.00     0.151 C 
BRANCH  33  34
ATOM     34  C   UNK d   0     -21.793  -9.980 -18.770  0.00  0.00     0.143 C 
ATOM     35  O   UNK d   0     -21.929  -9.249 -19.761  0.00  0.00    -0.650 OA
BRANCH  34  36
ATOM     36  O   UNK d   0     -22.660  -9.858 -17.709  0.00  0.00    -0.776 OA
ATOM     37  H   UNK d   0     -23.674  -9.764 -17.856  0.00  0.00     0.167 HD
ENDBRANCH  34  36
ENDBRANCH  33  34
ENDBRANCH   8  33
BRANCH  31  38
ATOM     38  C   UNK d   0     -16.920  -7.689 -12.965  0.00  0.00     0.151 C 
BRANCH  38  39
ATOM     39  C   UNK d   0     -15.579  -7.205 -13.216  0.00  0.00     0.143 C 
ATOM     40  O   UNK d   0     -14.805  -7.771 -14.009  0.00  0.00    -0.650 OA
BRANCH  39  41
ATOM     41  O   UNK d   0     -15.124  -6.065 -12.554  0.00  0.00    -0.776 OA
ATOM     42  H   UNK d   0     -15.654  -5.201 -12.705  0.00  0.00     0.167 HD
ENDBRANCH  39  41
ENDBRANCH  38  39
ENDBRANCH  31  38
BRANCH  27  43
ATOM     43  C   UNK d   0     -16.387  -9.088 -10.269  0.00  0.00     0.052 C 
BRANCH  43  44
ATOM     44  C   UNK d   0     -14.914  -9.001 -10.033  0.00  0.00     0.115 C 
BRANCH  44  45
ATOM     45  C   UNK d   0     -14.657  -7.658  -9.449  0.00  0.00     0.139 C 
ATOM     46  O   UNK d   0     -15.499  -6.751  -9.659  0.00  0.00    -0.650 OA
BRANCH  45  47
ATOM     47  O   UNK d   0     -13.543  -7.375  -8.690  0.00  0.00    -0.776 OA
ATOM     48  H   UNK d   0     -13.204  -7.997  -7.938  0.00  0.00     0.167 HD
ENDBRANCH  45  47
ENDBRANCH  44  45
ENDBRANCH  43  44
ENDBRANCH  27  43
BRANCH  24  49
ATOM     49  C   UNK d   0     -16.804 -14.162  -8.092  0.00  0.00     0.052 C 
BRANCH  49  50
ATOM     50  C   UNK d   0     -17.392 -13.239  -7.055  0.00  0.00     0.115 C 
BRANCH  50  51
ATOM     51  C   UNK d   0     -17.001 -11.838  -7.114  0.00  0.00     0.139 C 
ATOM     52  O   UNK d   0     -17.826 -10.900  -7.001  0.00  0.00    -0.650 OA
BRANCH  51  53
ATOM     53  O   UNK d   0     -15.669 -11.504  -7.303  0.00  0.00    -0.776 OA
ATOM     54  H   UNK d   0     -15.440 -10.862  -8.041  0.00  0.00     0.167 HD
ENDBRANCH  51  53
ENDBRANCH  50  51
ENDBRANCH  49  50
ENDBRANCH  24  49
BRANCH  21  55
ATOM     55  C   UNK d   0     -19.098 -16.122  -8.755  0.00  0.00     0.151 C 
BRANCH  55  56
ATOM     56  C   UNK d   0     -18.367 -17.365  -9.047  0.00  0.00     0.143 C 
ATOM     57  O   UNK d   0     -18.512 -18.000 -10.110  0.00  0.00    -0.650 OA
BRANCH  56  58
ATOM     58  O   UNK d   0     -17.478 -17.837  -8.082  0.00  0.00    -0.776 OA
ATOM     59  H   UNK d   0     -16.924 -17.104  -7.604  0.00  0.00     0.167 HD
ENDBRANCH  56  58
ENDBRANCH  55  56
ENDBRANCH  21  55
BRANCH  18  60
ATOM     60  C   UNK d   0     -20.846 -17.221 -13.710  0.00  0.00     0.151 C 
BRANCH  60  61
ATOM     61  C   UNK d   0     -21.703 -17.429 -12.533  0.00  0.00     0.143 C 
ATOM     62  O   UNK d   0     -22.853 -17.018 -12.370  0.00  0.00    -0.650 OA
BRANCH  61  63
ATOM     63  O   UNK d   0     -21.120 -18.187 -11.490  0.00  0.00    -0.776 OA
ATOM     64  H   UNK d   0     -21.609 -18.342 -10.626  0.00  0.00     0.167 HD
ENDBRANCH  61  63
ENDBRANCH  60  61
ENDBRANCH  18  60
BRANCH  14  65
ATOM     65  C   UNK d   0     -21.496 -15.833 -16.329  0.00  0.00     0.052 C 
BRANCH  65  66
ATOM     66  C   UNK d   0     -20.377 -16.276 -17.204  0.00  0.00     0.115 C 
BRANCH  66  67
ATOM     67  C   UNK d   0     -19.914 -15.417 -18.257  0.00  0.00     0.139 C 
ATOM     68  O   UNK d   0     -18.891 -14.671 -18.035  0.00  0.00    -0.650 OA
BRANCH  67  69
ATOM     69  O   UNK d   0     -20.445 -15.276 -19.539  0.00  0.00    -0.776 OA
ATOM     70  H   UNK d   0     -21.391 -15.659 -19.676  0.00  0.00     0.167 HD
ENDBRANCH  67  69
ENDBRANCH  66  67
ENDBRANCH  65  66
ENDBRANCH  14  65
ENDBRANCH   6   7
ENDBRANCH   5   6
ENDBRANCH   2   5
TORSDOF 28
ENDMDL
MODEL 8
REMARK VINA RESULT:      -8.6      3.836      9.645
REMARK  28 active torsions:
REMARK  status: ('A' for Active; 'I' for Inactive)
REMARK    1  A    between atoms: C_2  and  O_3 
REMARK    2  A    between atoms: C_2  and  C_4 
REMARK    3  A    between atoms: C_4  and  C_5 
REMARK    4  A    between atoms: C_5  and  C_6 
REMARK    5  A    between atoms: C_7  and  C_8 
REMARK    6  A    between atoms: C_8  and  C_9 
REMARK    7  A    between atoms: C_9  and  O_11 
REMARK    8  A    between atoms: C_28  and  C_29 
REMARK    9  A    between atoms: C_29  and  C_30 
REMARK   10  A    between atoms: C_30  and  O_32 
REMARK   11  A    between atoms: C_33  and  C_34 
REMARK   12  A    between atoms: C_34  and  C_35 
REMARK   13  A    between atoms: C_35  and  C_36 
REMARK   14  A    between atoms: C_36  and  O_38 
REMARK   15  A    between atoms: C_39  and  C_40 
REMARK   16  A    between atoms: C_40  and  C_41 
REMARK   17  A    between atoms: C_41  and  C_42 
REMARK   18  A    between atoms: C_42  and  O_44 
REMARK   19  A    between atoms: C_45  and  C_46 
REMARK   20  A    between atoms: C_46  and  C_47 
REMARK   21  A    between atoms: C_47  and  O_49 
REMARK   22  A    between atoms: C_50  and  C_51 
REMARK   23  A    between atoms: C_51  and  C_52 
REMARK   24  A    between atoms: C_52  and  O_54 
REMARK   25  A    between atoms: C_55  and  C_56 
REMARK   26  A    between atoms: C_56  and  C_57 
REMARK   27  A    between atoms: C_57  and  C_58 
REMARK   28  A    between atoms: C_58  and  O_60 
ROOT
ATOM      1  O   UNK d   0     -17.651 -16.894  -9.093  0.00  0.00    -0.650 OA
ATOM      2  C   UNK d   0     -16.515 -16.435  -8.844  0.00  0.00     0.139 C 
ENDROOT
BRANCH   2   3
ATOM      3  O   UNK d   0     -15.403 -17.114  -9.282  0.00  0.00    -0.776 OA
ATOM      4  H   UNK d   0     -15.388 -17.565 -10.199  0.00  0.00     0.167 HD
ENDBRANCH   2   3
BRANCH   2   5
ATOM      5  C   UNK d   0     -16.373 -15.164  -8.078  0.00  0.00     0.115 C 
BRANCH   5   6
ATOM      6  C   UNK d   0     -17.613 -14.327  -8.229  0.00  0.00     0.052 C 
BRANCH   6   7
ATOM      7  C   UNK d   0     -17.406 -13.141  -9.140  0.00  0.00    -0.020 A 
ATOM      8  C   UNK d   0     -16.722 -12.053  -8.892  0.00  0.00    -0.011 A 
ATOM      9  C   UNK d   0     -16.813 -11.193 -10.059  0.00  0.00     0.067 A 
ATOM     10  C   UNK d   0     -16.307  -9.939 -10.436  0.00  0.00     0.062 C 
ATOM     11  N   UNK d   0     -17.577 -11.833 -10.969  0.00  0.00    -0.248 NA
ATOM     12  C   UNK d   0     -16.275  -9.390 -11.722  0.00  0.00     0.041 A 
ATOM     13  N   UNK d   0     -17.200  -9.372 -12.701  0.00  0.00    -0.355 N 
ATOM     14  C   UNK d   0     -15.092  -8.777 -12.171  0.00  0.00    -0.022 A 
ATOM     15  C   UNK d   0     -16.630  -8.771 -13.763  0.00  0.00     0.042 A 
ATOM     16  H   UNK d   0     -18.240  -9.759 -12.637  0.00  0.00     0.166 HD
ATOM     17  C   UNK d   0     -17.151  -8.491 -15.042  0.00  0.00     0.062 C 
ATOM     18  C   UNK d   0     -15.308  -8.384 -13.469  0.00  0.00    -0.013 A 
ATOM     19  C   UNK d   0     -17.883  -9.302 -15.871  0.00  0.00     0.067 A 
ATOM     20  N   UNK d   0     -18.346 -10.440 -15.349  0.00  0.00    -0.248 NA
ATOM     21  C   UNK d   0     -18.308  -9.264 -17.261  0.00  0.00    -0.011 A 
ATOM     22  C   UNK d   0     -19.043 -11.150 -16.296  0.00  0.00     0.066 A 
ATOM     23  C   UNK d   0     -19.614 -12.342 -15.876  0.00  0.00     0.062 C 
ATOM     24  C   UNK d   0     -18.983 -10.351 -17.504  0.00  0.00    -0.020 A 
ATOM     25  C   UNK d   0     -19.646 -12.870 -14.576  0.00  0.00     0.041 A 
ATOM     26  N   UNK d   0     -18.722 -12.901 -13.608  0.00  0.00    -0.355 N 
ATOM     27  C   UNK d   0     -20.836 -13.482 -14.125  0.00  0.00    -0.022 A 
ATOM     28  C   UNK d   0     -19.285 -13.508 -12.551  0.00  0.00     0.042 A 
ATOM     29  H   UNK d   0     -17.673 -12.521 -13.678  0.00  0.00     0.166 HD
ATOM     30  C   UNK d   0     -18.776 -13.801 -11.276  0.00  0.00     0.062 C 
ATOM     31  C   UNK d   0     -20.616 -13.887 -12.844  0.00  0.00    -0.013 A 
ATOM     32  C   UNK d   0     -17.965 -13.011 -10.478  0.00  0.00     0.066 A 
BRANCH   8  33
ATOM     33  C   UNK d   0     -15.986 -11.734  -7.654  0.00  0.00     0.151 C 
BRANCH  33  34
ATOM     34  C   UNK d   0     -16.721 -10.804  -6.778  0.00  0.00     0.143 C 
ATOM     35  O   UNK d   0     -17.960 -10.808  -6.741  0.00  0.00    -0.650 OA
BRANCH  34  36
ATOM     36  O   UNK d   0     -16.019  -9.919  -5.992  0.00  0.00    -0.776 OA
ATOM     37  H   UNK d   0     -15.989  -8.915  -6.215  0.00  0.00     0.167 HD
ENDBRANCH  34  36
ENDBRANCH  33  34
ENDBRANCH   8  33
BRANCH  31  38
ATOM     38  C   UNK d   0     -21.613 -14.582 -11.946  0.00  0.00     0.151 C 
BRANCH  38  39
ATOM     39  C   UNK d   0     -21.715 -16.001 -12.211  0.00  0.00     0.143 C 
ATOM     40  O   UNK d   0     -20.864 -16.616 -12.877  0.00  0.00    -0.650 OA
BRANCH  39  41
ATOM     41  O   UNK d   0     -22.801 -16.717 -11.708  0.00  0.00    -0.776 OA
ATOM     42  H   UNK d   0     -23.681 -16.203 -11.596  0.00  0.00     0.167 HD
ENDBRANCH  39  41
ENDBRANCH  38  39
ENDBRANCH  31  38
BRANCH  27  43
ATOM     43  C   UNK d   0     -22.141 -13.690 -14.851  0.00  0.00     0.052 C 
BRANCH  43  44
ATOM     44  C   UNK d   0     -23.237 -12.797 -14.365  0.00  0.00     0.115 C 
BRANCH  44  45
ATOM     45  C   UNK d   0     -22.967 -11.449 -14.930  0.00  0.00     0.139 C 
ATOM     46  O   UNK d   0     -23.119 -11.285 -16.166  0.00  0.00    -0.650 OA
BRANCH  45  47
ATOM     47  O   UNK d   0     -22.568 -10.381 -14.156  0.00  0.00    -0.776 OA
ATOM     48  H   UNK d   0     -22.887 -10.243 -13.184  0.00  0.00     0.167 HD
ENDBRANCH  45  47
ENDBRANCH  44  45
ENDBRANCH  43  44
ENDBRANCH  27  43
BRANCH  24  49
ATOM     49  C   UNK d   0     -19.631 -10.703 -18.779  0.00  0.00     0.052 C 
BRANCH  49  50
ATOM     50  C   UNK d   0     -19.175 -12.063 -19.242  0.00  0.00     0.115 C 
BRANCH  50  51
ATOM     51  C   UNK d   0     -17.783 -12.193 -19.651  0.00  0.00     0.139 C 
ATOM     52  O   UNK d   0     -17.437 -12.280 -20.853  0.00  0.00    -0.650 OA
BRANCH  51  53
ATOM     53  O   UNK d   0     -16.785 -12.226 -18.690  0.00  0.00    -0.776 OA
ATOM     54  H   UNK d   0     -16.443 -11.352 -18.329  0.00  0.00     0.167 HD
ENDBRANCH  51  53
ENDBRANCH  50  51
ENDBRANCH  49  50
ENDBRANCH  24  49
BRANCH  21  55
ATOM     55  C   UNK d   0     -17.999  -8.144 -18.198  0.00  0.00     0.151 C 
BRANCH  55  56
ATOM     56  C   UNK d   0     -16.641  -8.249 -18.754  0.00  0.00     0.143 C 
ATOM     57  O   UNK d   0     -16.159  -9.324 -19.160  0.00  0.00    -0.650 OA
BRANCH  56  58
ATOM     58  O   UNK d   0     -15.877  -7.085 -18.820  0.00  0.00    -0.776 OA
ATOM     59  H   UNK d   0     -16.388  -6.245 -19.147  0.00  0.00     0.167 HD
ENDBRANCH  56  58
ENDBRANCH  55  56
ENDBRANCH  21  55
BRANCH  18  60
ATOM     60  C   UNK d   0     -14.294  -7.688 -14.342  0.00  0.00     0.151 C 
BRANCH  60  61
ATOM     61  C   UNK d   0     -14.592  -6.252 -14.243  0.00  0.00     0.143 C 
ATOM     62  O   UNK d   0     -15.454  -5.719 -13.542  0.00  0.00    -0.650 OA
BRANCH  61  63
ATOM     63  O   UNK d   0     -13.787  -5.412 -15.049  0.00  0.00    -0.776 OA
ATOM     64  H   UNK d   0     -13.001  -4.920 -14.662  0.00  0.00     0.167 HD
ENDBRANCH  61  63
ENDBRANCH  60  61
ENDBRANCH  18  60
BRANCH  14  65
ATOM     65  C   UNK d   0     -13.819  -8.450 -11.443  0.00  0.00     0.052 C 
BRANCH  65  66
ATOM     66  C   UNK d   0     -13.874  -7.143 -10.734  0.00  0.00     0.115 C 
BRANCH  66  67
ATOM     67  C   UNK d   0     -13.208  -6.990  -9.471  0.00  0.00     0.139 C 
ATOM     68  O   UNK d   0     -13.922  -6.915  -8.405  0.00  0.00    -0.650 OA
BRANCH  67  69
ATOM     69  O   UNK d   0     -11.836  -6.908  -9.235  0.00  0.00    -0.776 OA
ATOM     70  H   UNK d   0     -11.366  -7.797  -9.009  0.00  0.00     0.167 HD
ENDBRANCH  67  69
ENDBRANCH  66  67
ENDBRANCH  65  66
ENDBRANCH  14  65
ENDBRANCH   6   7
ENDBRANCH   5   6
ENDBRANCH   2   5
TORSDOF 28
ENDMDL
MODEL 9
REMARK VINA RESULT:      -8.6      3.064      9.316
REMARK  28 active torsions:
REMARK  status: ('A' for Active; 'I' for Inactive)
REMARK    1  A    between atoms: C_2  and  O_3 
REMARK    2  A    between atoms: C_2  and  C_4 
REMARK    3  A    between atoms: C_4  and  C_5 
REMARK    4  A    between atoms: C_5  and  C_6 
REMARK    5  A    between atoms: C_7  and  C_8 
REMARK    6  A    between atoms: C_8  and  C_9 
REMARK    7  A    between atoms: C_9  and  O_11 
REMARK    8  A    between atoms: C_28  and  C_29 
REMARK    9  A    between atoms: C_29  and  C_30 
REMARK   10  A    between atoms: C_30  and  O_32 
REMARK   11  A    between atoms: C_33  and  C_34 
REMARK   12  A    between atoms: C_34  and  C_35 
REMARK   13  A    between atoms: C_35  and  C_36 
REMARK   14  A    between atoms: C_36  and  O_38 
REMARK   15  A    between atoms: C_39  and  C_40 
REMARK   16  A    between atoms: C_40  and  C_41 
REMARK   17  A    between atoms: C_41  and  C_42 
REMARK   18  A    between atoms: C_42  and  O_44 
REMARK   19  A    between atoms: C_45  and  C_46 
REMARK   20  A    between atoms: C_46  and  C_47 
REMARK   21  A    between atoms: C_47  and  O_49 
REMARK   22  A    between atoms: C_50  and  C_51 
REMARK   23  A    between atoms: C_51  and  C_52 
REMARK   24  A    between atoms: C_52  and  O_54 
REMARK   25  A    between atoms: C_55  and  C_56 
REMARK   26  A    between atoms: C_56  and  C_57 
REMARK   27  A    between atoms: C_57  and  C_58 
REMARK   28  A    between atoms: C_58  and  O_60 
ROOT
ATOM      1  O   UNK d   0     -14.207  -1.439 -14.092  0.00  0.00    -0.650 OA
ATOM      2  C   UNK d   0     -15.122  -2.163 -13.640  0.00  0.00     0.139 C 
ENDROOT
BRANCH   2   3
ATOM      3  O   UNK d   0     -15.352  -2.190 -12.286  0.00  0.00    -0.776 OA
ATOM      4  H   UNK d   0     -14.584  -2.097 -11.618  0.00  0.00     0.167 HD
ENDBRANCH   2   3
BRANCH   2   5
ATOM      5  C   UNK d   0     -15.950  -2.987 -14.565  0.00  0.00     0.115 C 
BRANCH   5   6
ATOM      6  C   UNK d   0     -15.261  -4.293 -14.853  0.00  0.00     0.052 C 
BRANCH   6   7
ATOM      7  C   UNK d   0     -16.221  -5.457 -14.908  0.00  0.00    -0.020 A 
ATOM      8  C   UNK d   0     -17.176  -5.664 -15.778  0.00  0.00    -0.011 A 
ATOM      9  C   UNK d   0     -17.839  -6.908 -15.423  0.00  0.00     0.067 A 
ATOM     10  C   UNK d   0     -18.891  -7.679 -15.944  0.00  0.00     0.062 C 
ATOM     11  N   UNK d   0     -17.227  -7.389 -14.321  0.00  0.00    -0.248 NA
ATOM     12  C   UNK d   0     -19.210  -9.002 -15.622  0.00  0.00     0.041 A 
ATOM     13  N   UNK d   0     -19.254  -9.641 -14.438  0.00  0.00    -0.355 N 
ATOM     14  C   UNK d   0     -19.496  -9.905 -16.663  0.00  0.00    -0.022 A 
ATOM     15  C   UNK d   0     -19.553 -10.928 -14.700  0.00  0.00     0.042 A 
ATOM     16  H   UNK d   0     -19.097  -9.188 -13.434  0.00  0.00     0.166 HD
ATOM     17  C   UNK d   0     -19.722 -12.022 -13.829  0.00  0.00     0.062 C 
ATOM     18  C   UNK d   0     -19.711 -11.132 -16.085  0.00  0.00    -0.013 A 
ATOM     19  C   UNK d   0     -18.950 -12.401 -12.760  0.00  0.00     0.067 A 
ATOM     20  N   UNK d   0     -18.025 -11.532 -12.344  0.00  0.00    -0.248 NA
ATOM     21  C   UNK d   0     -18.849 -13.574 -11.908  0.00  0.00    -0.011 A 
ATOM     22  C   UNK d   0     -17.326 -12.052 -11.283  0.00  0.00     0.066 A 
ATOM     23  C   UNK d   0     -16.354 -11.235 -10.725  0.00  0.00     0.062 C 
ATOM     24  C   UNK d   0     -17.894 -13.366 -11.049  0.00  0.00    -0.020 A 
ATOM     25  C   UNK d   0     -16.057  -9.903 -11.054  0.00  0.00     0.041 A 
ATOM     26  N   UNK d   0     -15.999  -9.272 -12.233  0.00  0.00    -0.355 N 
ATOM     27  C   UNK d   0     -15.775  -8.997 -10.009  0.00  0.00    -0.022 A 
ATOM     28  C   UNK d   0     -15.693  -7.990 -11.974  0.00  0.00     0.042 A 
ATOM     29  H   UNK d   0     -16.147  -9.731 -13.241  0.00  0.00     0.166 HD
ATOM     30  C   UNK d   0     -15.513  -6.893 -12.831  0.00  0.00     0.062 C 
ATOM     31  C   UNK d   0     -15.544  -7.784 -10.582  0.00  0.00    -0.013 A 
ATOM     32  C   UNK d   0     -16.244  -6.562 -13.961  0.00  0.00     0.066 A 
BRANCH   8  33
ATOM     33  C   UNK d   0     -17.537  -4.801 -16.918  0.00  0.00     0.151 C 
BRANCH  33  34
ATOM     34  C   UNK d   0     -16.939  -5.253 -18.187  0.00  0.00     0.143 C 
ATOM     35  O   UNK d   0     -17.562  -5.156 -19.254  0.00  0.00    -0.650 OA
BRANCH  34  36
ATOM     36  O   UNK d   0     -15.672  -5.789 -18.184  0.00  0.00    -0.776 OA
ATOM     37  H   UNK d   0     -14.840  -5.194 -18.289  0.00  0.00     0.167 HD
ENDBRANCH  34  36
ENDBRANCH  33  34
ENDBRANCH   8  33
BRANCH  31  38
ATOM     38  C   UNK d   0     -15.214  -6.502  -9.853  0.00  0.00     0.151 C 
BRANCH  38  39
ATOM     39  C   UNK d   0     -13.839  -6.448  -9.406  0.00  0.00     0.143 C 
ATOM     40  O   UNK d   0     -13.451  -5.639  -8.545  0.00  0.00    -0.650 OA
BRANCH  39  41
ATOM     41  O   UNK d   0     -12.905  -7.329  -9.950  0.00  0.00    -0.776 OA
ATOM     42  H   UNK d   0     -12.941  -7.471 -10.964  0.00  0.00     0.167 HD
ENDBRANCH  39  41
ENDBRANCH  38  39
ENDBRANCH  31  38
BRANCH  27  43
ATOM     43  C   UNK d   0     -15.716  -9.238  -8.521  0.00  0.00     0.052 C 
BRANCH  43  44
ATOM     44  C   UNK d   0     -17.026  -9.019  -7.835  0.00  0.00     0.115 C 
BRANCH  44  45
ATOM     45  C   UNK d   0     -17.212 -10.160  -6.901  0.00  0.00     0.139 C 
ATOM     46  O   UNK d   0     -18.384 -10.522  -6.635  0.00  0.00    -0.650 OA
BRANCH  45  47
ATOM     47  O   UNK d   0     -16.156 -10.834  -6.326  0.00  0.00    -0.776 OA
ATOM     48  H   UNK d   0     -15.256 -10.982  -6.809  0.00  0.00     0.167 HD
ENDBRANCH  45  47
ENDBRANCH  44  45
ENDBRANCH  43  44
ENDBRANCH  27  43
BRANCH  24  49
ATOM     49  C   UNK d   0     -17.478 -14.282  -9.973  0.00  0.00     0.052 C 
BRANCH  49  50
ATOM     50  C   UNK d   0     -17.843 -13.711  -8.627  0.00  0.00     0.115 C 
BRANCH  50  51
ATOM     51  C   UNK d   0     -16.937 -13.986  -7.520  0.00  0.00     0.139 C 
ATOM     52  O   UNK d   0     -17.148 -13.574  -6.355  0.00  0.00    -0.650 OA
BRANCH  51  53
ATOM     53  O   UNK d   0     -15.788 -14.730  -7.742  0.00  0.00    -0.776 OA
ATOM     54  H   UNK d   0     -15.036 -14.652  -7.081  0.00  0.00     0.167 HD
ENDBRANCH  51  53
ENDBRANCH  50  51
ENDBRANCH  49  50
ENDBRANCH  24  49
BRANCH  21  55
ATOM     55  C   UNK d   0     -19.720 -14.779 -12.040  0.00  0.00     0.151 C 
BRANCH  55  56
ATOM     56  C   UNK d   0     -20.959 -14.652 -11.257  0.00  0.00     0.143 C 
ATOM     57  O   UNK d   0     -21.005 -14.858 -10.028  0.00  0.00    -0.650 OA
BRANCH  56  58
ATOM     58  O   UNK d   0     -22.120 -14.283 -11.934  0.00  0.00    -0.776 OA
ATOM     59  H   UNK d   0     -22.991 -14.351 -11.377  0.00  0.00     0.167 HD
ENDBRANCH  56  58
ENDBRANCH  55  56
ENDBRANCH  21  55
BRANCH  18  60
ATOM     60  C   UNK d   0     -20.042 -12.396 -16.838  0.00  0.00     0.151 C 
BRANCH  60  61
ATOM     61  C   UNK d   0     -18.760 -12.916 -17.338  0.00  0.00     0.143 C 
ATOM     62  O   UNK d   0     -17.682 -12.929 -16.743  0.00  0.00    -0.650 OA
BRANCH  61  63
ATOM     63  O   UNK d   0     -18.797 -13.453 -18.647  0.00  0.00    -0.776 OA
ATOM     64  H   UNK d   0     -18.261 -14.268 -18.888  0.00  0.00     0.167 HD
ENDBRANCH  61  63
ENDBRANCH  60  61
ENDBRANCH  18  60
BRANCH  14  65
ATOM     65  C   UNK d   0     -19.676  -9.678 -18.137  0.00  0.00     0.052 C 
BRANCH  65  66
ATOM     66  C   UNK d   0     -18.412  -9.302 -18.826  0.00  0.00     0.115 C 
BRANCH  66  67
ATOM     67  C   UNK d   0     -17.338 -10.251 -18.911  0.00  0.00     0.139 C 
ATOM     68  O   UNK d   0     -17.286 -11.029 -19.933  0.00  0.00    -0.650 OA
BRANCH  67  69
ATOM     69  O   UNK d   0     -16.302 -10.451 -17.999  0.00  0.00    -0.776 OA
ATOM     70  H   UNK d   0     -15.382 -10.670 -18.407  0.00  0.00     0.167 HD
ENDBRANCH  67  69
ENDBRANCH  66  67
ENDBRANCH  65  66
ENDBRANCH  14  65
ENDBRANCH   6   7
ENDBRANCH   5   6
ENDBRANCH   2   5
TORSDOF 28
ENDMDL
MODEL 10
REMARK VINA RESULT:      -8.6      3.850      9.966
REMARK  28 active torsions:
REMARK  status: ('A' for Active; 'I' for Inactive)
REMARK    1  A    between atoms: C_2  and  O_3 
REMARK    2  A    between atoms: C_2  and  C_4 
REMARK    3  A    between atoms: C_4  and  C_5 
REMARK    4  A    between atoms: C_5  and  C_6 
REMARK    5  A    between atoms: C_7  and  C_8 
REMARK    6  A    between atoms: C_8  and  C_9 
REMARK    7  A    between atoms: C_9  and  O_11 
REMARK    8  A    between atoms: C_28  and  C_29 
REMARK    9  A    between atoms: C_29  and  C_30 
REMARK   10  A    between atoms: C_30  and  O_32 
REMARK   11  A    between atoms: C_33  and  C_34 
REMARK   12  A    between atoms: C_34  and  C_35 
REMARK   13  A    between atoms: C_35  and  C_36 
REMARK   14  A    between atoms: C_36  and  O_38 
REMARK   15  A    between atoms: C_39  and  C_40 
REMARK   16  A    between atoms: C_40  and  C_41 
REMARK   17  A    between atoms: C_41  and  C_42 
REMARK   18  A    between atoms: C_42  and  O_44 
REMARK   19  A    between atoms: C_45  and  C_46 
REMARK   20  A    between atoms: C_46  and  C_47 
REMARK   21  A    between atoms: C_47  and  O_49 
REMARK   22  A    between atoms: C_50  and  C_51 
REMARK   23  A    between atoms: C_51  and  C_52 
REMARK   24  A    between atoms: C_52  and  O_54 
REMARK   25  A    between atoms: C_55  and  C_56 
REMARK   26  A    between atoms: C_56  and  C_57 
REMARK   27  A    between atoms: C_57  and  C_58 
REMARK   28  A    between atoms: C_58  and  O_60 
ROOT
ATOM      1  O   UNK d   0     -15.673  -3.619 -13.696  0.00  0.00    -0.650 OA
ATOM      2  C   UNK d   0     -15.244  -4.649 -14.260  0.00  0.00     0.139 C 
ENDROOT
BRANCH   2   3
ATOM      3  O   UNK d   0     -14.456  -5.525 -13.553  0.00  0.00    -0.776 OA
ATOM      4  H   UNK d   0     -14.633  -5.715 -12.565  0.00  0.00     0.167 HD
ENDBRANCH   2   3
BRANCH   2   5
ATOM      5  C   UNK d   0     -15.586  -4.920 -15.685  0.00  0.00     0.115 C 
BRANCH   5   6
ATOM      6  C   UNK d   0     -15.204  -6.329 -16.051  0.00  0.00     0.052 C 
BRANCH   6   7
ATOM      7  C   UNK d   0     -16.354  -7.298 -15.910  0.00  0.00    -0.020 A 
ATOM      8  C   UNK d   0     -17.398  -7.416 -16.690  0.00  0.00    -0.011 A 
ATOM      9  C   UNK d   0     -18.236  -8.474 -16.153  0.00  0.00     0.067 A 
ATOM     10  C   UNK d   0     -19.445  -9.090 -16.514  0.00  0.00     0.062 C 
ATOM     11  N   UNK d   0     -17.630  -8.941 -15.041  0.00  0.00    -0.248 NA
ATOM     12  C   UNK d   0     -19.963 -10.293 -16.021  0.00  0.00     0.041 A 
ATOM     13  N   UNK d   0     -20.022 -10.786 -14.770  0.00  0.00    -0.355 N 
ATOM     14  C   UNK d   0     -20.485 -11.232 -16.930  0.00  0.00    -0.022 A 
ATOM     15  C   UNK d   0     -20.560 -12.017 -14.861  0.00  0.00     0.042 A 
ATOM     16  H   UNK d   0     -19.707 -10.267 -13.838  0.00  0.00     0.166 HD
ATOM     17  C   UNK d   0     -20.846 -12.966 -13.860  0.00  0.00     0.062 C 
ATOM     18  C   UNK d   0     -20.864 -12.331 -16.200  0.00  0.00    -0.013 A 
ATOM     19  C   UNK d   0     -20.068 -13.365 -12.803  0.00  0.00     0.067 A 
ATOM     20  N   UNK d   0     -18.976 -12.641 -12.549  0.00  0.00    -0.248 NA
ATOM     21  C   UNK d   0     -20.105 -14.442 -11.827  0.00  0.00    -0.011 A 
ATOM     22  C   UNK d   0     -18.294 -13.167 -11.479  0.00  0.00     0.066 A 
ATOM     23  C   UNK d   0     -17.152 -12.487 -11.081  0.00  0.00     0.062 C 
ATOM     24  C   UNK d   0     -19.061 -14.323 -11.058  0.00  0.00    -0.020 A 
ATOM     25  C   UNK d   0     -16.656 -11.273 -11.580  0.00  0.00     0.041 A 
ATOM     26  N   UNK d   0     -16.584 -10.789 -12.826  0.00  0.00    -0.355 N 
ATOM     27  C   UNK d   0     -16.136 -10.330 -10.668  0.00  0.00    -0.022 A 
ATOM     28  C   UNK d   0     -16.039  -9.565 -12.738  0.00  0.00     0.042 A 
ATOM     29  H   UNK d   0     -16.891 -11.316 -13.763  0.00  0.00     0.166 HD
ATOM     30  C   UNK d   0     -15.740  -8.615 -13.727  0.00  0.00     0.062 C 
ATOM     31  C   UNK d   0     -15.744  -9.246 -11.391  0.00  0.00    -0.013 A 
ATOM     32  C   UNK d   0     -16.492  -8.275 -14.841  0.00  0.00     0.066 A 
BRANCH   8  33
ATOM     33  C   UNK d   0     -17.694  -6.625 -17.899  0.00  0.00     0.151 C 
BRANCH  33  34
ATOM     34  C   UNK d   0     -17.319  -7.321 -19.143  0.00  0.00     0.143 C 
ATOM     35  O   UNK d   0     -18.181  -7.676 -19.959  0.00  0.00    -0.650 OA
BRANCH  34  36
ATOM     36  O   UNK d   0     -15.992  -7.582 -19.397  0.00  0.00    -0.776 OA
ATOM     37  H   UNK d   0     -15.309  -7.670 -18.633  0.00  0.00     0.167 HD
ENDBRANCH  34  36
ENDBRANCH  33  34
ENDBRANCH   8  33
BRANCH  31  38
ATOM     38  C   UNK d   0     -15.138  -7.977 -10.839  0.00  0.00     0.151 C 
BRANCH  38  39
ATOM     39  C   UNK d   0     -13.700  -8.056 -10.699  0.00  0.00     0.143 C 
ATOM     40  O   UNK d   0     -12.967  -8.502 -11.599  0.00  0.00    -0.650 OA
BRANCH  39  41
ATOM     41  O   UNK d   0     -13.101  -7.619  -9.518  0.00  0.00    -0.776 OA
ATOM     42  H   UNK d   0     -13.693  -7.094  -8.867  0.00  0.00     0.167 HD
ENDBRANCH  39  41
ENDBRANCH  38  39
ENDBRANCH  31  38
BRANCH  27  43
ATOM     43  C   UNK d   0     -16.000 -10.421  -9.168  0.00  0.00     0.052 C 
BRANCH  43  44
ATOM     44  C   UNK d   0     -16.706  -9.322  -8.443  0.00  0.00     0.115 C 
BRANCH  44  45
ATOM     45  C   UNK d   0     -15.867  -8.984  -7.264  0.00  0.00     0.139 C 
ATOM     46  O   UNK d   0     -16.448  -8.687  -6.190  0.00  0.00    -0.650 OA
BRANCH  45  47
ATOM     47  O   UNK d   0     -14.490  -8.989  -7.301  0.00  0.00    -0.776 OA
ATOM     48  H   UNK d   0     -13.907  -9.149  -6.463  0.00  0.00     0.167 HD
ENDBRANCH  45  47
ENDBRANCH  44  45
ENDBRANCH  43  44
ENDBRANCH  27  43
BRANCH  24  49
ATOM     49  C   UNK d   0     -18.726 -15.183  -9.910  0.00  0.00     0.052 C 
BRANCH  49  50
ATOM     50  C   UNK d   0     -17.598 -16.117 -10.267  0.00  0.00     0.115 C 
BRANCH  50  51
ATOM     51  C   UNK d   0     -16.368 -15.999  -9.496  0.00  0.00     0.139 C 
ATOM     52  O   UNK d   0     -16.102 -14.993  -8.797  0.00  0.00    -0.650 OA
BRANCH  51  53
ATOM     53  O   UNK d   0     -15.439 -17.028  -9.524  0.00  0.00    -0.776 OA
ATOM     54  H   UNK d   0     -15.244 -17.468 -10.406  0.00  0.00     0.167 HD
ENDBRANCH  51  53
ENDBRANCH  50  51
ENDBRANCH  49  50
ENDBRANCH  24  49
BRANCH  21  55
ATOM     55  C   UNK d   0     -21.180 -15.475 -11.763  0.00  0.00     0.151 C 
BRANCH  55  56
ATOM     56  C   UNK d   0     -22.369 -14.989 -11.047  0.00  0.00     0.143 C 
ATOM     57  O   UNK d   0     -23.393 -14.587 -11.633  0.00  0.00    -0.650 OA
BRANCH  56  58
ATOM     58  O   UNK d   0     -22.331 -14.986  -9.653  0.00  0.00    -0.776 OA
ATOM     59  H   UNK d   0     -21.685 -14.291  -9.236  0.00  0.00     0.167 HD
ENDBRANCH  56  58
ENDBRANCH  55  56
ENDBRANCH  21  55
BRANCH  18  60
ATOM     60  C   UNK d   0     -21.470 -13.586 -16.779  0.00  0.00     0.151 C 
BRANCH  60  61
ATOM     61  C   UNK d   0     -20.378 -14.569 -16.844  0.00  0.00     0.143 C 
ATOM     62  O   UNK d   0     -19.227 -14.375 -17.235  0.00  0.00    -0.650 OA
BRANCH  61  63
ATOM     63  O   UNK d   0     -20.713 -15.872 -16.403  0.00  0.00    -0.776 OA
ATOM     64  H   UNK d   0     -20.859 -16.620 -17.059  0.00  0.00     0.167 HD
ENDBRANCH  61  63
ENDBRANCH  60  61
ENDBRANCH  18  60
BRANCH  14  65
ATOM     65  C   UNK d   0     -20.742 -11.130 -18.406  0.00  0.00     0.052 C 
BRANCH  65  66
ATOM     66  C   UNK d   0     -19.510 -10.852 -19.193  0.00  0.00     0.115 C 
BRANCH  66  67
ATOM     67  C   UNK d   0     -18.782 -11.939 -19.783  0.00  0.00     0.139 C 
ATOM     68  O   UNK d   0     -19.407 -13.036 -20.028  0.00  0.00    -0.650 OA
BRANCH  67  69
ATOM     69  O   UNK d   0     -17.434 -11.969 -20.140  0.00  0.00    -0.776 OA
ATOM     70  H   UNK d   0     -16.813 -11.353 -19.596  0.00  0.00     0.167 HD
ENDBRANCH  67  69
ENDBRANCH  66  67
ENDBRANCH  65  66
ENDBRANCH  14  65
ENDBRANCH   6   7
ENDBRANCH   5   6
ENDBRANCH   2   5
TORSDOF 28
ENDMDL
MODEL 11
REMARK VINA RESULT:      -8.6      3.404      9.499
REMARK  28 active torsions:
REMARK  status: ('A' for Active; 'I' for Inactive)
REMARK    1  A    between atoms: C_2  and  O_3 
REMARK    2  A    between atoms: C_2  and  C_4 
REMARK    3  A    between atoms: C_4  and  C_5 
REMARK    4  A    between atoms: C_5  and  C_6 
REMARK    5  A    between atoms: C_7  and  C_8 
REMARK    6  A    between atoms: C_8  and  C_9 
REMARK    7  A    between atoms: C_9  and  O_11 
REMARK    8  A    between atoms: C_28  and  C_29 
REMARK    9  A    between atoms: C_29  and  C_30 
REMARK   10  A    between atoms: C_30  and  O_32 
REMARK   11  A    between atoms: C_33  and  C_34 
REMARK   12  A    between atoms: C_34  and  C_35 
REMARK   13  A    between atoms: C_35  and  C_36 
REMARK   14  A    between atoms: C_36  and  O_38 
REMARK   15  A    between atoms: C_39  and  C_40 
REMARK   16  A    between atoms: C_40  and  C_41 
REMARK   17  A    between atoms: C_41  and  C_42 
REMARK   18  A    between atoms: C_42  and  O_44 
REMARK   19  A    between atoms: C_45  and  C_46 
REMARK   20  A    between atoms: C_46  and  C_47 
REMARK   21  A    between atoms: C_47  and  O_49 
REMARK   22  A    between atoms: C_50  and  C_51 
REMARK   23  A    between atoms: C_51  and  C_52 
REMARK   24  A    between atoms: C_52  and  O_54 
REMARK   25  A    between atoms: C_55  and  C_56 
REMARK   26  A    between atoms: C_56  and  C_57 
REMARK   27  A    between atoms: C_57  and  C_58 
REMARK   28  A    between atoms: C_58  and  O_60 
ROOT
ATOM      1  O   UNK d   0     -17.103  -6.648 -23.560  0.00  0.00    -0.650 OA
ATOM      2  C   UNK d   0     -17.352  -6.026 -22.503  0.00  0.00     0.139 C 
ENDROOT
BRANCH   2   3
ATOM      3  O   UNK d   0     -16.801  -4.782 -22.308  0.00  0.00    -0.776 OA
ATOM      4  H   UNK d   0     -16.995  -4.246 -21.460  0.00  0.00     0.167 HD
ENDBRANCH   2   3
BRANCH   2   5
ATOM      5  C   UNK d   0     -18.237  -6.632 -21.468  0.00  0.00     0.115 C 
BRANCH   5   6
ATOM      6  C   UNK d   0     -17.668  -7.945 -21.006  0.00  0.00     0.052 C 
BRANCH   6   7
ATOM      7  C   UNK d   0     -18.090  -8.299 -19.599  0.00  0.00    -0.020 A 
ATOM      8  C   UNK d   0     -19.009  -9.155 -19.233  0.00  0.00    -0.011 A 
ATOM      9  C   UNK d   0     -19.067  -9.151 -17.781  0.00  0.00     0.067 A 
ATOM     10  C   UNK d   0     -19.798  -9.832 -16.795  0.00  0.00     0.062 C 
ATOM     11  N   UNK d   0     -18.153  -8.258 -17.346  0.00  0.00    -0.248 NA
ATOM     12  C   UNK d   0     -19.519  -9.895 -15.426  0.00  0.00     0.041 A 
ATOM     13  N   UNK d   0     -19.126  -8.945 -14.556  0.00  0.00    -0.355 N 
ATOM     14  C   UNK d   0     -19.584 -11.141 -14.775  0.00  0.00    -0.022 A 
ATOM     15  C   UNK d   0     -18.932  -9.557 -13.372  0.00  0.00     0.042 A 
ATOM     16  H   UNK d   0     -19.006  -7.860 -14.770  0.00  0.00     0.166 HD
ATOM     17  C   UNK d   0     -18.521  -9.034 -12.130  0.00  0.00     0.062 C 
ATOM     18  C   UNK d   0     -19.209 -10.934 -13.471  0.00  0.00    -0.013 A 
ATOM     19  C   UNK d   0     -17.509  -8.149 -11.859  0.00  0.00     0.067 A 
ATOM     20  N   UNK d   0     -16.947  -7.535 -12.903  0.00  0.00    -0.248 NA
ATOM     21  C   UNK d   0     -16.825  -7.677 -10.667  0.00  0.00    -0.011 A 
ATOM     22  C   UNK d   0     -15.945  -6.696 -12.480  0.00  0.00     0.066 A 
ATOM     23  C   UNK d   0     -15.299  -5.963 -13.464  0.00  0.00     0.062 C 
ATOM     24  C   UNK d   0     -15.908  -6.831 -11.037  0.00  0.00    -0.020 A 
ATOM     25  C   UNK d   0     -15.603  -5.903 -14.833  0.00  0.00     0.041 A 
ATOM     26  N   UNK d   0     -15.979  -6.850 -15.700  0.00  0.00    -0.355 N 
ATOM     27  C   UNK d   0     -15.542  -4.652 -15.484  0.00  0.00    -0.022 A 
ATOM     28  C   UNK d   0     -16.165  -6.244 -16.884  0.00  0.00     0.042 A 
ATOM     29  H   UNK d   0     -16.089  -7.942 -15.487  0.00  0.00     0.166 HD
ATOM     30  C   UNK d   0     -16.564  -6.753 -18.129  0.00  0.00     0.062 C 
ATOM     31  C   UNK d   0     -15.897  -4.858 -16.782  0.00  0.00    -0.013 A 
ATOM     32  C   UNK d   0     -17.531  -7.711 -18.391  0.00  0.00     0.066 A 
BRANCH   8  33
ATOM     33  C   UNK d   0     -19.850  -9.982 -20.117  0.00  0.00     0.151 C 
BRANCH  33  34
ATOM     34  C   UNK d   0     -21.189  -9.405 -20.334  0.00  0.00     0.143 C 
ATOM     35  O   UNK d   0     -22.120  -9.645 -19.552  0.00  0.00    -0.650 OA
BRANCH  34  36
ATOM     36  O   UNK d   0     -21.406  -8.592 -21.422  0.00  0.00    -0.776 OA
ATOM     37  H   UNK d   0     -20.635  -8.316 -22.045  0.00  0.00     0.167 HD
ENDBRANCH  34  36
ENDBRANCH  33  34
ENDBRANCH   8  33
BRANCH  31  38
ATOM     38  C   UNK d   0     -15.989  -3.803 -17.859  0.00  0.00     0.151 C 
BRANCH  38  39
ATOM     39  C   UNK d   0     -17.324  -3.670 -18.402  0.00  0.00     0.143 C 
ATOM     40  O   UNK d   0     -18.343  -3.775 -17.696  0.00  0.00    -0.650 OA
BRANCH  39  41
ATOM     41  O   UNK d   0     -17.490  -3.413 -19.762  0.00  0.00    -0.776 OA
ATOM     42  H   UNK d   0     -18.445  -3.464 -20.129  0.00  0.00     0.167 HD
ENDBRANCH  39  41
ENDBRANCH  38  39
ENDBRANCH  31  38
BRANCH  27  43
ATOM     43  C   UNK d   0     -15.165  -3.301 -14.930  0.00  0.00     0.052 C 
BRANCH  43  44
ATOM     44  C   UNK d   0     -16.316  -2.351 -14.856  0.00  0.00     0.115 C 
BRANCH  44  45
ATOM     45  C   UNK d   0     -16.101  -1.517 -13.645  0.00  0.00     0.139 C 
ATOM     46  O   UNK d   0     -16.296  -0.280 -13.736  0.00  0.00    -0.650 OA
BRANCH  45  47
ATOM     47  O   UNK d   0     -15.706  -2.045 -12.435  0.00  0.00    -0.776 OA
ATOM     48  H   UNK d   0     -14.825  -1.775 -11.967  0.00  0.00     0.167 HD
ENDBRANCH  45  47
ENDBRANCH  44  45
ENDBRANCH  43  44
ENDBRANCH  27  43
BRANCH  24  49
ATOM     49  C   UNK d   0     -15.006  -6.082 -10.145  0.00  0.00     0.052 C 
BRANCH  49  50
ATOM     50  C   UNK d   0     -13.771  -6.893  -9.848  0.00  0.00     0.115 C 
BRANCH  50  51
ATOM     51  C   UNK d   0     -12.493  -6.194  -9.878  0.00  0.00     0.139 C 
ATOM     52  O   UNK d   0     -11.480  -6.663 -10.448  0.00  0.00    -0.650 OA
BRANCH  51  53
ATOM     53  O   UNK d   0     -12.371  -4.961  -9.257  0.00  0.00    -0.776 OA
ATOM     54  H   UNK d   0     -12.230  -4.150  -9.834  0.00  0.00     0.167 HD
ENDBRANCH  51  53
ENDBRANCH  50  51
ENDBRANCH  49  50
ENDBRANCH  24  49
BRANCH  21  55
ATOM     55  C   UNK d   0     -17.162  -8.119  -9.281  0.00  0.00     0.151 C 
BRANCH  55  56
ATOM     56  C   UNK d   0     -16.424  -9.330  -8.893  0.00  0.00     0.143 C 
ATOM     57  O   UNK d   0     -15.228  -9.307  -8.539  0.00  0.00    -0.650 OA
BRANCH  56  58
ATOM     58  O   UNK d   0     -17.106 -10.545  -8.928  0.00  0.00    -0.776 OA
ATOM     59  H   UNK d   0     -17.689 -10.742  -8.095  0.00  0.00     0.167 HD
ENDBRANCH  56  58
ENDBRANCH  55  56
ENDBRANCH  21  55
BRANCH  18  60
ATOM     60  C   UNK d   0     -19.129 -12.008 -12.414  0.00  0.00     0.151 C 
BRANCH  60  61
ATOM     61  C   UNK d   0     -17.695 -12.224 -12.166  0.00  0.00     0.143 C 
ATOM     62  O   UNK d   0     -16.789 -12.221 -12.999  0.00  0.00    -0.650 OA
BRANCH  61  63
ATOM     63  O   UNK d   0     -17.347 -12.458 -10.814  0.00  0.00    -0.776 OA
ATOM     64  H   UNK d   0     -16.751 -11.822 -10.314  0.00  0.00     0.167 HD
ENDBRANCH  61  63
ENDBRANCH  60  61
ENDBRANCH  18  60
BRANCH  14  65
ATOM     65  C   UNK d   0     -20.063 -12.478 -15.263  0.00  0.00     0.052 C 
BRANCH  65  66
ATOM     66  C   UNK d   0     -21.545 -12.611 -15.235  0.00  0.00     0.115 C 
BRANCH  66  67
ATOM     67  C   UNK d   0     -22.172 -13.373 -14.192  0.00  0.00     0.139 C 
ATOM     68  O   UNK d   0     -23.260 -12.924 -13.674  0.00  0.00    -0.650 OA
BRANCH  67  69
ATOM     69  O   UNK d   0     -21.745 -14.581 -13.643  0.00  0.00    -0.776 OA
ATOM     70  H   UNK d   0     -20.974 -14.516 -12.963  0.00  0.00     0.167 HD
ENDBRANCH  67  69
ENDBRANCH  66  67
ENDBRANCH  65  66
ENDBRANCH  14  65
ENDBRANCH   6   7
ENDBRANCH   5   6
ENDBRANCH   2   5
TORSDOF 28
ENDMDL
MODEL 12
REMARK VINA RESULT:      -8.6      2.901      9.322
REMARK  28 active torsions:
REMARK  status: ('A' for Active; 'I' for Inactive)
REMARK    1  A    between atoms: C_2  and  O_3 
REMARK    2  A    between atoms: C_2  and  C_4 
REMARK    3  A    between atoms: C_4  and  C_5 
REMARK    4  A    between atoms: C_5  and  C_6 
REMARK    5  A    between atoms: C_7  and  C_8 
REMARK    6  A    between atoms: C_8  and  C_9 
REMARK    7  A    between atoms: C_9  and  O_11 
REMARK    8  A    between atoms: C_28  and  C_29 
REMARK    9  A    between atoms: C_29  and  C_30 
REMARK   10  A    between atoms: C_30  and  O_32 
REMARK   11  A    between atoms: C_33  and  C_34 
REMARK   12  A    between atoms: C_34  and  C_35 
REMARK   13  A    between atoms: C_35  and  C_36 
REMARK   14  A    between atoms: C_36  and  O_38 
REMARK   15  A    between atoms: C_39  and  C_40 
REMARK   16  A    between atoms: C_40  and  C_41 
REMARK   17  A    between atoms: C_41  and  C_42 
REMARK   18  A    between atoms: C_42  and  O_44 
REMARK   19  A    between atoms: C_45  and  C_46 
REMARK   20  A    between atoms: C_46  and  C_47 
REMARK   21  A    between atoms: C_47  and  O_49 
REMARK   22  A    between atoms: C_50  and  C_51 
REMARK   23  A    between atoms: C_51  and  C_52 
REMARK   24  A    between atoms: C_52  and  O_54 
REMARK   25  A    between atoms: C_55  and  C_56 
REMARK   26  A    between atoms: C_56  and  C_57 
REMARK   27  A    between atoms: C_57  and  C_58 
REMARK   28  A    between atoms: C_58  and  O_60 
ROOT
ATOM      1  O   UNK d   0     -13.405  -2.895  -9.969  0.00  0.00    -0.650 OA
ATOM      2  C   UNK d   0     -14.502  -3.059  -9.388  0.00  0.00     0.139 C 
ENDROOT
BRANCH   2   3
ATOM      3  O   UNK d   0     -14.690  -2.516  -8.140  0.00  0.00    -0.776 OA
ATOM      4  H   UNK d   0     -13.918  -2.077  -7.633  0.00  0.00     0.167 HD
ENDBRANCH   2   3
BRANCH   2   5
ATOM      5  C   UNK d   0     -15.589  -3.835 -10.048  0.00  0.00     0.115 C 
BRANCH   5   6
ATOM      6  C   UNK d   0     -15.010  -4.762 -11.082  0.00  0.00     0.052 C 
BRANCH   6   7
ATOM      7  C   UNK d   0     -15.247  -6.217 -10.756  0.00  0.00    -0.020 A 
ATOM      8  C   UNK d   0     -14.748  -6.904  -9.760  0.00  0.00    -0.011 A 
ATOM      9  C   UNK d   0     -15.252  -8.264  -9.860  0.00  0.00     0.067 A 
ATOM     10  C   UNK d   0     -15.122  -9.449  -9.120  0.00  0.00     0.062 C 
ATOM     11  N   UNK d   0     -16.045  -8.317 -10.951  0.00  0.00    -0.248 NA
ATOM     12  C   UNK d   0     -15.911 -10.600  -9.217  0.00  0.00     0.041 A 
ATOM     13  N   UNK d   0     -16.391 -11.257 -10.290  0.00  0.00    -0.355 N 
ATOM     14  C   UNK d   0     -16.373 -11.210  -8.037  0.00  0.00    -0.022 A 
ATOM     15  C   UNK d   0     -17.152 -12.264  -9.821  0.00  0.00     0.042 A 
ATOM     16  H   UNK d   0     -16.180 -11.026 -11.357  0.00  0.00     0.166 HD
ATOM     17  C   UNK d   0     -17.883 -13.253 -10.508  0.00  0.00     0.062 C 
ATOM     18  C   UNK d   0     -17.165 -12.267  -8.413  0.00  0.00    -0.013 A 
ATOM     19  C   UNK d   0     -18.704 -13.118 -11.599  0.00  0.00     0.067 A 
ATOM     20  N   UNK d   0     -18.674 -11.944 -12.236  0.00  0.00    -0.248 NA
ATOM     21  C   UNK d   0     -19.672 -13.954 -12.288  0.00  0.00    -0.011 A 
ATOM     22  C   UNK d   0     -19.553 -11.952 -13.290  0.00  0.00     0.066 A 
ATOM     23  C   UNK d   0     -19.597 -10.802 -14.065  0.00  0.00     0.062 C 
ATOM     24  C   UNK d   0     -20.169 -13.264 -13.275  0.00  0.00    -0.020 A 
ATOM     25  C   UNK d   0     -18.786  -9.661 -13.958  0.00  0.00     0.041 A 
ATOM     26  N   UNK d   0     -18.321  -8.999 -12.892  0.00  0.00    -0.355 N 
ATOM     27  C   UNK d   0     -18.319  -9.052 -15.144  0.00  0.00    -0.022 A 
ATOM     28  C   UNK d   0     -17.569  -7.989 -13.358  0.00  0.00     0.042 A 
ATOM     29  H   UNK d   0     -18.543  -9.226 -11.821  0.00  0.00     0.166 HD
ATOM     30  C   UNK d   0     -16.844  -6.993 -12.686  0.00  0.00     0.062 C 
ATOM     31  C   UNK d   0     -17.548  -7.994 -14.773  0.00  0.00    -0.013 A 
ATOM     32  C   UNK d   0     -16.084  -7.118 -11.534  0.00  0.00     0.066 A 
BRANCH   8  33
ATOM     33  C   UNK d   0     -13.834  -6.409  -8.714  0.00  0.00     0.151 C 
BRANCH  33  34
ATOM     34  C   UNK d   0     -12.470  -6.167  -9.217  0.00  0.00     0.143 C 
ATOM     35  O   UNK d   0     -11.954  -6.928 -10.048  0.00  0.00    -0.650 OA
BRANCH  34  36
ATOM     36  O   UNK d   0     -11.762  -5.082  -8.754  0.00  0.00    -0.776 OA
ATOM     37  H   UNK d   0     -12.241  -4.251  -8.381  0.00  0.00     0.167 HD
ENDBRANCH  34  36
ENDBRANCH  33  34
ENDBRANCH   8  33
BRANCH  31  38
ATOM     38  C   UNK d   0     -16.823  -7.050 -15.703  0.00  0.00     0.151 C 
BRANCH  38  39
ATOM     39  C   UNK d   0     -17.719  -6.163 -16.415  0.00  0.00     0.143 C 
ATOM     40  O   UNK d   0     -18.677  -5.599 -15.858  0.00  0.00    -0.650 OA
BRANCH  39  41
ATOM     41  O   UNK d   0     -17.512  -5.924 -17.773  0.00  0.00    -0.776 OA
ATOM     42  H   UNK d   0     -17.614  -6.725 -18.404  0.00  0.00     0.167 HD
ENDBRANCH  39  41
ENDBRANCH  38  39
ENDBRANCH  31  38
BRANCH  27  43
ATOM     43  C   UNK d   0     -18.576  -9.430 -16.581  0.00  0.00     0.052 C 
BRANCH  43  44
ATOM     44  C   UNK d   0     -17.561 -10.378 -17.133  0.00  0.00     0.115 C 
BRANCH  44  45
ATOM     45  C   UNK d   0     -17.247  -9.910 -18.508  0.00  0.00     0.139 C 
ATOM     46  O   UNK d   0     -16.706 -10.721 -19.300  0.00  0.00    -0.650 OA
BRANCH  45  47
ATOM     47  O   UNK d   0     -17.530  -8.635 -18.947  0.00  0.00    -0.776 OA
ATOM     48  H   UNK d   0     -17.875  -7.890 -18.319  0.00  0.00     0.167 HD
ENDBRANCH  45  47
ENDBRANCH  44  45
ENDBRANCH  43  44
ENDBRANCH  27  43
BRANCH  24  49
ATOM     49  C   UNK d   0     -21.158 -13.741 -14.256  0.00  0.00     0.052 C 
BRANCH  49  50
ATOM     50  C   UNK d   0     -22.546 -13.316 -13.851  0.00  0.00     0.115 C 
BRANCH  50  51
ATOM     51  C   UNK d   0     -23.141 -12.205 -14.582  0.00  0.00     0.139 C 
ATOM     52  O   UNK d   0     -22.609 -11.704 -15.601  0.00  0.00    -0.650 OA
BRANCH  51  53
ATOM     53  O   UNK d   0     -24.342 -11.665 -14.150  0.00  0.00    -0.776 OA
ATOM     54  H   UNK d   0     -24.312 -10.851 -13.561  0.00  0.00     0.167 HD
ENDBRANCH  51  53
ENDBRANCH  50  51
ENDBRANCH  49  50
ENDBRANCH  24  49
BRANCH  21  55
ATOM     55  C   UNK d   0     -19.996 -15.356 -11.892  0.00  0.00     0.151 C 
BRANCH  55  56
ATOM     56  C   UNK d   0     -21.112 -15.415 -10.936  0.00  0.00     0.143 C 
ATOM     57  O   UNK d   0     -22.235 -15.866 -11.236  0.00  0.00    -0.650 OA
BRANCH  56  58
ATOM     58  O   UNK d   0     -20.886 -14.941  -9.645  0.00  0.00    -0.776 OA
ATOM     59  H   UNK d   0     -21.517 -15.330  -8.921  0.00  0.00     0.167 HD
ENDBRANCH  56  58
ENDBRANCH  55  56
ENDBRANCH  21  55
BRANCH  18  60
ATOM     60  C   UNK d   0     -17.876 -13.196  -7.460  0.00  0.00     0.151 C 
BRANCH  60  61
ATOM     61  C   UNK d   0     -17.220 -14.504  -7.607  0.00  0.00     0.143 C 
ATOM     62  O   UNK d   0     -17.768 -15.597  -7.756  0.00  0.00    -0.650 OA
BRANCH  61  63
ATOM     63  O   UNK d   0     -15.805 -14.476  -7.571  0.00  0.00    -0.776 OA
ATOM     64  H   UNK d   0     -15.261 -15.214  -7.983  0.00  0.00     0.167 HD
ENDBRANCH  61  63
ENDBRANCH  60  61
ENDBRANCH  18  60
BRANCH  14  65
ATOM     65  C   UNK d   0     -16.047 -10.933  -6.597  0.00  0.00     0.052 C 
BRANCH  65  66
ATOM     66  C   UNK d   0     -16.800  -9.777  -6.042  0.00  0.00     0.115 C 
BRANCH  66  67
ATOM     67  C   UNK d   0     -18.098  -9.456  -6.564  0.00  0.00     0.139 C 
ATOM     68  O   UNK d   0     -19.105 -10.156  -6.178  0.00  0.00    -0.650 OA
BRANCH  67  69
ATOM     69  O   UNK d   0     -18.428  -8.448  -7.470  0.00  0.00    -0.776 OA
ATOM     70  H   UNK d   0     -18.158  -7.493  -7.195  0.00  0.00     0.167 HD
ENDBRANCH  67  69
ENDBRANCH  66  67
ENDBRANCH  65  66
ENDBRANCH  14  65
ENDBRANCH   6   7
ENDBRANCH   5   6
ENDBRANCH   2   5
TORSDOF 28
ENDMDL
MODEL 13
REMARK VINA RESULT:      -8.6      3.530     11.956
REMARK  28 active torsions:
REMARK  status: ('A' for Active; 'I' for Inactive)
REMARK    1  A    between atoms: C_2  and  O_3 
REMARK    2  A    between atoms: C_2  and  C_4 
REMARK    3  A    between atoms: C_4  and  C_5 
REMARK    4  A    between atoms: C_5  and  C_6 
REMARK    5  A    between atoms: C_7  and  C_8 
REMARK    6  A    between atoms: C_8  and  C_9 
REMARK    7  A    between atoms: C_9  and  O_11 
REMARK    8  A    between atoms: C_28  and  C_29 
REMARK    9  A    between atoms: C_29  and  C_30 
REMARK   10  A    between atoms: C_30  and  O_32 
REMARK   11  A    between atoms: C_33  and  C_34 
REMARK   12  A    between atoms: C_34  and  C_35 
REMARK   13  A    between atoms: C_35  and  C_36 
REMARK   14  A    between atoms: C_36  and  O_38 
REMARK   15  A    between atoms: C_39  and  C_40 
REMARK   16  A    between atoms: C_40  and  C_41 
REMARK   17  A    between atoms: C_41  and  C_42 
REMARK   18  A    between atoms: C_42  and  O_44 
REMARK   19  A    between atoms: C_45  and  C_46 
REMARK   20  A    between atoms: C_46  and  C_47 
REMARK   21  A    between atoms: C_47  and  O_49 
REMARK   22  A    between atoms: C_50  and  C_51 
REMARK   23  A    between atoms: C_51  and  C_52 
REMARK   24  A    between atoms: C_52  and  O_54 
REMARK   25  A    between atoms: C_55  and  C_56 
REMARK   26  A    between atoms: C_56  and  C_57 
REMARK   27  A    between atoms: C_57  and  C_58 
REMARK   28  A    between atoms: C_58  and  O_60 
ROOT
ATOM      1  O   UNK d   0     -18.258  -7.015 -19.645  0.00  0.00    -0.650 OA
ATOM      2  C   UNK d   0     -17.084  -7.445 -19.671  0.00  0.00     0.139 C 
ENDROOT
BRANCH   2   3
ATOM      3  O   UNK d   0     -16.759  -8.466 -20.532  0.00  0.00    -0.776 OA
ATOM      4  H   UNK d   0     -17.217  -8.554 -21.441  0.00  0.00     0.167 HD
ENDBRANCH   2   3
BRANCH   2   5
ATOM      5  C   UNK d   0     -16.050  -6.853 -18.775  0.00  0.00     0.115 C 
BRANCH   5   6
ATOM      6  C   UNK d   0     -16.707  -6.191 -17.594  0.00  0.00     0.052 C 
BRANCH   6   7
ATOM      7  C   UNK d   0     -16.487  -6.949 -16.307  0.00  0.00    -0.020 A 
ATOM      8  C   UNK d   0     -15.746  -6.594 -15.289  0.00  0.00    -0.011 A 
ATOM      9  C   UNK d   0     -15.836  -7.643 -14.286  0.00  0.00     0.067 A 
ATOM     10  C   UNK d   0     -15.318  -7.862 -13.000  0.00  0.00     0.062 C 
ATOM     11  N   UNK d   0     -16.650  -8.600 -14.779  0.00  0.00    -0.248 NA
ATOM     12  C   UNK d   0     -15.742  -8.813 -12.066  0.00  0.00     0.041 A 
ATOM     13  N   UNK d   0     -16.080 -10.108 -12.211  0.00  0.00    -0.355 N 
ATOM     14  C   UNK d   0     -15.927  -8.418 -10.729  0.00  0.00    -0.022 A 
ATOM     15  C   UNK d   0     -16.481 -10.543 -11.001  0.00  0.00     0.042 A 
ATOM     16  H   UNK d   0     -16.017 -10.709 -13.145  0.00  0.00     0.166 HD
ATOM     17  C   UNK d   0     -16.937 -11.812 -10.592  0.00  0.00     0.062 C 
ATOM     18  C   UNK d   0     -16.400  -9.511 -10.047  0.00  0.00    -0.013 A 
ATOM     19  C   UNK d   0     -17.832 -12.648 -11.210  0.00  0.00     0.067 A 
ATOM     20  N   UNK d   0     -18.188 -12.336 -12.458  0.00  0.00    -0.248 NA
ATOM     21  C   UNK d   0     -18.558 -13.854 -10.846  0.00  0.00    -0.011 A 
ATOM     22  C   UNK d   0     -19.095 -13.249 -12.937  0.00  0.00     0.066 A 
ATOM     23  C   UNK d   0     -19.523 -13.066 -14.244  0.00  0.00     0.062 C 
ATOM     24  C   UNK d   0     -19.298 -14.198 -11.860  0.00  0.00    -0.020 A 
ATOM     25  C   UNK d   0     -19.074 -12.112 -15.170  0.00  0.00     0.041 A 
ATOM     26  N   UNK d   0     -18.753 -10.820 -15.030  0.00  0.00    -0.355 N 
ATOM     27  C   UNK d   0     -18.885 -12.511 -16.512  0.00  0.00    -0.022 A 
ATOM     28  C   UNK d   0     -18.360 -10.382 -16.236  0.00  0.00     0.042 A 
ATOM     29  H   UNK d   0     -18.827 -10.216 -14.093  0.00  0.00     0.166 HD
ATOM     30  C   UNK d   0     -17.914  -9.120 -16.660  0.00  0.00     0.062 C 
ATOM     31  C   UNK d   0     -18.433 -11.422 -17.193  0.00  0.00    -0.013 A 
ATOM     32  C   UNK d   0     -17.076  -8.242 -15.992  0.00  0.00     0.066 A 
BRANCH   8  33
ATOM     33  C   UNK d   0     -14.948  -5.361 -15.162  0.00  0.00     0.151 C 
BRANCH  33  34
ATOM     34  C   UNK d   0     -15.604  -4.340 -14.326  0.00  0.00     0.143 C 
ATOM     35  O   UNK d   0     -16.450  -3.572 -14.806  0.00  0.00    -0.650 OA
BRANCH  34  36
ATOM     36  O   UNK d   0     -15.271  -4.240 -12.995  0.00  0.00    -0.776 OA
ATOM     37  H   UNK d   0     -14.855  -5.032 -12.487  0.00  0.00     0.167 HD
ENDBRANCH  34  36
ENDBRANCH  33  34
ENDBRANCH   8  33
BRANCH  31  38
ATOM     38  C   UNK d   0     -18.077 -11.374 -18.661  0.00  0.00     0.151 C 
BRANCH  38  39
ATOM     39  C   UNK d   0     -19.228 -11.152 -19.510  0.00  0.00     0.143 C 
ATOM     40  O   UNK d   0     -19.956 -10.149 -19.396  0.00  0.00    -0.650 OA
BRANCH  39  41
ATOM     41  O   UNK d   0     -19.544 -12.086 -20.496  0.00  0.00    -0.776 OA
ATOM     42  H   UNK d   0     -20.456 -11.984 -20.953  0.00  0.00     0.167 HD
ENDBRANCH  39  41
ENDBRANCH  38  39
ENDBRANCH  31  38
BRANCH  27  43
ATOM     43  C   UNK d   0     -19.115 -13.856 -17.153  0.00  0.00     0.052 C 
BRANCH  43  44
ATOM     44  C   UNK d   0     -20.502 -14.030 -17.680  0.00  0.00     0.115 C 
BRANCH  44  45
ATOM     45  C   UNK d   0     -21.101 -15.166 -16.933  0.00  0.00     0.139 C 
ATOM     46  O   UNK d   0     -21.750 -14.911 -15.888  0.00  0.00    -0.650 OA
BRANCH  45  47
ATOM     47  O   UNK d   0     -20.979 -16.476 -17.342  0.00  0.00    -0.776 OA
ATOM     48  H   UNK d   0     -20.092 -17.002 -17.279  0.00  0.00     0.167 HD
ENDBRANCH  45  47
ENDBRANCH  44  45
ENDBRANCH  43  44
ENDBRANCH  27  43
BRANCH  24  49
ATOM     49  C   UNK d   0     -20.168 -15.384 -11.937  0.00  0.00     0.052 C 
BRANCH  49  50
ATOM     50  C   UNK d   0     -21.597 -15.006 -11.643  0.00  0.00     0.115 C 
BRANCH  50  51
ATOM     51  C   UNK d   0     -22.228 -15.635 -10.490  0.00  0.00     0.139 C 
ATOM     52  O   UNK d   0     -22.207 -16.874 -10.300  0.00  0.00    -0.650 OA
BRANCH  51  53
ATOM     53  O   UNK d   0     -22.885 -14.850  -9.555  0.00  0.00    -0.776 OA
ATOM     54  H   UNK d   0     -23.549 -15.294  -8.944  0.00  0.00     0.167 HD
ENDBRANCH  51  53
ENDBRANCH  50  51
ENDBRANCH  49  50
ENDBRANCH  24  49
BRANCH  21  55
ATOM     55  C   UNK d   0     -18.432 -14.538  -9.525  0.00  0.00     0.151 C 
BRANCH  55  56
ATOM     56  C   UNK d   0     -17.134 -15.211  -9.374  0.00  0.00     0.143 C 
ATOM     57  O   UNK d   0     -16.325 -14.923  -8.470  0.00  0.00    -0.650 OA
BRANCH  56  58
ATOM     58  O   UNK d   0     -16.811 -16.212 -10.289  0.00  0.00    -0.776 OA
ATOM     59  H   UNK d   0     -17.616 -16.600 -10.813  0.00  0.00     0.167 HD
ENDBRANCH  56  58
ENDBRANCH  55  56
ENDBRANCH  21  55
BRANCH  18  60
ATOM     60  C   UNK d   0     -16.744  -9.531  -8.578  0.00  0.00     0.151 C 
BRANCH  60  61
ATOM     61  C   UNK d   0     -15.624 -10.212  -7.910  0.00  0.00     0.143 C 
ATOM     62  O   UNK d   0     -15.545 -11.407  -7.626  0.00  0.00    -0.650 OA
BRANCH  61  63
ATOM     63  O   UNK d   0     -14.531  -9.380  -7.568  0.00  0.00    -0.776 OA
ATOM     64  H   UNK d   0     -13.594  -9.615  -7.843  0.00  0.00     0.167 HD
ENDBRANCH  61  63
ENDBRANCH  60  61
ENDBRANCH  18  60
BRANCH  14  65
ATOM     65  C   UNK d   0     -15.600  -7.127 -10.033  0.00  0.00     0.052 C 
BRANCH  65  66
ATOM     66  C   UNK d   0     -14.186  -6.706 -10.221  0.00  0.00     0.115 C 
BRANCH  66  67
ATOM     67  C   UNK d   0     -13.271  -6.774  -9.117  0.00  0.00     0.139 C 
ATOM     68  O   UNK d   0     -13.740  -6.675  -7.924  0.00  0.00    -0.650 OA
BRANCH  67  69
ATOM     69  O   UNK d   0     -11.887  -6.938  -9.164  0.00  0.00    -0.776 OA
ATOM     70  H   UNK d   0     -11.352  -6.441  -8.437  0.00  0.00     0.167 HD
ENDBRANCH  67  69
ENDBRANCH  66  67
ENDBRANCH  65  66
ENDBRANCH  14  65
ENDBRANCH   6   7
ENDBRANCH   5   6
ENDBRANCH   2   5
TORSDOF 28
ENDMDL
MODEL 14
REMARK VINA RESULT:      -8.6      3.449     11.705
REMARK  28 active torsions:
REMARK  status: ('A' for Active; 'I' for Inactive)
REMARK    1  A    between atoms: C_2  and  O_3 
REMARK    2  A    between atoms: C_2  and  C_4 
REMARK    3  A    between atoms: C_4  and  C_5 
REMARK    4  A    between atoms: C_5  and  C_6 
REMARK    5  A    between atoms: C_7  and  C_8 
REMARK    6  A    between atoms: C_8  and  C_9 
REMARK    7  A    between atoms: C_9  and  O_11 
REMARK    8  A    between atoms: C_28  and  C_29 
REMARK    9  A    between atoms: C_29  and  C_30 
REMARK   10  A    between atoms: C_30  and  O_32 
REMARK   11  A    between atoms: C_33  and  C_34 
REMARK   12  A    between atoms: C_34  and  C_35 
REMARK   13  A    between atoms: C_35  and  C_36 
REMARK   14  A    between atoms: C_36  and  O_38 
REMARK   15  A    between atoms: C_39  and  C_40 
REMARK   16  A    between atoms: C_40  and  C_41 
REMARK   17  A    between atoms: C_41  and  C_42 
REMARK   18  A    between atoms: C_42  and  O_44 
REMARK   19  A    between atoms: C_45  and  C_46 
REMARK   20  A    between atoms: C_46  and  C_47 
REMARK   21  A    between atoms: C_47  and  O_49 
REMARK   22  A    between atoms: C_50  and  C_51 
REMARK   23  A    between atoms: C_51  and  C_52 
REMARK   24  A    between atoms: C_52  and  O_54 
REMARK   25  A    between atoms: C_55  and  C_56 
REMARK   26  A    between atoms: C_56  and  C_57 
REMARK   27  A    between atoms: C_57  and  C_58 
REMARK   28  A    between atoms: C_58  and  O_60 
ROOT
ATOM      1  O   UNK d   0     -16.441  -3.200 -20.458  0.00  0.00    -0.650 OA
ATOM      2  C   UNK d   0     -17.176  -3.630 -19.541  0.00  0.00     0.139 C 
ENDROOT
BRANCH   2   3
ATOM      3  O   UNK d   0     -18.476  -3.193 -19.459  0.00  0.00    -0.776 OA
ATOM      4  H   UNK d   0     -18.912  -3.002 -18.555  0.00  0.00     0.167 HD
ENDBRANCH   2   3
BRANCH   2   5
ATOM      5  C   UNK d   0     -16.641  -4.605 -18.549  0.00  0.00     0.115 C 
BRANCH   5   6
ATOM      6  C   UNK d   0     -17.574  -4.712 -17.374  0.00  0.00     0.052 C 
BRANCH   6   7
ATOM      7  C   UNK d   0     -17.077  -5.675 -16.322  0.00  0.00    -0.020 A 
ATOM      8  C   UNK d   0     -16.088  -5.500 -15.484  0.00  0.00    -0.011 A 
ATOM      9  C   UNK d   0     -15.976  -6.700 -14.672  0.00  0.00     0.067 A 
ATOM     10  C   UNK d   0     -15.163  -7.134 -13.612  0.00  0.00     0.062 C 
ATOM     11  N   UNK d   0     -16.933  -7.556 -15.087  0.00  0.00    -0.248 NA
ATOM     12  C   UNK d   0     -15.387  -8.224 -12.765  0.00  0.00     0.041 A 
ATOM     13  N   UNK d   0     -15.813  -9.475 -13.023  0.00  0.00    -0.355 N 
ATOM     14  C   UNK d   0     -15.211  -8.056 -11.379  0.00  0.00    -0.022 A 
ATOM     15  C   UNK d   0     -15.920 -10.103 -11.837  0.00  0.00     0.042 A 
ATOM     16  H   UNK d   0     -16.015  -9.912 -14.026  0.00  0.00     0.166 HD
ATOM     17  C   UNK d   0     -16.319 -11.419 -11.532  0.00  0.00     0.062 C 
ATOM     18  C   UNK d   0     -15.551  -9.245 -10.782  0.00  0.00    -0.013 A 
ATOM     19  C   UNK d   0     -17.380 -12.134 -12.027  0.00  0.00     0.067 A 
ATOM     20  N   UNK d   0     -18.022 -11.617 -13.077  0.00  0.00    -0.248 NA
ATOM     21  C   UNK d   0     -18.050 -13.379 -11.687  0.00  0.00    -0.011 A 
ATOM     22  C   UNK d   0     -19.063 -12.431 -13.449  0.00  0.00     0.066 A 
ATOM     23  C   UNK d   0     -19.795 -12.030 -14.557  0.00  0.00     0.062 C 
ATOM     24  C   UNK d   0     -19.037 -13.544 -12.520  0.00  0.00    -0.020 A 
ATOM     25  C   UNK d   0     -19.546 -10.938 -15.402  0.00  0.00     0.041 A 
ATOM     26  N   UNK d   0     -19.137  -9.690 -15.144  0.00  0.00    -0.355 N 
ATOM     27  C   UNK d   0     -19.718 -11.109 -16.793  0.00  0.00    -0.022 A 
ATOM     28  C   UNK d   0     -19.038  -9.059 -16.325  0.00  0.00     0.042 A 
ATOM     29  H   UNK d   0     -18.945  -9.249 -14.135  0.00  0.00     0.166 HD
ATOM     30  C   UNK d   0     -18.651  -7.748 -16.641  0.00  0.00     0.062 C 
ATOM     31  C   UNK d   0     -19.398  -9.925 -17.385  0.00  0.00    -0.013 A 
ATOM     32  C   UNK d   0     -17.630  -6.998 -16.078  0.00  0.00     0.066 A 
BRANCH   8  33
ATOM     33  C   UNK d   0     -15.224  -4.310 -15.370  0.00  0.00     0.151 C 
BRANCH  33  34
ATOM     34  C   UNK d   0     -15.830  -3.241 -14.556  0.00  0.00     0.143 C 
ATOM     35  O   UNK d   0     -15.632  -3.181 -13.334  0.00  0.00    -0.650 OA
BRANCH  34  36
ATOM     36  O   UNK d   0     -16.628  -2.300 -15.164  0.00  0.00    -0.776 OA
ATOM     37  H   UNK d   0     -17.638  -2.249 -14.970  0.00  0.00     0.167 HD
ENDBRANCH  34  36
ENDBRANCH  33  34
ENDBRANCH   8  33
BRANCH  31  38
ATOM     38  C   UNK d   0     -19.420  -9.635 -18.867  0.00  0.00     0.151 C 
BRANCH  38  39
ATOM     39  C   UNK d   0     -20.757  -9.635 -19.421  0.00  0.00     0.143 C 
ATOM     40  O   UNK d   0     -21.774  -9.643 -18.704  0.00  0.00    -0.650 OA
BRANCH  39  41
ATOM     41  O   UNK d   0     -20.927  -9.623 -20.805  0.00  0.00    -0.776 OA
ATOM     42  H   UNK d   0     -20.770  -8.730 -21.282  0.00  0.00     0.167 HD
ENDBRANCH  39  41
ENDBRANCH  38  39
ENDBRANCH  31  38
BRANCH  27  43
ATOM     43  C   UNK d   0     -20.167 -12.327 -17.561  0.00  0.00     0.052 C 
BRANCH  43  44
ATOM     44  C   UNK d   0     -19.033 -13.131 -18.109  0.00  0.00     0.115 C 
BRANCH  44  45
ATOM     45  C   UNK d   0     -19.368 -13.426 -19.526  0.00  0.00     0.139 C 
ATOM     46  O   UNK d   0     -19.973 -14.497 -19.781  0.00  0.00    -0.650 OA
BRANCH  45  47
ATOM     47  O   UNK d   0     -19.048 -12.576 -20.562  0.00  0.00    -0.776 OA
ATOM     48  H   UNK d   0     -18.569 -12.893 -21.421  0.00  0.00     0.167 HD
ENDBRANCH  45  47
ENDBRANCH  44  45
ENDBRANCH  43  44
ENDBRANCH  27  43
BRANCH  24  49
ATOM     49  C   UNK d   0     -19.955 -14.695 -12.561  0.00  0.00     0.052 C 
BRANCH  49  50
ATOM     50  C   UNK d   0     -21.308 -14.306 -12.021  0.00  0.00     0.115 C 
BRANCH  50  51
ATOM     51  C   UNK d   0     -21.867 -15.139 -10.966  0.00  0.00     0.139 C 
ATOM     52  O   UNK d   0     -22.622 -16.112 -11.200  0.00  0.00    -0.650 OA
BRANCH  51  53
ATOM     53  O   UNK d   0     -21.568 -14.861  -9.641  0.00  0.00    -0.776 OA
ATOM     54  H   UNK d   0     -22.282 -15.013  -8.950  0.00  0.00     0.167 HD
ENDBRANCH  51  53
ENDBRANCH  50  51
ENDBRANCH  49  50
ENDBRANCH  24  49
BRANCH  21  55
ATOM     55  C   UNK d   0     -17.632 -14.274 -10.568  0.00  0.00     0.151 C 
BRANCH  55  56
ATOM     56  C   UNK d   0     -18.066 -13.761  -9.260  0.00  0.00     0.143 C 
ATOM     57  O   UNK d   0     -17.642 -12.692  -8.780  0.00  0.00    -0.650 OA
BRANCH  56  58
ATOM     58  O   UNK d   0     -18.991 -14.516  -8.541  0.00  0.00    -0.776 OA
ATOM     59  H   UNK d   0     -18.624 -14.944  -7.671  0.00  0.00     0.167 HD
ENDBRANCH  56  58
ENDBRANCH  55  56
ENDBRANCH  21  55
BRANCH  18  60
ATOM     60  C   UNK d   0     -15.518  -9.507  -9.297  0.00  0.00     0.151 C 
BRANCH  60  61
ATOM     61  C   UNK d   0     -16.627  -8.729  -8.724  0.00  0.00     0.143 C 
ATOM     62  O   UNK d   0     -16.620  -8.093  -7.670  0.00  0.00    -0.650 OA
BRANCH  61  63
ATOM     63  O   UNK d   0     -17.819  -8.727  -9.488  0.00  0.00    -0.776 OA
ATOM     64  H   UNK d   0     -18.410  -9.538  -9.529  0.00  0.00     0.167 HD
ENDBRANCH  61  63
ENDBRANCH  60  61
ENDBRANCH  18  60
BRANCH  14  65
ATOM     65  C   UNK d   0     -14.658  -6.901 -10.593  0.00  0.00     0.052 C 
BRANCH  65  66
ATOM     66  C   UNK d   0     -15.652  -5.814 -10.380  0.00  0.00     0.115 C 
BRANCH  66  67
ATOM     67  C   UNK d   0     -15.208  -4.451 -10.297  0.00  0.00     0.139 C 
ATOM     68  O   UNK d   0     -13.946  -4.220 -10.220  0.00  0.00    -0.650 OA
BRANCH  67  69
ATOM     69  O   UNK d   0     -15.992  -3.298 -10.289  0.00  0.00    -0.776 OA
ATOM     70  H   UNK d   0     -17.007  -3.447 -10.201  0.00  0.00     0.167 HD
ENDBRANCH  67  69
ENDBRANCH  66  67
ENDBRANCH  65  66
ENDBRANCH  14  65
ENDBRANCH   6   7
ENDBRANCH   5   6
ENDBRANCH   2   5
TORSDOF 28
ENDMDL
MODEL 15
REMARK VINA RESULT:      -8.6      3.848     10.796
REMARK  28 active torsions:
REMARK  status: ('A' for Active; 'I' for Inactive)
REMARK    1  A    between atoms: C_2  and  O_3 
REMARK    2  A    between atoms: C_2  and  C_4 
REMARK    3  A    between atoms: C_4  and  C_5 
REMARK    4  A    between atoms: C_5  and  C_6 
REMARK    5  A    between atoms: C_7  and  C_8 
REMARK    6  A    between atoms: C_8  and  C_9 
REMARK    7  A    between atoms: C_9  and  O_11 
REMARK    8  A    between atoms: C_28  and  C_29 
REMARK    9  A    between atoms: C_29  and  C_30 
REMARK   10  A    between atoms: C_30  and  O_32 
REMARK   11  A    between atoms: C_33  and  C_34 
REMARK   12  A    between atoms: C_34  and  C_35 
REMARK   13  A    between atoms: C_35  and  C_36 
REMARK   14  A    between atoms: C_36  and  O_38 
REMARK   15  A    between atoms: C_39  and  C_40 
REMARK   16  A    between atoms: C_40  and  C_41 
REMARK   17  A    between atoms: C_41  and  C_42 
REMARK   18  A    between atoms: C_42  and  O_44 
REMARK   19  A    between atoms: C_45  and  C_46 
REMARK   20  A    between atoms: C_46  and  C_47 
REMARK   21  A    between atoms: C_47  and  O_49 
REMARK   22  A    between atoms: C_50  and  C_51 
REMARK   23  A    between atoms: C_51  and  C_52 
REMARK   24  A    between atoms: C_52  and  O_54 
REMARK   25  A    between atoms: C_55  and  C_56 
REMARK   26  A    between atoms: C_56  and  C_57 
REMARK   27  A    between atoms: C_57  and  C_58 
REMARK   28  A    between atoms: C_58  and  O_60 
ROOT
ATOM      1  O   UNK d   0     -20.787 -17.297 -17.129  0.00  0.00    -0.650 OA
ATOM      2  C   UNK d   0     -20.943 -16.068 -17.300  0.00  0.00     0.139 C 
ENDROOT
BRANCH   2   3
ATOM      3  O   UNK d   0     -20.881 -15.552 -18.572  0.00  0.00    -0.776 OA
ATOM      4  H   UNK d   0     -21.704 -15.137 -19.013  0.00  0.00     0.167 HD
ENDBRANCH   2   3
BRANCH   2   5
ATOM      5  C   UNK d   0     -21.191 -15.175 -16.132  0.00  0.00     0.115 C 
BRANCH   5   6
ATOM      6  C   UNK d   0     -21.467 -13.773 -16.602  0.00  0.00     0.052 C 
BRANCH   6   7
ATOM      7  C   UNK d   0     -20.280 -12.857 -16.424  0.00  0.00    -0.020 A 
ATOM      8  C   UNK d   0     -19.660 -12.166 -17.346  0.00  0.00    -0.011 A 
ATOM      9  C   UNK d   0     -18.576 -11.441 -16.704  0.00  0.00     0.067 A 
ATOM     10  C   UNK d   0     -17.582 -10.536 -17.111  0.00  0.00     0.062 C 
ATOM     11  N   UNK d   0     -18.606 -11.753 -15.392  0.00  0.00    -0.248 NA
ATOM     12  C   UNK d   0     -16.792  -9.721 -16.293  0.00  0.00     0.041 A 
ATOM     13  N   UNK d   0     -16.161  -9.977 -15.131  0.00  0.00    -0.355 N 
ATOM     14  C   UNK d   0     -16.618  -8.370 -16.644  0.00  0.00    -0.022 A 
ATOM     15  C   UNK d   0     -15.599  -8.821 -14.732  0.00  0.00     0.042 A 
ATOM     16  H   UNK d   0     -16.099 -10.960 -14.614  0.00  0.00     0.166 HD
ATOM     17  C   UNK d   0     -14.826  -8.528 -13.590  0.00  0.00     0.062 C 
ATOM     18  C   UNK d   0     -15.864  -7.791 -15.655  0.00  0.00    -0.013 A 
ATOM     19  C   UNK d   0     -15.040  -8.896 -12.287  0.00  0.00     0.067 A 
ATOM     20  N   UNK d   0     -15.985  -9.813 -12.064  0.00  0.00    -0.248 NA
ATOM     21  C   UNK d   0     -14.491  -8.524 -10.993  0.00  0.00    -0.011 A 
ATOM     22  C   UNK d   0     -16.095 -10.067 -10.719  0.00  0.00     0.066 A 
ATOM     23  C   UNK d   0     -17.018 -11.033 -10.348  0.00  0.00     0.062 C 
ATOM     24  C   UNK d   0     -15.115  -9.210 -10.079  0.00  0.00    -0.020 A 
ATOM     25  C   UNK d   0     -17.793 -11.850 -11.186  0.00  0.00     0.041 A 
ATOM     26  N   UNK d   0     -18.432 -11.592 -12.333  0.00  0.00    -0.355 N 
ATOM     27  C   UNK d   0     -17.963 -13.207 -10.835  0.00  0.00    -0.022 A 
ATOM     28  C   UNK d   0     -19.002 -12.741 -12.729  0.00  0.00     0.042 A 
ATOM     29  H   UNK d   0     -18.503 -10.601 -12.846  0.00  0.00     0.166 HD
ATOM     30  C   UNK d   0     -19.781 -13.044 -13.857  0.00  0.00     0.062 C 
ATOM     31  C   UNK d   0     -18.726 -13.778 -11.807  0.00  0.00    -0.013 A 
ATOM     32  C   UNK d   0     -19.609 -12.601 -15.158  0.00  0.00     0.066 A 
BRANCH   8  33
ATOM     33  C   UNK d   0     -19.981 -12.120 -18.784  0.00  0.00     0.151 C 
BRANCH  33  34
ATOM     34  C   UNK d   0     -18.964 -12.786 -19.618  0.00  0.00     0.143 C 
ATOM     35  O   UNK d   0     -18.817 -14.016 -19.581  0.00  0.00    -0.650 OA
BRANCH  34  36
ATOM     36  O   UNK d   0     -18.168 -12.029 -20.446  0.00  0.00    -0.776 OA
ATOM     37  H   UNK d   0     -18.067 -12.257 -21.444  0.00  0.00     0.167 HD
ENDBRANCH  34  36
ENDBRANCH  33  34
ENDBRANCH   8  33
BRANCH  31  38
ATOM     38  C   UNK d   0     -19.158 -15.225 -11.865  0.00  0.00     0.151 C 
BRANCH  38  39
ATOM     39  C   UNK d   0     -20.286 -15.510 -11.004  0.00  0.00     0.143 C 
ATOM     40  O   UNK d   0     -20.388 -16.575 -10.371  0.00  0.00    -0.650 OA
BRANCH  39  41
ATOM     41  O   UNK d   0     -21.302 -14.564 -10.868  0.00  0.00    -0.776 OA
ATOM     42  H   UNK d   0     -21.193 -13.691 -11.395  0.00  0.00     0.167 HD
ENDBRANCH  39  41
ENDBRANCH  38  39
ENDBRANCH  31  38
BRANCH  27  43
ATOM     43  C   UNK d   0     -17.441 -13.960  -9.638  0.00  0.00     0.052 C 
BRANCH  43  44
ATOM     44  C   UNK d   0     -16.415 -14.988  -9.988  0.00  0.00     0.115 C 
BRANCH  44  45
ATOM     45  C   UNK d   0     -16.280 -15.875  -8.803  0.00  0.00     0.139 C 
ATOM     46  O   UNK d   0     -15.830 -17.034  -8.979  0.00  0.00    -0.650 OA
BRANCH  45  47
ATOM     47  O   UNK d   0     -16.621 -15.476  -7.529  0.00  0.00    -0.776 OA
ATOM     48  H   UNK d   0     -17.464 -15.820  -7.041  0.00  0.00     0.167 HD
ENDBRANCH  45  47
ENDBRANCH  44  45
ENDBRANCH  43  44
ENDBRANCH  27  43
BRANCH  24  49
ATOM     49  C   UNK d   0     -14.849  -9.172  -8.631  0.00  0.00     0.052 C 
BRANCH  49  50
ATOM     50  C   UNK d   0     -15.920  -8.385  -7.921  0.00  0.00     0.115 C 
BRANCH  50  51
ATOM     51  C   UNK d   0     -16.771  -9.112  -6.988  0.00  0.00     0.139 C 
ATOM     52  O   UNK d   0     -17.920  -9.510  -7.291  0.00  0.00    -0.650 OA
BRANCH  51  53
ATOM     53  O   UNK d   0     -16.311  -9.382  -5.708  0.00  0.00    -0.776 OA
ATOM     54  H   UNK d   0     -16.939  -9.237  -4.937  0.00  0.00     0.167 HD
ENDBRANCH  51  53
ENDBRANCH  50  51
ENDBRANCH  49  50
ENDBRANCH  24  49
BRANCH  21  55
ATOM     55  C   UNK d   0     -13.397  -7.526 -10.805  0.00  0.00     0.151 C 
BRANCH  55  56
ATOM     56  C   UNK d   0     -13.919  -6.165 -10.611  0.00  0.00     0.143 C 
ATOM     57  O   UNK d   0     -14.329  -5.459 -11.553  0.00  0.00    -0.650 OA
BRANCH  56  58
ATOM     58  O   UNK d   0     -13.950  -5.661  -9.312  0.00  0.00    -0.776 OA
ATOM     59  H   UNK d   0     -13.112  -5.873  -8.742  0.00  0.00     0.167 HD
ENDBRANCH  56  58
ENDBRANCH  55  56
ENDBRANCH  21  55
BRANCH  18  60
ATOM     60  C   UNK d   0     -15.444  -6.342 -15.624  0.00  0.00     0.151 C 
BRANCH  60  61
ATOM     61  C   UNK d   0     -16.372  -5.672 -14.700  0.00  0.00     0.143 C 
ATOM     62  O   UNK d   0     -17.574  -5.900 -14.561  0.00  0.00    -0.650 OA
BRANCH  61  63
ATOM     63  O   UNK d   0     -15.796  -4.660 -13.896  0.00  0.00    -0.776 OA
ATOM     64  H   UNK d   0     -16.237  -4.361 -13.043  0.00  0.00     0.167 HD
ENDBRANCH  61  63
ENDBRANCH  60  61
ENDBRANCH  18  60
BRANCH  14  65
ATOM     65  C   UNK d   0     -17.024  -7.617 -17.879  0.00  0.00     0.052 C 
BRANCH  65  66
ATOM     66  C   UNK d   0     -16.089  -7.823 -19.019  0.00  0.00     0.115 C 
BRANCH  66  67
ATOM     67  C   UNK d   0     -16.555  -8.470 -20.213  0.00  0.00     0.139 C 
ATOM     68  O   UNK d   0     -17.711  -9.034 -20.194  0.00  0.00    -0.650 OA
BRANCH  67  69
ATOM     69  O   UNK d   0     -15.898  -8.575 -21.438  0.00  0.00    -0.776 OA
ATOM     70  H   UNK d   0     -16.222  -9.332 -22.057  0.00  0.00     0.167 HD
ENDBRANCH  67  69
ENDBRANCH  66  67
ENDBRANCH  65  66
ENDBRANCH  14  65
ENDBRANCH   6   7
ENDBRANCH   5   6
ENDBRANCH   2   5
TORSDOF 28
ENDMDL
MODEL 16
REMARK VINA RESULT:      -8.5      3.812     10.074
REMARK  28 active torsions:
REMARK  status: ('A' for Active; 'I' for Inactive)
REMARK    1  A    between atoms: C_2  and  O_3 
REMARK    2  A    between atoms: C_2  and  C_4 
REMARK    3  A    between atoms: C_4  and  C_5 
REMARK    4  A    between atoms: C_5  and  C_6 
REMARK    5  A    between atoms: C_7  and  C_8 
REMARK    6  A    between atoms: C_8  and  C_9 
REMARK    7  A    between atoms: C_9  and  O_11 
REMARK    8  A    between atoms: C_28  and  C_29 
REMARK    9  A    between atoms: C_29  and  C_30 
REMARK   10  A    between atoms: C_30  and  O_32 
REMARK   11  A    between atoms: C_33  and  C_34 
REMARK   12  A    between atoms: C_34  and  C_35 
REMARK   13  A    between atoms: C_35  and  C_36 
REMARK   14  A    between atoms: C_36  and  O_38 
REMARK   15  A    between atoms: C_39  and  C_40 
REMARK   16  A    between atoms: C_40  and  C_41 
REMARK   17  A    between atoms: C_41  and  C_42 
REMARK   18  A    between atoms: C_42  and  O_44 
REMARK   19  A    between atoms: C_45  and  C_46 
REMARK   20  A    between atoms: C_46  and  C_47 
REMARK   21  A    between atoms: C_47  and  O_49 
REMARK   22  A    between atoms: C_50  and  C_51 
REMARK   23  A    between atoms: C_51  and  C_52 
REMARK   24  A    between atoms: C_52  and  O_54 
REMARK   25  A    between atoms: C_55  and  C_56 
REMARK   26  A    between atoms: C_56  and  C_57 
REMARK   27  A    between atoms: C_57  and  C_58 
REMARK   28  A    between atoms: C_58  and  O_60 
ROOT
ATOM      1  O   UNK d   0     -16.366  -4.208 -14.473  0.00  0.00    -0.650 OA
ATOM      2  C   UNK d   0     -15.167  -4.290 -14.821  0.00  0.00     0.139 C 
ENDROOT
BRANCH   2   3
ATOM      3  O   UNK d   0     -14.523  -3.170 -15.288  0.00  0.00    -0.776 OA
ATOM      4  H   UNK d   0     -13.535  -3.006 -15.085  0.00  0.00     0.167 HD
ENDBRANCH   2   3
BRANCH   2   5
ATOM      5  C   UNK d   0     -14.449  -5.592 -14.727  0.00  0.00     0.115 C 
BRANCH   5   6
ATOM      6  C   UNK d   0     -14.581  -6.351 -16.020  0.00  0.00     0.052 C 
BRANCH   6   7
ATOM      7  C   UNK d   0     -15.769  -7.284 -16.027  0.00  0.00    -0.020 A 
ATOM      8  C   UNK d   0     -16.706  -7.376 -16.936  0.00  0.00    -0.011 A 
ATOM      9  C   UNK d   0     -17.639  -8.405 -16.509  0.00  0.00     0.067 A 
ATOM     10  C   UNK d   0     -18.809  -8.987 -17.022  0.00  0.00     0.062 C 
ATOM     11  N   UNK d   0     -17.196  -8.882 -15.327  0.00  0.00    -0.248 NA
ATOM     12  C   UNK d   0     -19.423 -10.170 -16.598  0.00  0.00     0.041 A 
ATOM     13  N   UNK d   0     -19.659 -10.653 -15.363  0.00  0.00    -0.355 N 
ATOM     14  C   UNK d   0     -19.851 -11.100 -17.563  0.00  0.00    -0.022 A 
ATOM     15  C   UNK d   0     -20.218 -11.868 -15.520  0.00  0.00     0.042 A 
ATOM     16  H   UNK d   0     -19.452 -10.137 -14.399  0.00  0.00     0.166 HD
ATOM     17  C   UNK d   0     -20.661 -12.800 -14.561  0.00  0.00     0.062 C 
ATOM     18  C   UNK d   0     -20.354 -12.182 -16.886  0.00  0.00    -0.013 A 
ATOM     19  C   UNK d   0     -20.039 -13.215 -13.411  0.00  0.00     0.067 A 
ATOM     20  N   UNK d   0     -18.967 -12.522 -13.019  0.00  0.00    -0.248 NA
ATOM     21  C   UNK d   0     -20.235 -14.284 -12.445  0.00  0.00    -0.011 A 
ATOM     22  C   UNK d   0     -18.446 -13.061 -11.868  0.00  0.00     0.066 A 
ATOM     23  C   UNK d   0     -17.346 -12.413 -11.327  0.00  0.00     0.062 C 
ATOM     24  C   UNK d   0     -19.297 -14.190 -11.547  0.00  0.00    -0.020 A 
ATOM     25  C   UNK d   0     -16.752 -11.218 -11.761  0.00  0.00     0.041 A 
ATOM     26  N   UNK d   0     -16.504 -10.745 -12.988  0.00  0.00    -0.355 N 
ATOM     27  C   UNK d   0     -16.326 -10.284 -10.791  0.00  0.00    -0.022 A 
ATOM     28  C   UNK d   0     -15.938  -9.537 -12.834  0.00  0.00     0.042 A 
ATOM     29  H   UNK d   0     -16.703 -11.269 -13.955  0.00  0.00     0.166 HD
ATOM     30  C   UNK d   0     -15.485  -8.603 -13.779  0.00  0.00     0.062 C 
ATOM     31  C   UNK d   0     -15.811  -9.217 -11.462  0.00  0.00    -0.013 A 
ATOM     32  C   UNK d   0     -16.074  -8.249 -14.982  0.00  0.00     0.066 A 
BRANCH   8  33
ATOM     33  C   UNK d   0     -16.818  -6.585 -18.175  0.00  0.00     0.151 C 
BRANCH  33  34
ATOM     34  C   UNK d   0     -16.983  -5.143 -17.919  0.00  0.00     0.143 C 
ATOM     35  O   UNK d   0     -17.972  -4.714 -17.309  0.00  0.00    -0.650 OA
BRANCH  34  36
ATOM     36  O   UNK d   0     -16.024  -4.264 -18.366  0.00  0.00    -0.776 OA
ATOM     37  H   UNK d   0     -16.208  -3.253 -18.416  0.00  0.00     0.167 HD
ENDBRANCH  34  36
ENDBRANCH  33  34
ENDBRANCH   8  33
BRANCH  31  38
ATOM     38  C   UNK d   0     -15.243  -7.963 -10.839  0.00  0.00     0.151 C 
BRANCH  38  39
ATOM     39  C   UNK d   0     -13.836  -8.081 -10.521  0.00  0.00     0.143 C 
ATOM     40  O   UNK d   0     -13.004  -8.515 -11.337  0.00  0.00    -0.650 OA
BRANCH  39  41
ATOM     41  O   UNK d   0     -13.383  -7.697  -9.259  0.00  0.00    -0.776 OA
ATOM     42  H   UNK d   0     -13.011  -8.438  -8.657  0.00  0.00     0.167 HD
ENDBRANCH  39  41
ENDBRANCH  38  39
ENDBRANCH  31  38
BRANCH  27  43
ATOM     43  C   UNK d   0     -16.389 -10.368  -9.287  0.00  0.00     0.052 C 
BRANCH  43  44
ATOM     44  C   UNK d   0     -17.019  -9.171  -8.653  0.00  0.00     0.115 C 
BRANCH  44  45
ATOM     45  C   UNK d   0     -16.333  -8.969  -7.351  0.00  0.00     0.139 C 
ATOM     46  O   UNK d   0     -17.042  -8.859  -6.319  0.00  0.00    -0.650 OA
BRANCH  45  47
ATOM     47  O   UNK d   0     -14.962  -8.905  -7.230  0.00  0.00    -0.776 OA
ATOM     48  H   UNK d   0     -14.355  -8.484  -7.952  0.00  0.00     0.167 HD
ENDBRANCH  45  47
ENDBRANCH  44  45
ENDBRANCH  43  44
ENDBRANCH  27  43
BRANCH  24  49
ATOM     49  C   UNK d   0     -19.140 -15.052 -10.362  0.00  0.00     0.052 C 
BRANCH  49  50
ATOM     50  C   UNK d   0     -18.195 -16.188 -10.661  0.00  0.00     0.115 C 
BRANCH  50  51
ATOM     51  C   UNK d   0     -16.893 -16.159 -10.008  0.00  0.00     0.139 C 
ATOM     52  O   UNK d   0     -16.072 -17.102 -10.095  0.00  0.00    -0.650 OA
BRANCH  51  53
ATOM     53  O   UNK d   0     -16.528 -15.054  -9.254  0.00  0.00    -0.776 OA
ATOM     54  H   UNK d   0     -17.234 -14.372  -9.038  0.00  0.00     0.167 HD
ENDBRANCH  51  53
ENDBRANCH  50  51
ENDBRANCH  49  50
ENDBRANCH  24  49
BRANCH  21  55
ATOM     55  C   UNK d   0     -21.341 -15.284 -12.518  0.00  0.00     0.151 C 
BRANCH  55  56
ATOM     56  C   UNK d   0     -22.537 -14.838 -11.787  0.00  0.00     0.143 C 
ATOM     57  O   UNK d   0     -22.827 -15.256 -10.649  0.00  0.00    -0.650 OA
BRANCH  56  58
ATOM     58  O   UNK d   0     -23.368 -13.907 -12.408  0.00  0.00    -0.776 OA
ATOM     59  H   UNK d   0     -23.790 -14.225 -13.299  0.00  0.00     0.167 HD
ENDBRANCH  56  58
ENDBRANCH  55  56
ENDBRANCH  21  55
BRANCH  18  60
ATOM     60  C   UNK d   0     -20.918 -13.422 -17.535  0.00  0.00     0.151 C 
BRANCH  60  61
ATOM     61  C   UNK d   0     -19.813 -14.391 -17.582  0.00  0.00     0.143 C 
ATOM     62  O   UNK d   0     -18.622 -14.149 -17.777  0.00  0.00    -0.650 OA
BRANCH  61  63
ATOM     63  O   UNK d   0     -20.187 -15.742 -17.379  0.00  0.00    -0.776 OA
ATOM     64  H   UNK d   0     -19.530 -16.413 -17.022  0.00  0.00     0.167 HD
ENDBRANCH  61  63
ENDBRANCH  60  61
ENDBRANCH  18  60
BRANCH  14  65
ATOM     65  C   UNK d   0     -19.910 -11.001 -19.061  0.00  0.00     0.052 C 
BRANCH  65  66
ATOM     66  C   UNK d   0     -20.870  -9.970 -19.538  0.00  0.00     0.115 C 
BRANCH  66  67
ATOM     67  C   UNK d   0     -20.523  -9.137 -20.655  0.00  0.00     0.139 C 
ATOM     68  O   UNK d   0     -19.459  -8.419 -20.579  0.00  0.00    -0.650 OA
BRANCH  67  69
ATOM     69  O   UNK d   0     -21.211  -8.995 -21.860  0.00  0.00    -0.776 OA
ATOM     70  H   UNK d   0     -21.252  -9.835 -22.454  0.00  0.00     0.167 HD
ENDBRANCH  67  69
ENDBRANCH  66  67
ENDBRANCH  65  66
ENDBRANCH  14  65
ENDBRANCH   6   7
ENDBRANCH   5   6
ENDBRANCH   2   5
TORSDOF 28
ENDMDL
MODEL 17
REMARK VINA RESULT:      -8.5      4.175     12.023
REMARK  28 active torsions:
REMARK  status: ('A' for Active; 'I' for Inactive)
REMARK    1  A    between atoms: C_2  and  O_3 
REMARK    2  A    between atoms: C_2  and  C_4 
REMARK    3  A    between atoms: C_4  and  C_5 
REMARK    4  A    between atoms: C_5  and  C_6 
REMARK    5  A    between atoms: C_7  and  C_8 
REMARK    6  A    between atoms: C_8  and  C_9 
REMARK    7  A    between atoms: C_9  and  O_11 
REMARK    8  A    between atoms: C_28  and  C_29 
REMARK    9  A    between atoms: C_29  and  C_30 
REMARK   10  A    between atoms: C_30  and  O_32 
REMARK   11  A    between atoms: C_33  and  C_34 
REMARK   12  A    between atoms: C_34  and  C_35 
REMARK   13  A    between atoms: C_35  and  C_36 
REMARK   14  A    between atoms: C_36  and  O_38 
REMARK   15  A    between atoms: C_39  and  C_40 
REMARK   16  A    between atoms: C_40  and  C_41 
REMARK   17  A    between atoms: C_41  and  C_42 
REMARK   18  A    between atoms: C_42  and  O_44 
REMARK   19  A    between atoms: C_45  and  C_46 
REMARK   20  A    between atoms: C_46  and  C_47 
REMARK   21  A    between atoms: C_47  and  O_49 
REMARK   22  A    between atoms: C_50  and  C_51 
REMARK   23  A    between atoms: C_51  and  C_52 
REMARK   24  A    between atoms: C_52  and  O_54 
REMARK   25  A    between atoms: C_55  and  C_56 
REMARK   26  A    between atoms: C_56  and  C_57 
REMARK   27  A    between atoms: C_57  and  C_58 
REMARK   28  A    between atoms: C_58  and  O_60 
ROOT
ATOM      1  O   UNK d   0     -17.903  -6.232 -19.797  0.00  0.00    -0.650 OA
ATOM      2  C   UNK d   0     -17.232  -7.272 -19.615  0.00  0.00     0.139 C 
ENDROOT
BRANCH   2   3
ATOM      3  O   UNK d   0     -17.479  -8.378 -20.393  0.00  0.00    -0.776 OA
ATOM      4  H   UNK d   0     -17.555  -8.301 -21.409  0.00  0.00     0.167 HD
ENDBRANCH   2   3
BRANCH   2   5
ATOM      5  C   UNK d   0     -16.176  -7.307 -18.564  0.00  0.00     0.115 C 
BRANCH   5   6
ATOM      6  C   UNK d   0     -16.690  -6.687 -17.293  0.00  0.00     0.052 C 
BRANCH   6   7
ATOM      7  C   UNK d   0     -16.586  -7.619 -16.109  0.00  0.00    -0.020 A 
ATOM      8  C   UNK d   0     -15.786  -7.514 -15.079  0.00  0.00    -0.011 A 
ATOM      9  C   UNK d   0     -16.039  -8.645 -14.202  0.00  0.00     0.067 A 
ATOM     10  C   UNK d   0     -15.551  -9.098 -12.966  0.00  0.00     0.062 C 
ATOM     11  N   UNK d   0     -17.005  -9.391 -14.779  0.00  0.00    -0.248 NA
ATOM     12  C   UNK d   0     -16.118 -10.071 -12.136  0.00  0.00     0.041 A 
ATOM     13  N   UNK d   0     -16.667 -11.268 -12.420  0.00  0.00    -0.355 N 
ATOM     14  C   UNK d   0     -16.222  -9.813 -10.757  0.00  0.00    -0.022 A 
ATOM     15  C   UNK d   0     -17.123 -11.772 -11.258  0.00  0.00     0.042 A 
ATOM     16  H   UNK d   0     -16.714 -11.755 -13.419  0.00  0.00     0.166 HD
ATOM     17  C   UNK d   0     -17.778 -12.990 -10.985  0.00  0.00     0.062 C 
ATOM     18  C   UNK d   0     -16.862 -10.888 -10.193  0.00  0.00    -0.013 A 
ATOM     19  C   UNK d   0     -18.805 -13.589 -11.669  0.00  0.00     0.067 A 
ATOM     20  N   UNK d   0     -19.117 -13.076 -12.862  0.00  0.00    -0.248 NA
ATOM     21  C   UNK d   0     -19.717 -14.694 -11.426  0.00  0.00    -0.011 A 
ATOM     22  C   UNK d   0     -20.167 -13.766 -13.417  0.00  0.00     0.066 A 
ATOM     23  C   UNK d   0     -20.572 -13.361 -14.680  0.00  0.00     0.062 C 
ATOM     24  C   UNK d   0     -20.514 -14.790 -12.451  0.00  0.00    -0.020 A 
ATOM     25  C   UNK d   0     -19.980 -12.389 -15.502  0.00  0.00     0.041 A 
ATOM     26  N   UNK d   0     -19.449 -11.193 -15.223  0.00  0.00    -0.355 N 
ATOM     27  C   UNK d   0     -19.873 -12.651 -16.886  0.00  0.00    -0.022 A 
ATOM     28  C   UNK d   0     -19.001 -10.684 -16.381  0.00  0.00     0.042 A 
ATOM     29  H   UNK d   0     -19.412 -10.701 -14.220  0.00  0.00     0.166 HD
ATOM     30  C   UNK d   0     -18.356  -9.471 -16.669  0.00  0.00     0.062 C 
ATOM     31  C   UNK d   0     -19.254 -11.577 -17.449  0.00  0.00    -0.013 A 
ATOM     32  C   UNK d   0     -17.377  -8.827 -15.928  0.00  0.00     0.066 A 
BRANCH   8  33
ATOM     33  C   UNK d   0     -14.794  -6.451 -14.833  0.00  0.00     0.151 C 
BRANCH  33  34
ATOM     34  C   UNK d   0     -15.239  -5.478 -13.820  0.00  0.00     0.143 C 
ATOM     35  O   UNK d   0     -16.159  -4.683 -14.062  0.00  0.00    -0.650 OA
BRANCH  34  36
ATOM     36  O   UNK d   0     -14.623  -5.453 -12.590  0.00  0.00    -0.776 OA
ATOM     37  H   UNK d   0     -13.857  -6.101 -12.364  0.00  0.00     0.167 HD
ENDBRANCH  34  36
ENDBRANCH  33  34
ENDBRANCH   8  33
BRANCH  31  38
ATOM     38  C   UNK d   0     -18.910 -11.413 -18.911  0.00  0.00     0.151 C 
BRANCH  38  39
ATOM     39  C   UNK d   0     -17.536 -11.759 -19.208  0.00  0.00     0.143 C 
ATOM     40  O   UNK d   0     -17.014 -11.525 -20.312  0.00  0.00    -0.650 OA
BRANCH  39  41
ATOM     41  O   UNK d   0     -16.758 -12.377 -18.229  0.00  0.00    -0.776 OA
ATOM     42  H   UNK d   0     -16.827 -12.000 -17.279  0.00  0.00     0.167 HD
ENDBRANCH  39  41
ENDBRANCH  38  39
ENDBRANCH  31  38
BRANCH  27  43
ATOM     43  C   UNK d   0     -20.329 -13.854 -17.672  0.00  0.00     0.052 C 
BRANCH  43  44
ATOM     44  C   UNK d   0     -19.264 -14.889 -17.839  0.00  0.00     0.115 C 
BRANCH  44  45
ATOM     45  C   UNK d   0     -19.960 -16.188 -18.030  0.00  0.00     0.139 C 
ATOM     46  O   UNK d   0     -21.046 -16.371 -17.427  0.00  0.00    -0.650 OA
BRANCH  45  47
ATOM     47  O   UNK d   0     -19.468 -17.188 -18.840  0.00  0.00    -0.776 OA
ATOM     48  H   UNK d   0     -19.152 -18.101 -18.475  0.00  0.00     0.167 HD
ENDBRANCH  45  47
ENDBRANCH  44  45
ENDBRANCH  43  44
ENDBRANCH  27  43
BRANCH  24  49
ATOM     49  C   UNK d   0     -21.569 -15.800 -12.639  0.00  0.00     0.052 C 
BRANCH  49  50
ATOM     50  C   UNK d   0     -22.568 -15.732 -11.512  0.00  0.00     0.115 C 
BRANCH  50  51
ATOM     51  C   UNK d   0     -23.453 -14.575 -11.478  0.00  0.00     0.139 C 
ATOM     52  O   UNK d   0     -23.697 -13.880 -12.492  0.00  0.00    -0.650 OA
BRANCH  51  53
ATOM     53  O   UNK d   0     -24.058 -14.209 -10.285  0.00  0.00    -0.776 OA
ATOM     54  H   UNK d   0     -24.156 -14.907  -9.568  0.00  0.00     0.167 HD
ENDBRANCH  51  53
ENDBRANCH  50  51
ENDBRANCH  49  50
ENDBRANCH  24  49
BRANCH  21  55
ATOM     55  C   UNK d   0     -19.693 -15.542 -10.198  0.00  0.00     0.151 C 
BRANCH  55  56
ATOM     56  C   UNK d   0     -19.039 -16.838 -10.434  0.00  0.00     0.143 C 
ATOM     57  O   UNK d   0     -19.568 -17.926 -10.134  0.00  0.00    -0.650 OA
BRANCH  56  58
ATOM     58  O   UNK d   0     -17.774 -16.829 -11.020  0.00  0.00    -0.776 OA
ATOM     59  H   UNK d   0     -17.249 -15.943 -10.910  0.00  0.00     0.167 HD
ENDBRANCH  56  58
ENDBRANCH  55  56
ENDBRANCH  21  55
BRANCH  18  60
ATOM     60  C   UNK d   0     -17.190 -11.027  -8.727  0.00  0.00     0.151 C 
BRANCH  60  61
ATOM     61  C   UNK d   0     -16.091 -11.809  -8.139  0.00  0.00     0.143 C 
ATOM     62  O   UNK d   0     -16.030 -13.034  -8.027  0.00  0.00    -0.650 OA
BRANCH  61  63
ATOM     63  O   UNK d   0     -14.999 -11.047  -7.660  0.00  0.00    -0.776 OA
ATOM     64  H   UNK d   0     -14.202 -11.491  -7.240  0.00  0.00     0.167 HD
ENDBRANCH  61  63
ENDBRANCH  60  61
ENDBRANCH  18  60
BRANCH  14  65
ATOM     65  C   UNK d   0     -15.679  -8.685  -9.927  0.00  0.00     0.052 C 
BRANCH  65  66
ATOM     66  C   UNK d   0     -16.709  -7.669  -9.582  0.00  0.00     0.115 C 
BRANCH  66  67
ATOM     67  C   UNK d   0     -17.016  -6.621 -10.514  0.00  0.00     0.139 C 
ATOM     68  O   UNK d   0     -16.453  -5.476 -10.356  0.00  0.00    -0.650 OA
BRANCH  67  69
ATOM     69  O   UNK d   0     -17.875  -6.678 -11.611  0.00  0.00    -0.776 OA
ATOM     70  H   UNK d   0     -18.120  -5.772 -12.035  0.00  0.00     0.167 HD
ENDBRANCH  67  69
ENDBRANCH  66  67
ENDBRANCH  65  66
ENDBRANCH  14  65
ENDBRANCH   6   7
ENDBRANCH   5   6
ENDBRANCH   2   5
TORSDOF 28
ENDMDL
MODEL 18
REMARK VINA RESULT:      -8.5      3.390      7.096
REMARK  28 active torsions:
REMARK  status: ('A' for Active; 'I' for Inactive)
REMARK    1  A    between atoms: C_2  and  O_3 
REMARK    2  A    between atoms: C_2  and  C_4 
REMARK    3  A    between atoms: C_4  and  C_5 
REMARK    4  A    between atoms: C_5  and  C_6 
REMARK    5  A    between atoms: C_7  and  C_8 
REMARK    6  A    between atoms: C_8  and  C_9 
REMARK    7  A    between atoms: C_9  and  O_11 
REMARK    8  A    between atoms: C_28  and  C_29 
REMARK    9  A    between atoms: C_29  and  C_30 
REMARK   10  A    between atoms: C_30  and  O_32 
REMARK   11  A    between atoms: C_33  and  C_34 
REMARK   12  A    between atoms: C_34  and  C_35 
REMARK   13  A    between atoms: C_35  and  C_36 
REMARK   14  A    between atoms: C_36  and  O_38 
REMARK   15  A    between atoms: C_39  and  C_40 
REMARK   16  A    between atoms: C_40  and  C_41 
REMARK   17  A    between atoms: C_41  and  C_42 
REMARK   18  A    between atoms: C_42  and  O_44 
REMARK   19  A    between atoms: C_45  and  C_46 
REMARK   20  A    between atoms: C_46  and  C_47 
REMARK   21  A    between atoms: C_47  and  O_49 
REMARK   22  A    between atoms: C_50  and  C_51 
REMARK   23  A    between atoms: C_51  and  C_52 
REMARK   24  A    between atoms: C_52  and  O_54 
REMARK   25  A    between atoms: C_55  and  C_56 
REMARK   26  A    between atoms: C_56  and  C_57 
REMARK   27  A    between atoms: C_57  and  C_58 
REMARK   28  A    between atoms: C_58  and  O_60 
ROOT
ATOM      1  O   UNK d   0     -13.680  -6.904  -7.804  0.00  0.00    -0.650 OA
ATOM      2  C   UNK d   0     -13.226  -6.680  -8.948  0.00  0.00     0.139 C 
ENDROOT
BRANCH   2   3
ATOM      3  O   UNK d   0     -11.901  -6.937  -9.209  0.00  0.00    -0.776 OA
ATOM      4  H   UNK d   0     -11.363  -6.340  -9.841  0.00  0.00     0.167 HD
ENDBRANCH   2   3
BRANCH   2   5
ATOM      5  C   UNK d   0     -14.116  -6.139 -10.014  0.00  0.00     0.115 C 
BRANCH   5   6
ATOM      6  C   UNK d   0     -15.539  -6.558  -9.761  0.00  0.00     0.052 C 
BRANCH   6   7
ATOM      7  C   UNK d   0     -15.964  -7.722 -10.624  0.00  0.00    -0.020 A 
ATOM      8  C   UNK d   0     -16.052  -8.981 -10.279  0.00  0.00    -0.011 A 
ATOM      9  C   UNK d   0     -16.493  -9.731 -11.443  0.00  0.00     0.067 A 
ATOM     10  C   UNK d   0     -16.794 -11.072 -11.728  0.00  0.00     0.062 C 
ATOM     11  N   UNK d   0     -16.644  -8.851 -12.454  0.00  0.00    -0.248 NA
ATOM     12  C   UNK d   0     -17.477 -11.568 -12.844  0.00  0.00     0.041 A 
ATOM     13  N   UNK d   0     -17.389 -11.252 -14.150  0.00  0.00    -0.355 N 
ATOM     14  C   UNK d   0     -18.486 -12.529 -12.652  0.00  0.00    -0.022 A 
ATOM     15  C   UNK d   0     -18.321 -11.982 -14.791  0.00  0.00     0.042 A 
ATOM     16  H   UNK d   0     -16.668 -10.542 -14.613  0.00  0.00     0.166 HD
ATOM     17  C   UNK d   0     -18.655 -12.039 -16.159  0.00  0.00     0.062 C 
ATOM     18  C   UNK d   0     -19.030 -12.795 -13.885  0.00  0.00    -0.013 A 
ATOM     19  C   UNK d   0     -18.823 -11.010 -17.050  0.00  0.00     0.067 A 
ATOM     20  N   UNK d   0     -18.435  -9.796 -16.651  0.00  0.00    -0.248 NA
ATOM     21  C   UNK d   0     -19.355 -10.869 -18.394  0.00  0.00    -0.011 A 
ATOM     22  C   UNK d   0     -18.677  -8.871 -17.636  0.00  0.00     0.066 A 
ATOM     23  C   UNK d   0     -18.285  -7.568 -17.368  0.00  0.00     0.062 C 
ATOM     24  C   UNK d   0     -19.271  -9.614 -18.730  0.00  0.00    -0.020 A 
ATOM     25  C   UNK d   0     -17.589  -7.092 -16.246  0.00  0.00     0.041 A 
ATOM     26  N   UNK d   0     -17.686  -7.395 -14.946  0.00  0.00    -0.355 N 
ATOM     27  C   UNK d   0     -16.573  -6.131 -16.440  0.00  0.00    -0.022 A 
ATOM     28  C   UNK d   0     -16.763  -6.662 -14.304  0.00  0.00     0.042 A 
ATOM     29  H   UNK d   0     -18.418  -8.101 -14.482  0.00  0.00     0.166 HD
ATOM     30  C   UNK d   0     -16.426  -6.589 -12.943  0.00  0.00     0.062 C 
ATOM     31  C   UNK d   0     -16.045  -5.854 -15.217  0.00  0.00    -0.013 A 
ATOM     32  C   UNK d   0     -16.342  -7.624 -12.026  0.00  0.00     0.066 A 
BRANCH   8  33
ATOM     33  C   UNK d   0     -15.756  -9.558  -8.955  0.00  0.00     0.151 C 
BRANCH  33  34
ATOM     34  C   UNK d   0     -16.972  -9.862  -8.180  0.00  0.00     0.143 C 
ATOM     35  O   UNK d   0     -17.170 -10.998  -7.725  0.00  0.00    -0.650 OA
BRANCH  34  36
ATOM     36  O   UNK d   0     -17.899  -8.869  -7.961  0.00  0.00    -0.776 OA
ATOM     37  H   UNK d   0     -18.645  -8.980  -7.260  0.00  0.00     0.167 HD
ENDBRANCH  34  36
ENDBRANCH  33  34
ENDBRANCH   8  33
BRANCH  31  38
ATOM     38  C   UNK d   0     -14.917  -4.890 -14.930  0.00  0.00     0.151 C 
BRANCH  38  39
ATOM     39  C   UNK d   0     -15.373  -3.527 -14.760  0.00  0.00     0.143 C 
ATOM     40  O   UNK d   0     -16.573  -3.241 -14.603  0.00  0.00    -0.650 OA
BRANCH  39  41
ATOM     41  O   UNK d   0     -14.444  -2.487 -14.770  0.00  0.00    -0.776 OA
ATOM     42  H   UNK d   0     -13.726  -2.516 -15.501  0.00  0.00     0.167 HD
ENDBRANCH  39  41
ENDBRANCH  38  39
ENDBRANCH  31  38
BRANCH  27  43
ATOM     43  C   UNK d   0     -16.099  -5.481 -17.716  0.00  0.00     0.052 C 
BRANCH  43  44
ATOM     44  C   UNK d   0     -16.802  -4.198 -18.022  0.00  0.00     0.115 C 
BRANCH  44  45
ATOM     45  C   UNK d   0     -16.703  -3.999 -19.491  0.00  0.00     0.139 C 
ATOM     46  O   UNK d   0     -16.663  -2.822 -19.928  0.00  0.00    -0.650 OA
BRANCH  45  47
ATOM     47  O   UNK d   0     -16.648  -5.047 -20.385  0.00  0.00    -0.776 OA
ATOM     48  H   UNK d   0     -16.076  -5.020 -21.245  0.00  0.00     0.167 HD
ENDBRANCH  45  47
ENDBRANCH  44  45
ENDBRANCH  43  44
ENDBRANCH  27  43
BRANCH  24  49
ATOM     49  C   UNK d   0     -19.663  -9.033 -20.026  0.00  0.00     0.052 C 
BRANCH  49  50
ATOM     50  C   UNK d   0     -18.710  -7.933 -20.418  0.00  0.00     0.115 C 
BRANCH  50  51
ATOM     51  C   UNK d   0     -19.143  -7.021 -21.468  0.00  0.00     0.139 C 
ATOM     52  O   UNK d   0     -19.273  -5.788 -21.283  0.00  0.00    -0.650 OA
BRANCH  51  53
ATOM     53  O   UNK d   0     -19.430  -7.517 -22.731  0.00  0.00    -0.776 OA
ATOM     54  H   UNK d   0     -18.663  -7.719 -23.348  0.00  0.00     0.167 HD
ENDBRANCH  51  53
ENDBRANCH  50  51
ENDBRANCH  49  50
ENDBRANCH  24  49
BRANCH  21  55
ATOM     55  C   UNK d   0     -19.889 -12.003 -19.205  0.00  0.00     0.151 C 
BRANCH  55  56
ATOM     56  C   UNK d   0     -18.843 -12.635 -20.025  0.00  0.00     0.143 C 
ATOM     57  O   UNK d   0     -19.026 -13.698 -20.649  0.00  0.00    -0.650 OA
BRANCH  56  58
ATOM     58  O   UNK d   0     -17.603 -12.002 -20.095  0.00  0.00    -0.776 OA
ATOM     59  H   UNK d   0     -17.191 -11.954 -21.045  0.00  0.00     0.167 HD
ENDBRANCH  56  58
ENDBRANCH  55  56
ENDBRANCH  21  55
BRANCH  18  60
ATOM     60  C   UNK d   0     -20.155 -13.766 -14.142  0.00  0.00     0.151 C 
BRANCH  60  61
ATOM     61  C   UNK d   0     -21.397 -13.031 -13.856  0.00  0.00     0.143 C 
ATOM     62  O   UNK d   0     -21.668 -11.876 -14.186  0.00  0.00    -0.650 OA
BRANCH  61  63
ATOM     63  O   UNK d   0     -22.368 -13.752 -13.122  0.00  0.00    -0.776 OA
ATOM     64  H   UNK d   0     -23.219 -13.313 -12.817  0.00  0.00     0.167 HD
ENDBRANCH  61  63
ENDBRANCH  60  61
ENDBRANCH  18  60
BRANCH  14  65
ATOM     65  C   UNK d   0     -18.904 -13.280 -11.420  0.00  0.00     0.052 C 
BRANCH  65  66
ATOM     66  C   UNK d   0     -17.979 -14.393 -11.075  0.00  0.00     0.115 C 
BRANCH  66  67
ATOM     67  C   UNK d   0     -17.526 -14.548  -9.722  0.00  0.00     0.139 C 
ATOM     68  O   UNK d   0     -18.269 -14.104  -8.771  0.00  0.00    -0.650 OA
BRANCH  67  69
ATOM     69  O   UNK d   0     -16.342 -15.137  -9.281  0.00  0.00    -0.776 OA
ATOM     70  H   UNK d   0     -15.827 -15.688  -9.983  0.00  0.00     0.167 HD
ENDBRANCH  67  69
ENDBRANCH  66  67
ENDBRANCH  65  66
ENDBRANCH  14  65
ENDBRANCH   6   7
ENDBRANCH   5   6
ENDBRANCH   2   5
TORSDOF 28
ENDMDL
MODEL 19
REMARK VINA RESULT:      -8.4      3.583      7.542
REMARK  28 active torsions:
REMARK  status: ('A' for Active; 'I' for Inactive)
REMARK    1  A    between atoms: C_2  and  O_3 
REMARK    2  A    between atoms: C_2  and  C_4 
REMARK    3  A    between atoms: C_4  and  C_5 
REMARK    4  A    between atoms: C_5  and  C_6 
REMARK    5  A    between atoms: C_7  and  C_8 
REMARK    6  A    between atoms: C_8  and  C_9 
REMARK    7  A    between atoms: C_9  and  O_11 
REMARK    8  A    between atoms: C_28  and  C_29 
REMARK    9  A    between atoms: C_29  and  C_30 
REMARK   10  A    between atoms: C_30  and  O_32 
REMARK   11  A    between atoms: C_33  and  C_34 
REMARK   12  A    between atoms: C_34  and  C_35 
REMARK   13  A    between atoms: C_35  and  C_36 
REMARK   14  A    between atoms: C_36  and  O_38 
REMARK   15  A    between atoms: C_39  and  C_40 
REMARK   16  A    between atoms: C_40  and  C_41 
REMARK   17  A    between atoms: C_41  and  C_42 
REMARK   18  A    between atoms: C_42  and  O_44 
REMARK   19  A    between atoms: C_45  and  C_46 
REMARK   20  A    between atoms: C_46  and  C_47 
REMARK   21  A    between atoms: C_47  and  O_49 
REMARK   22  A    between atoms: C_50  and  C_51 
REMARK   23  A    between atoms: C_51  and  C_52 
REMARK   24  A    between atoms: C_52  and  O_54 
REMARK   25  A    between atoms: C_55  and  C_56 
REMARK   26  A    between atoms: C_56  and  C_57 
REMARK   27  A    between atoms: C_57  and  C_58 
REMARK   28  A    between atoms: C_58  and  O_60 
ROOT
ATOM      1  O   UNK d   0     -16.400  -4.725  -9.746  0.00  0.00    -0.650 OA
ATOM      2  C   UNK d   0     -15.240  -5.116 -10.003  0.00  0.00     0.139 C 
ENDROOT
BRANCH   2   3
ATOM      3  O   UNK d   0     -14.388  -4.289 -10.694  0.00  0.00    -0.776 OA
ATOM      4  H   UNK d   0     -13.944  -4.595 -11.562  0.00  0.00     0.167 HD
ENDBRANCH   2   3
BRANCH   2   5
ATOM      5  C   UNK d   0     -14.792  -6.468  -9.563  0.00  0.00     0.115 C 
BRANCH   5   6
ATOM      6  C   UNK d   0     -15.942  -7.222  -8.953  0.00  0.00     0.052 C 
BRANCH   6   7
ATOM      7  C   UNK d   0     -16.360  -8.413  -9.782  0.00  0.00    -0.020 A 
ATOM      8  C   UNK d   0     -16.295  -9.677  -9.452  0.00  0.00    -0.011 A 
ATOM      9  C   UNK d   0     -16.801 -10.455 -10.570  0.00  0.00     0.067 A 
ATOM     10  C   UNK d   0     -17.014 -11.816 -10.844  0.00  0.00     0.062 C 
ATOM     11  N   UNK d   0     -17.148  -9.584 -11.541  0.00  0.00    -0.248 NA
ATOM     12  C   UNK d   0     -17.776 -12.363 -11.882  0.00  0.00     0.041 A 
ATOM     13  N   UNK d   0     -17.870 -12.029 -13.183  0.00  0.00    -0.355 N 
ATOM     14  C   UNK d   0     -18.667 -13.412 -11.592  0.00  0.00    -0.022 A 
ATOM     15  C   UNK d   0     -18.803 -12.835 -13.724  0.00  0.00     0.042 A 
ATOM     16  H   UNK d   0     -17.275 -11.254 -13.713  0.00  0.00     0.166 HD
ATOM     17  C   UNK d   0     -19.289 -12.912 -15.045  0.00  0.00     0.062 C 
ATOM     18  C   UNK d   0     -19.326 -13.716 -12.757  0.00  0.00    -0.013 A 
ATOM     19  C   UNK d   0     -19.650 -11.895 -15.891  0.00  0.00     0.067 A 
ATOM     20  N   UNK d   0     -19.327 -10.654 -15.518  0.00  0.00    -0.248 NA
ATOM     21  C   UNK d   0     -20.347 -11.792 -17.163  0.00  0.00    -0.011 A 
ATOM     22  C   UNK d   0     -19.764  -9.747 -16.452  0.00  0.00     0.066 A 
ATOM     23  C   UNK d   0     -19.461  -8.415 -16.207  0.00  0.00     0.062 C 
ATOM     24  C   UNK d   0     -20.414 -10.531 -17.483  0.00  0.00    -0.020 A 
ATOM     25  C   UNK d   0     -18.682  -7.888 -15.165  0.00  0.00     0.041 A 
ATOM     26  N   UNK d   0     -18.600  -8.209 -13.868  0.00  0.00    -0.355 N 
ATOM     27  C   UNK d   0     -17.785  -6.838 -15.458  0.00  0.00    -0.022 A 
ATOM     28  C   UNK d   0     -17.676  -7.401 -13.324  0.00  0.00     0.042 A 
ATOM     29  H   UNK d   0     -19.206  -8.982 -13.335  0.00  0.00     0.166 HD
ATOM     30  C   UNK d   0     -17.190  -7.308 -12.011  0.00  0.00     0.062 C 
ATOM     31  C   UNK d   0     -17.144  -6.524 -14.299  0.00  0.00    -0.013 A 
ATOM     32  C   UNK d   0     -16.907  -8.338 -11.129  0.00  0.00     0.066 A 
BRANCH   8  33
ATOM     33  C   UNK d   0     -15.796 -10.236  -8.182  0.00  0.00     0.151 C 
BRANCH  33  34
ATOM     34  C   UNK d   0     -16.835 -10.962  -7.430  0.00  0.00     0.143 C 
ATOM     35  O   UNK d   0     -17.932 -10.437  -7.192  0.00  0.00    -0.650 OA
BRANCH  34  36
ATOM     36  O   UNK d   0     -16.580 -12.239  -6.987  0.00  0.00    -0.776 OA
ATOM     37  H   UNK d   0     -16.738 -13.056  -7.593  0.00  0.00     0.167 HD
ENDBRANCH  34  36
ENDBRANCH  33  34
ENDBRANCH   8  33
BRANCH  31  38
ATOM     38  C   UNK d   0     -16.081  -5.465 -14.127  0.00  0.00     0.151 C 
BRANCH  38  39
ATOM     39  C   UNK d   0     -14.758  -5.934 -14.483  0.00  0.00     0.143 C 
ATOM     40  O   UNK d   0     -14.376  -7.092 -14.241  0.00  0.00    -0.650 OA
BRANCH  39  41
ATOM     41  O   UNK d   0     -13.871  -5.067 -15.120  0.00  0.00    -0.776 OA
ATOM     42  H   UNK d   0     -14.244  -4.518 -15.901  0.00  0.00     0.167 HD
ENDBRANCH  39  41
ENDBRANCH  38  39
ENDBRANCH  31  38
BRANCH  27  43
ATOM     43  C   UNK d   0     -17.524  -6.138 -16.768  0.00  0.00     0.052 C 
BRANCH  43  44
ATOM     44  C   UNK d   0     -16.462  -6.795 -17.588  0.00  0.00     0.115 C 
BRANCH  44  45
ATOM     45  C   UNK d   0     -17.061  -7.064 -18.921  0.00  0.00     0.139 C 
ATOM     46  O   UNK d   0     -16.789  -8.154 -19.483  0.00  0.00    -0.650 OA
BRANCH  45  47
ATOM     47  O   UNK d   0     -17.900  -6.175 -19.557  0.00  0.00    -0.776 OA
ATOM     48  H   UNK d   0     -18.203  -6.293 -20.537  0.00  0.00     0.167 HD
ENDBRANCH  45  47
ENDBRANCH  44  45
ENDBRANCH  43  44
ENDBRANCH  27  43
BRANCH  24  49
ATOM     49  C   UNK d   0     -21.005  -9.979 -18.714  0.00  0.00     0.052 C 
BRANCH  49  50
ATOM     50  C   UNK d   0     -19.942  -9.783 -19.764  0.00  0.00     0.115 C 
BRANCH  50  51
ATOM     51  C   UNK d   0     -20.286  -8.956 -20.912  0.00  0.00     0.139 C 
ATOM     52  O   UNK d   0     -19.733  -7.855 -21.143  0.00  0.00    -0.650 OA
BRANCH  51  53
ATOM     53  O   UNK d   0     -21.264  -9.383 -21.798  0.00  0.00    -0.776 OA
ATOM     54  H   UNK d   0     -22.223  -9.171 -21.585  0.00  0.00     0.167 HD
ENDBRANCH  51  53
ENDBRANCH  50  51
ENDBRANCH  49  50
ENDBRANCH  24  49
BRANCH  21  55
ATOM     55  C   UNK d   0     -20.869 -12.963 -17.926  0.00  0.00     0.151 C 
BRANCH  55  56
ATOM     56  C   UNK d   0     -19.824 -13.600 -18.742  0.00  0.00     0.143 C 
ATOM     57  O   UNK d   0     -18.687 -13.109 -18.885  0.00  0.00    -0.650 OA
BRANCH  56  58
ATOM     58  O   UNK d   0     -20.136 -14.802 -19.375  0.00  0.00    -0.776 OA
ATOM     59  H   UNK d   0     -20.165 -14.756 -20.409  0.00  0.00     0.167 HD
ENDBRANCH  56  58
ENDBRANCH  55  56
ENDBRANCH  21  55
BRANCH  18  60
ATOM     60  C   UNK d   0     -20.383 -14.782 -12.900  0.00  0.00     0.151 C 
BRANCH  60  61
ATOM     61  C   UNK d   0     -21.646 -14.159 -12.476  0.00  0.00     0.143 C 
ATOM     62  O   UNK d   0     -22.224 -14.311 -11.400  0.00  0.00    -0.650 OA
BRANCH  61  63
ATOM     63  O   UNK d   0     -22.239 -13.294 -13.427  0.00  0.00    -0.776 OA
ATOM     64  H   UNK d   0     -22.255 -12.299 -13.285  0.00  0.00     0.167 HD
ENDBRANCH  61  63
ENDBRANCH  60  61
ENDBRANCH  18  60
BRANCH  14  65
ATOM     65  C   UNK d   0     -18.869 -14.207 -10.333  0.00  0.00     0.052 C 
BRANCH  65  66
ATOM     66  C   UNK d   0     -18.031 -15.435 -10.279  0.00  0.00     0.115 C 
BRANCH  66  67
ATOM     67  C   UNK d   0     -16.805 -15.427  -9.531  0.00  0.00     0.139 C 
ATOM     68  O   UNK d   0     -16.643 -14.526  -8.628  0.00  0.00    -0.650 OA
BRANCH  67  69
ATOM     69  O   UNK d   0     -15.723 -16.297  -9.657  0.00  0.00    -0.776 OA
ATOM     70  H   UNK d   0     -14.793 -15.879  -9.514  0.00  0.00     0.167 HD
ENDBRANCH  67  69
ENDBRANCH  66  67
ENDBRANCH  65  66
ENDBRANCH  14  65
ENDBRANCH   6   7
ENDBRANCH   5   6
ENDBRANCH   2   5
TORSDOF 28
ENDMDL
MODEL 20
REMARK VINA RESULT:      -8.4      3.506     11.595
REMARK  28 active torsions:
REMARK  status: ('A' for Active; 'I' for Inactive)
REMARK    1  A    between atoms: C_2  and  O_3 
REMARK    2  A    between atoms: C_2  and  C_4 
REMARK    3  A    between atoms: C_4  and  C_5 
REMARK    4  A    between atoms: C_5  and  C_6 
REMARK    5  A    between atoms: C_7  and  C_8 
REMARK    6  A    between atoms: C_8  and  C_9 
REMARK    7  A    between atoms: C_9  and  O_11 
REMARK    8  A    between atoms: C_28  and  C_29 
REMARK    9  A    between atoms: C_29  and  C_30 
REMARK   10  A    between atoms: C_30  and  O_32 
REMARK   11  A    between atoms: C_33  and  C_34 
REMARK   12  A    between atoms: C_34  and  C_35 
REMARK   13  A    between atoms: C_35  and  C_36 
REMARK   14  A    between atoms: C_36  and  O_38 
REMARK   15  A    between atoms: C_39  and  C_40 
REMARK   16  A    between atoms: C_40  and  C_41 
REMARK   17  A    between atoms: C_41  and  C_42 
REMARK   18  A    between atoms: C_42  and  O_44 
REMARK   19  A    between atoms: C_45  and  C_46 
REMARK   20  A    between atoms: C_46  and  C_47 
REMARK   21  A    between atoms: C_47  and  O_49 
REMARK   22  A    between atoms: C_50  and  C_51 
REMARK   23  A    between atoms: C_51  and  C_52 
REMARK   24  A    between atoms: C_52  and  O_54 
REMARK   25  A    between atoms: C_55  and  C_56 
REMARK   26  A    between atoms: C_56  and  C_57 
REMARK   27  A    between atoms: C_57  and  C_58 
REMARK   28  A    between atoms: C_58  and  O_60 
ROOT
ATOM      1  O   UNK d   0     -16.675  -3.315 -16.584  0.00  0.00    -0.650 OA
ATOM      2  C   UNK d   0     -17.232  -4.091 -17.392  0.00  0.00     0.139 C 
ENDROOT
BRANCH   2   3
ATOM      3  O   UNK d   0     -17.582  -3.628 -18.638  0.00  0.00    -0.776 OA
ATOM      4  H   UNK d   0     -18.176  -4.182 -19.258  0.00  0.00     0.167 HD
ENDBRANCH   2   3
BRANCH   2   5
ATOM      5  C   UNK d   0     -17.511  -5.502 -17.003  0.00  0.00     0.115 C 
BRANCH   5   6
ATOM      6  C   UNK d   0     -18.274  -5.540 -15.707  0.00  0.00     0.052 C 
BRANCH   6   7
ATOM      7  C   UNK d   0     -17.772  -6.611 -14.768  0.00  0.00    -0.020 A 
ATOM      8  C   UNK d   0     -16.726  -6.558 -13.983  0.00  0.00    -0.011 A 
ATOM      9  C   UNK d   0     -16.636  -7.824 -13.276  0.00  0.00     0.067 A 
ATOM     10  C   UNK d   0     -15.788  -8.385 -12.308  0.00  0.00     0.062 C 
ATOM     11  N   UNK d   0     -17.664  -8.592 -13.696  0.00  0.00    -0.248 NA
ATOM     12  C   UNK d   0     -16.024  -9.528 -11.536  0.00  0.00     0.041 A 
ATOM     13  N   UNK d   0     -16.535 -10.730 -11.864  0.00  0.00    -0.355 N 
ATOM     14  C   UNK d   0     -15.757  -9.483 -10.155  0.00  0.00    -0.022 A 
ATOM     15  C   UNK d   0     -16.608 -11.445 -10.726  0.00  0.00     0.042 A 
ATOM     16  H   UNK d   0     -16.822 -11.072 -12.883  0.00  0.00     0.166 HD
ATOM     17  C   UNK d   0     -17.064 -12.759 -10.501  0.00  0.00     0.062 C 
ATOM     18  C   UNK d   0     -16.129 -10.697  -9.633  0.00  0.00    -0.013 A 
ATOM     19  C   UNK d   0     -18.192 -13.375 -10.981  0.00  0.00     0.067 A 
ATOM     20  N   UNK d   0     -18.863 -12.740 -11.945  0.00  0.00    -0.248 NA
ATOM     21  C   UNK d   0     -18.911 -14.606 -10.698  0.00  0.00    -0.011 A 
ATOM     22  C   UNK d   0     -19.970 -13.465 -12.312  0.00  0.00     0.066 A 
ATOM     23  C   UNK d   0     -20.742 -12.937 -13.336  0.00  0.00     0.062 C 
ATOM     24  C   UNK d   0     -19.953 -14.651 -11.477  0.00  0.00    -0.020 A 
ATOM     25  C   UNK d   0     -20.481 -11.794 -14.108  0.00  0.00     0.041 A 
ATOM     26  N   UNK d   0     -19.987 -10.595 -13.779  0.00  0.00    -0.355 N 
ATOM     27  C   UNK d   0     -20.745 -11.841 -15.494  0.00  0.00    -0.022 A 
ATOM     28  C   UNK d   0     -19.922  -9.876 -14.911  0.00  0.00     0.042 A 
ATOM     29  H   UNK d   0     -19.710 -10.249 -12.753  0.00  0.00     0.166 HD
ATOM     30  C   UNK d   0     -19.479  -8.565 -15.148  0.00  0.00     0.062 C 
ATOM     31  C   UNK d   0     -20.393 -10.632 -16.010  0.00  0.00    -0.013 A 
ATOM     32  C   UNK d   0     -18.385  -7.919 -14.594  0.00  0.00     0.066 A 
BRANCH   8  33
ATOM     33  C   UNK d   0     -15.790  -5.428 -13.831  0.00  0.00     0.151 C 
BRANCH  33  34
ATOM     34  C   UNK d   0     -14.677  -5.476 -14.796  0.00  0.00     0.143 C 
ATOM     35  O   UNK d   0     -14.228  -6.560 -15.197  0.00  0.00    -0.650 OA
BRANCH  34  36
ATOM     36  O   UNK d   0     -14.130  -4.300 -15.255  0.00  0.00    -0.776 OA
ATOM     37  H   UNK d   0     -14.691  -3.441 -15.323  0.00  0.00     0.167 HD
ENDBRANCH  34  36
ENDBRANCH  33  34
ENDBRANCH   8  33
BRANCH  31  38
ATOM     38  C   UNK d   0     -20.485 -10.221 -17.461  0.00  0.00     0.151 C 
BRANCH  38  39
ATOM     39  C   UNK d   0     -21.807  -9.761 -17.832  0.00  0.00     0.143 C 
ATOM     40  O   UNK d   0     -22.210  -9.772 -19.008  0.00  0.00    -0.650 OA
BRANCH  39  41
ATOM     41  O   UNK d   0     -22.669  -9.286 -16.844  0.00  0.00    -0.776 OA
ATOM     42  H   UNK d   0     -22.441  -9.529 -15.876  0.00  0.00     0.167 HD
ENDBRANCH  39  41
ENDBRANCH  38  39
ENDBRANCH  31  38
BRANCH  27  43
ATOM     43  C   UNK d   0     -21.308 -12.968 -16.325  0.00  0.00     0.052 C 
BRANCH  43  44
ATOM     44  C   UNK d   0     -20.379 -14.132 -16.449  0.00  0.00     0.115 C 
BRANCH  44  45
ATOM     45  C   UNK d   0     -19.866 -14.119 -17.843  0.00  0.00     0.139 C 
ATOM     46  O   UNK d   0     -18.927 -13.332 -18.121  0.00  0.00    -0.650 OA
BRANCH  45  47
ATOM     47  O   UNK d   0     -20.372 -14.933 -18.833  0.00  0.00    -0.776 OA
ATOM     48  H   UNK d   0     -19.812 -15.246 -19.642  0.00  0.00     0.167 HD
ENDBRANCH  45  47
ENDBRANCH  44  45
ENDBRANCH  43  44
ENDBRANCH  27  43
BRANCH  24  49
ATOM     49  C   UNK d   0     -20.937 -15.744 -11.549  0.00  0.00     0.052 C 
BRANCH  49  50
ATOM     50  C   UNK d   0     -22.281 -15.213 -11.977  0.00  0.00     0.115 C 
BRANCH  50  51
ATOM     51  C   UNK d   0     -23.158 -14.703 -10.931  0.00  0.00     0.139 C 
ATOM     52  O   UNK d   0     -24.116 -13.929 -11.170  0.00  0.00    -0.650 OA
BRANCH  51  53
ATOM     53  O   UNK d   0     -22.942 -15.073  -9.613  0.00  0.00    -0.776 OA
ATOM     54  H   UNK d   0     -22.292 -14.534  -9.068  0.00  0.00     0.167 HD
ENDBRANCH  51  53
ENDBRANCH  50  51
ENDBRANCH  49  50
ENDBRANCH  24  49
BRANCH  21  55
ATOM     55  C   UNK d   0     -18.480 -15.610  -9.681  0.00  0.00     0.151 C 
BRANCH  55  56
ATOM     56  C   UNK d   0     -17.316 -16.388 -10.134  0.00  0.00     0.143 C 
ATOM     57  O   UNK d   0     -17.409 -17.335 -10.939  0.00  0.00    -0.650 OA
BRANCH  56  58
ATOM     58  O   UNK d   0     -16.065 -16.036  -9.630  0.00  0.00    -0.776 OA
ATOM     59  H   UNK d   0     -15.471 -15.489 -10.280  0.00  0.00     0.167 HD
ENDBRANCH  56  58
ENDBRANCH  55  56
ENDBRANCH  21  55
BRANCH  18  60
ATOM     60  C   UNK d   0     -16.023 -11.081  -8.178  0.00  0.00     0.151 C 
BRANCH  60  61
ATOM     61  C   UNK d   0     -17.312 -10.719  -7.569  0.00  0.00     0.143 C 
ATOM     62  O   UNK d   0     -17.919  -9.655  -7.695  0.00  0.00    -0.650 OA
BRANCH  61  63
ATOM     63  O   UNK d   0     -17.896 -11.720  -6.757  0.00  0.00    -0.776 OA
ATOM     64  H   UNK d   0     -18.461 -12.449  -7.157  0.00  0.00     0.167 HD
ENDBRANCH  61  63
ENDBRANCH  60  61
ENDBRANCH  18  60
BRANCH  14  65
ATOM     65  C   UNK d   0     -15.093  -8.427  -9.318  0.00  0.00     0.052 C 
BRANCH  65  66
ATOM     66  C   UNK d   0     -16.012  -7.318  -8.945  0.00  0.00     0.115 C 
BRANCH  66  67
ATOM     67  C   UNK d   0     -15.722  -5.979  -9.374  0.00  0.00     0.139 C 
ATOM     68  O   UNK d   0     -14.764  -5.343  -8.798  0.00  0.00    -0.650 OA
BRANCH  67  69
ATOM     69  O   UNK d   0     -16.364  -5.244 -10.371  0.00  0.00    -0.776 OA
ATOM     70  H   UNK d   0     -15.769  -4.591 -10.900  0.00  0.00     0.167 HD
ENDBRANCH  67  69
ENDBRANCH  66  67
ENDBRANCH  65  66
ENDBRANCH  14  65
ENDBRANCH   6   7
ENDBRANCH   5   6
ENDBRANCH   2   5
TORSDOF 28
ENDMDL
