MODEL 1
REMARK VINA RESULT:     -10.3      0.000      0.000
REMARK  28 active torsions:
REMARK  status: ('A' for Active; 'I' for Inactive)
REMARK    1  A    between atoms: C_2  and  O_3 
REMARK    2  A    between atoms: C_2  and  C_4 
REMARK    3  A    between atoms: C_4  and  C_5 
REMARK    4  A    between atoms: C_5  and  C_6 
REMARK    5  A    between atoms: C_7  and  C_8 
REMARK    6  A    between atoms: C_8  and  C_9 
REMARK    7  A    between atoms: C_9  and  O_11 
REMARK    8  A    between atoms: C_28  and  C_29 
REMARK    9  A    between atoms: C_29  and  C_30 
REMARK   10  A    between atoms: C_30  and  O_32 
REMARK   11  A    between atoms: C_33  and  C_34 
REMARK   12  A    between atoms: C_34  and  C_35 
REMARK   13  A    between atoms: C_35  and  C_36 
REMARK   14  A    between atoms: C_36  and  O_38 
REMARK   15  A    between atoms: C_39  and  C_40 
REMARK   16  A    between atoms: C_40  and  C_41 
REMARK   17  A    between atoms: C_41  and  C_42 
REMARK   18  A    between atoms: C_42  and  O_44 
REMARK   19  A    between atoms: C_45  and  C_46 
REMARK   20  A    between atoms: C_46  and  C_47 
REMARK   21  A    between atoms: C_47  and  O_49 
REMARK   22  A    between atoms: C_50  and  C_51 
REMARK   23  A    between atoms: C_51  and  C_52 
REMARK   24  A    between atoms: C_52  and  O_54 
REMARK   25  A    between atoms: C_55  and  C_56 
REMARK   26  A    between atoms: C_56  and  C_57 
REMARK   27  A    between atoms: C_57  and  C_58 
REMARK   28  A    between atoms: C_58  and  O_60 
ROOT
ATOM      1  O   UNK d   0      37.791  -3.487  47.487  0.00  0.00    -0.650 OA
ATOM      2  C   UNK d   0      37.953  -2.292  47.152  0.00  0.00     0.139 C 
ENDROOT
BRANCH   2   3
ATOM      3  O   UNK d   0      39.102  -1.927  46.493  0.00  0.00    -0.776 OA
ATOM      4  H   UNK d   0      39.390  -0.948  46.439  0.00  0.00     0.167 HD
ENDBRANCH   2   3
BRANCH   2   5
ATOM      5  C   UNK d   0      36.906  -1.279  47.466  0.00  0.00     0.115 C 
BRANCH   5   6
ATOM      6  C   UNK d   0      35.550  -1.930  47.504  0.00  0.00     0.052 C 
BRANCH   6   7
ATOM      7  C   UNK d   0      34.789  -1.764  46.211  0.00  0.00    -0.020 A 
ATOM      8  C   UNK d   0      34.162  -0.698  45.785  0.00  0.00    -0.011 A 
ATOM      9  C   UNK d   0      33.572  -1.014  44.495  0.00  0.00     0.067 A 
ATOM     10  C   UNK d   0      32.815  -0.329  43.532  0.00  0.00     0.062 C 
ATOM     11  N   UNK d   0      33.885  -2.297  44.215  0.00  0.00    -0.248 NA
ATOM     12  C   UNK d   0      32.570  -0.720  42.211  0.00  0.00     0.041 A 
ATOM     13  N   UNK d   0      32.254  -1.919  41.685  0.00  0.00    -0.355 N 
ATOM     14  C   UNK d   0      32.709   0.231  41.183  0.00  0.00    -0.022 A 
ATOM     15  C   UNK d   0      32.197  -1.755  40.350  0.00  0.00     0.042 A 
ATOM     16  H   UNK d   0      32.057  -2.857  42.248  0.00  0.00     0.166 HD
ATOM     17  C   UNK d   0      31.907  -2.681  39.328  0.00  0.00     0.062 C 
ATOM     18  C   UNK d   0      32.476  -0.421  39.997  0.00  0.00    -0.013 A 
ATOM     19  C   UNK d   0      32.368  -3.963  39.170  0.00  0.00     0.067 A 
ATOM     20  N   UNK d   0      33.024  -4.502  40.201  0.00  0.00    -0.248 NA
ATOM     21  C   UNK d   0      32.350  -4.956  38.109  0.00  0.00    -0.011 A 
ATOM     22  C   UNK d   0      33.437  -5.774  39.891  0.00  0.00     0.066 A 
ATOM     23  C   UNK d   0      34.101  -6.468  40.892  0.00  0.00     0.062 C 
ATOM     24  C   UNK d   0      32.980  -6.012  38.536  0.00  0.00    -0.020 A 
ATOM     25  C   UNK d   0      34.325  -6.062  42.216  0.00  0.00     0.041 A 
ATOM     26  N   UNK d   0      34.654  -4.874  42.737  0.00  0.00    -0.355 N 
ATOM     27  C   UNK d   0      34.182  -7.016  43.248  0.00  0.00    -0.022 A 
ATOM     28  C   UNK d   0      34.721  -5.036  44.068  0.00  0.00     0.042 A 
ATOM     29  H   UNK d   0      34.862  -3.934  42.169  0.00  0.00     0.166 HD
ATOM     30  C   UNK d   0      35.017  -4.126  45.095  0.00  0.00     0.062 C 
ATOM     31  C   UNK d   0      34.430  -6.375  44.423  0.00  0.00    -0.013 A 
ATOM     32  C   UNK d   0      34.617  -2.804  45.208  0.00  0.00     0.066 A 
BRANCH   8  33
ATOM     33  C   UNK d   0      34.054   0.601  46.475  0.00  0.00     0.151 C 
BRANCH  33  34
ATOM     34  C   UNK d   0      33.491   1.658  45.617  0.00  0.00     0.143 C 
ATOM     35  O   UNK d   0      34.227   2.377  44.926  0.00  0.00    -0.650 OA
BRANCH  34  36
ATOM     36  O   UNK d   0      32.129   1.849  45.586  0.00  0.00    -0.776 OA
ATOM     37  H   UNK d   0      31.585   1.680  44.729  0.00  0.00     0.167 HD
ENDBRANCH  34  36
ENDBRANCH  33  34
ENDBRANCH   8  33
BRANCH  31  38
ATOM     38  C   UNK d   0      34.381  -6.991  45.801  0.00  0.00     0.151 C 
BRANCH  38  39
ATOM     39  C   UNK d   0      33.116  -6.770  46.471  0.00  0.00     0.143 C 
ATOM     40  O   UNK d   0      32.077  -6.484  45.851  0.00  0.00    -0.650 OA
BRANCH  39  41
ATOM     41  O   UNK d   0      33.046  -6.880  47.859  0.00  0.00    -0.776 OA
ATOM     42  H   UNK d   0      33.323  -6.056  48.402  0.00  0.00     0.167 HD
ENDBRANCH  39  41
ENDBRANCH  38  39
ENDBRANCH  31  38
BRANCH  27  43
ATOM     43  C   UNK d   0      33.829  -8.479  43.158  0.00  0.00     0.052 C 
BRANCH  43  44
ATOM     44  C   UNK d   0      32.374  -8.750  43.370  0.00  0.00     0.115 C 
BRANCH  44  45
ATOM     45  C   UNK d   0      32.231 -10.224  43.494  0.00  0.00     0.139 C 
ATOM     46  O   UNK d   0      33.063 -10.842  44.203  0.00  0.00    -0.650 OA
BRANCH  45  47
ATOM     47  O   UNK d   0      31.226 -10.932  42.870  0.00  0.00    -0.776 OA
ATOM     48  H   UNK d   0      30.277 -11.024  43.266  0.00  0.00     0.167 HD
ENDBRANCH  45  47
ENDBRANCH  44  45
ENDBRANCH  43  44
ENDBRANCH  27  43
BRANCH  24  49
ATOM     49  C   UNK d   0      33.164  -7.272  37.795  0.00  0.00     0.052 C 
BRANCH  49  50
ATOM     50  C   UNK d   0      34.631  -7.539  37.570  0.00  0.00     0.115 C 
BRANCH  50  51
ATOM     51  C   UNK d   0      35.336  -6.650  36.657  0.00  0.00     0.139 C 
ATOM     52  O   UNK d   0      36.572  -6.455  36.722  0.00  0.00    -0.650 OA
BRANCH  51  53
ATOM     53  O   UNK d   0      34.629  -5.979  35.670  0.00  0.00    -0.776 OA
ATOM     54  H   UNK d   0      34.071  -5.188  35.939  0.00  0.00     0.167 HD
ENDBRANCH  51  53
ENDBRANCH  50  51
ENDBRANCH  49  50
ENDBRANCH  24  49
BRANCH  21  55
ATOM     55  C   UNK d   0      31.700  -4.748  36.781  0.00  0.00     0.151 C 
BRANCH  55  56
ATOM     56  C   UNK d   0      30.259  -5.042  36.819  0.00  0.00     0.143 C 
ATOM     57  O   UNK d   0      29.794  -6.171  36.568  0.00  0.00    -0.650 OA
BRANCH  56  58
ATOM     58  O   UNK d   0      29.393  -4.003  37.154  0.00  0.00    -0.776 OA
ATOM     59  H   UNK d   0      29.331  -3.796  38.167  0.00  0.00     0.167 HD
ENDBRANCH  56  58
ENDBRANCH  55  56
ENDBRANCH  21  55
BRANCH  18  60
ATOM     60  C   UNK d   0      32.529   0.221  38.633  0.00  0.00     0.151 C 
BRANCH  60  61
ATOM     61  C   UNK d   0      31.129   0.405  38.219  0.00  0.00     0.143 C 
ATOM     62  O   UNK d   0      30.474  -0.325  37.474  0.00  0.00    -0.650 OA
BRANCH  61  63
ATOM     63  O   UNK d   0      30.490   1.552  38.747  0.00  0.00    -0.776 OA
ATOM     64  H   UNK d   0      29.579   1.491  39.166  0.00  0.00     0.167 HD
ENDBRANCH  61  63
ENDBRANCH  60  61
ENDBRANCH  18  60
BRANCH  14  65
ATOM     65  C   UNK d   0      32.944   1.713  41.243  0.00  0.00     0.052 C 
BRANCH  65  66
ATOM     66  C   UNK d   0      31.721   2.483  41.596  0.00  0.00     0.115 C 
BRANCH  66  67
ATOM     67  C   UNK d   0      31.845   3.766  42.227  0.00  0.00     0.139 C 
ATOM     68  O   UNK d   0      31.704   4.821  41.507  0.00  0.00    -0.650 OA
BRANCH  67  69
ATOM     69  O   UNK d   0      32.110   4.034  43.570  0.00  0.00    -0.776 OA
ATOM     70  H   UNK d   0      31.761   3.336  44.243  0.00  0.00     0.167 HD
ENDBRANCH  67  69
ENDBRANCH  66  67
ENDBRANCH  65  66
ENDBRANCH  14  65
ENDBRANCH   6   7
ENDBRANCH   5   6
ENDBRANCH   2   5
TORSDOF 28
ENDMDL
MODEL 2
REMARK VINA RESULT:     -10.0     28.586     32.199
REMARK  28 active torsions:
REMARK  status: ('A' for Active; 'I' for Inactive)
REMARK    1  A    between atoms: C_2  and  O_3 
REMARK    2  A    between atoms: C_2  and  C_4 
REMARK    3  A    between atoms: C_4  and  C_5 
REMARK    4  A    between atoms: C_5  and  C_6 
REMARK    5  A    between atoms: C_7  and  C_8 
REMARK    6  A    between atoms: C_8  and  C_9 
REMARK    7  A    between atoms: C_9  and  O_11 
REMARK    8  A    between atoms: C_28  and  C_29 
REMARK    9  A    between atoms: C_29  and  C_30 
REMARK   10  A    between atoms: C_30  and  O_32 
REMARK   11  A    between atoms: C_33  and  C_34 
REMARK   12  A    between atoms: C_34  and  C_35 
REMARK   13  A    between atoms: C_35  and  C_36 
REMARK   14  A    between atoms: C_36  and  O_38 
REMARK   15  A    between atoms: C_39  and  C_40 
REMARK   16  A    between atoms: C_40  and  C_41 
REMARK   17  A    between atoms: C_41  and  C_42 
REMARK   18  A    between atoms: C_42  and  O_44 
REMARK   19  A    between atoms: C_45  and  C_46 
REMARK   20  A    between atoms: C_46  and  C_47 
REMARK   21  A    between atoms: C_47  and  O_49 
REMARK   22  A    between atoms: C_50  and  C_51 
REMARK   23  A    between atoms: C_51  and  C_52 
REMARK   24  A    between atoms: C_52  and  O_54 
REMARK   25  A    between atoms: C_55  and  C_56 
REMARK   26  A    between atoms: C_56  and  C_57 
REMARK   27  A    between atoms: C_57  and  C_58 
REMARK   28  A    between atoms: C_58  and  O_60 
ROOT
ATOM      1  O   UNK d   0       3.210   4.088  50.201  0.00  0.00    -0.650 OA
ATOM      2  C   UNK d   0       4.233   4.472  50.810  0.00  0.00     0.139 C 
ENDROOT
BRANCH   2   3
ATOM      3  O   UNK d   0       4.126   4.876  52.119  0.00  0.00    -0.776 OA
ATOM      4  H   UNK d   0       3.213   4.970  52.569  0.00  0.00     0.167 HD
ENDBRANCH   2   3
BRANCH   2   5
ATOM      5  C   UNK d   0       5.554   4.490  50.118  0.00  0.00     0.115 C 
BRANCH   5   6
ATOM      6  C   UNK d   0       5.685   3.288  49.223  0.00  0.00     0.052 C 
BRANCH   6   7
ATOM      7  C   UNK d   0       5.322   3.589  47.789  0.00  0.00    -0.020 A 
ATOM      8  C   UNK d   0       5.173   2.736  46.807  0.00  0.00    -0.011 A 
ATOM      9  C   UNK d   0       4.832   3.489  45.612  0.00  0.00     0.067 A 
ATOM     10  C   UNK d   0       4.532   3.185  44.275  0.00  0.00     0.062 C 
ATOM     11  N   UNK d   0       4.801   4.794  45.955  0.00  0.00    -0.248 NA
ATOM     12  C   UNK d   0       3.952   4.031  43.323  0.00  0.00     0.041 A 
ATOM     13  N   UNK d   0       4.175   5.327  43.036  0.00  0.00    -0.355 N 
ATOM     14  C   UNK d   0       2.907   3.536  42.520  0.00  0.00    -0.022 A 
ATOM     15  C   UNK d   0       3.294   5.670  42.077  0.00  0.00     0.042 A 
ATOM     16  H   UNK d   0       4.953   5.981  43.488  0.00  0.00     0.166 HD
ATOM     17  C   UNK d   0       3.095   6.899  41.417  0.00  0.00     0.062 C 
ATOM     18  C   UNK d   0       2.482   4.574  41.728  0.00  0.00    -0.013 A 
ATOM     19  C   UNK d   0       3.039   8.163  41.946  0.00  0.00     0.067 A 
ATOM     20  N   UNK d   0       3.412   8.302  43.221  0.00  0.00    -0.248 NA
ATOM     21  C   UNK d   0       2.645   9.479  41.470  0.00  0.00    -0.011 A 
ATOM     22  C   UNK d   0       3.289   9.613  43.614  0.00  0.00     0.066 A 
ATOM     23  C   UNK d   0       3.681   9.907  44.911  0.00  0.00     0.062 C 
ATOM     24  C   UNK d   0       2.790  10.322  42.452  0.00  0.00    -0.020 A 
ATOM     25  C   UNK d   0       4.274   9.045  45.847  0.00  0.00     0.041 A 
ATOM     26  N   UNK d   0       4.042   7.761  46.143  0.00  0.00    -0.355 N 
ATOM     27  C   UNK d   0       5.325   9.541  46.650  0.00  0.00    -0.022 A 
ATOM     28  C   UNK d   0       4.913   7.419  47.106  0.00  0.00     0.042 A 
ATOM     29  H   UNK d   0       3.253   7.108  45.696  0.00  0.00     0.166 HD
ATOM     30  C   UNK d   0       5.115   6.203  47.777  0.00  0.00     0.062 C 
ATOM     31  C   UNK d   0       5.735   8.518  47.448  0.00  0.00    -0.013 A 
ATOM     32  C   UNK d   0       5.086   4.921  47.252  0.00  0.00     0.066 A 
BRANCH   8  33
ATOM     33  C   UNK d   0       5.325   1.271  46.877  0.00  0.00     0.151 C 
BRANCH  33  34
ATOM     34  C   UNK d   0       4.122   0.551  46.422  0.00  0.00     0.143 C 
ATOM     35  O   UNK d   0       3.036   0.696  47.002  0.00  0.00    -0.650 OA
BRANCH  34  36
ATOM     36  O   UNK d   0       4.209  -0.295  45.340  0.00  0.00    -0.776 OA
ATOM     37  H   UNK d   0       4.997  -0.239  44.681  0.00  0.00     0.167 HD
ENDBRANCH  34  36
ENDBRANCH  33  34
ENDBRANCH   8  33
BRANCH  31  38
ATOM     38  C   UNK d   0       6.850   8.574  48.466  0.00  0.00     0.151 C 
BRANCH  38  39
ATOM     39  C   UNK d   0       8.013   7.810  48.069  0.00  0.00     0.143 C 
ATOM     40  O   UNK d   0       9.012   8.339  47.551  0.00  0.00    -0.650 OA
BRANCH  39  41
ATOM     41  O   UNK d   0       8.028   6.430  48.269  0.00  0.00    -0.776 OA
ATOM     42  H   UNK d   0       7.259   6.035  48.818  0.00  0.00     0.167 HD
ENDBRANCH  39  41
ENDBRANCH  38  39
ENDBRANCH  31  38
BRANCH  27  43
ATOM     43  C   UNK d   0       5.936  10.919  46.684  0.00  0.00     0.052 C 
BRANCH  43  44
ATOM     44  C   UNK d   0       7.414  10.916  46.468  0.00  0.00     0.115 C 
BRANCH  44  45
ATOM     45  C   UNK d   0       8.000  11.779  47.526  0.00  0.00     0.139 C 
ATOM     46  O   UNK d   0       7.604  12.968  47.607  0.00  0.00    -0.650 OA
BRANCH  45  47
ATOM     47  O   UNK d   0       8.949  11.327  48.418  0.00  0.00    -0.776 OA
ATOM     48  H   UNK d   0       9.361  11.928  49.150  0.00  0.00     0.167 HD
ENDBRANCH  45  47
ENDBRANCH  44  45
ENDBRANCH  43  44
ENDBRANCH  27  43
BRANCH  24  49
ATOM     49  C   UNK d   0       2.540  11.772  42.395  0.00  0.00     0.052 C 
BRANCH  49  50
ATOM     50  C   UNK d   0       1.162  12.088  42.918  0.00  0.00     0.115 C 
BRANCH  50  51
ATOM     51  C   UNK d   0       0.034  11.767  42.055  0.00  0.00     0.139 C 
ATOM     52  O   UNK d   0      -0.299  12.484  41.082  0.00  0.00    -0.650 OA
BRANCH  51  53
ATOM     53  O   UNK d   0      -0.717  10.629  42.303  0.00  0.00    -0.776 OA
ATOM     54  H   UNK d   0      -1.594  10.733  42.784  0.00  0.00     0.167 HD
ENDBRANCH  51  53
ENDBRANCH  50  51
ENDBRANCH  49  50
ENDBRANCH  24  49
BRANCH  21  55
ATOM     55  C   UNK d   0       2.169   9.757  40.083  0.00  0.00     0.151 C 
BRANCH  55  56
ATOM     56  C   UNK d   0       1.150   8.791  39.645  0.00  0.00     0.143 C 
ATOM     57  O   UNK d   0       1.263   8.116  38.603  0.00  0.00    -0.650 OA
BRANCH  56  58
ATOM     58  O   UNK d   0       0.017   8.637  40.442  0.00  0.00    -0.776 OA
ATOM     59  H   UNK d   0      -0.749   9.306  40.245  0.00  0.00     0.167 HD
ENDBRANCH  56  58
ENDBRANCH  55  56
ENDBRANCH  21  55
BRANCH  18  60
ATOM     60  C   UNK d   0       1.367   4.488  40.716  0.00  0.00     0.151 C 
BRANCH  60  61
ATOM     61  C   UNK d   0       0.152   4.934  41.415  0.00  0.00     0.143 C 
ATOM     62  O   UNK d   0      -0.300   4.494  42.473  0.00  0.00    -0.650 OA
BRANCH  61  63
ATOM     63  O   UNK d   0      -0.555   5.985  40.783  0.00  0.00    -0.776 OA
ATOM     64  H   UNK d   0      -1.542   6.108  40.930  0.00  0.00     0.167 HD
ENDBRANCH  61  63
ENDBRANCH  60  61
ENDBRANCH  18  60
BRANCH  14  65
ATOM     65  C   UNK d   0       2.353   2.147  42.377  0.00  0.00     0.052 C 
BRANCH  65  66
ATOM     66  C   UNK d   0       3.103   1.321  41.394  0.00  0.00     0.115 C 
BRANCH  66  67
ATOM     67  C   UNK d   0       2.856  -0.091  41.316  0.00  0.00     0.139 C 
ATOM     68  O   UNK d   0       3.863  -0.891  41.298  0.00  0.00    -0.650 OA
BRANCH  67  69
ATOM     69  O   UNK d   0       1.623  -0.740  41.254  0.00  0.00    -0.776 OA
ATOM     70  H   UNK d   0       1.261  -0.923  40.307  0.00  0.00     0.167 HD
ENDBRANCH  67  69
ENDBRANCH  66  67
ENDBRANCH  65  66
ENDBRANCH  14  65
ENDBRANCH   6   7
ENDBRANCH   5   6
ENDBRANCH   2   5
TORSDOF 28
ENDMDL
MODEL 3
REMARK VINA RESULT:      -9.8     28.799     32.381
REMARK  28 active torsions:
REMARK  status: ('A' for Active; 'I' for Inactive)
REMARK    1  A    between atoms: C_2  and  O_3 
REMARK    2  A    between atoms: C_2  and  C_4 
REMARK    3  A    between atoms: C_4  and  C_5 
REMARK    4  A    between atoms: C_5  and  C_6 
REMARK    5  A    between atoms: C_7  and  C_8 
REMARK    6  A    between atoms: C_8  and  C_9 
REMARK    7  A    between atoms: C_9  and  O_11 
REMARK    8  A    between atoms: C_28  and  C_29 
REMARK    9  A    between atoms: C_29  and  C_30 
REMARK   10  A    between atoms: C_30  and  O_32 
REMARK   11  A    between atoms: C_33  and  C_34 
REMARK   12  A    between atoms: C_34  and  C_35 
REMARK   13  A    between atoms: C_35  and  C_36 
REMARK   14  A    between atoms: C_36  and  O_38 
REMARK   15  A    between atoms: C_39  and  C_40 
REMARK   16  A    between atoms: C_40  and  C_41 
REMARK   17  A    between atoms: C_41  and  C_42 
REMARK   18  A    between atoms: C_42  and  O_44 
REMARK   19  A    between atoms: C_45  and  C_46 
REMARK   20  A    between atoms: C_46  and  C_47 
REMARK   21  A    between atoms: C_47  and  O_49 
REMARK   22  A    between atoms: C_50  and  C_51 
REMARK   23  A    between atoms: C_51  and  C_52 
REMARK   24  A    between atoms: C_52  and  O_54 
REMARK   25  A    between atoms: C_55  and  C_56 
REMARK   26  A    between atoms: C_56  and  C_57 
REMARK   27  A    between atoms: C_57  and  C_58 
REMARK   28  A    between atoms: C_58  and  O_60 
ROOT
ATOM      1  O   UNK d   0       6.287   4.807  51.172  0.00  0.00    -0.650 OA
ATOM      2  C   UNK d   0       5.083   4.525  50.981  0.00  0.00     0.139 C 
ENDROOT
BRANCH   2   3
ATOM      3  O   UNK d   0       4.149   4.883  51.923  0.00  0.00    -0.776 OA
ATOM      4  H   UNK d   0       4.002   4.318  52.761  0.00  0.00     0.167 HD
ENDBRANCH   2   3
BRANCH   2   5
ATOM      5  C   UNK d   0       4.671   3.807  49.741  0.00  0.00     0.115 C 
BRANCH   5   6
ATOM      6  C   UNK d   0       5.784   3.840  48.730  0.00  0.00     0.052 C 
BRANCH   6   7
ATOM      7  C   UNK d   0       5.283   4.042  47.320  0.00  0.00    -0.020 A 
ATOM      8  C   UNK d   0       5.112   3.132  46.395  0.00  0.00    -0.011 A 
ATOM      9  C   UNK d   0       4.621   3.799  45.200  0.00  0.00     0.067 A 
ATOM     10  C   UNK d   0       4.232   3.408  43.910  0.00  0.00     0.062 C 
ATOM     11  N   UNK d   0       4.528   5.115  45.485  0.00  0.00    -0.248 NA
ATOM     12  C   UNK d   0       3.517   4.163  42.974  0.00  0.00     0.041 A 
ATOM     13  N   UNK d   0       3.625   5.455  42.610  0.00  0.00    -0.355 N 
ATOM     14  C   UNK d   0       2.447   3.562  42.289  0.00  0.00    -0.022 A 
ATOM     15  C   UNK d   0       2.646   5.690  41.716  0.00  0.00     0.042 A 
ATOM     16  H   UNK d   0       4.391   6.181  42.963  0.00  0.00     0.166 HD
ATOM     17  C   UNK d   0       2.308   6.868  41.021  0.00  0.00     0.062 C 
ATOM     18  C   UNK d   0       1.886   4.527  41.490  0.00  0.00    -0.013 A 
ATOM     19  C   UNK d   0       2.208   8.152  41.494  0.00  0.00     0.067 A 
ATOM     20  N   UNK d   0       2.676   8.380  42.725  0.00  0.00    -0.248 NA
ATOM     21  C   UNK d   0       1.686   9.412  40.995  0.00  0.00    -0.011 A 
ATOM     22  C   UNK d   0       2.495   9.698  43.066  0.00  0.00     0.066 A 
ATOM     23  C   UNK d   0       2.972  10.083  44.310  0.00  0.00     0.062 C 
ATOM     24  C   UNK d   0       1.852  10.312  41.921  0.00  0.00    -0.020 A 
ATOM     25  C   UNK d   0       3.699   9.312  45.230  0.00  0.00     0.041 A 
ATOM     26  N   UNK d   0       3.583   8.032  45.603  0.00  0.00    -0.355 N 
ATOM     27  C   UNK d   0       4.777   9.915  45.914  0.00  0.00    -0.022 A 
ATOM     28  C   UNK d   0       4.553   7.797  46.501  0.00  0.00     0.042 A 
ATOM     29  H   UNK d   0       2.806   7.306  45.256  0.00  0.00     0.166 HD
ATOM     30  C   UNK d   0       4.895   6.633  47.207  0.00  0.00     0.062 C 
ATOM     31  C   UNK d   0       5.323   8.964  46.720  0.00  0.00    -0.013 A 
ATOM     32  C   UNK d   0       4.911   5.327  46.745  0.00  0.00     0.066 A 
BRANCH   8  33
ATOM     33  C   UNK d   0       5.370   1.686  46.518  0.00  0.00     0.151 C 
BRANCH  33  34
ATOM     34  C   UNK d   0       4.152   0.873  46.352  0.00  0.00     0.143 C 
ATOM     35  O   UNK d   0       3.192   0.999  47.125  0.00  0.00    -0.650 OA
BRANCH  34  36
ATOM     36  O   UNK d   0       4.084  -0.039  45.324  0.00  0.00    -0.776 OA
ATOM     37  H   UNK d   0       3.547   0.159  44.469  0.00  0.00     0.167 HD
ENDBRANCH  34  36
ENDBRANCH  33  34
ENDBRANCH   8  33
BRANCH  31  38
ATOM     38  C   UNK d   0       6.512   9.145  47.634  0.00  0.00     0.151 C 
BRANCH  38  39
ATOM     39  C   UNK d   0       7.767   8.809  46.996  0.00  0.00     0.143 C 
ATOM     40  O   UNK d   0       8.082   9.247  45.876  0.00  0.00    -0.650 OA
BRANCH  39  41
ATOM     41  O   UNK d   0       8.665   7.967  47.651  0.00  0.00    -0.776 OA
ATOM     42  H   UNK d   0       8.708   8.042  48.672  0.00  0.00     0.167 HD
ENDBRANCH  39  41
ENDBRANCH  38  39
ENDBRANCH  31  38
BRANCH  27  43
ATOM     43  C   UNK d   0       5.291  11.331  45.833  0.00  0.00     0.052 C 
BRANCH  43  44
ATOM     44  C   UNK d   0       4.238  12.358  46.097  0.00  0.00     0.115 C 
BRANCH  44  45
ATOM     45  C   UNK d   0       4.791  13.659  45.637  0.00  0.00     0.139 C 
ATOM     46  O   UNK d   0       4.281  14.192  44.621  0.00  0.00    -0.650 OA
BRANCH  45  47
ATOM     47  O   UNK d   0       5.827  14.300  46.281  0.00  0.00    -0.776 OA
ATOM     48  H   UNK d   0       6.028  15.305  46.155  0.00  0.00     0.167 HD
ENDBRANCH  45  47
ENDBRANCH  44  45
ENDBRANCH  43  44
ENDBRANCH  27  43
BRANCH  24  49
ATOM     49  C   UNK d   0       1.499  11.738  41.819  0.00  0.00     0.052 C 
BRANCH  49  50
ATOM     50  C   UNK d   0       2.505  12.469  40.967  0.00  0.00     0.115 C 
BRANCH  50  51
ATOM     51  C   UNK d   0       3.907  12.114  41.143  0.00  0.00     0.139 C 
ATOM     52  O   UNK d   0       4.618  11.684  40.204  0.00  0.00    -0.650 OA
BRANCH  51  53
ATOM     53  O   UNK d   0       4.498  12.249  42.390  0.00  0.00    -0.776 OA
ATOM     54  H   UNK d   0       4.737  11.414  42.894  0.00  0.00     0.167 HD
ENDBRANCH  51  53
ENDBRANCH  50  51
ENDBRANCH  49  50
ENDBRANCH  24  49
BRANCH  21  55
ATOM     55  C   UNK d   0       1.078   9.587  39.643  0.00  0.00     0.151 C 
BRANCH  55  56
ATOM     56  C   UNK d   0       2.075   9.458  38.569  0.00  0.00     0.143 C 
ATOM     57  O   UNK d   0       2.291   8.384  37.974  0.00  0.00    -0.650 OA
BRANCH  56  58
ATOM     58  O   UNK d   0       2.799  10.595  38.216  0.00  0.00    -0.776 OA
ATOM     59  H   UNK d   0       2.999  10.688  37.203  0.00  0.00     0.167 HD
ENDBRANCH  56  58
ENDBRANCH  55  56
ENDBRANCH  21  55
BRANCH  18  60
ATOM     60  C   UNK d   0       0.699   4.316  40.583  0.00  0.00     0.151 C 
BRANCH  60  61
ATOM     61  C   UNK d   0      -0.490   4.417  41.444  0.00  0.00     0.143 C 
ATOM     62  O   UNK d   0      -1.201   3.493  41.840  0.00  0.00    -0.650 OA
BRANCH  61  63
ATOM     63  O   UNK d   0      -0.831   5.731  41.847  0.00  0.00    -0.776 OA
ATOM     64  H   UNK d   0      -0.193   6.495  41.717  0.00  0.00     0.167 HD
ENDBRANCH  61  63
ENDBRANCH  60  61
ENDBRANCH  18  60
BRANCH  14  65
ATOM     65  C   UNK d   0       1.981   2.134  42.257  0.00  0.00     0.052 C 
BRANCH  65  66
ATOM     66  C   UNK d   0       2.557   1.358  41.126  0.00  0.00     0.115 C 
BRANCH  66  67
ATOM     67  C   UNK d   0       3.185   0.092  41.378  0.00  0.00     0.139 C 
ATOM     68  O   UNK d   0       3.150  -0.804  40.457  0.00  0.00    -0.650 OA
BRANCH  67  69
ATOM     69  O   UNK d   0       3.854  -0.314  42.532  0.00  0.00    -0.776 OA
ATOM     70  H   UNK d   0       4.169  -1.295  42.545  0.00  0.00     0.167 HD
ENDBRANCH  67  69
ENDBRANCH  66  67
ENDBRANCH  65  66
ENDBRANCH  14  65
ENDBRANCH   6   7
ENDBRANCH   5   6
ENDBRANCH   2   5
TORSDOF 28
ENDMDL
MODEL 4
REMARK VINA RESULT:      -9.5      1.215      7.402
REMARK  28 active torsions:
REMARK  status: ('A' for Active; 'I' for Inactive)
REMARK    1  A    between atoms: C_2  and  O_3 
REMARK    2  A    between atoms: C_2  and  C_4 
REMARK    3  A    between atoms: C_4  and  C_5 
REMARK    4  A    between atoms: C_5  and  C_6 
REMARK    5  A    between atoms: C_7  and  C_8 
REMARK    6  A    between atoms: C_8  and  C_9 
REMARK    7  A    between atoms: C_9  and  O_11 
REMARK    8  A    between atoms: C_28  and  C_29 
REMARK    9  A    between atoms: C_29  and  C_30 
REMARK   10  A    between atoms: C_30  and  O_32 
REMARK   11  A    between atoms: C_33  and  C_34 
REMARK   12  A    between atoms: C_34  and  C_35 
REMARK   13  A    between atoms: C_35  and  C_36 
REMARK   14  A    between atoms: C_36  and  O_38 
REMARK   15  A    between atoms: C_39  and  C_40 
REMARK   16  A    between atoms: C_40  and  C_41 
REMARK   17  A    between atoms: C_41  and  C_42 
REMARK   18  A    between atoms: C_42  and  O_44 
REMARK   19  A    between atoms: C_45  and  C_46 
REMARK   20  A    between atoms: C_46  and  C_47 
REMARK   21  A    between atoms: C_47  and  O_49 
REMARK   22  A    between atoms: C_50  and  C_51 
REMARK   23  A    between atoms: C_51  and  C_52 
REMARK   24  A    between atoms: C_52  and  O_54 
REMARK   25  A    between atoms: C_55  and  C_56 
REMARK   26  A    between atoms: C_56  and  C_57 
REMARK   27  A    between atoms: C_57  and  C_58 
REMARK   28  A    between atoms: C_58  and  O_60 
ROOT
ATOM      1  O   UNK d   0      36.035   3.797  46.943  0.00  0.00    -0.650 OA
ATOM      2  C   UNK d   0      35.418   2.731  47.159  0.00  0.00     0.139 C 
ENDROOT
BRANCH   2   3
ATOM      3  O   UNK d   0      35.447   2.178  48.416  0.00  0.00    -0.776 OA
ATOM      4  H   UNK d   0      35.656   2.748  49.238  0.00  0.00     0.167 HD
ENDBRANCH   2   3
BRANCH   2   5
ATOM      5  C   UNK d   0      34.661   2.069  46.059  0.00  0.00     0.115 C 
BRANCH   5   6
ATOM      6  C   UNK d   0      33.889   0.894  46.595  0.00  0.00     0.052 C 
BRANCH   6   7
ATOM      7  C   UNK d   0      34.183  -0.385  45.848  0.00  0.00    -0.020 A 
ATOM      8  C   UNK d   0      34.867  -1.417  46.271  0.00  0.00    -0.011 A 
ATOM      9  C   UNK d   0      34.890  -2.403  45.203  0.00  0.00     0.067 A 
ATOM     10  C   UNK d   0      35.418  -3.691  45.026  0.00  0.00     0.062 C 
ATOM     11  N   UNK d   0      34.201  -1.885  44.165  0.00  0.00    -0.248 NA
ATOM     12  C   UNK d   0      35.099  -4.606  44.016  0.00  0.00     0.041 A 
ATOM     13  N   UNK d   0      34.918  -4.438  42.692  0.00  0.00    -0.355 N 
ATOM     14  C   UNK d   0      34.855  -5.947  44.365  0.00  0.00    -0.022 A 
ATOM     15  C   UNK d   0      34.559  -5.636  42.193  0.00  0.00     0.042 A 
ATOM     16  H   UNK d   0      35.062  -3.496  42.119  0.00  0.00     0.166 HD
ATOM     17  C   UNK d   0      34.252  -6.020  40.873  0.00  0.00     0.062 C 
ATOM     18  C   UNK d   0      34.508  -6.606  43.212  0.00  0.00    -0.013 A 
ATOM     19  C   UNK d   0      33.469  -5.379  39.948  0.00  0.00     0.067 A 
ATOM     20  N   UNK d   0      33.092  -4.131  40.235  0.00  0.00    -0.248 NA
ATOM     21  C   UNK d   0      32.886  -5.716  38.659  0.00  0.00    -0.011 A 
ATOM     22  C   UNK d   0      32.304  -3.627  39.229  0.00  0.00     0.066 A 
ATOM     23  C   UNK d   0      31.871  -2.318  39.382  0.00  0.00     0.062 C 
ATOM     24  C   UNK d   0      32.203  -4.688  38.246  0.00  0.00    -0.020 A 
ATOM     25  C   UNK d   0      32.213  -1.412  40.398  0.00  0.00     0.041 A 
ATOM     26  N   UNK d   0      32.378  -1.576  41.716  0.00  0.00    -0.355 N 
ATOM     27  C   UNK d   0      32.462  -0.067  40.046  0.00  0.00    -0.022 A 
ATOM     28  C   UNK d   0      32.728  -0.381  42.217  0.00  0.00     0.042 A 
ATOM     29  H   UNK d   0      32.223  -2.521  42.292  0.00  0.00     0.166 HD
ATOM     30  C   UNK d   0      33.027   0.018  43.529  0.00  0.00     0.062 C 
ATOM     31  C   UNK d   0      32.789   0.592  41.191  0.00  0.00    -0.013 A 
ATOM     32  C   UNK d   0      33.749  -0.673  44.489  0.00  0.00     0.066 A 
BRANCH   8  33
ATOM     33  C   UNK d   0      35.512  -1.572  47.587  0.00  0.00     0.151 C 
BRANCH  33  34
ATOM     34  C   UNK d   0      36.923  -1.146  47.585  0.00  0.00     0.143 C 
ATOM     35  O   UNK d   0      37.247  -0.012  47.967  0.00  0.00    -0.650 OA
BRANCH  34  36
ATOM     36  O   UNK d   0      37.892  -2.021  47.150  0.00  0.00    -0.776 OA
ATOM     37  H   UNK d   0      37.825  -3.030  47.340  0.00  0.00     0.167 HD
ENDBRANCH  34  36
ENDBRANCH  33  34
ENDBRANCH   8  33
BRANCH  31  38
ATOM     38  C   UNK d   0      33.152   2.054  41.305  0.00  0.00     0.151 C 
BRANCH  38  39
ATOM     39  C   UNK d   0      31.991   2.916  41.388  0.00  0.00     0.143 C 
ATOM     40  O   UNK d   0      31.667   3.686  40.467  0.00  0.00    -0.650 OA
BRANCH  39  41
ATOM     41  O   UNK d   0      31.199   2.890  42.535  0.00  0.00    -0.776 OA
ATOM     42  H   UNK d   0      31.198   3.736  43.114  0.00  0.00     0.167 HD
ENDBRANCH  39  41
ENDBRANCH  38  39
ENDBRANCH  31  38
BRANCH  27  43
ATOM     43  C   UNK d   0      32.399   0.597  38.693  0.00  0.00     0.052 C 
BRANCH  43  44
ATOM     44  C   UNK d   0      31.006   0.757  38.178  0.00  0.00     0.115 C 
BRANCH  44  45
ATOM     45  C   UNK d   0      30.847  -0.224  37.073  0.00  0.00     0.139 C 
ATOM     46  O   UNK d   0      31.863  -0.526  36.399  0.00  0.00    -0.650 OA
BRANCH  45  47
ATOM     47  O   UNK d   0      29.640  -0.813  36.764  0.00  0.00    -0.776 OA
ATOM     48  H   UNK d   0      28.971  -1.131  37.485  0.00  0.00     0.167 HD
ENDBRANCH  45  47
ENDBRANCH  44  45
ENDBRANCH  43  44
ENDBRANCH  27  43
BRANCH  24  49
ATOM     49  C   UNK d   0      31.480  -4.583  36.967  0.00  0.00     0.052 C 
BRANCH  49  50
ATOM     50  C   UNK d   0      30.073  -5.103  37.116  0.00  0.00     0.115 C 
BRANCH  50  51
ATOM     51  C   UNK d   0      29.008  -4.331  36.490  0.00  0.00     0.139 C 
ATOM     52  O   UNK d   0      27.798  -4.497  36.770  0.00  0.00    -0.650 OA
BRANCH  51  53
ATOM     53  O   UNK d   0      29.324  -3.370  35.542  0.00  0.00    -0.776 OA
ATOM     54  H   UNK d   0      29.910  -3.637  34.770  0.00  0.00     0.167 HD
ENDBRANCH  51  53
ENDBRANCH  50  51
ENDBRANCH  49  50
ENDBRANCH  24  49
BRANCH  21  55
ATOM     55  C   UNK d   0      33.078  -7.028  37.973  0.00  0.00     0.151 C 
BRANCH  55  56
ATOM     56  C   UNK d   0      34.276  -7.034  37.120  0.00  0.00     0.143 C 
ATOM     57  O   UNK d   0      34.283  -6.570  35.963  0.00  0.00    -0.650 OA
BRANCH  56  58
ATOM     58  O   UNK d   0      35.444  -7.587  37.644  0.00  0.00    -0.776 OA
ATOM     59  H   UNK d   0      35.646  -7.327  38.626  0.00  0.00     0.167 HD
ENDBRANCH  56  58
ENDBRANCH  55  56
ENDBRANCH  21  55
BRANCH  18  60
ATOM     60  C   UNK d   0      34.153  -8.070  43.128  0.00  0.00     0.151 C 
BRANCH  60  61
ATOM     61  C   UNK d   0      32.741  -8.168  43.527  0.00  0.00     0.143 C 
ATOM     62  O   UNK d   0      31.993  -7.241  43.840  0.00  0.00    -0.650 OA
BRANCH  61  63
ATOM     63  O   UNK d   0      32.209  -9.479  43.545  0.00  0.00    -0.776 OA
ATOM     64  H   UNK d   0      31.604  -9.784  44.287  0.00  0.00     0.167 HD
ENDBRANCH  61  63
ENDBRANCH  60  61
ENDBRANCH  18  60
BRANCH  14  65
ATOM     65  C   UNK d   0      35.019  -6.665  45.674  0.00  0.00     0.052 C 
BRANCH  65  66
ATOM     66  C   UNK d   0      34.454  -5.912  46.826  0.00  0.00     0.115 C 
BRANCH  66  67
ATOM     67  C   UNK d   0      33.388  -6.487  47.597  0.00  0.00     0.139 C 
ATOM     68  O   UNK d   0      32.933  -7.639  47.253  0.00  0.00    -0.650 OA
BRANCH  67  69
ATOM     69  O   UNK d   0      32.753  -5.943  48.713  0.00  0.00    -0.776 OA
ATOM     70  H   UNK d   0      32.998  -4.967  48.937  0.00  0.00     0.167 HD
ENDBRANCH  67  69
ENDBRANCH  66  67
ENDBRANCH  65  66
ENDBRANCH  14  65
ENDBRANCH   6   7
ENDBRANCH   5   6
ENDBRANCH   2   5
TORSDOF 28
ENDMDL
MODEL 5
REMARK VINA RESULT:      -9.3      1.471      1.925
REMARK  28 active torsions:
REMARK  status: ('A' for Active; 'I' for Inactive)
REMARK    1  A    between atoms: C_2  and  O_3 
REMARK    2  A    between atoms: C_2  and  C_4 
REMARK    3  A    between atoms: C_4  and  C_5 
REMARK    4  A    between atoms: C_5  and  C_6 
REMARK    5  A    between atoms: C_7  and  C_8 
REMARK    6  A    between atoms: C_8  and  C_9 
REMARK    7  A    between atoms: C_9  and  O_11 
REMARK    8  A    between atoms: C_28  and  C_29 
REMARK    9  A    between atoms: C_29  and  C_30 
REMARK   10  A    between atoms: C_30  and  O_32 
REMARK   11  A    between atoms: C_33  and  C_34 
REMARK   12  A    between atoms: C_34  and  C_35 
REMARK   13  A    between atoms: C_35  and  C_36 
REMARK   14  A    between atoms: C_36  and  O_38 
REMARK   15  A    between atoms: C_39  and  C_40 
REMARK   16  A    between atoms: C_40  and  C_41 
REMARK   17  A    between atoms: C_41  and  C_42 
REMARK   18  A    between atoms: C_42  and  O_44 
REMARK   19  A    between atoms: C_45  and  C_46 
REMARK   20  A    between atoms: C_46  and  C_47 
REMARK   21  A    between atoms: C_47  and  O_49 
REMARK   22  A    between atoms: C_50  and  C_51 
REMARK   23  A    between atoms: C_51  and  C_52 
REMARK   24  A    between atoms: C_52  and  O_54 
REMARK   25  A    between atoms: C_55  and  C_56 
REMARK   26  A    between atoms: C_56  and  C_57 
REMARK   27  A    between atoms: C_57  and  C_58 
REMARK   28  A    between atoms: C_58  and  O_60 
ROOT
ATOM      1  O   UNK d   0      38.876  -1.722  46.780  0.00  0.00    -0.650 OA
ATOM      2  C   UNK d   0      37.702  -1.665  47.210  0.00  0.00     0.139 C 
ENDROOT
BRANCH   2   3
ATOM      3  O   UNK d   0      37.271  -0.523  47.840  0.00  0.00    -0.776 OA
ATOM      4  H   UNK d   0      37.060   0.325  47.310  0.00  0.00     0.167 HD
ENDBRANCH   2   3
BRANCH   2   5
ATOM      5  C   UNK d   0      36.785  -2.827  47.038  0.00  0.00     0.115 C 
BRANCH   5   6
ATOM      6  C   UNK d   0      35.359  -2.397  47.251  0.00  0.00     0.052 C 
BRANCH   6   7
ATOM      7  C   UNK d   0      34.609  -2.208  45.954  0.00  0.00    -0.020 A 
ATOM      8  C   UNK d   0      33.950  -1.148  45.560  0.00  0.00    -0.011 A 
ATOM      9  C   UNK d   0      33.388  -1.435  44.251  0.00  0.00     0.067 A 
ATOM     10  C   UNK d   0      32.620  -0.739  43.305  0.00  0.00     0.062 C 
ATOM     11  N   UNK d   0      33.749  -2.695  43.928  0.00  0.00    -0.248 NA
ATOM     12  C   UNK d   0      32.405  -1.088  41.967  0.00  0.00     0.041 A 
ATOM     13  N   UNK d   0      32.138  -2.276  41.392  0.00  0.00    -0.355 N 
ATOM     14  C   UNK d   0      32.523  -0.095  40.977  0.00  0.00    -0.022 A 
ATOM     15  C   UNK d   0      32.091  -2.064  40.063  0.00  0.00     0.042 A 
ATOM     16  H   UNK d   0      31.966  -3.242  41.917  0.00  0.00     0.166 HD
ATOM     17  C   UNK d   0      31.846  -2.960  39.003  0.00  0.00     0.062 C 
ATOM     18  C   UNK d   0      32.328  -0.708  39.765  0.00  0.00    -0.013 A 
ATOM     19  C   UNK d   0      32.354  -4.218  38.803  0.00  0.00     0.067 A 
ATOM     20  N   UNK d   0      33.015  -4.772  39.822  0.00  0.00    -0.248 NA
ATOM     21  C   UNK d   0      32.383  -5.170  37.705  0.00  0.00    -0.011 A 
ATOM     22  C   UNK d   0      33.476  -6.018  39.470  0.00  0.00     0.066 A 
ATOM     23  C   UNK d   0      34.151  -6.726  40.453  0.00  0.00     0.062 C 
ATOM     24  C   UNK d   0      33.044  -6.219  38.100  0.00  0.00    -0.020 A 
ATOM     25  C   UNK d   0      34.345  -6.363  41.794  0.00  0.00     0.041 A 
ATOM     26  N   UNK d   0      34.625  -5.185  42.364  0.00  0.00    -0.355 N 
ATOM     27  C   UNK d   0      34.222  -7.360  42.787  0.00  0.00    -0.022 A 
ATOM     28  C   UNK d   0      34.682  -5.396  43.689  0.00  0.00     0.042 A 
ATOM     29  H   UNK d   0      34.808  -4.218  41.835  0.00  0.00     0.166 HD
ATOM     30  C   UNK d   0      34.933  -4.516  44.754  0.00  0.00     0.062 C 
ATOM     31  C   UNK d   0      34.433  -6.757  43.989  0.00  0.00    -0.013 A 
ATOM     32  C   UNK d   0      34.486  -3.214  44.910  0.00  0.00     0.066 A 
BRANCH   8  33
ATOM     33  C   UNK d   0      33.789   0.119  46.298  0.00  0.00     0.151 C 
BRANCH  33  34
ATOM     34  C   UNK d   0      33.455   1.253  45.417  0.00  0.00     0.143 C 
ATOM     35  O   UNK d   0      34.332   1.825  44.756  0.00  0.00    -0.650 OA
BRANCH  34  36
ATOM     36  O   UNK d   0      32.150   1.679  45.333  0.00  0.00    -0.776 OA
ATOM     37  H   UNK d   0      31.598   1.546  44.474  0.00  0.00     0.167 HD
ENDBRANCH  34  36
ENDBRANCH  33  34
ENDBRANCH   8  33
BRANCH  31  38
ATOM     38  C   UNK d   0      34.388  -7.426  45.342  0.00  0.00     0.151 C 
BRANCH  38  39
ATOM     39  C   UNK d   0      35.695  -7.841  45.807  0.00  0.00     0.143 C 
ATOM     40  O   UNK d   0      36.133  -7.528  46.928  0.00  0.00    -0.650 OA
BRANCH  39  41
ATOM     41  O   UNK d   0      36.501  -8.621  44.979  0.00  0.00    -0.776 OA
ATOM     42  H   UNK d   0      36.566  -9.619  45.204  0.00  0.00     0.167 HD
ENDBRANCH  39  41
ENDBRANCH  38  39
ENDBRANCH  31  38
BRANCH  27  43
ATOM     43  C   UNK d   0      33.921  -8.830  42.637  0.00  0.00     0.052 C 
BRANCH  43  44
ATOM     44  C   UNK d   0      32.558  -9.207  43.121  0.00  0.00     0.115 C 
BRANCH  44  45
ATOM     45  C   UNK d   0      32.680 -10.561  43.721  0.00  0.00     0.139 C 
ATOM     46  O   UNK d   0      33.695 -10.810  44.417  0.00  0.00    -0.650 OA
BRANCH  45  47
ATOM     47  O   UNK d   0      31.728 -11.542  43.550  0.00  0.00    -0.776 OA
ATOM     48  H   UNK d   0      31.805 -12.479  43.979  0.00  0.00     0.167 HD
ENDBRANCH  45  47
ENDBRANCH  44  45
ENDBRANCH  43  44
ENDBRANCH  27  43
BRANCH  24  49
ATOM     49  C   UNK d   0      33.282  -7.443  37.315  0.00  0.00     0.052 C 
BRANCH  49  50
ATOM     50  C   UNK d   0      32.020  -8.262  37.226  0.00  0.00     0.115 C 
BRANCH  50  51
ATOM     51  C   UNK d   0      31.221  -8.122  36.016  0.00  0.00     0.139 C 
ATOM     52  O   UNK d   0      31.730  -8.063  34.872  0.00  0.00    -0.650 OA
BRANCH  51  53
ATOM     53  O   UNK d   0      29.839  -8.048  36.111  0.00  0.00    -0.776 OA
ATOM     54  H   UNK d   0      29.332  -7.642  35.344  0.00  0.00     0.167 HD
ENDBRANCH  51  53
ENDBRANCH  50  51
ENDBRANCH  49  50
ENDBRANCH  24  49
BRANCH  21  55
ATOM     55  C   UNK d   0      31.743  -4.933  36.377  0.00  0.00     0.151 C 
BRANCH  55  56
ATOM     56  C   UNK d   0      30.333  -4.535  36.507  0.00  0.00     0.143 C 
ATOM     57  O   UNK d   0      29.463  -5.283  36.995  0.00  0.00    -0.650 OA
BRANCH  56  58
ATOM     58  O   UNK d   0      29.974  -3.264  36.062  0.00  0.00    -0.776 OA
ATOM     59  H   UNK d   0      29.976  -2.529  36.792  0.00  0.00     0.167 HD
ENDBRANCH  56  58
ENDBRANCH  55  56
ENDBRANCH  21  55
BRANCH  18  60
ATOM     60  C   UNK d   0      32.375  -0.013  38.427  0.00  0.00     0.151 C 
BRANCH  60  61
ATOM     61  C   UNK d   0      30.976   0.262  38.065  0.00  0.00     0.143 C 
ATOM     62  O   UNK d   0      30.243  -0.432  37.360  0.00  0.00    -0.650 OA
BRANCH  61  63
ATOM     63  O   UNK d   0      30.440   1.459  38.597  0.00  0.00    -0.776 OA
ATOM     64  H   UNK d   0      30.168   1.521  39.562  0.00  0.00     0.167 HD
ENDBRANCH  61  63
ENDBRANCH  60  61
ENDBRANCH  18  60
BRANCH  14  65
ATOM     65  C   UNK d   0      32.706   1.392  41.097  0.00  0.00     0.052 C 
BRANCH  65  66
ATOM     66  C   UNK d   0      33.854   1.902  40.299  0.00  0.00     0.115 C 
BRANCH  66  67
ATOM     67  C   UNK d   0      33.641   2.939  39.329  0.00  0.00     0.139 C 
ATOM     68  O   UNK d   0      34.613   3.260  38.551  0.00  0.00    -0.650 OA
BRANCH  67  69
ATOM     69  O   UNK d   0      32.477   3.675  39.108  0.00  0.00    -0.776 OA
ATOM     70  H   UNK d   0      31.633   3.124  38.893  0.00  0.00     0.167 HD
ENDBRANCH  67  69
ENDBRANCH  66  67
ENDBRANCH  65  66
ENDBRANCH  14  65
ENDBRANCH   6   7
ENDBRANCH   5   6
ENDBRANCH   2   5
TORSDOF 28
ENDMDL
MODEL 6
REMARK VINA RESULT:      -9.3     29.321     32.670
REMARK  28 active torsions:
REMARK  status: ('A' for Active; 'I' for Inactive)
REMARK    1  A    between atoms: C_2  and  O_3 
REMARK    2  A    between atoms: C_2  and  C_4 
REMARK    3  A    between atoms: C_4  and  C_5 
REMARK    4  A    between atoms: C_5  and  C_6 
REMARK    5  A    between atoms: C_7  and  C_8 
REMARK    6  A    between atoms: C_8  and  C_9 
REMARK    7  A    between atoms: C_9  and  O_11 
REMARK    8  A    between atoms: C_28  and  C_29 
REMARK    9  A    between atoms: C_29  and  C_30 
REMARK   10  A    between atoms: C_30  and  O_32 
REMARK   11  A    between atoms: C_33  and  C_34 
REMARK   12  A    between atoms: C_34  and  C_35 
REMARK   13  A    between atoms: C_35  and  C_36 
REMARK   14  A    between atoms: C_36  and  O_38 
REMARK   15  A    between atoms: C_39  and  C_40 
REMARK   16  A    between atoms: C_40  and  C_41 
REMARK   17  A    between atoms: C_41  and  C_42 
REMARK   18  A    between atoms: C_42  and  O_44 
REMARK   19  A    between atoms: C_45  and  C_46 
REMARK   20  A    between atoms: C_46  and  C_47 
REMARK   21  A    between atoms: C_47  and  O_49 
REMARK   22  A    between atoms: C_50  and  C_51 
REMARK   23  A    between atoms: C_51  and  C_52 
REMARK   24  A    between atoms: C_52  and  O_54 
REMARK   25  A    between atoms: C_55  and  C_56 
REMARK   26  A    between atoms: C_56  and  C_57 
REMARK   27  A    between atoms: C_57  and  C_58 
REMARK   28  A    between atoms: C_58  and  O_60 
ROOT
ATOM      1  O   UNK d   0       4.963  13.059  45.803  0.00  0.00    -0.650 OA
ATOM      2  C   UNK d   0       4.159  13.785  45.177  0.00  0.00     0.139 C 
ENDROOT
BRANCH   2   3
ATOM      3  O   UNK d   0       4.287  15.151  45.251  0.00  0.00    -0.776 OA
ATOM      4  H   UNK d   0       5.065  15.582  45.756  0.00  0.00     0.167 HD
ENDBRANCH   2   3
BRANCH   2   5
ATOM      5  C   UNK d   0       3.074  13.170  44.362  0.00  0.00     0.115 C 
BRANCH   5   6
ATOM      6  C   UNK d   0       3.616  12.722  43.032  0.00  0.00     0.052 C 
BRANCH   6   7
ATOM      7  C   UNK d   0       3.022  11.411  42.574  0.00  0.00    -0.020 A 
ATOM      8  C   UNK d   0       2.106  11.226  41.659  0.00  0.00    -0.011 A 
ATOM      9  C   UNK d   0       1.848   9.799  41.570  0.00  0.00     0.067 A 
ATOM     10  C   UNK d   0       1.023   8.965  40.798  0.00  0.00     0.062 C 
ATOM     11  N   UNK d   0       2.647   9.190  42.470  0.00  0.00    -0.248 NA
ATOM     12  C   UNK d   0       1.114   7.576  40.660  0.00  0.00     0.041 A 
ATOM     13  N   UNK d   0       1.336   6.608  41.570  0.00  0.00    -0.355 N 
ATOM     14  C   UNK d   0       1.022   7.012  39.375  0.00  0.00    -0.022 A 
ATOM     15  C   UNK d   0       1.395   5.445  40.893  0.00  0.00     0.042 A 
ATOM     16  H   UNK d   0       1.429   6.741  42.670  0.00  0.00     0.166 HD
ATOM     17  C   UNK d   0       1.604   4.130  41.354  0.00  0.00     0.062 C 
ATOM     18  C   UNK d   0       1.203   5.658  39.514  0.00  0.00    -0.013 A 
ATOM     19  C   UNK d   0       2.524   3.670  42.261  0.00  0.00     0.067 A 
ATOM     20  N   UNK d   0       3.193   4.588  42.963  0.00  0.00    -0.248 NA
ATOM     21  C   UNK d   0       3.013   2.368  42.685  0.00  0.00    -0.011 A 
ATOM     22  C   UNK d   0       4.084   3.982  43.814  0.00  0.00     0.066 A 
ATOM     23  C   UNK d   0       4.822   4.823  44.634  0.00  0.00     0.062 C 
ATOM     24  C   UNK d   0       3.928   2.558  43.591  0.00  0.00    -0.020 A 
ATOM     25  C   UNK d   0       4.706   6.215  44.767  0.00  0.00     0.041 A 
ATOM     26  N   UNK d   0       4.501   7.179  43.861  0.00  0.00    -0.355 N 
ATOM     27  C   UNK d   0       4.794   6.780  46.058  0.00  0.00    -0.022 A 
ATOM     28  C   UNK d   0       4.450   8.340  44.532  0.00  0.00     0.042 A 
ATOM     29  H   UNK d   0       4.418   7.044  42.755  0.00  0.00     0.166 HD
ATOM     30  C   UNK d   0       4.252   9.656  44.086  0.00  0.00     0.062 C 
ATOM     31  C   UNK d   0       4.632   8.124  45.919  0.00  0.00    -0.013 A 
ATOM     32  C   UNK d   0       3.380  10.105  43.107  0.00  0.00     0.066 A 
BRANCH   8  33
ATOM     33  C   UNK d   0       1.436  12.265  40.854  0.00  0.00     0.151 C 
BRANCH  33  34
ATOM     34  C   UNK d   0       0.078  12.574  41.337  0.00  0.00     0.143 C 
ATOM     35  O   UNK d   0      -0.860  12.728  40.543  0.00  0.00    -0.650 OA
BRANCH  34  36
ATOM     36  O   UNK d   0      -0.147  12.693  42.689  0.00  0.00    -0.776 OA
ATOM     37  H   UNK d   0      -1.068  12.486  43.098  0.00  0.00     0.167 HD
ENDBRANCH  34  36
ENDBRANCH  33  34
ENDBRANCH   8  33
BRANCH  31  38
ATOM     38  C   UNK d   0       4.637   9.142  47.035  0.00  0.00     0.151 C 
BRANCH  38  39
ATOM     39  C   UNK d   0       3.328   9.710  47.282  0.00  0.00     0.143 C 
ATOM     40  O   UNK d   0       2.335   9.007  47.539  0.00  0.00    -0.650 OA
BRANCH  39  41
ATOM     41  O   UNK d   0       3.161  11.094  47.235  0.00  0.00    -0.776 OA
ATOM     42  H   UNK d   0       3.450  11.564  46.371  0.00  0.00     0.167 HD
ENDBRANCH  39  41
ENDBRANCH  38  39
ENDBRANCH  31  38
BRANCH  27  43
ATOM     43  C   UNK d   0       5.023   6.103  47.386  0.00  0.00     0.052 C 
BRANCH  43  44
ATOM     44  C   UNK d   0       6.288   6.530  48.057  0.00  0.00     0.115 C 
BRANCH  44  45
ATOM     45  C   UNK d   0       6.614   5.480  49.056  0.00  0.00     0.139 C 
ATOM     46  O   UNK d   0       6.913   5.844  50.221  0.00  0.00    -0.650 OA
BRANCH  45  47
ATOM     47  O   UNK d   0       6.596   4.134  48.760  0.00  0.00    -0.776 OA
ATOM     48  H   UNK d   0       5.807   3.516  49.011  0.00  0.00     0.167 HD
ENDBRANCH  45  47
ENDBRANCH  44  45
ENDBRANCH  43  44
ENDBRANCH  27  43
BRANCH  24  49
ATOM     49  C   UNK d   0       4.661   1.508  44.319  0.00  0.00     0.052 C 
BRANCH  49  50
ATOM     50  C   UNK d   0       4.119   1.365  45.718  0.00  0.00     0.115 C 
BRANCH  50  51
ATOM     51  C   UNK d   0       4.884   1.983  46.793  0.00  0.00     0.139 C 
ATOM     52  O   UNK d   0       6.136   1.941  46.844  0.00  0.00    -0.650 OA
BRANCH  51  53
ATOM     53  O   UNK d   0       4.220   2.648  47.813  0.00  0.00    -0.776 OA
ATOM     54  H   UNK d   0       3.215   2.646  47.806  0.00  0.00     0.167 HD
ENDBRANCH  51  53
ENDBRANCH  50  51
ENDBRANCH  49  50
ENDBRANCH  24  49
BRANCH  21  55
ATOM     55  C   UNK d   0       2.510   1.071  42.144  0.00  0.00     0.151 C 
BRANCH  55  56
ATOM     56  C   UNK d   0       2.630   1.001  40.680  0.00  0.00     0.143 C 
ATOM     57  O   UNK d   0       3.512   1.611  40.044  0.00  0.00    -0.650 OA
BRANCH  56  58
ATOM     58  O   UNK d   0       1.708   0.214  39.990  0.00  0.00    -0.776 OA
ATOM     59  H   UNK d   0       2.125  -0.494  39.359  0.00  0.00     0.167 HD
ENDBRANCH  56  58
ENDBRANCH  55  56
ENDBRANCH  21  55
BRANCH  18  60
ATOM     60  C   UNK d   0       1.191   4.663  38.380  0.00  0.00     0.151 C 
BRANCH  60  61
ATOM     61  C   UNK d   0       0.258   3.601  38.786  0.00  0.00     0.143 C 
ATOM     62  O   UNK d   0      -0.800   3.738  39.402  0.00  0.00    -0.650 OA
BRANCH  61  63
ATOM     63  O   UNK d   0       0.639   2.290  38.414  0.00  0.00    -0.776 OA
ATOM     64  H   UNK d   0      -0.038   1.629  38.076  0.00  0.00     0.167 HD
ENDBRANCH  61  63
ENDBRANCH  60  61
ENDBRANCH  18  60
BRANCH  14  65
ATOM     65  C   UNK d   0       0.682   7.637  38.052  0.00  0.00     0.052 C 
BRANCH  65  66
ATOM     66  C   UNK d   0       1.867   8.203  37.354  0.00  0.00     0.115 C 
BRANCH  66  67
ATOM     67  C   UNK d   0       1.911   9.605  37.047  0.00  0.00     0.139 C 
ATOM     68  O   UNK d   0       2.337  10.417  37.948  0.00  0.00    -0.650 OA
BRANCH  67  69
ATOM     69  O   UNK d   0       1.537  10.230  35.858  0.00  0.00    -0.776 OA
ATOM     70  H   UNK d   0       2.003   9.886  35.006  0.00  0.00     0.167 HD
ENDBRANCH  67  69
ENDBRANCH  66  67
ENDBRANCH  65  66
ENDBRANCH  14  65
ENDBRANCH   6   7
ENDBRANCH   5   6
ENDBRANCH   2   5
TORSDOF 28
ENDMDL
MODEL 7
REMARK VINA RESULT:      -9.0      1.905      8.072
REMARK  28 active torsions:
REMARK  status: ('A' for Active; 'I' for Inactive)
REMARK    1  A    between atoms: C_2  and  O_3 
REMARK    2  A    between atoms: C_2  and  C_4 
REMARK    3  A    between atoms: C_4  and  C_5 
REMARK    4  A    between atoms: C_5  and  C_6 
REMARK    5  A    between atoms: C_7  and  C_8 
REMARK    6  A    between atoms: C_8  and  C_9 
REMARK    7  A    between atoms: C_9  and  O_11 
REMARK    8  A    between atoms: C_28  and  C_29 
REMARK    9  A    between atoms: C_29  and  C_30 
REMARK   10  A    between atoms: C_30  and  O_32 
REMARK   11  A    between atoms: C_33  and  C_34 
REMARK   12  A    between atoms: C_34  and  C_35 
REMARK   13  A    between atoms: C_35  and  C_36 
REMARK   14  A    between atoms: C_36  and  O_38 
REMARK   15  A    between atoms: C_39  and  C_40 
REMARK   16  A    between atoms: C_40  and  C_41 
REMARK   17  A    between atoms: C_41  and  C_42 
REMARK   18  A    between atoms: C_42  and  O_44 
REMARK   19  A    between atoms: C_45  and  C_46 
REMARK   20  A    between atoms: C_46  and  C_47 
REMARK   21  A    between atoms: C_47  and  O_49 
REMARK   22  A    between atoms: C_50  and  C_51 
REMARK   23  A    between atoms: C_51  and  C_52 
REMARK   24  A    between atoms: C_52  and  O_54 
REMARK   25  A    between atoms: C_55  and  C_56 
REMARK   26  A    between atoms: C_56  and  C_57 
REMARK   27  A    between atoms: C_57  and  C_58 
REMARK   28  A    between atoms: C_58  and  O_60 
ROOT
ATOM      1  O   UNK d   0      30.593  -6.769  35.974  0.00  0.00    -0.650 OA
ATOM      2  C   UNK d   0      31.687  -6.225  35.707  0.00  0.00     0.139 C 
ENDROOT
BRANCH   2   3
ATOM      3  O   UNK d   0      32.352  -6.577  34.556  0.00  0.00    -0.776 OA
ATOM      4  H   UNK d   0      32.880  -7.450  34.499  0.00  0.00     0.167 HD
ENDBRANCH   2   3
BRANCH   2   5
ATOM      5  C   UNK d   0      32.261  -5.205  36.630  0.00  0.00     0.115 C 
BRANCH   5   6
ATOM      6  C   UNK d   0      31.160  -4.518  37.391  0.00  0.00     0.052 C 
BRANCH   6   7
ATOM      7  C   UNK d   0      31.682  -3.643  38.506  0.00  0.00    -0.020 A 
ATOM      8  C   UNK d   0      31.638  -2.338  38.583  0.00  0.00    -0.011 A 
ATOM      9  C   UNK d   0      32.271  -1.944  39.830  0.00  0.00     0.067 A 
ATOM     10  C   UNK d   0      32.523  -0.737  40.501  0.00  0.00     0.062 C 
ATOM     11  N   UNK d   0      32.677  -3.074  40.448  0.00  0.00    -0.248 NA
ATOM     12  C   UNK d   0      32.902  -0.574  41.838  0.00  0.00     0.041 A 
ATOM     13  N   UNK d   0      33.790  -1.245  42.596  0.00  0.00    -0.355 N 
ATOM     14  C   UNK d   0      32.254   0.403  42.615  0.00  0.00    -0.022 A 
ATOM     15  C   UNK d   0      33.716  -0.724  43.835  0.00  0.00     0.042 A 
ATOM     16  H   UNK d   0      34.470  -2.058  42.257  0.00  0.00     0.166 HD
ATOM     17  C   UNK d   0      34.425  -1.053  45.008  0.00  0.00     0.062 C 
ATOM     18  C   UNK d   0      32.764   0.312  43.886  0.00  0.00    -0.013 A 
ATOM     19  C   UNK d   0      34.707  -2.291  45.526  0.00  0.00     0.067 A 
ATOM     20  N   UNK d   0      34.465  -3.344  44.742  0.00  0.00    -0.248 NA
ATOM     21  C   UNK d   0      35.220  -2.804  46.786  0.00  0.00    -0.011 A 
ATOM     22  C   UNK d   0      34.780  -4.509  45.398  0.00  0.00     0.066 A 
ATOM     23  C   UNK d   0      34.611  -5.685  44.682  0.00  0.00     0.062 C 
ATOM     24  C   UNK d   0      35.256  -4.103  46.706  0.00  0.00    -0.020 A 
ATOM     25  C   UNK d   0      34.242  -5.826  43.335  0.00  0.00     0.041 A 
ATOM     26  N   UNK d   0      33.349  -5.170  42.586  0.00  0.00    -0.355 N 
ATOM     27  C   UNK d   0      34.896  -6.805  42.555  0.00  0.00    -0.022 A 
ATOM     28  C   UNK d   0      33.414  -5.694  41.352  0.00  0.00     0.042 A 
ATOM     29  H   UNK d   0      32.659  -4.360  42.930  0.00  0.00     0.166 HD
ATOM     30  C   UNK d   0      32.709  -5.382  40.178  0.00  0.00     0.062 C 
ATOM     31  C   UNK d   0      34.379  -6.727  41.299  0.00  0.00    -0.013 A 
ATOM     32  C   UNK d   0      32.352  -4.131  39.702  0.00  0.00     0.066 A 
BRANCH   8  33
ATOM     33  C   UNK d   0      31.060  -1.412  37.591  0.00  0.00     0.151 C 
BRANCH  33  34
ATOM     34  C   UNK d   0      31.555  -0.031  37.744  0.00  0.00     0.143 C 
ATOM     35  O   UNK d   0      32.705   0.274  37.399  0.00  0.00    -0.650 OA
BRANCH  34  36
ATOM     36  O   UNK d   0      30.726   0.928  38.278  0.00  0.00    -0.776 OA
ATOM     37  H   UNK d   0      29.819   0.678  38.696  0.00  0.00     0.167 HD
ENDBRANCH  34  36
ENDBRANCH  33  34
ENDBRANCH   8  33
BRANCH  31  38
ATOM     38  C   UNK d   0      34.784  -7.573  40.114  0.00  0.00     0.151 C 
BRANCH  38  39
ATOM     39  C   UNK d   0      35.827  -6.962  39.318  0.00  0.00     0.143 C 
ATOM     40  O   UNK d   0      36.981  -6.793  39.750  0.00  0.00    -0.650 OA
BRANCH  39  41
ATOM     41  O   UNK d   0      35.543  -6.544  38.019  0.00  0.00    -0.776 OA
ATOM     42  H   UNK d   0      35.493  -7.272  37.300  0.00  0.00     0.167 HD
ENDBRANCH  39  41
ENDBRANCH  38  39
ENDBRANCH  31  38
BRANCH  27  43
ATOM     43  C   UNK d   0      35.968  -7.788  42.953  0.00  0.00     0.052 C 
BRANCH  43  44
ATOM     44  C   UNK d   0      37.351  -7.234  42.836  0.00  0.00     0.115 C 
BRANCH  44  45
ATOM     45  C   UNK d   0      37.919  -7.216  44.209  0.00  0.00     0.139 C 
ATOM     46  O   UNK d   0      37.461  -8.030  45.050  0.00  0.00    -0.650 OA
BRANCH  45  47
ATOM     47  O   UNK d   0      38.924  -6.354  44.592  0.00  0.00    -0.776 OA
ATOM     48  H   UNK d   0      38.750  -5.367  44.841  0.00  0.00     0.167 HD
ENDBRANCH  45  47
ENDBRANCH  44  45
ENDBRANCH  43  44
ENDBRANCH  27  43
BRANCH  24  49
ATOM     49  C   UNK d   0      35.747  -5.024  47.745  0.00  0.00     0.052 C 
BRANCH  49  50
ATOM     50  C   UNK d   0      34.659  -5.309  48.749  0.00  0.00     0.115 C 
BRANCH  50  51
ATOM     51  C   UNK d   0      33.991  -6.600  48.656  0.00  0.00     0.139 C 
ATOM     52  O   UNK d   0      32.972  -6.785  47.949  0.00  0.00    -0.650 OA
BRANCH  51  53
ATOM     53  O   UNK d   0      34.483  -7.681  49.372  0.00  0.00    -0.776 OA
ATOM     54  H   UNK d   0      33.881  -8.474  49.510  0.00  0.00     0.167 HD
ENDBRANCH  51  53
ENDBRANCH  50  51
ENDBRANCH  49  50
ENDBRANCH  24  49
BRANCH  21  55
ATOM     55  C   UNK d   0      35.624  -1.942  47.936  0.00  0.00     0.151 C 
BRANCH  55  56
ATOM     56  C   UNK d   0      36.689  -0.996  47.569  0.00  0.00     0.143 C 
ATOM     57  O   UNK d   0      37.821  -1.365  47.197  0.00  0.00    -0.650 OA
BRANCH  56  58
ATOM     58  O   UNK d   0      36.402   0.366  47.645  0.00  0.00    -0.776 OA
ATOM     59  H   UNK d   0      35.881   0.654  48.493  0.00  0.00     0.167 HD
ENDBRANCH  56  58
ENDBRANCH  55  56
ENDBRANCH  21  55
BRANCH  18  60
ATOM     60  C   UNK d   0      32.342   1.173  45.051  0.00  0.00     0.151 C 
BRANCH  60  61
ATOM     61  C   UNK d   0      33.561   1.854  45.512  0.00  0.00     0.143 C 
ATOM     62  O   UNK d   0      34.050   1.817  46.641  0.00  0.00    -0.650 OA
BRANCH  61  63
ATOM     63  O   UNK d   0      34.226   2.629  44.531  0.00  0.00    -0.776 OA
ATOM     64  H   UNK d   0      35.229   2.667  44.493  0.00  0.00     0.167 HD
ENDBRANCH  61  63
ENDBRANCH  60  61
ENDBRANCH  18  60
BRANCH  14  65
ATOM     65  C   UNK d   0      31.271   1.471  42.227  0.00  0.00     0.052 C 
BRANCH  65  66
ATOM     66  C   UNK d   0      31.925   2.731  41.782  0.00  0.00     0.115 C 
BRANCH  66  67
ATOM     67  C   UNK d   0      31.594   3.971  42.425  0.00  0.00     0.139 C 
ATOM     68  O   UNK d   0      30.680   4.708  41.902  0.00  0.00    -0.650 OA
BRANCH  67  69
ATOM     69  O   UNK d   0      32.151   4.505  43.586  0.00  0.00    -0.776 OA
ATOM     70  H   UNK d   0      31.617   5.265  44.031  0.00  0.00     0.167 HD
ENDBRANCH  67  69
ENDBRANCH  66  67
ENDBRANCH  65  66
ENDBRANCH  14  65
ENDBRANCH   6   7
ENDBRANCH   5   6
ENDBRANCH   2   5
TORSDOF 28
ENDMDL
MODEL 8
REMARK VINA RESULT:      -9.0     29.104     32.398
REMARK  28 active torsions:
REMARK  status: ('A' for Active; 'I' for Inactive)
REMARK    1  A    between atoms: C_2  and  O_3 
REMARK    2  A    between atoms: C_2  and  C_4 
REMARK    3  A    between atoms: C_4  and  C_5 
REMARK    4  A    between atoms: C_5  and  C_6 
REMARK    5  A    between atoms: C_7  and  C_8 
REMARK    6  A    between atoms: C_8  and  C_9 
REMARK    7  A    between atoms: C_9  and  O_11 
REMARK    8  A    between atoms: C_28  and  C_29 
REMARK    9  A    between atoms: C_29  and  C_30 
REMARK   10  A    between atoms: C_30  and  O_32 
REMARK   11  A    between atoms: C_33  and  C_34 
REMARK   12  A    between atoms: C_34  and  C_35 
REMARK   13  A    between atoms: C_35  and  C_36 
REMARK   14  A    between atoms: C_36  and  O_38 
REMARK   15  A    between atoms: C_39  and  C_40 
REMARK   16  A    between atoms: C_40  and  C_41 
REMARK   17  A    between atoms: C_41  and  C_42 
REMARK   18  A    between atoms: C_42  and  O_44 
REMARK   19  A    between atoms: C_45  and  C_46 
REMARK   20  A    between atoms: C_46  and  C_47 
REMARK   21  A    between atoms: C_47  and  O_49 
REMARK   22  A    between atoms: C_50  and  C_51 
REMARK   23  A    between atoms: C_51  and  C_52 
REMARK   24  A    between atoms: C_52  and  O_54 
REMARK   25  A    between atoms: C_55  and  C_56 
REMARK   26  A    between atoms: C_56  and  C_57 
REMARK   27  A    between atoms: C_57  and  C_58 
REMARK   28  A    between atoms: C_58  and  O_60 
ROOT
ATOM      1  O   UNK d   0       3.829   1.008  45.360  0.00  0.00    -0.650 OA
ATOM      2  C   UNK d   0       4.603   0.895  46.336  0.00  0.00     0.139 C 
ENDROOT
BRANCH   2   3
ATOM      3  O   UNK d   0       5.282  -0.285  46.524  0.00  0.00    -0.776 OA
ATOM      4  H   UNK d   0       4.990  -0.953  47.242  0.00  0.00     0.167 HD
ENDBRANCH   2   3
BRANCH   2   5
ATOM      5  C   UNK d   0       4.785   2.031  47.283  0.00  0.00     0.115 C 
BRANCH   5   6
ATOM      6  C   UNK d   0       5.866   2.952  46.786  0.00  0.00     0.052 C 
BRANCH   6   7
ATOM      7  C   UNK d   0       5.372   4.360  46.559  0.00  0.00    -0.020 A 
ATOM      8  C   UNK d   0       5.477   5.383  47.368  0.00  0.00    -0.011 A 
ATOM      9  C   UNK d   0       4.847   6.525  46.726  0.00  0.00     0.067 A 
ATOM     10  C   UNK d   0       4.644   7.878  47.039  0.00  0.00     0.062 C 
ATOM     11  N   UNK d   0       4.380   6.105  45.531  0.00  0.00    -0.248 NA
ATOM     12  C   UNK d   0       4.256   8.901  46.167  0.00  0.00     0.041 A 
ATOM     13  N   UNK d   0       3.327   8.930  45.193  0.00  0.00    -0.355 N 
ATOM     14  C   UNK d   0       4.940  10.129  46.211  0.00  0.00    -0.022 A 
ATOM     15  C   UNK d   0       3.409  10.142  44.612  0.00  0.00     0.042 A 
ATOM     16  H   UNK d   0       2.614   8.116  44.933  0.00  0.00     0.166 HD
ATOM     17  C   UNK d   0       2.671  10.697  43.549  0.00  0.00     0.062 C 
ATOM     18  C   UNK d   0       4.410  10.922  45.224  0.00  0.00    -0.013 A 
ATOM     19  C   UNK d   0       2.322  10.128  42.351  0.00  0.00     0.067 A 
ATOM     20  N   UNK d   0       2.525   8.814  42.224  0.00  0.00    -0.248 NA
ATOM     21  C   UNK d   0       1.769  10.598  41.092  0.00  0.00    -0.011 A 
ATOM     22  C   UNK d   0       2.145   8.391  40.974  0.00  0.00     0.066 A 
ATOM     23  C   UNK d   0       2.267   7.033  40.719  0.00  0.00     0.062 C 
ATOM     24  C   UNK d   0       1.672   9.578  40.289  0.00  0.00    -0.020 A 
ATOM     25  C   UNK d   0       2.647   6.020  41.613  0.00  0.00     0.041 A 
ATOM     26  N   UNK d   0       3.581   5.986  42.571  0.00  0.00    -0.355 N 
ATOM     27  C   UNK d   0       1.957   4.789  41.571  0.00  0.00    -0.022 A 
ATOM     28  C   UNK d   0       3.507   4.775  43.146  0.00  0.00     0.042 A 
ATOM     29  H   UNK d   0       4.304   6.801  42.824  0.00  0.00     0.166 HD
ATOM     30  C   UNK d   0       4.241   4.206  44.198  0.00  0.00     0.062 C 
ATOM     31  C   UNK d   0       2.494   3.996  42.538  0.00  0.00    -0.013 A 
ATOM     32  C   UNK d   0       4.664   4.812  45.370  0.00  0.00     0.066 A 
BRANCH   8  33
ATOM     33  C   UNK d   0       6.111   5.397  48.699  0.00  0.00     0.151 C 
BRANCH  33  34
ATOM     34  C   UNK d   0       5.259   4.802  49.744  0.00  0.00     0.143 C 
ATOM     35  O   UNK d   0       5.733   4.029  50.589  0.00  0.00    -0.650 OA
BRANCH  34  36
ATOM     36  O   UNK d   0       3.918   5.110  49.778  0.00  0.00    -0.776 OA
ATOM     37  H   UNK d   0       3.216   4.408  50.047  0.00  0.00     0.167 HD
ENDBRANCH  34  36
ENDBRANCH  33  34
ENDBRANCH   8  33
BRANCH  31  38
ATOM     38  C   UNK d   0       2.065   2.587  42.875  0.00  0.00     0.151 C 
BRANCH  38  39
ATOM     39  C   UNK d   0       2.638   1.598  41.987  0.00  0.00     0.143 C 
ATOM     40  O   UNK d   0       3.852   1.569  41.718  0.00  0.00    -0.650 OA
BRANCH  39  41
ATOM     41  O   UNK d   0       1.811   0.636  41.407  0.00  0.00    -0.776 OA
ATOM     42  H   UNK d   0       2.249  -0.254  41.149  0.00  0.00     0.167 HD
ENDBRANCH  39  41
ENDBRANCH  38  39
ENDBRANCH  31  38
BRANCH  27  43
ATOM     43  C   UNK d   0       0.834   4.350  40.665  0.00  0.00     0.052 C 
BRANCH  43  44
ATOM     44  C   UNK d   0      -0.469   5.011  40.976  0.00  0.00     0.115 C 
BRANCH  44  45
ATOM     45  C   UNK d   0      -1.060   4.267  42.119  0.00  0.00     0.139 C 
ATOM     46  O   UNK d   0      -1.609   4.927  43.035  0.00  0.00    -0.650 OA
BRANCH  45  47
ATOM     47  O   UNK d   0      -1.033   2.892  42.209  0.00  0.00    -0.776 OA
ATOM     48  H   UNK d   0      -1.085   2.388  43.109  0.00  0.00     0.167 HD
ENDBRANCH  45  47
ENDBRANCH  44  45
ENDBRANCH  43  44
ENDBRANCH  27  43
BRANCH  24  49
ATOM     49  C   UNK d   0       1.124   9.598  38.922  0.00  0.00     0.052 C 
BRANCH  49  50
ATOM     50  C   UNK d   0       2.241   9.612  37.910  0.00  0.00     0.115 C 
BRANCH  50  51
ATOM     51  C   UNK d   0       2.086   8.763  36.736  0.00  0.00     0.139 C 
ATOM     52  O   UNK d   0       1.751   7.557  36.813  0.00  0.00    -0.650 OA
BRANCH  51  53
ATOM     53  O   UNK d   0       2.314   9.289  35.474  0.00  0.00    -0.776 OA
ATOM     54  H   UNK d   0       1.708  10.022  35.147  0.00  0.00     0.167 HD
ENDBRANCH  51  53
ENDBRANCH  50  51
ENDBRANCH  49  50
ENDBRANCH  24  49
BRANCH  21  55
ATOM     55  C   UNK d   0       1.391  12.017  40.824  0.00  0.00     0.151 C 
BRANCH  55  56
ATOM     56  C   UNK d   0       0.122  12.382  41.472  0.00  0.00     0.143 C 
ATOM     57  O   UNK d   0      -0.036  12.355  42.709  0.00  0.00    -0.650 OA
BRANCH  56  58
ATOM     58  O   UNK d   0      -0.937  12.771  40.654  0.00  0.00    -0.776 OA
ATOM     59  H   UNK d   0      -0.686  13.445  39.908  0.00  0.00     0.167 HD
ENDBRANCH  56  58
ENDBRANCH  55  56
ENDBRANCH  21  55
BRANCH  18  60
ATOM     60  C   UNK d   0       4.857  12.328  44.911  0.00  0.00     0.151 C 
BRANCH  60  61
ATOM     61  C   UNK d   0       3.854  13.216  45.520  0.00  0.00     0.143 C 
ATOM     62  O   UNK d   0       3.016  12.915  46.370  0.00  0.00    -0.650 OA
BRANCH  61  63
ATOM     63  O   UNK d   0       3.877  14.555  45.061  0.00  0.00    -0.776 OA
ATOM     64  H   UNK d   0       3.240  15.239  45.428  0.00  0.00     0.167 HD
ENDBRANCH  61  63
ENDBRANCH  60  61
ENDBRANCH  18  60
BRANCH  14  65
ATOM     65  C   UNK d   0       5.978  10.640  47.170  0.00  0.00     0.052 C 
BRANCH  65  66
ATOM     66  C   UNK d   0       7.345  10.134  46.871  0.00  0.00     0.115 C 
BRANCH  66  67
ATOM     67  C   UNK d   0       8.427  10.436  47.765  0.00  0.00     0.139 C 
ATOM     68  O   UNK d   0       9.449   9.656  47.777  0.00  0.00    -0.650 OA
BRANCH  67  69
ATOM     69  O   UNK d   0       8.523  11.503  48.658  0.00  0.00    -0.776 OA
ATOM     70  H   UNK d   0       8.066  12.378  48.362  0.00  0.00     0.167 HD
ENDBRANCH  67  69
ENDBRANCH  66  67
ENDBRANCH  65  66
ENDBRANCH  14  65
ENDBRANCH   6   7
ENDBRANCH   5   6
ENDBRANCH   2   5
TORSDOF 28
ENDMDL
MODEL 9
REMARK VINA RESULT:      -8.9      2.332      9.359
REMARK  28 active torsions:
REMARK  status: ('A' for Active; 'I' for Inactive)
REMARK    1  A    between atoms: C_2  and  O_3 
REMARK    2  A    between atoms: C_2  and  C_4 
REMARK    3  A    between atoms: C_4  and  C_5 
REMARK    4  A    between atoms: C_5  and  C_6 
REMARK    5  A    between atoms: C_7  and  C_8 
REMARK    6  A    between atoms: C_8  and  C_9 
REMARK    7  A    between atoms: C_9  and  O_11 
REMARK    8  A    between atoms: C_28  and  C_29 
REMARK    9  A    between atoms: C_29  and  C_30 
REMARK   10  A    between atoms: C_30  and  O_32 
REMARK   11  A    between atoms: C_33  and  C_34 
REMARK   12  A    between atoms: C_34  and  C_35 
REMARK   13  A    between atoms: C_35  and  C_36 
REMARK   14  A    between atoms: C_36  and  O_38 
REMARK   15  A    between atoms: C_39  and  C_40 
REMARK   16  A    between atoms: C_40  and  C_41 
REMARK   17  A    between atoms: C_41  and  C_42 
REMARK   18  A    between atoms: C_42  and  O_44 
REMARK   19  A    between atoms: C_45  and  C_46 
REMARK   20  A    between atoms: C_46  and  C_47 
REMARK   21  A    between atoms: C_47  and  O_49 
REMARK   22  A    between atoms: C_50  and  C_51 
REMARK   23  A    between atoms: C_51  and  C_52 
REMARK   24  A    between atoms: C_52  and  O_54 
REMARK   25  A    between atoms: C_55  and  C_56 
REMARK   26  A    between atoms: C_56  and  C_57 
REMARK   27  A    between atoms: C_57  and  C_58 
REMARK   28  A    between atoms: C_58  and  O_60 
ROOT
ATOM      1  O   UNK d   0      32.584   2.934  39.813  0.00  0.00    -0.650 OA
ATOM      2  C   UNK d   0      31.754   2.496  38.987  0.00  0.00     0.139 C 
ENDROOT
BRANCH   2   3
ATOM      3  O   UNK d   0      30.481   3.015  38.971  0.00  0.00    -0.776 OA
ATOM      4  H   UNK d   0      30.182   3.700  39.668  0.00  0.00     0.167 HD
ENDBRANCH   2   3
BRANCH   2   5
ATOM      5  C   UNK d   0      32.144   1.422  38.031  0.00  0.00     0.115 C 
BRANCH   5   6
ATOM      6  C   UNK d   0      31.053   0.390  37.937  0.00  0.00     0.052 C 
BRANCH   6   7
ATOM      7  C   UNK d   0      31.479  -0.956  38.472  0.00  0.00    -0.020 A 
ATOM      8  C   UNK d   0      31.378  -2.119  37.880  0.00  0.00    -0.011 A 
ATOM      9  C   UNK d   0      31.910  -3.126  38.783  0.00  0.00     0.067 A 
ATOM     10  C   UNK d   0      32.107  -4.515  38.747  0.00  0.00     0.062 C 
ATOM     11  N   UNK d   0      32.307  -2.489  39.904  0.00  0.00    -0.248 NA
ATOM     12  C   UNK d   0      32.896  -5.282  39.612  0.00  0.00     0.041 A 
ATOM     13  N   UNK d   0      33.043  -5.239  40.949  0.00  0.00    -0.355 N 
ATOM     14  C   UNK d   0      33.756  -6.253  39.067  0.00  0.00    -0.022 A 
ATOM     15  C   UNK d   0      33.980  -6.153  41.267  0.00  0.00     0.042 A 
ATOM     16  H   UNK d   0      32.482  -4.591  41.657  0.00  0.00     0.166 HD
ATOM     17  C   UNK d   0      34.512  -6.519  42.520  0.00  0.00     0.062 C 
ATOM     18  C   UNK d   0      34.451  -6.808  40.112  0.00  0.00    -0.013 A 
ATOM     19  C   UNK d   0      34.922  -5.713  43.551  0.00  0.00     0.067 A 
ATOM     20  N   UNK d   0      34.609  -4.418  43.467  0.00  0.00    -0.248 NA
ATOM     21  C   UNK d   0      35.666  -5.895  44.786  0.00  0.00    -0.011 A 
ATOM     22  C   UNK d   0      35.096  -3.739  44.557  0.00  0.00     0.066 A 
ATOM     23  C   UNK d   0      34.809  -2.383  44.618  0.00  0.00     0.062 C 
ATOM     24  C   UNK d   0      35.769  -4.735  45.368  0.00  0.00    -0.020 A 
ATOM     25  C   UNK d   0      34.004  -1.634  43.746  0.00  0.00     0.041 A 
ATOM     26  N   UNK d   0      33.868  -1.666  42.415  0.00  0.00    -0.355 N 
ATOM     27  C   UNK d   0      33.138  -0.663  44.294  0.00  0.00    -0.022 A 
ATOM     28  C   UNK d   0      32.941  -0.750  42.095  0.00  0.00     0.042 A 
ATOM     29  H   UNK d   0      34.441  -2.311  41.704  0.00  0.00     0.166 HD
ATOM     30  C   UNK d   0      32.409  -0.369  40.853  0.00  0.00     0.062 C 
ATOM     31  C   UNK d   0      32.461  -0.099  43.256  0.00  0.00    -0.013 A 
ATOM     32  C   UNK d   0      32.076  -1.181  39.781  0.00  0.00     0.066 A 
BRANCH   8  33
ATOM     33  C   UNK d   0      30.823  -2.384  36.540  0.00  0.00     0.151 C 
BRANCH  33  34
ATOM     34  C   UNK d   0      29.727  -3.369  36.561  0.00  0.00     0.143 C 
ATOM     35  O   UNK d   0      28.970  -3.458  37.538  0.00  0.00    -0.650 OA
BRANCH  34  36
ATOM     36  O   UNK d   0      29.545  -4.201  35.480  0.00  0.00    -0.776 OA
ATOM     37  H   UNK d   0      29.040  -3.884  34.642  0.00  0.00     0.167 HD
ENDBRANCH  34  36
ENDBRANCH  33  34
ENDBRANCH   8  33
BRANCH  31  38
ATOM     38  C   UNK d   0      31.412   0.983  43.360  0.00  0.00     0.151 C 
BRANCH  38  39
ATOM     39  C   UNK d   0      31.963   2.315  43.227  0.00  0.00     0.143 C 
ATOM     40  O   UNK d   0      31.357   3.328  43.617  0.00  0.00    -0.650 OA
BRANCH  39  41
ATOM     41  O   UNK d   0      33.219   2.482  42.644  0.00  0.00    -0.776 OA
ATOM     42  H   UNK d   0      33.913   3.006  43.186  0.00  0.00     0.167 HD
ENDBRANCH  39  41
ENDBRANCH  38  39
ENDBRANCH  31  38
BRANCH  27  43
ATOM     43  C   UNK d   0      32.937  -0.261  45.733  0.00  0.00     0.052 C 
BRANCH  43  44
ATOM     44  C   UNK d   0      33.239   1.180  45.992  0.00  0.00     0.115 C 
BRANCH  44  45
ATOM     45  C   UNK d   0      34.548   1.220  46.695  0.00  0.00     0.139 C 
ATOM     46  O   UNK d   0      34.948   2.324  47.138  0.00  0.00    -0.650 OA
BRANCH  45  47
ATOM     47  O   UNK d   0      35.330   0.100  46.883  0.00  0.00    -0.776 OA
ATOM     48  H   UNK d   0      34.967  -0.774  47.297  0.00  0.00     0.167 HD
ENDBRANCH  45  47
ENDBRANCH  44  45
ENDBRANCH  43  44
ENDBRANCH  27  43
BRANCH  24  49
ATOM     49  C   UNK d   0      36.414  -4.468  46.665  0.00  0.00     0.052 C 
BRANCH  49  50
ATOM     50  C   UNK d   0      37.078  -3.115  46.652  0.00  0.00     0.115 C 
BRANCH  50  51
ATOM     51  C   UNK d   0      38.424  -3.040  46.101  0.00  0.00     0.139 C 
ATOM     52  O   UNK d   0      38.650  -3.008  44.868  0.00  0.00    -0.650 OA
BRANCH  51  53
ATOM     53  O   UNK d   0      39.514  -3.004  46.957  0.00  0.00    -0.776 OA
ATOM     54  H   UNK d   0      39.404  -3.377  47.883  0.00  0.00     0.167 HD
ENDBRANCH  51  53
ENDBRANCH  50  51
ENDBRANCH  49  50
ENDBRANCH  24  49
BRANCH  21  55
ATOM     55  C   UNK d   0      36.194  -7.209  45.257  0.00  0.00     0.151 C 
BRANCH  55  56
ATOM     56  C   UNK d   0      37.505  -7.521  44.667  0.00  0.00     0.143 C 
ATOM     57  O   UNK d   0      38.166  -6.690  44.014  0.00  0.00    -0.650 OA
BRANCH  56  58
ATOM     58  O   UNK d   0      38.012  -8.806  44.856  0.00  0.00    -0.776 OA
ATOM     59  H   UNK d   0      38.859  -8.857  45.451  0.00  0.00     0.167 HD
ENDBRANCH  56  58
ENDBRANCH  55  56
ENDBRANCH  21  55
BRANCH  18  60
ATOM     60  C   UNK d   0      35.492  -7.891  39.980  0.00  0.00     0.151 C 
BRANCH  60  61
ATOM     61  C   UNK d   0      36.785  -7.198  39.874  0.00  0.00     0.143 C 
ATOM     62  O   UNK d   0      37.526  -6.863  40.798  0.00  0.00    -0.650 OA
BRANCH  61  63
ATOM     63  O   UNK d   0      37.199  -6.894  38.554  0.00  0.00    -0.776 OA
ATOM     64  H   UNK d   0      37.863  -7.474  38.073  0.00  0.00     0.167 HD
ENDBRANCH  61  63
ENDBRANCH  60  61
ENDBRANCH  18  60
BRANCH  14  65
ATOM     65  C   UNK d   0      33.898  -6.758  37.659  0.00  0.00     0.052 C 
BRANCH  65  66
ATOM     66  C   UNK d   0      32.684  -7.464  37.170  0.00  0.00     0.115 C 
BRANCH  66  67
ATOM     67  C   UNK d   0      32.091  -7.078  35.920  0.00  0.00     0.139 C 
ATOM     68  O   UNK d   0      31.594  -7.995  35.168  0.00  0.00    -0.650 OA
BRANCH  67  69
ATOM     69  O   UNK d   0      31.978  -5.793  35.390  0.00  0.00    -0.776 OA
ATOM     70  H   UNK d   0      31.830  -5.038  36.075  0.00  0.00     0.167 HD
ENDBRANCH  67  69
ENDBRANCH  66  67
ENDBRANCH  65  66
ENDBRANCH  14  65
ENDBRANCH   6   7
ENDBRANCH   5   6
ENDBRANCH   2   5
TORSDOF 28
ENDMDL
MODEL 10
REMARK VINA RESULT:      -8.7      1.847      9.188
REMARK  28 active torsions:
REMARK  status: ('A' for Active; 'I' for Inactive)
REMARK    1  A    between atoms: C_2  and  O_3 
REMARK    2  A    between atoms: C_2  and  C_4 
REMARK    3  A    between atoms: C_4  and  C_5 
REMARK    4  A    between atoms: C_5  and  C_6 
REMARK    5  A    between atoms: C_7  and  C_8 
REMARK    6  A    between atoms: C_8  and  C_9 
REMARK    7  A    between atoms: C_9  and  O_11 
REMARK    8  A    between atoms: C_28  and  C_29 
REMARK    9  A    between atoms: C_29  and  C_30 
REMARK   10  A    between atoms: C_30  and  O_32 
REMARK   11  A    between atoms: C_33  and  C_34 
REMARK   12  A    between atoms: C_34  and  C_35 
REMARK   13  A    between atoms: C_35  and  C_36 
REMARK   14  A    between atoms: C_36  and  O_38 
REMARK   15  A    between atoms: C_39  and  C_40 
REMARK   16  A    between atoms: C_40  and  C_41 
REMARK   17  A    between atoms: C_41  and  C_42 
REMARK   18  A    between atoms: C_42  and  O_44 
REMARK   19  A    between atoms: C_45  and  C_46 
REMARK   20  A    between atoms: C_46  and  C_47 
REMARK   21  A    between atoms: C_47  and  O_49 
REMARK   22  A    between atoms: C_50  and  C_51 
REMARK   23  A    between atoms: C_51  and  C_52 
REMARK   24  A    between atoms: C_52  and  O_54 
REMARK   25  A    between atoms: C_55  and  C_56 
REMARK   26  A    between atoms: C_56  and  C_57 
REMARK   27  A    between atoms: C_57  and  C_58 
REMARK   28  A    between atoms: C_58  and  O_60 
ROOT
ATOM      1  O   UNK d   0      32.018   4.969  40.540  0.00  0.00    -0.650 OA
ATOM      2  C   UNK d   0      31.692   3.923  39.937  0.00  0.00     0.139 C 
ENDROOT
BRANCH   2   3
ATOM      3  O   UNK d   0      30.377   3.729  39.588  0.00  0.00    -0.776 OA
ATOM      4  H   UNK d   0      29.829   4.478  39.160  0.00  0.00     0.167 HD
ENDBRANCH   2   3
BRANCH   2   5
ATOM      5  C   UNK d   0      32.722   2.899  39.602  0.00  0.00     0.115 C 
BRANCH   5   6
ATOM      6  C   UNK d   0      32.164   1.905  38.620  0.00  0.00     0.052 C 
BRANCH   6   7
ATOM      7  C   UNK d   0      32.242   0.484  39.125  0.00  0.00    -0.020 A 
ATOM      8  C   UNK d   0      31.893  -0.608  38.493  0.00  0.00    -0.011 A 
ATOM      9  C   UNK d   0      32.140  -1.733  39.379  0.00  0.00     0.067 A 
ATOM     10  C   UNK d   0      32.006  -3.128  39.306  0.00  0.00     0.062 C 
ATOM     11  N   UNK d   0      32.635  -1.234  40.531  0.00  0.00    -0.248 NA
ATOM     12  C   UNK d   0      32.561  -4.079  40.168  0.00  0.00     0.041 A 
ATOM     13  N   UNK d   0      32.666  -4.105  41.511  0.00  0.00    -0.355 N 
ATOM     14  C   UNK d   0      33.188  -5.213  39.619  0.00  0.00    -0.022 A 
ATOM     15  C   UNK d   0      33.350  -5.221  41.826  0.00  0.00     0.042 A 
ATOM     16  H   UNK d   0      32.248  -3.359  42.222  0.00  0.00     0.166 HD
ATOM     17  C   UNK d   0      33.735  -5.731  43.082  0.00  0.00     0.062 C 
ATOM     18  C   UNK d   0      33.695  -5.941  40.666  0.00  0.00    -0.013 A 
ATOM     19  C   UNK d   0      34.286  -5.070  44.150  0.00  0.00     0.067 A 
ATOM     20  N   UNK d   0      34.290  -3.735  44.098  0.00  0.00    -0.248 NA
ATOM     21  C   UNK d   0      34.922  -5.451  45.400  0.00  0.00    -0.011 A 
ATOM     22  C   UNK d   0      34.883  -3.216  45.223  0.00  0.00     0.066 A 
ATOM     23  C   UNK d   0      34.920  -1.833  45.317  0.00  0.00     0.062 C 
ATOM     24  C   UNK d   0      35.272  -4.362  46.021  0.00  0.00    -0.020 A 
ATOM     25  C   UNK d   0      34.345  -0.895  44.446  0.00  0.00     0.041 A 
ATOM     26  N   UNK d   0      34.254  -0.862  43.111  0.00  0.00    -0.355 N 
ATOM     27  C   UNK d   0      33.712   0.240  44.999  0.00  0.00    -0.022 A 
ATOM     28  C   UNK d   0      33.580   0.254  42.793  0.00  0.00     0.042 A 
ATOM     29  H   UNK d   0      34.684  -1.607  42.398  0.00  0.00     0.166 HD
ATOM     30  C   UNK d   0      33.198   0.779  41.549  0.00  0.00     0.062 C 
ATOM     31  C   UNK d   0      33.225   0.972  43.960  0.00  0.00    -0.013 A 
ATOM     32  C   UNK d   0      32.722   0.094  40.442  0.00  0.00     0.066 A 
BRANCH   8  33
ATOM     33  C   UNK d   0      31.339  -0.702  37.130  0.00  0.00     0.151 C 
BRANCH  33  34
ATOM     34  C   UNK d   0      30.656  -1.984  36.879  0.00  0.00     0.143 C 
ATOM     35  O   UNK d   0      29.473  -2.150  37.210  0.00  0.00    -0.650 OA
BRANCH  34  36
ATOM     36  O   UNK d   0      31.343  -3.009  36.271  0.00  0.00    -0.776 OA
ATOM     37  H   UNK d   0      31.352  -3.113  35.247  0.00  0.00     0.167 HD
ENDBRANCH  34  36
ENDBRANCH  33  34
ENDBRANCH   8  33
BRANCH  31  38
ATOM     38  C   UNK d   0      32.456   2.268  44.066  0.00  0.00     0.151 C 
BRANCH  38  39
ATOM     39  C   UNK d   0      31.025   2.068  44.140  0.00  0.00     0.143 C 
ATOM     40  O   UNK d   0      30.335   2.527  45.068  0.00  0.00    -0.650 OA
BRANCH  39  41
ATOM     41  O   UNK d   0      30.382   1.337  43.141  0.00  0.00    -0.776 OA
ATOM     42  H   UNK d   0      30.447   1.705  42.186  0.00  0.00     0.167 HD
ENDBRANCH  39  41
ENDBRANCH  38  39
ENDBRANCH  31  38
BRANCH  27  43
ATOM     43  C   UNK d   0      33.560   0.644  46.444  0.00  0.00     0.052 C 
BRANCH  43  44
ATOM     44  C   UNK d   0      34.199   1.957  46.760  0.00  0.00     0.115 C 
BRANCH  44  45
ATOM     45  C   UNK d   0      35.391   1.659  47.596  0.00  0.00     0.139 C 
ATOM     46  O   UNK d   0      35.815   2.557  48.365  0.00  0.00    -0.650 OA
BRANCH  45  47
ATOM     47  O   UNK d   0      36.041   0.444  47.564  0.00  0.00    -0.776 OA
ATOM     48  H   UNK d   0      36.153  -0.153  48.400  0.00  0.00     0.167 HD
ENDBRANCH  45  47
ENDBRANCH  44  45
ENDBRANCH  43  44
ENDBRANCH  27  43
BRANCH  24  49
ATOM     49  C   UNK d   0      35.915  -4.286  47.344  0.00  0.00     0.052 C 
BRANCH  49  50
ATOM     50  C   UNK d   0      37.414  -4.222  47.196  0.00  0.00     0.115 C 
BRANCH  50  51
ATOM     51  C   UNK d   0      38.047  -2.925  47.397  0.00  0.00     0.139 C 
ATOM     52  O   UNK d   0      37.436  -1.941  47.878  0.00  0.00    -0.650 OA
BRANCH  51  53
ATOM     53  O   UNK d   0      39.377  -2.749  47.047  0.00  0.00    -0.776 OA
ATOM     54  H   UNK d   0      39.977  -3.555  47.041  0.00  0.00     0.167 HD
ENDBRANCH  51  53
ENDBRANCH  50  51
ENDBRANCH  49  50
ENDBRANCH  24  49
BRANCH  21  55
ATOM     55  C   UNK d   0      35.108  -6.864  45.845  0.00  0.00     0.151 C 
BRANCH  55  56
ATOM     56  C   UNK d   0      33.869  -7.438  46.391  0.00  0.00     0.143 C 
ATOM     57  O   UNK d   0      33.002  -6.751  46.965  0.00  0.00    -0.650 OA
BRANCH  56  58
ATOM     58  O   UNK d   0      33.673  -8.811  46.249  0.00  0.00    -0.776 OA
ATOM     59  H   UNK d   0      32.786  -9.168  46.649  0.00  0.00     0.167 HD
ENDBRANCH  56  58
ENDBRANCH  55  56
ENDBRANCH  21  55
BRANCH  18  60
ATOM     60  C   UNK d   0      34.457  -7.236  40.530  0.00  0.00     0.151 C 
BRANCH  60  61
ATOM     61  C   UNK d   0      35.838  -6.858  40.196  0.00  0.00     0.143 C 
ATOM     62  O   UNK d   0      36.421  -7.046  39.127  0.00  0.00    -0.650 OA
BRANCH  61  63
ATOM     63  O   UNK d   0      36.553  -6.210  41.231  0.00  0.00    -0.776 OA
ATOM     64  H   UNK d   0      36.792  -6.695  42.078  0.00  0.00     0.167 HD
ENDBRANCH  61  63
ENDBRANCH  60  61
ENDBRANCH  18  60
BRANCH  14  65
ATOM     65  C   UNK d   0      33.258  -5.704  38.201  0.00  0.00     0.052 C 
BRANCH  65  66
ATOM     66  C   UNK d   0      32.132  -6.608  37.843  0.00  0.00     0.115 C 
BRANCH  66  67
ATOM     67  C   UNK d   0      31.283  -6.282  36.732  0.00  0.00     0.139 C 
ATOM     68  O   UNK d   0      30.029  -6.552  36.818  0.00  0.00    -0.650 OA
BRANCH  67  69
ATOM     69  O   UNK d   0      31.648  -5.688  35.524  0.00  0.00    -0.776 OA
ATOM     70  H   UNK d   0      32.642  -5.435  35.432  0.00  0.00     0.167 HD
ENDBRANCH  67  69
ENDBRANCH  66  67
ENDBRANCH  65  66
ENDBRANCH  14  65
ENDBRANCH   6   7
ENDBRANCH   5   6
ENDBRANCH   2   5
TORSDOF 28
ENDMDL
MODEL 11
REMARK VINA RESULT:      -8.6     29.139     32.709
REMARK  28 active torsions:
REMARK  status: ('A' for Active; 'I' for Inactive)
REMARK    1  A    between atoms: C_2  and  O_3 
REMARK    2  A    between atoms: C_2  and  C_4 
REMARK    3  A    between atoms: C_4  and  C_5 
REMARK    4  A    between atoms: C_5  and  C_6 
REMARK    5  A    between atoms: C_7  and  C_8 
REMARK    6  A    between atoms: C_8  and  C_9 
REMARK    7  A    between atoms: C_9  and  O_11 
REMARK    8  A    between atoms: C_28  and  C_29 
REMARK    9  A    between atoms: C_29  and  C_30 
REMARK   10  A    between atoms: C_30  and  O_32 
REMARK   11  A    between atoms: C_33  and  C_34 
REMARK   12  A    between atoms: C_34  and  C_35 
REMARK   13  A    between atoms: C_35  and  C_36 
REMARK   14  A    between atoms: C_36  and  O_38 
REMARK   15  A    between atoms: C_39  and  C_40 
REMARK   16  A    between atoms: C_40  and  C_41 
REMARK   17  A    between atoms: C_41  and  C_42 
REMARK   18  A    between atoms: C_42  and  O_44 
REMARK   19  A    between atoms: C_45  and  C_46 
REMARK   20  A    between atoms: C_46  and  C_47 
REMARK   21  A    between atoms: C_47  and  O_49 
REMARK   22  A    between atoms: C_50  and  C_51 
REMARK   23  A    between atoms: C_51  and  C_52 
REMARK   24  A    between atoms: C_52  and  O_54 
REMARK   25  A    between atoms: C_55  and  C_56 
REMARK   26  A    between atoms: C_56  and  C_57 
REMARK   27  A    between atoms: C_57  and  C_58 
REMARK   28  A    between atoms: C_58  and  O_60 
ROOT
ATOM      1  O   UNK d   0       3.927  11.987  41.450  0.00  0.00    -0.650 OA
ATOM      2  C   UNK d   0       4.329  11.674  40.307  0.00  0.00     0.139 C 
ENDROOT
BRANCH   2   3
ATOM      3  O   UNK d   0       5.662  11.812  40.001  0.00  0.00    -0.776 OA
ATOM      4  H   UNK d   0       6.022  11.548  39.082  0.00  0.00     0.167 HD
ENDBRANCH   2   3
BRANCH   2   5
ATOM      5  C   UNK d   0       3.369  11.159  39.291  0.00  0.00     0.115 C 
BRANCH   5   6
ATOM      6  C   UNK d   0       2.058  10.816  39.944  0.00  0.00     0.052 C 
BRANCH   6   7
ATOM      7  C   UNK d   0       1.888   9.332  40.164  0.00  0.00    -0.020 A 
ATOM      8  C   UNK d   0       1.203   8.490  39.433  0.00  0.00    -0.011 A 
ATOM      9  C   UNK d   0       1.324   7.175  40.039  0.00  0.00     0.067 A 
ATOM     10  C   UNK d   0       0.864   5.880  39.749  0.00  0.00     0.062 C 
ATOM     11  N   UNK d   0       2.095   7.309  41.138  0.00  0.00    -0.248 NA
ATOM     12  C   UNK d   0       1.317   4.677  40.301  0.00  0.00     0.041 A 
ATOM     13  N   UNK d   0       1.624   4.344  41.569  0.00  0.00    -0.355 N 
ATOM     14  C   UNK d   0       1.573   3.590  39.446  0.00  0.00    -0.022 A 
ATOM     15  C   UNK d   0       2.076   3.076  41.539  0.00  0.00     0.042 A 
ATOM     16  H   UNK d   0       1.505   4.985  42.470  0.00  0.00     0.166 HD
ATOM     17  C   UNK d   0       2.528   2.243  42.582  0.00  0.00     0.062 C 
ATOM     18  C   UNK d   0       2.059   2.570  40.225  0.00  0.00    -0.013 A 
ATOM     19  C   UNK d   0       3.378   2.540  43.617  0.00  0.00     0.067 A 
ATOM     20  N   UNK d   0       3.678   3.828  43.801  0.00  0.00    -0.248 NA
ATOM     21  C   UNK d   0       4.099   1.784  44.627  0.00  0.00    -0.011 A 
ATOM     22  C   UNK d   0       4.545   3.969  44.857  0.00  0.00     0.066 A 
ATOM     23  C   UNK d   0       4.912   5.266  45.185  0.00  0.00     0.062 C 
ATOM     24  C   UNK d   0       4.783   2.625  45.347  0.00  0.00    -0.020 A 
ATOM     25  C   UNK d   0       4.435   6.462  44.626  0.00  0.00     0.041 A 
ATOM     26  N   UNK d   0       4.144   6.798  43.364  0.00  0.00    -0.355 N 
ATOM     27  C   UNK d   0       4.174   7.551  45.486  0.00  0.00    -0.022 A 
ATOM     28  C   UNK d   0       3.701   8.065  43.390  0.00  0.00     0.042 A 
ATOM     29  H   UNK d   0       4.274   6.156  42.459  0.00  0.00     0.166 HD
ATOM     30  C   UNK d   0       3.257   8.909  42.360  0.00  0.00     0.062 C 
ATOM     31  C   UNK d   0       3.709   8.570  44.712  0.00  0.00    -0.013 A 
ATOM     32  C   UNK d   0       2.468   8.583  41.268  0.00  0.00     0.066 A 
BRANCH   8  33
ATOM     33  C   UNK d   0       0.433   8.799  38.213  0.00  0.00     0.151 C 
BRANCH  33  34
ATOM     34  C   UNK d   0       1.295   9.080  37.051  0.00  0.00     0.143 C 
ATOM     35  O   UNK d   0       2.269   8.358  36.792  0.00  0.00    -0.650 OA
BRANCH  34  36
ATOM     36  O   UNK d   0       1.013  10.159  36.246  0.00  0.00    -0.776 OA
ATOM     37  H   UNK d   0       0.193  10.162  35.624  0.00  0.00     0.167 HD
ENDBRANCH  34  36
ENDBRANCH  33  34
ENDBRANCH   8  33
BRANCH  31  38
ATOM     38  C   UNK d   0       3.284   9.936  45.198  0.00  0.00     0.151 C 
BRANCH  38  39
ATOM     39  C   UNK d   0       1.868  10.013  45.488  0.00  0.00     0.143 C 
ATOM     40  O   UNK d   0       1.004  10.009  44.593  0.00  0.00    -0.650 OA
BRANCH  39  41
ATOM     41  O   UNK d   0       1.442  10.095  46.814  0.00  0.00    -0.776 OA
ATOM     42  H   UNK d   0       2.173  10.105  47.533  0.00  0.00     0.167 HD
ENDBRANCH  39  41
ENDBRANCH  38  39
ENDBRANCH  31  38
BRANCH  27  43
ATOM     43  C   UNK d   0       4.349   7.656  46.980  0.00  0.00     0.052 C 
BRANCH  43  44
ATOM     44  C   UNK d   0       5.780   7.633  47.411  0.00  0.00     0.115 C 
BRANCH  44  45
ATOM     45  C   UNK d   0       6.328   8.988  47.138  0.00  0.00     0.139 C 
ATOM     46  O   UNK d   0       7.234   9.097  46.275  0.00  0.00    -0.650 OA
BRANCH  45  47
ATOM     47  O   UNK d   0       5.880  10.119  47.784  0.00  0.00    -0.776 OA
ATOM     48  H   UNK d   0       5.194  10.089  48.556  0.00  0.00     0.167 HD
ENDBRANCH  45  47
ENDBRANCH  44  45
ENDBRANCH  43  44
ENDBRANCH  27  43
BRANCH  24  49
ATOM     49  C   UNK d   0       5.628   2.290  46.506  0.00  0.00     0.052 C 
BRANCH  49  50
ATOM     50  C   UNK d   0       4.918   2.638  47.790  0.00  0.00     0.115 C 
BRANCH  50  51
ATOM     51  C   UNK d   0       5.470   3.732  48.578  0.00  0.00     0.139 C 
ATOM     52  O   UNK d   0       4.825   4.778  48.827  0.00  0.00    -0.650 OA
BRANCH  51  53
ATOM     53  O   UNK d   0       6.758   3.633  49.082  0.00  0.00    -0.776 OA
ATOM     54  H   UNK d   0       7.147   2.717  49.216  0.00  0.00     0.167 HD
ENDBRANCH  51  53
ENDBRANCH  50  51
ENDBRANCH  49  50
ENDBRANCH  24  49
BRANCH  21  55
ATOM     55  C   UNK d   0       4.026   0.300  44.769  0.00  0.00     0.151 C 
BRANCH  55  56
ATOM     56  C   UNK d   0       3.899  -0.114  46.175  0.00  0.00     0.143 C 
ATOM     57  O   UNK d   0       4.690  -0.909  46.719  0.00  0.00    -0.650 OA
BRANCH  56  58
ATOM     58  O   UNK d   0       2.843   0.416  46.914  0.00  0.00    -0.776 OA
ATOM     59  H   UNK d   0       2.692   1.434  46.791  0.00  0.00     0.167 HD
ENDBRANCH  56  58
ENDBRANCH  55  56
ENDBRANCH  21  55
BRANCH  18  60
ATOM     60  C   UNK d   0       2.474   1.213  39.713  0.00  0.00     0.151 C 
BRANCH  60  61
ATOM     61  C   UNK d   0       1.321   0.327  39.937  0.00  0.00     0.143 C 
ATOM     62  O   UNK d   0       1.126  -0.405  40.907  0.00  0.00    -0.650 OA
BRANCH  61  63
ATOM     63  O   UNK d   0       0.345   0.337  38.911  0.00  0.00    -0.776 OA
ATOM     64  H   UNK d   0       0.555  -0.012  37.993  0.00  0.00     0.167 HD
ENDBRANCH  61  63
ENDBRANCH  60  61
ENDBRANCH  18  60
BRANCH  14  65
ATOM     65  C   UNK d   0       1.303   3.411  37.979  0.00  0.00     0.052 C 
BRANCH  65  66
ATOM     66  C   UNK d   0       0.870   4.667  37.310  0.00  0.00     0.115 C 
BRANCH  66  67
ATOM     67  C   UNK d   0       1.222   4.901  35.938  0.00  0.00     0.139 C 
ATOM     68  O   UNK d   0       1.052   3.949  35.090  0.00  0.00    -0.650 OA
BRANCH  67  69
ATOM     69  O   UNK d   0       1.745   6.066  35.378  0.00  0.00    -0.776 OA
ATOM     70  H   UNK d   0       2.755   6.051  35.173  0.00  0.00     0.167 HD
ENDBRANCH  67  69
ENDBRANCH  66  67
ENDBRANCH  65  66
ENDBRANCH  14  65
ENDBRANCH   6   7
ENDBRANCH   5   6
ENDBRANCH   2   5
TORSDOF 28
ENDMDL
MODEL 12
REMARK VINA RESULT:      -8.6      1.610      7.707
REMARK  28 active torsions:
REMARK  status: ('A' for Active; 'I' for Inactive)
REMARK    1  A    between atoms: C_2  and  O_3 
REMARK    2  A    between atoms: C_2  and  C_4 
REMARK    3  A    between atoms: C_4  and  C_5 
REMARK    4  A    between atoms: C_5  and  C_6 
REMARK    5  A    between atoms: C_7  and  C_8 
REMARK    6  A    between atoms: C_8  and  C_9 
REMARK    7  A    between atoms: C_9  and  O_11 
REMARK    8  A    between atoms: C_28  and  C_29 
REMARK    9  A    between atoms: C_29  and  C_30 
REMARK   10  A    between atoms: C_30  and  O_32 
REMARK   11  A    between atoms: C_33  and  C_34 
REMARK   12  A    between atoms: C_34  and  C_35 
REMARK   13  A    between atoms: C_35  and  C_36 
REMARK   14  A    between atoms: C_36  and  O_38 
REMARK   15  A    between atoms: C_39  and  C_40 
REMARK   16  A    between atoms: C_40  and  C_41 
REMARK   17  A    between atoms: C_41  and  C_42 
REMARK   18  A    between atoms: C_42  and  O_44 
REMARK   19  A    between atoms: C_45  and  C_46 
REMARK   20  A    between atoms: C_46  and  C_47 
REMARK   21  A    between atoms: C_47  and  O_49 
REMARK   22  A    between atoms: C_50  and  C_51 
REMARK   23  A    between atoms: C_51  and  C_52 
REMARK   24  A    between atoms: C_52  and  O_54 
REMARK   25  A    between atoms: C_55  and  C_56 
REMARK   26  A    between atoms: C_56  and  C_57 
REMARK   27  A    between atoms: C_57  and  C_58 
REMARK   28  A    between atoms: C_58  and  O_60 
ROOT
ATOM      1  O   UNK d   0      35.321   2.483  47.454  0.00  0.00    -0.650 OA
ATOM      2  C   UNK d   0      34.683   2.408  46.381  0.00  0.00     0.139 C 
ENDROOT
BRANCH   2   3
ATOM      3  O   UNK d   0      34.932   3.322  45.385  0.00  0.00    -0.776 OA
ATOM      4  H   UNK d   0      35.643   4.048  45.500  0.00  0.00     0.167 HD
ENDBRANCH   2   3
BRANCH   2   5
ATOM      5  C   UNK d   0      33.665   1.338  46.188  0.00  0.00     0.115 C 
BRANCH   5   6
ATOM      6  C   UNK d   0      34.065   0.100  46.944  0.00  0.00     0.052 C 
BRANCH   6   7
ATOM      7  C   UNK d   0      34.263  -1.094  46.041  0.00  0.00    -0.020 A 
ATOM      8  C   UNK d   0      34.889  -2.209  46.318  0.00  0.00    -0.011 A 
ATOM      9  C   UNK d   0      34.829  -3.058  45.140  0.00  0.00     0.067 A 
ATOM     10  C   UNK d   0      35.271  -4.345  44.795  0.00  0.00     0.062 C 
ATOM     11  N   UNK d   0      34.153  -2.378  44.190  0.00  0.00    -0.248 NA
ATOM     12  C   UNK d   0      34.875  -5.109  43.692  0.00  0.00     0.041 A 
ATOM     13  N   UNK d   0      34.679  -4.771  42.404  0.00  0.00    -0.355 N 
ATOM     14  C   UNK d   0      34.554  -6.466  43.884  0.00  0.00    -0.022 A 
ATOM     15  C   UNK d   0      34.235  -5.876  41.775  0.00  0.00     0.042 A 
ATOM     16  H   UNK d   0      34.870  -3.777  41.943  0.00  0.00     0.166 HD
ATOM     17  C   UNK d   0      33.879  -6.079  40.427  0.00  0.00     0.062 C 
ATOM     18  C   UNK d   0      34.143  -6.959  42.671  0.00  0.00    -0.013 A 
ATOM     19  C   UNK d   0      33.119  -5.285  39.606  0.00  0.00     0.067 A 
ATOM     20  N   UNK d   0      32.827  -4.060  40.052  0.00  0.00    -0.248 NA
ATOM     21  C   UNK d   0      32.492  -5.427  38.303  0.00  0.00    -0.011 A 
ATOM     22  C   UNK d   0      32.053  -3.392  39.135  0.00  0.00     0.066 A 
ATOM     23  C   UNK d   0      31.706  -2.087  39.456  0.00  0.00     0.062 C 
ATOM     24  C   UNK d   0      31.866  -4.317  38.035  0.00  0.00    -0.020 A 
ATOM     25  C   UNK d   0      32.125  -1.333  40.562  0.00  0.00     0.041 A 
ATOM     26  N   UNK d   0      32.305  -1.665  41.846  0.00  0.00    -0.355 N 
ATOM     27  C   UNK d   0      32.451   0.027  40.368  0.00  0.00    -0.022 A 
ATOM     28  C   UNK d   0      32.740  -0.563  42.477  0.00  0.00     0.042 A 
ATOM     29  H   UNK d   0      32.103  -2.662  42.309  0.00  0.00     0.166 HD
ATOM     30  C   UNK d   0      33.089  -0.344  43.819  0.00  0.00     0.062 C 
ATOM     31  C   UNK d   0      32.842   0.522  41.574  0.00  0.00    -0.013 A 
ATOM     32  C   UNK d   0      33.784  -1.189  44.670  0.00  0.00     0.066 A 
BRANCH   8  33
ATOM     33  C   UNK d   0      35.549  -2.561  47.589  0.00  0.00     0.151 C 
BRANCH  33  34
ATOM     34  C   UNK d   0      36.972  -2.177  47.618  0.00  0.00     0.143 C 
ATOM     35  O   UNK d   0      37.862  -3.018  47.432  0.00  0.00    -0.650 OA
BRANCH  34  36
ATOM     36  O   UNK d   0      37.312  -0.866  47.858  0.00  0.00    -0.776 OA
ATOM     37  H   UNK d   0      37.702  -0.270  47.114  0.00  0.00     0.167 HD
ENDBRANCH  34  36
ENDBRANCH  33  34
ENDBRANCH   8  33
BRANCH  31  38
ATOM     38  C   UNK d   0      33.298   1.935  41.852  0.00  0.00     0.151 C 
BRANCH  38  39
ATOM     39  C   UNK d   0      32.302   2.719  42.552  0.00  0.00     0.143 C 
ATOM     40  O   UNK d   0      32.388   2.974  43.766  0.00  0.00    -0.650 OA
BRANCH  39  41
ATOM     41  O   UNK d   0      31.202   3.214  41.851  0.00  0.00    -0.776 OA
ATOM     42  H   UNK d   0      30.526   3.768  42.385  0.00  0.00     0.167 HD
ENDBRANCH  39  41
ENDBRANCH  38  39
ENDBRANCH  31  38
BRANCH  27  43
ATOM     43  C   UNK d   0      32.404   0.853  39.107  0.00  0.00     0.052 C 
BRANCH  43  44
ATOM     44  C   UNK d   0      31.080   1.509  38.880  0.00  0.00     0.115 C 
BRANCH  44  45
ATOM     45  C   UNK d   0      31.306   2.973  39.002  0.00  0.00     0.139 C 
ATOM     46  O   UNK d   0      32.485   3.398  38.925  0.00  0.00    -0.650 OA
BRANCH  45  47
ATOM     47  O   UNK d   0      30.281   3.875  39.188  0.00  0.00    -0.776 OA
ATOM     48  H   UNK d   0      30.420   4.799  39.629  0.00  0.00     0.167 HD
ENDBRANCH  45  47
ENDBRANCH  44  45
ENDBRANCH  43  44
ENDBRANCH  27  43
BRANCH  24  49
ATOM     49  C   UNK d   0      31.126  -4.014  36.798  0.00  0.00     0.052 C 
BRANCH  49  50
ATOM     50  C   UNK d   0      30.184  -2.859  37.020  0.00  0.00     0.115 C 
BRANCH  50  51
ATOM     51  C   UNK d   0      30.427  -1.646  36.250  0.00  0.00     0.139 C 
ATOM     52  O   UNK d   0      31.566  -1.135  36.135  0.00  0.00    -0.650 OA
BRANCH  51  53
ATOM     53  O   UNK d   0      29.370  -1.015  35.612  0.00  0.00    -0.776 OA
ATOM     54  H   UNK d   0      28.759  -0.437  36.163  0.00  0.00     0.167 HD
ENDBRANCH  51  53
ENDBRANCH  50  51
ENDBRANCH  49  50
ENDBRANCH  24  49
BRANCH  21  55
ATOM     55  C   UNK d   0      32.587  -6.655  37.460  0.00  0.00     0.151 C 
BRANCH  55  56
ATOM     56  C   UNK d   0      33.674  -6.564  36.474  0.00  0.00     0.143 C 
ATOM     57  O   UNK d   0      34.862  -6.815  36.754  0.00  0.00    -0.650 OA
BRANCH  56  58
ATOM     58  O   UNK d   0      33.342  -6.179  35.176  0.00  0.00    -0.776 OA
ATOM     59  H   UNK d   0      33.641  -6.838  34.435  0.00  0.00     0.167 HD
ENDBRANCH  56  58
ENDBRANCH  55  56
ENDBRANCH  21  55
BRANCH  18  60
ATOM     60  C   UNK d   0      33.696  -8.378  42.421  0.00  0.00     0.151 C 
BRANCH  60  61
ATOM     61  C   UNK d   0      32.599  -8.628  43.369  0.00  0.00     0.143 C 
ATOM     62  O   UNK d   0      32.431  -9.633  44.061  0.00  0.00    -0.650 OA
BRANCH  61  63
ATOM     63  O   UNK d   0      31.649  -7.584  43.481  0.00  0.00    -0.776 OA
ATOM     64  H   UNK d   0      30.783  -7.722  43.970  0.00  0.00     0.167 HD
ENDBRANCH  61  63
ENDBRANCH  60  61
ENDBRANCH  18  60
BRANCH  14  65
ATOM     65  C   UNK d   0      34.699  -7.346  45.093  0.00  0.00     0.052 C 
BRANCH  65  66
ATOM     66  C   UNK d   0      36.009  -8.048  45.148  0.00  0.00     0.115 C 
BRANCH  66  67
ATOM     67  C   UNK d   0      37.176  -7.421  44.593  0.00  0.00     0.139 C 
ATOM     68  O   UNK d   0      37.786  -6.531  45.291  0.00  0.00    -0.650 OA
BRANCH  67  69
ATOM     69  O   UNK d   0      37.760  -7.657  43.349  0.00  0.00    -0.776 OA
ATOM     70  H   UNK d   0      38.418  -8.448  43.305  0.00  0.00     0.167 HD
ENDBRANCH  67  69
ENDBRANCH  66  67
ENDBRANCH  65  66
ENDBRANCH  14  65
ENDBRANCH   6   7
ENDBRANCH   5   6
ENDBRANCH   2   5
TORSDOF 28
ENDMDL
MODEL 13
REMARK VINA RESULT:      -8.6     29.250     32.693
REMARK  28 active torsions:
REMARK  status: ('A' for Active; 'I' for Inactive)
REMARK    1  A    between atoms: C_2  and  O_3 
REMARK    2  A    between atoms: C_2  and  C_4 
REMARK    3  A    between atoms: C_4  and  C_5 
REMARK    4  A    between atoms: C_5  and  C_6 
REMARK    5  A    between atoms: C_7  and  C_8 
REMARK    6  A    between atoms: C_8  and  C_9 
REMARK    7  A    between atoms: C_9  and  O_11 
REMARK    8  A    between atoms: C_28  and  C_29 
REMARK    9  A    between atoms: C_29  and  C_30 
REMARK   10  A    between atoms: C_30  and  O_32 
REMARK   11  A    between atoms: C_33  and  C_34 
REMARK   12  A    between atoms: C_34  and  C_35 
REMARK   13  A    between atoms: C_35  and  C_36 
REMARK   14  A    between atoms: C_36  and  O_38 
REMARK   15  A    between atoms: C_39  and  C_40 
REMARK   16  A    between atoms: C_40  and  C_41 
REMARK   17  A    between atoms: C_41  and  C_42 
REMARK   18  A    between atoms: C_42  and  O_44 
REMARK   19  A    between atoms: C_45  and  C_46 
REMARK   20  A    between atoms: C_46  and  C_47 
REMARK   21  A    between atoms: C_47  and  O_49 
REMARK   22  A    between atoms: C_50  and  C_51 
REMARK   23  A    between atoms: C_51  and  C_52 
REMARK   24  A    between atoms: C_52  and  O_54 
REMARK   25  A    between atoms: C_55  and  C_56 
REMARK   26  A    between atoms: C_56  and  C_57 
REMARK   27  A    between atoms: C_57  and  C_58 
REMARK   28  A    between atoms: C_58  and  O_60 
ROOT
ATOM      1  O   UNK d   0       3.235  12.278  40.767  0.00  0.00    -0.650 OA
ATOM      2  C   UNK d   0       2.144  11.888  41.242  0.00  0.00     0.139 C 
ENDROOT
BRANCH   2   3
ATOM      3  O   UNK d   0       1.778  12.288  42.504  0.00  0.00    -0.776 OA
ATOM      4  H   UNK d   0       1.409  11.618  43.183  0.00  0.00     0.167 HD
ENDBRANCH   2   3
BRANCH   2   5
ATOM      5  C   UNK d   0       1.255  10.999  40.442  0.00  0.00     0.115 C 
BRANCH   5   6
ATOM      6  C   UNK d   0       2.079  10.114  39.546  0.00  0.00     0.052 C 
BRANCH   6   7
ATOM      7  C   UNK d   0       1.991   8.656  39.928  0.00  0.00    -0.020 A 
ATOM      8  C   UNK d   0       1.400   7.692  39.270  0.00  0.00    -0.011 A 
ATOM      9  C   UNK d   0       1.571   6.465  40.029  0.00  0.00     0.067 A 
ATOM     10  C   UNK d   0       1.209   5.118  39.871  0.00  0.00     0.062 C 
ATOM     11  N   UNK d   0       2.272   6.775  41.139  0.00  0.00    -0.248 NA
ATOM     12  C   UNK d   0       1.706   4.018  40.579  0.00  0.00     0.041 A 
ATOM     13  N   UNK d   0       1.965   3.852  41.890  0.00  0.00    -0.355 N 
ATOM     14  C   UNK d   0       2.076   2.862  39.869  0.00  0.00    -0.022 A 
ATOM     15  C   UNK d   0       2.497   2.623  42.029  0.00  0.00     0.042 A 
ATOM     16  H   UNK d   0       1.759   4.582  42.704  0.00  0.00     0.166 HD
ATOM     17  C   UNK d   0       2.944   1.946  43.181  0.00  0.00     0.062 C 
ATOM     18  C   UNK d   0       2.582   1.972  40.783  0.00  0.00    -0.013 A 
ATOM     19  C   UNK d   0       3.716   2.416  44.212  0.00  0.00     0.067 A 
ATOM     20  N   UNK d   0       3.925   3.734  44.260  0.00  0.00    -0.248 NA
ATOM     21  C   UNK d   0       4.428   1.829  45.335  0.00  0.00    -0.011 A 
ATOM     22  C   UNK d   0       4.723   4.052  45.331  0.00  0.00     0.066 A 
ATOM     23  C   UNK d   0       4.990   5.400  45.522  0.00  0.00     0.062 C 
ATOM     24  C   UNK d   0       5.019   2.792  45.984  0.00  0.00    -0.020 A 
ATOM     25  C   UNK d   0       4.470   6.490  44.807  0.00  0.00     0.041 A 
ATOM     26  N   UNK d   0       4.226   6.660  43.502  0.00  0.00    -0.355 N 
ATOM     27  C   UNK d   0       4.095   7.649  45.521  0.00  0.00    -0.022 A 
ATOM     28  C   UNK d   0       3.704   7.889  43.360  0.00  0.00     0.042 A 
ATOM     29  H   UNK d   0       4.445   5.930  42.684  0.00  0.00     0.166 HD
ATOM     30  C   UNK d   0       3.264   8.578  42.219  0.00  0.00     0.062 C 
ATOM     31  C   UNK d   0       3.609   8.539  44.614  0.00  0.00    -0.013 A 
ATOM     32  C   UNK d   0       2.556   8.078  41.138  0.00  0.00     0.066 A 
BRANCH   8  33
ATOM     33  C   UNK d   0       0.680   7.808  37.988  0.00  0.00     0.151 C 
BRANCH  33  34
ATOM     34  C   UNK d   0       1.458   7.294  36.847  0.00  0.00     0.143 C 
ATOM     35  O   UNK d   0       2.313   7.998  36.290  0.00  0.00    -0.650 OA
BRANCH  34  36
ATOM     36  O   UNK d   0       1.230   6.015  36.396  0.00  0.00    -0.776 OA
ATOM     37  H   UNK d   0       0.932   5.267  37.037  0.00  0.00     0.167 HD
ENDBRANCH  34  36
ENDBRANCH  33  34
ENDBRANCH   8  33
BRANCH  31  38
ATOM     38  C   UNK d   0       3.074   9.919  44.917  0.00  0.00     0.151 C 
BRANCH  38  39
ATOM     39  C   UNK d   0       4.081  10.951  44.798  0.00  0.00     0.143 C 
ATOM     40  O   UNK d   0       4.560  11.531  45.789  0.00  0.00    -0.650 OA
BRANCH  39  41
ATOM     41  O   UNK d   0       4.542  11.318  43.534  0.00  0.00    -0.776 OA
ATOM     42  H   UNK d   0       5.149  10.647  43.051  0.00  0.00     0.167 HD
ENDBRANCH  39  41
ENDBRANCH  38  39
ENDBRANCH  31  38
BRANCH  27  43
ATOM     43  C   UNK d   0       4.183   7.934  47.000  0.00  0.00     0.052 C 
BRANCH  43  44
ATOM     44  C   UNK d   0       5.571   7.820  47.542  0.00  0.00     0.115 C 
BRANCH  44  45
ATOM     45  C   UNK d   0       6.275   9.075  47.172  0.00  0.00     0.139 C 
ATOM     46  O   UNK d   0       6.987   9.071  46.137  0.00  0.00    -0.650 OA
BRANCH  45  47
ATOM     47  O   UNK d   0       6.174  10.235  47.910  0.00  0.00    -0.776 OA
ATOM     48  H   UNK d   0       6.614  10.349  48.837  0.00  0.00     0.167 HD
ENDBRANCH  45  47
ENDBRANCH  44  45
ENDBRANCH  43  44
ENDBRANCH  27  43
BRANCH  24  49
ATOM     49  C   UNK d   0       5.819   2.648  47.212  0.00  0.00     0.052 C 
BRANCH  49  50
ATOM     50  C   UNK d   0       5.028   3.106  48.410  0.00  0.00     0.115 C 
BRANCH  50  51
ATOM     51  C   UNK d   0       5.411   4.375  49.015  0.00  0.00     0.139 C 
ATOM     52  O   UNK d   0       6.596   4.784  49.034  0.00  0.00    -0.650 OA
BRANCH  51  53
ATOM     53  O   UNK d   0       4.443   5.177  49.600  0.00  0.00    -0.776 OA
ATOM     54  H   UNK d   0       4.544   5.410  50.572  0.00  0.00     0.167 HD
ENDBRANCH  51  53
ENDBRANCH  50  51
ENDBRANCH  49  50
ENDBRANCH  24  49
BRANCH  21  55
ATOM     55  C   UNK d   0       4.441   0.369  45.646  0.00  0.00     0.151 C 
BRANCH  55  56
ATOM     56  C   UNK d   0       3.414   0.007  46.635  0.00  0.00     0.143 C 
ATOM     57  O   UNK d   0       2.769   0.856  47.280  0.00  0.00    -0.650 OA
BRANCH  56  58
ATOM     58  O   UNK d   0       3.165  -1.348  46.845  0.00  0.00    -0.776 OA
ATOM     59  H   UNK d   0       3.820  -1.816  47.498  0.00  0.00     0.167 HD
ENDBRANCH  56  58
ENDBRANCH  55  56
ENDBRANCH  21  55
BRANCH  18  60
ATOM     60  C   UNK d   0       3.108   0.597  40.451  0.00  0.00     0.151 C 
BRANCH  60  61
ATOM     61  C   UNK d   0       2.120  -0.353  40.986  0.00  0.00     0.143 C 
ATOM     62  O   UNK d   0       0.899  -0.319  40.831  0.00  0.00    -0.650 OA
BRANCH  61  63
ATOM     63  O   UNK d   0       2.658  -1.411  41.758  0.00  0.00    -0.776 OA
ATOM     64  H   UNK d   0       2.085  -2.182  42.051  0.00  0.00     0.167 HD
ENDBRANCH  61  63
ENDBRANCH  60  61
ENDBRANCH  18  60
BRANCH  14  65
ATOM     65  C   UNK d   0       1.897   2.500  38.422  0.00  0.00     0.052 C 
BRANCH  65  66
ATOM     66  C   UNK d   0       0.585   1.859  38.140  0.00  0.00     0.115 C 
BRANCH  66  67
ATOM     67  C   UNK d   0       0.543   0.541  37.572  0.00  0.00     0.139 C 
ATOM     68  O   UNK d   0       1.239   0.306  36.516  0.00  0.00    -0.650 OA
BRANCH  67  69
ATOM     69  O   UNK d   0      -0.178  -0.562  38.027  0.00  0.00    -0.776 OA
ATOM     70  H   UNK d   0       0.074  -1.467  37.604  0.00  0.00     0.167 HD
ENDBRANCH  67  69
ENDBRANCH  66  67
ENDBRANCH  65  66
ENDBRANCH  14  65
ENDBRANCH   6   7
ENDBRANCH   5   6
ENDBRANCH   2   5
TORSDOF 28
ENDMDL
MODEL 14
REMARK VINA RESULT:      -8.4     28.960     32.597
REMARK  28 active torsions:
REMARK  status: ('A' for Active; 'I' for Inactive)
REMARK    1  A    between atoms: C_2  and  O_3 
REMARK    2  A    between atoms: C_2  and  C_4 
REMARK    3  A    between atoms: C_4  and  C_5 
REMARK    4  A    between atoms: C_5  and  C_6 
REMARK    5  A    between atoms: C_7  and  C_8 
REMARK    6  A    between atoms: C_8  and  C_9 
REMARK    7  A    between atoms: C_9  and  O_11 
REMARK    8  A    between atoms: C_28  and  C_29 
REMARK    9  A    between atoms: C_29  and  C_30 
REMARK   10  A    between atoms: C_30  and  O_32 
REMARK   11  A    between atoms: C_33  and  C_34 
REMARK   12  A    between atoms: C_34  and  C_35 
REMARK   13  A    between atoms: C_35  and  C_36 
REMARK   14  A    between atoms: C_36  and  O_38 
REMARK   15  A    between atoms: C_39  and  C_40 
REMARK   16  A    between atoms: C_40  and  C_41 
REMARK   17  A    between atoms: C_41  and  C_42 
REMARK   18  A    between atoms: C_42  and  O_44 
REMARK   19  A    between atoms: C_45  and  C_46 
REMARK   20  A    between atoms: C_46  and  C_47 
REMARK   21  A    between atoms: C_47  and  O_49 
REMARK   22  A    between atoms: C_50  and  C_51 
REMARK   23  A    between atoms: C_51  and  C_52 
REMARK   24  A    between atoms: C_52  and  O_54 
REMARK   25  A    between atoms: C_55  and  C_56 
REMARK   26  A    between atoms: C_56  and  C_57 
REMARK   27  A    between atoms: C_57  and  C_58 
REMARK   28  A    between atoms: C_58  and  O_60 
ROOT
ATOM      1  O   UNK d   0       3.425  12.464  42.231  0.00  0.00    -0.650 OA
ATOM      2  C   UNK d   0       2.188  12.286  42.301  0.00  0.00     0.139 C 
ENDROOT
BRANCH   2   3
ATOM      3  O   UNK d   0       1.577  12.287  43.531  0.00  0.00    -0.776 OA
ATOM      4  H   UNK d   0       2.082  11.998  44.372  0.00  0.00     0.167 HD
ENDBRANCH   2   3
BRANCH   2   5
ATOM      5  C   UNK d   0       1.391  12.075  41.060  0.00  0.00     0.115 C 
BRANCH   5   6
ATOM      6  C   UNK d   0       2.167  11.234  40.083  0.00  0.00     0.052 C 
BRANCH   6   7
ATOM      7  C   UNK d   0       1.858   9.761  40.210  0.00  0.00    -0.020 A 
ATOM      8  C   UNK d   0       1.023   9.056  39.490  0.00  0.00    -0.011 A 
ATOM      9  C   UNK d   0       1.055   7.690  39.984  0.00  0.00     0.067 A 
ATOM     10  C   UNK d   0       0.434   6.477  39.648  0.00  0.00     0.062 C 
ATOM     11  N   UNK d   0       1.932   7.654  41.009  0.00  0.00    -0.248 NA
ATOM     12  C   UNK d   0       0.801   5.192  40.064  0.00  0.00     0.041 A 
ATOM     13  N   UNK d   0       1.183   4.726  41.268  0.00  0.00    -0.355 N 
ATOM     14  C   UNK d   0       0.861   4.159  39.111  0.00  0.00    -0.022 A 
ATOM     15  C   UNK d   0       1.491   3.426  41.103  0.00  0.00     0.042 A 
ATOM     16  H   UNK d   0       1.216   5.300  42.221  0.00  0.00     0.166 HD
ATOM     17  C   UNK d   0       1.942   2.469  42.033  0.00  0.00     0.062 C 
ATOM     18  C   UNK d   0       1.301   3.034  39.763  0.00  0.00    -0.013 A 
ATOM     19  C   UNK d   0       2.907   2.593  42.999  0.00  0.00     0.067 A 
ATOM     20  N   UNK d   0       3.361   3.824  43.246  0.00  0.00    -0.248 NA
ATOM     21  C   UNK d   0       3.630   1.687  43.876  0.00  0.00    -0.011 A 
ATOM     22  C   UNK d   0       4.328   3.789  44.220  0.00  0.00     0.066 A 
ATOM     23  C   UNK d   0       4.861   5.011  44.603  0.00  0.00     0.062 C 
ATOM     24  C   UNK d   0       4.463   2.393  44.585  0.00  0.00    -0.020 A 
ATOM     25  C   UNK d   0       4.469   6.291  44.182  0.00  0.00     0.041 A 
ATOM     26  N   UNK d   0       4.104   6.758  42.982  0.00  0.00    -0.355 N 
ATOM     27  C   UNK d   0       4.406   7.327  45.140  0.00  0.00    -0.022 A 
ATOM     28  C   UNK d   0       3.805   8.057  43.143  0.00  0.00     0.042 A 
ATOM     29  H   UNK d   0       4.082   6.183  42.024  0.00  0.00     0.166 HD
ATOM     30  C   UNK d   0       3.365   9.023  42.225  0.00  0.00     0.062 C 
ATOM     31  C   UNK d   0       3.986   8.447  44.491  0.00  0.00    -0.013 A 
ATOM     32  C   UNK d   0       2.450   8.869  41.195  0.00  0.00     0.066 A 
BRANCH   8  33
ATOM     33  C   UNK d   0       0.186   9.541  38.377  0.00  0.00     0.151 C 
BRANCH  33  34
ATOM     34  C   UNK d   0       0.866   9.456  37.073  0.00  0.00     0.143 C 
ATOM     35  O   UNK d   0       0.797   8.429  36.384  0.00  0.00    -0.650 OA
BRANCH  34  36
ATOM     36  O   UNK d   0       1.590  10.534  36.617  0.00  0.00    -0.776 OA
ATOM     37  H   UNK d   0       2.610  10.481  36.498  0.00  0.00     0.167 HD
ENDBRANCH  34  36
ENDBRANCH  33  34
ENDBRANCH   8  33
BRANCH  31  38
ATOM     38  C   UNK d   0       3.756   9.804  45.114  0.00  0.00     0.151 C 
BRANCH  38  39
ATOM     39  C   UNK d   0       4.940  10.637  45.098  0.00  0.00     0.143 C 
ATOM     40  O   UNK d   0       5.968  10.320  44.474  0.00  0.00    -0.650 OA
BRANCH  39  41
ATOM     41  O   UNK d   0       4.942  11.840  45.803  0.00  0.00    -0.776 OA
ATOM     42  H   UNK d   0       5.505  12.602  45.414  0.00  0.00     0.167 HD
ENDBRANCH  39  41
ENDBRANCH  38  39
ENDBRANCH  31  38
BRANCH  27  43
ATOM     43  C   UNK d   0       4.724   7.290  46.614  0.00  0.00     0.052 C 
BRANCH  43  44
ATOM     44  C   UNK d   0       6.103   7.770  46.932  0.00  0.00     0.115 C 
BRANCH  44  45
ATOM     45  C   UNK d   0       6.626   6.880  48.001  0.00  0.00     0.139 C 
ATOM     46  O   UNK d   0       5.798   6.298  48.744  0.00  0.00    -0.650 OA
BRANCH  45  47
ATOM     47  O   UNK d   0       7.972   6.666  48.203  0.00  0.00    -0.776 OA
ATOM     48  H   UNK d   0       8.647   7.435  48.346  0.00  0.00     0.167 HD
ENDBRANCH  45  47
ENDBRANCH  44  45
ENDBRANCH  43  44
ENDBRANCH  27  43
BRANCH  24  49
ATOM     49  C   UNK d   0       5.367   1.880  45.629  0.00  0.00     0.052 C 
BRANCH  49  50
ATOM     50  C   UNK d   0       4.690   1.920  46.975  0.00  0.00     0.115 C 
BRANCH  50  51
ATOM     51  C   UNK d   0       5.113   2.961  47.901  0.00  0.00     0.139 C 
ATOM     52  O   UNK d   0       4.317   3.537  48.681  0.00  0.00    -0.650 OA
BRANCH  51  53
ATOM     53  O   UNK d   0       6.443   3.349  47.937  0.00  0.00    -0.776 OA
ATOM     54  H   UNK d   0       6.651   4.330  48.008  0.00  0.00     0.167 HD
ENDBRANCH  51  53
ENDBRANCH  50  51
ENDBRANCH  49  50
ENDBRANCH  24  49
BRANCH  21  55
ATOM     55  C   UNK d   0       3.410   0.211  43.917  0.00  0.00     0.151 C 
BRANCH  55  56
ATOM     56  C   UNK d   0       3.986  -0.465  42.744  0.00  0.00     0.143 C 
ATOM     57  O   UNK d   0       3.878  -0.016  41.586  0.00  0.00    -0.650 OA
BRANCH  56  58
ATOM     58  O   UNK d   0       4.677  -1.657  42.956  0.00  0.00    -0.776 OA
ATOM     59  H   UNK d   0       5.318  -1.650  43.770  0.00  0.00     0.167 HD
ENDBRANCH  56  58
ENDBRANCH  55  56
ENDBRANCH  21  55
BRANCH  18  60
ATOM     60  C   UNK d   0       1.519   1.689  39.116  0.00  0.00     0.151 C 
BRANCH  60  61
ATOM     61  C   UNK d   0       2.905   1.698  38.622  0.00  0.00     0.143 C 
ATOM     62  O   UNK d   0       3.293   1.389  37.495  0.00  0.00    -0.650 OA
BRANCH  61  63
ATOM     63  O   UNK d   0       3.877   2.111  39.564  0.00  0.00    -0.776 OA
ATOM     64  H   UNK d   0       3.996   3.082  39.795  0.00  0.00     0.167 HD
ENDBRANCH  61  63
ENDBRANCH  60  61
ENDBRANCH  18  60
BRANCH  14  65
ATOM     65  C   UNK d   0       0.443   4.130  37.669  0.00  0.00     0.052 C 
BRANCH  65  66
ATOM     66  C   UNK d   0       1.160   5.132  36.835  0.00  0.00     0.115 C 
BRANCH  66  67
ATOM     67  C   UNK d   0       1.082   5.053  35.403  0.00  0.00     0.139 C 
ATOM     68  O   UNK d   0       1.395   3.945  34.831  0.00  0.00    -0.650 OA
BRANCH  67  69
ATOM     69  O   UNK d   0       0.697   6.056  34.514  0.00  0.00    -0.776 OA
ATOM     70  H   UNK d   0       1.345   6.235  33.733  0.00  0.00     0.167 HD
ENDBRANCH  67  69
ENDBRANCH  66  67
ENDBRANCH  65  66
ENDBRANCH  14  65
ENDBRANCH   6   7
ENDBRANCH   5   6
ENDBRANCH   2   5
TORSDOF 28
ENDMDL
MODEL 15
REMARK VINA RESULT:      -8.4     29.291     32.101
REMARK  28 active torsions:
REMARK  status: ('A' for Active; 'I' for Inactive)
REMARK    1  A    between atoms: C_2  and  O_3 
REMARK    2  A    between atoms: C_2  and  C_4 
REMARK    3  A    between atoms: C_4  and  C_5 
REMARK    4  A    between atoms: C_5  and  C_6 
REMARK    5  A    between atoms: C_7  and  C_8 
REMARK    6  A    between atoms: C_8  and  C_9 
REMARK    7  A    between atoms: C_9  and  O_11 
REMARK    8  A    between atoms: C_28  and  C_29 
REMARK    9  A    between atoms: C_29  and  C_30 
REMARK   10  A    between atoms: C_30  and  O_32 
REMARK   11  A    between atoms: C_33  and  C_34 
REMARK   12  A    between atoms: C_34  and  C_35 
REMARK   13  A    between atoms: C_35  and  C_36 
REMARK   14  A    between atoms: C_36  and  O_38 
REMARK   15  A    between atoms: C_39  and  C_40 
REMARK   16  A    between atoms: C_40  and  C_41 
REMARK   17  A    between atoms: C_41  and  C_42 
REMARK   18  A    between atoms: C_42  and  O_44 
REMARK   19  A    between atoms: C_45  and  C_46 
REMARK   20  A    between atoms: C_46  and  C_47 
REMARK   21  A    between atoms: C_47  and  O_49 
REMARK   22  A    between atoms: C_50  and  C_51 
REMARK   23  A    between atoms: C_51  and  C_52 
REMARK   24  A    between atoms: C_52  and  O_54 
REMARK   25  A    between atoms: C_55  and  C_56 
REMARK   26  A    between atoms: C_56  and  C_57 
REMARK   27  A    between atoms: C_57  and  C_58 
REMARK   28  A    between atoms: C_58  and  O_60 
ROOT
ATOM      1  O   UNK d   0       6.473  14.159  46.640  0.00  0.00    -0.650 OA
ATOM      2  C   UNK d   0       6.923  13.054  47.018  0.00  0.00     0.139 C 
ENDROOT
BRANCH   2   3
ATOM      3  O   UNK d   0       7.981  13.022  47.894  0.00  0.00    -0.776 OA
ATOM      4  H   UNK d   0       8.357  12.135  48.234  0.00  0.00     0.167 HD
ENDBRANCH   2   3
BRANCH   2   5
ATOM      5  C   UNK d   0       6.313  11.789  46.520  0.00  0.00     0.115 C 
BRANCH   5   6
ATOM      6  C   UNK d   0       4.883  11.688  46.978  0.00  0.00     0.052 C 
BRANCH   6   7
ATOM      7  C   UNK d   0       3.987  11.046  45.946  0.00  0.00    -0.020 A 
ATOM      8  C   UNK d   0       3.012  11.606  45.277  0.00  0.00    -0.011 A 
ATOM      9  C   UNK d   0       2.432  10.596  44.407  0.00  0.00     0.067 A 
ATOM     10  C   UNK d   0       1.405  10.551  43.451  0.00  0.00     0.062 C 
ATOM     11  N   UNK d   0       3.112   9.449  44.615  0.00  0.00    -0.248 NA
ATOM     12  C   UNK d   0       1.171   9.548  42.505  0.00  0.00     0.041 A 
ATOM     13  N   UNK d   0       1.208   8.206  42.608  0.00  0.00    -0.355 N 
ATOM     14  C   UNK d   0       0.895   9.917  41.175  0.00  0.00    -0.022 A 
ATOM     15  C   UNK d   0       0.971   7.714  41.378  0.00  0.00     0.042 A 
ATOM     16  H   UNK d   0       1.379   7.618  43.537  0.00  0.00     0.166 HD
ATOM     17  C   UNK d   0       0.896   6.381  40.925  0.00  0.00     0.062 C 
ATOM     18  C   UNK d   0       0.770   8.757  40.452  0.00  0.00    -0.013 A 
ATOM     19  C   UNK d   0       1.727   5.327  41.206  0.00  0.00     0.067 A 
ATOM     20  N   UNK d   0       2.619   5.504  42.184  0.00  0.00    -0.248 NA
ATOM     21  C   UNK d   0       1.926   3.986  40.684  0.00  0.00    -0.011 A 
ATOM     22  C   UNK d   0       3.386   4.376  42.339  0.00  0.00     0.066 A 
ATOM     23  C   UNK d   0       4.333   4.409  43.353  0.00  0.00     0.062 C 
ATOM     24  C   UNK d   0       2.901   3.436  41.349  0.00  0.00    -0.020 A 
ATOM     25  C   UNK d   0       4.543   5.422  44.301  0.00  0.00     0.041 A 
ATOM     26  N   UNK d   0       4.521   6.756  44.195  0.00  0.00    -0.355 N 
ATOM     27  C   UNK d   0       4.815   5.051  45.636  0.00  0.00    -0.022 A 
ATOM     28  C   UNK d   0       4.766   7.249  45.419  0.00  0.00     0.042 A 
ATOM     29  H   UNK d   0       4.360   7.345  43.259  0.00  0.00     0.166 HD
ATOM     30  C   UNK d   0       4.853   8.571  45.882  0.00  0.00     0.062 C 
ATOM     31  C   UNK d   0       4.957   6.200  46.351  0.00  0.00    -0.013 A 
ATOM     32  C   UNK d   0       4.062   9.653  45.529  0.00  0.00     0.066 A 
BRANCH   8  33
ATOM     33  C   UNK d   0       2.560  13.006  45.376  0.00  0.00     0.151 C 
BRANCH  33  34
ATOM     34  C   UNK d   0       3.605  13.971  44.989  0.00  0.00     0.143 C 
ATOM     35  O   UNK d   0       3.643  15.103  45.491  0.00  0.00    -0.650 OA
BRANCH  34  36
ATOM     36  O   UNK d   0       4.549  13.607  44.056  0.00  0.00    -0.776 OA
ATOM     37  H   UNK d   0       5.521  13.409  44.330  0.00  0.00     0.167 HD
ENDBRANCH  34  36
ENDBRANCH  33  34
ENDBRANCH   8  33
BRANCH  31  38
ATOM     38  C   UNK d   0       5.244   6.300  47.831  0.00  0.00     0.151 C 
BRANCH  38  39
ATOM     39  C   UNK d   0       6.660   6.308  48.129  0.00  0.00     0.143 C 
ATOM     40  O   UNK d   0       7.411   7.233  47.772  0.00  0.00    -0.650 OA
BRANCH  39  41
ATOM     41  O   UNK d   0       7.217   5.247  48.843  0.00  0.00    -0.776 OA
ATOM     42  H   UNK d   0       6.571   4.524  49.174  0.00  0.00     0.167 HD
ENDBRANCH  39  41
ENDBRANCH  38  39
ENDBRANCH  31  38
BRANCH  27  43
ATOM     43  C   UNK d   0       4.944   3.675  46.241  0.00  0.00     0.052 C 
BRANCH  43  44
ATOM     44  C   UNK d   0       4.910   2.578  45.227  0.00  0.00     0.115 C 
BRANCH  44  45
ATOM     45  C   UNK d   0       4.288   1.404  45.893  0.00  0.00     0.139 C 
ATOM     46  O   UNK d   0       3.884   1.539  47.074  0.00  0.00    -0.650 OA
BRANCH  45  47
ATOM     47  O   UNK d   0       4.134   0.185  45.268  0.00  0.00    -0.776 OA
ATOM     48  H   UNK d   0       4.221   0.065  44.246  0.00  0.00     0.167 HD
ENDBRANCH  45  47
ENDBRANCH  44  45
ENDBRANCH  43  44
ENDBRANCH  27  43
BRANCH  24  49
ATOM     49  C   UNK d   0       3.407   2.064  41.172  0.00  0.00     0.052 C 
BRANCH  49  50
ATOM     50  C   UNK d   0       2.453   1.070  41.782  0.00  0.00     0.115 C 
BRANCH  50  51
ATOM     51  C   UNK d   0       2.053  -0.061  40.955  0.00  0.00     0.139 C 
ATOM     52  O   UNK d   0       2.703  -0.425  39.946  0.00  0.00    -0.650 OA
BRANCH  51  53
ATOM     53  O   UNK d   0       0.911  -0.777  41.278  0.00  0.00    -0.776 OA
ATOM     54  H   UNK d   0       0.174  -0.301  41.768  0.00  0.00     0.167 HD
ENDBRANCH  51  53
ENDBRANCH  50  51
ENDBRANCH  49  50
ENDBRANCH  24  49
BRANCH  21  55
ATOM     55  C   UNK d   0       1.117   3.392  39.578  0.00  0.00     0.151 C 
BRANCH  55  56
ATOM     56  C   UNK d   0      -0.133   2.792  40.070  0.00  0.00     0.143 C 
ATOM     57  O   UNK d   0      -0.875   3.361  40.895  0.00  0.00    -0.650 OA
BRANCH  56  58
ATOM     58  O   UNK d   0      -0.486   1.536  39.582  0.00  0.00    -0.776 OA
ATOM     59  H   UNK d   0      -0.334   0.752  40.242  0.00  0.00     0.167 HD
ENDBRANCH  56  58
ENDBRANCH  55  56
ENDBRANCH  21  55
BRANCH  18  60
ATOM     60  C   UNK d   0       0.480   8.687  38.974  0.00  0.00     0.151 C 
BRANCH  60  61
ATOM     61  C   UNK d   0       1.788   8.741  38.303  0.00  0.00     0.143 C 
ATOM     62  O   UNK d   0       2.877   8.407  38.771  0.00  0.00    -0.650 OA
BRANCH  61  63
ATOM     63  O   UNK d   0       1.764   9.233  36.976  0.00  0.00    -0.776 OA
ATOM     64  H   UNK d   0       1.071   9.898  36.682  0.00  0.00     0.167 HD
ENDBRANCH  61  63
ENDBRANCH  60  61
ENDBRANCH  18  60
BRANCH  14  65
ATOM     65  C   UNK d   0       0.646  11.266  40.563  0.00  0.00     0.052 C 
BRANCH  65  66
ATOM     66  C   UNK d   0       1.865  11.860  39.950  0.00  0.00     0.115 C 
BRANCH  66  67
ATOM     67  C   UNK d   0       3.149  11.628  40.549  0.00  0.00     0.139 C 
ATOM     68  O   UNK d   0       3.493  12.344  41.560  0.00  0.00    -0.650 OA
BRANCH  67  69
ATOM     69  O   UNK d   0       4.111  10.694  40.168  0.00  0.00    -0.776 OA
ATOM     70  H   UNK d   0       4.682  10.302  40.931  0.00  0.00     0.167 HD
ENDBRANCH  67  69
ENDBRANCH  66  67
ENDBRANCH  65  66
ENDBRANCH  14  65
ENDBRANCH   6   7
ENDBRANCH   5   6
ENDBRANCH   2   5
TORSDOF 28
ENDMDL
MODEL 16
REMARK VINA RESULT:      -8.1     29.568     32.992
REMARK  28 active torsions:
REMARK  status: ('A' for Active; 'I' for Inactive)
REMARK    1  A    between atoms: C_2  and  O_3 
REMARK    2  A    between atoms: C_2  and  C_4 
REMARK    3  A    between atoms: C_4  and  C_5 
REMARK    4  A    between atoms: C_5  and  C_6 
REMARK    5  A    between atoms: C_7  and  C_8 
REMARK    6  A    between atoms: C_8  and  C_9 
REMARK    7  A    between atoms: C_9  and  O_11 
REMARK    8  A    between atoms: C_28  and  C_29 
REMARK    9  A    between atoms: C_29  and  C_30 
REMARK   10  A    between atoms: C_30  and  O_32 
REMARK   11  A    between atoms: C_33  and  C_34 
REMARK   12  A    between atoms: C_34  and  C_35 
REMARK   13  A    between atoms: C_35  and  C_36 
REMARK   14  A    between atoms: C_36  and  O_38 
REMARK   15  A    between atoms: C_39  and  C_40 
REMARK   16  A    between atoms: C_40  and  C_41 
REMARK   17  A    between atoms: C_41  and  C_42 
REMARK   18  A    between atoms: C_42  and  O_44 
REMARK   19  A    between atoms: C_45  and  C_46 
REMARK   20  A    between atoms: C_46  and  C_47 
REMARK   21  A    between atoms: C_47  and  O_49 
REMARK   22  A    between atoms: C_50  and  C_51 
REMARK   23  A    between atoms: C_51  and  C_52 
REMARK   24  A    between atoms: C_52  and  O_54 
REMARK   25  A    between atoms: C_55  and  C_56 
REMARK   26  A    between atoms: C_56  and  C_57 
REMARK   27  A    between atoms: C_57  and  C_58 
REMARK   28  A    between atoms: C_58  and  O_60 
ROOT
ATOM      1  O   UNK d   0       2.312  13.926  44.723  0.00  0.00    -0.650 OA
ATOM      2  C   UNK d   0       3.376  14.043  45.371  0.00  0.00     0.139 C 
ENDROOT
BRANCH   2   3
ATOM      3  O   UNK d   0       3.923  15.291  45.548  0.00  0.00    -0.776 OA
ATOM      4  H   UNK d   0       4.845  15.520  45.172  0.00  0.00     0.167 HD
ENDBRANCH   2   3
BRANCH   2   5
ATOM      5  C   UNK d   0       4.040  12.837  45.943  0.00  0.00     0.115 C 
BRANCH   5   6
ATOM      6  C   UNK d   0       3.015  11.780  46.253  0.00  0.00     0.052 C 
BRANCH   6   7
ATOM      7  C   UNK d   0       3.416  10.415  45.747  0.00  0.00    -0.020 A 
ATOM      8  C   UNK d   0       4.311   9.606  46.254  0.00  0.00    -0.011 A 
ATOM      9  C   UNK d   0       4.357   8.415  45.423  0.00  0.00     0.067 A 
ATOM     10  C   UNK d   0       5.063   7.202  45.430  0.00  0.00     0.062 C 
ATOM     11  N   UNK d   0       3.462   8.587  44.427  0.00  0.00    -0.248 NA
ATOM     12  C   UNK d   0       4.770   6.048  44.696  0.00  0.00     0.041 A 
ATOM     13  N   UNK d   0       4.393   5.884  43.413  0.00  0.00    -0.355 N 
ATOM     14  C   UNK d   0       4.799   4.801  45.347  0.00  0.00    -0.022 A 
ATOM     15  C   UNK d   0       4.174   4.568  43.237  0.00  0.00     0.042 A 
ATOM     16  H   UNK d   0       4.302   6.682  42.643  0.00  0.00     0.166 HD
ATOM     17  C   UNK d   0       3.766   3.855  42.091  0.00  0.00     0.062 C 
ATOM     18  C   UNK d   0       4.418   3.856  44.427  0.00  0.00    -0.013 A 
ATOM     19  C   UNK d   0       2.773   4.159  41.195  0.00  0.00     0.067 A 
ATOM     20  N   UNK d   0       2.236   5.379  41.278  0.00  0.00    -0.248 NA
ATOM     21  C   UNK d   0       2.091   3.464  40.116  0.00  0.00    -0.011 A 
ATOM     22  C   UNK d   0       1.251   5.531  40.333  0.00  0.00     0.066 A 
ATOM     23  C   UNK d   0       0.631   6.771  40.283  0.00  0.00     0.062 C 
ATOM     24  C   UNK d   0       1.199   4.271  39.619  0.00  0.00    -0.020 A 
ATOM     25  C   UNK d   0       0.949   7.922  41.020  0.00  0.00     0.041 A 
ATOM     26  N   UNK d   0       1.309   8.086  42.299  0.00  0.00    -0.355 N 
ATOM     27  C   UNK d   0       0.924   9.172  40.364  0.00  0.00    -0.022 A 
ATOM     28  C   UNK d   0       1.520   9.399  42.480  0.00  0.00     0.042 A 
ATOM     29  H   UNK d   0       1.390   7.285  43.074  0.00  0.00     0.166 HD
ATOM     30  C   UNK d   0       1.917  10.122  43.615  0.00  0.00     0.062 C 
ATOM     31  C   UNK d   0       1.285  10.112  41.280  0.00  0.00    -0.013 A 
ATOM     32  C   UNK d   0       2.862   9.770  44.566  0.00  0.00     0.066 A 
BRANCH   8  33
ATOM     33  C   UNK d   0       5.139   9.842  47.451  0.00  0.00     0.151 C 
BRANCH  33  34
ATOM     34  C   UNK d   0       6.530  10.200  47.121  0.00  0.00     0.143 C 
ATOM     35  O   UNK d   0       7.348  10.466  48.013  0.00  0.00    -0.650 OA
BRANCH  34  36
ATOM     36  O   UNK d   0       6.923  10.240  45.803  0.00  0.00    -0.776 OA
ATOM     37  H   UNK d   0       6.300   9.916  45.050  0.00  0.00     0.167 HD
ENDBRANCH  34  36
ENDBRANCH  33  34
ENDBRANCH   8  33
BRANCH  31  38
ATOM     38  C   UNK d   0       1.412  11.597  41.031  0.00  0.00     0.151 C 
BRANCH  38  39
ATOM     39  C   UNK d   0       0.253  12.342  41.472  0.00  0.00     0.143 C 
ATOM     40  O   UNK d   0      -0.671  12.654  40.700  0.00  0.00    -0.650 OA
BRANCH  39  41
ATOM     41  O   UNK d   0       0.153  12.730  42.808  0.00  0.00    -0.776 OA
ATOM     42  H   UNK d   0       0.857  12.354  43.451  0.00  0.00     0.167 HD
ENDBRANCH  39  41
ENDBRANCH  38  39
ENDBRANCH  31  38
BRANCH  27  43
ATOM     43  C   UNK d   0       0.577   9.497  38.933  0.00  0.00     0.052 C 
BRANCH  43  44
ATOM     44  C   UNK d   0       1.769   9.829  38.096  0.00  0.00     0.115 C 
BRANCH  44  45
ATOM     45  C   UNK d   0       1.637   9.046  36.840  0.00  0.00     0.139 C 
ATOM     46  O   UNK d   0       0.816   8.096  36.818  0.00  0.00    -0.650 OA
BRANCH  45  47
ATOM     47  O   UNK d   0       2.371   9.322  35.706  0.00  0.00    -0.776 OA
ATOM     48  H   UNK d   0       1.987   9.221  34.753  0.00  0.00     0.167 HD
ENDBRANCH  45  47
ENDBRANCH  44  45
ENDBRANCH  43  44
ENDBRANCH  27  43
BRANCH  24  49
ATOM     49  C   UNK d   0       0.308   3.985  38.481  0.00  0.00     0.052 C 
BRANCH  49  50
ATOM     50  C   UNK d   0       0.826   4.646  37.230  0.00  0.00     0.115 C 
BRANCH  50  51
ATOM     51  C   UNK d   0       1.338   3.774  36.181  0.00  0.00     0.139 C 
ATOM     52  O   UNK d   0       1.626   2.571  36.382  0.00  0.00    -0.650 OA
BRANCH  51  53
ATOM     53  O   UNK d   0       1.526   4.276  34.902  0.00  0.00    -0.776 OA
ATOM     54  H   UNK d   0       1.140   5.179  34.684  0.00  0.00     0.167 HD
ENDBRANCH  51  53
ENDBRANCH  50  51
ENDBRANCH  49  50
ENDBRANCH  24  49
BRANCH  21  55
ATOM     55  C   UNK d   0       2.406   2.067  39.692  0.00  0.00     0.151 C 
BRANCH  55  56
ATOM     56  C   UNK d   0       1.361   1.117  40.104  0.00  0.00     0.143 C 
ATOM     57  O   UNK d   0       0.800   0.342  39.305  0.00  0.00    -0.650 OA
BRANCH  56  58
ATOM     58  O   UNK d   0       0.995   1.098  41.449  0.00  0.00    -0.776 OA
ATOM     59  H   UNK d   0       1.674   0.634  42.079  0.00  0.00     0.167 HD
ENDBRANCH  56  58
ENDBRANCH  55  56
ENDBRANCH  21  55
BRANCH  18  60
ATOM     60  C   UNK d   0       4.302   2.378  44.704  0.00  0.00     0.151 C 
BRANCH  60  61
ATOM     61  C   UNK d   0       3.436   1.835  43.646  0.00  0.00     0.143 C 
ATOM     62  O   UNK d   0       3.765   1.080  42.731  0.00  0.00    -0.650 OA
BRANCH  61  63
ATOM     63  O   UNK d   0       2.081   2.241  43.710  0.00  0.00    -0.776 OA
ATOM     64  H   UNK d   0       1.499   2.237  42.891  0.00  0.00     0.167 HD
ENDBRANCH  61  63
ENDBRANCH  60  61
ENDBRANCH  18  60
BRANCH  14  65
ATOM     65  C   UNK d   0       5.249   4.428  46.731  0.00  0.00     0.052 C 
BRANCH  65  66
ATOM     66  C   UNK d   0       5.263   5.582  47.669  0.00  0.00     0.115 C 
BRANCH  66  67
ATOM     67  C   UNK d   0       6.275   5.662  48.684  0.00  0.00     0.139 C 
ATOM     68  O   UNK d   0       6.739   6.819  48.999  0.00  0.00    -0.650 OA
BRANCH  67  69
ATOM     69  O   UNK d   0       6.846   4.613  49.404  0.00  0.00    -0.776 OA
ATOM     70  H   UNK d   0       7.551   4.882  50.105  0.00  0.00     0.167 HD
ENDBRANCH  67  69
ENDBRANCH  66  67
ENDBRANCH  65  66
ENDBRANCH  14  65
ENDBRANCH   6   7
ENDBRANCH   5   6
ENDBRANCH   2   5
TORSDOF 28
ENDMDL
MODEL 17
REMARK VINA RESULT:      -7.8      1.625      8.194
REMARK  28 active torsions:
REMARK  status: ('A' for Active; 'I' for Inactive)
REMARK    1  A    between atoms: C_2  and  O_3 
REMARK    2  A    between atoms: C_2  and  C_4 
REMARK    3  A    between atoms: C_4  and  C_5 
REMARK    4  A    between atoms: C_5  and  C_6 
REMARK    5  A    between atoms: C_7  and  C_8 
REMARK    6  A    between atoms: C_8  and  C_9 
REMARK    7  A    between atoms: C_9  and  O_11 
REMARK    8  A    between atoms: C_28  and  C_29 
REMARK    9  A    between atoms: C_29  and  C_30 
REMARK   10  A    between atoms: C_30  and  O_32 
REMARK   11  A    between atoms: C_33  and  C_34 
REMARK   12  A    between atoms: C_34  and  C_35 
REMARK   13  A    between atoms: C_35  and  C_36 
REMARK   14  A    between atoms: C_36  and  O_38 
REMARK   15  A    between atoms: C_39  and  C_40 
REMARK   16  A    between atoms: C_40  and  C_41 
REMARK   17  A    between atoms: C_41  and  C_42 
REMARK   18  A    between atoms: C_42  and  O_44 
REMARK   19  A    between atoms: C_45  and  C_46 
REMARK   20  A    between atoms: C_46  and  C_47 
REMARK   21  A    between atoms: C_47  and  O_49 
REMARK   22  A    between atoms: C_50  and  C_51 
REMARK   23  A    between atoms: C_51  and  C_52 
REMARK   24  A    between atoms: C_52  and  O_54 
REMARK   25  A    between atoms: C_55  and  C_56 
REMARK   26  A    between atoms: C_56  and  C_57 
REMARK   27  A    between atoms: C_57  and  C_58 
REMARK   28  A    between atoms: C_58  and  O_60 
ROOT
ATOM      1  O   UNK d   0      31.883 -10.812  43.200  0.00  0.00    -0.650 OA
ATOM      2  C   UNK d   0      31.999  -9.715  43.791  0.00  0.00     0.139 C 
ENDROOT
BRANCH   2   3
ATOM      3  O   UNK d   0      30.956  -8.820  43.761  0.00  0.00    -0.776 OA
ATOM      4  H   UNK d   0      29.985  -9.140  43.780  0.00  0.00     0.167 HD
ENDBRANCH   2   3
BRANCH   2   5
ATOM      5  C   UNK d   0      33.257  -9.386  44.517  0.00  0.00     0.115 C 
BRANCH   5   6
ATOM      6  C   UNK d   0      34.362  -9.102  43.537  0.00  0.00     0.052 C 
BRANCH   6   7
ATOM      7  C   UNK d   0      34.111  -7.855  42.723  0.00  0.00    -0.020 A 
ATOM      8  C   UNK d   0      33.932  -7.768  41.430  0.00  0.00    -0.011 A 
ATOM      9  C   UNK d   0      33.736  -6.366  41.101  0.00  0.00     0.067 A 
ATOM     10  C   UNK d   0      33.481  -5.625  39.937  0.00  0.00     0.062 C 
ATOM     11  N   UNK d   0      33.817  -5.669  42.254  0.00  0.00    -0.248 NA
ATOM     12  C   UNK d   0      33.042  -4.299  39.855  0.00  0.00     0.041 A 
ATOM     13  N   UNK d   0      33.411  -3.199  40.540  0.00  0.00    -0.355 N 
ATOM     14  C   UNK d   0      31.999  -3.980  38.966  0.00  0.00    -0.022 A 
ATOM     15  C   UNK d   0      32.624  -2.193  40.114  0.00  0.00     0.042 A 
ATOM     16  H   UNK d   0      34.224  -3.132  41.296  0.00  0.00     0.166 HD
ATOM     17  C   UNK d   0      32.587  -0.838  40.497  0.00  0.00     0.062 C 
ATOM     18  C   UNK d   0      31.726  -2.645  39.128  0.00  0.00    -0.013 A 
ATOM     19  C   UNK d   0      32.630  -0.295  41.756  0.00  0.00     0.067 A 
ATOM     20  N   UNK d   0      32.943  -1.119  42.759  0.00  0.00    -0.248 NA
ATOM     21  C   UNK d   0      32.397   1.016  42.337  0.00  0.00    -0.011 A 
ATOM     22  C   UNK d   0      32.932  -0.442  43.954  0.00  0.00     0.066 A 
ATOM     23  C   UNK d   0      33.279  -1.173  45.080  0.00  0.00     0.062 C 
ATOM     24  C   UNK d   0      32.572   0.923  43.624  0.00  0.00    -0.020 A 
ATOM     25  C   UNK d   0      33.729  -2.501  45.139  0.00  0.00     0.041 A 
ATOM     26  N   UNK d   0      33.352  -3.597  44.469  0.00  0.00    -0.355 N 
ATOM     27  C   UNK d   0      34.778  -2.819  46.029  0.00  0.00    -0.022 A 
ATOM     28  C   UNK d   0      34.130  -4.603  44.898  0.00  0.00     0.042 A 
ATOM     29  H   UNK d   0      32.527  -3.666  43.718  0.00  0.00     0.166 HD
ATOM     30  C   UNK d   0      34.171  -5.958  44.533  0.00  0.00     0.062 C 
ATOM     31  C   UNK d   0      35.039  -4.147  45.882  0.00  0.00    -0.013 A 
ATOM     32  C   UNK d   0      34.042  -6.507  43.267  0.00  0.00     0.066 A 
BRANCH   8  33
ATOM     33  C   UNK d   0      33.930  -8.878  40.460  0.00  0.00     0.151 C 
BRANCH  33  34
ATOM     34  C   UNK d   0      33.986  -8.415  39.062  0.00  0.00     0.143 C 
ATOM     35  O   UNK d   0      33.015  -8.557  38.305  0.00  0.00    -0.650 OA
BRANCH  34  36
ATOM     36  O   UNK d   0      35.134  -7.819  38.593  0.00  0.00    -0.776 OA
ATOM     37  H   UNK d   0      35.238  -7.566  37.601  0.00  0.00     0.167 HD
ENDBRANCH  34  36
ENDBRANCH  33  34
ENDBRANCH   8  33
BRANCH  31  38
ATOM     38  C   UNK d   0      36.095  -4.935  46.621  0.00  0.00     0.151 C 
BRANCH  38  39
ATOM     39  C   UNK d   0      35.550  -5.737  47.695  0.00  0.00     0.143 C 
ATOM     40  O   UNK d   0      35.937  -6.896  47.923  0.00  0.00    -0.650 OA
BRANCH  39  41
ATOM     41  O   UNK d   0      34.554  -5.202  48.513  0.00  0.00    -0.776 OA
ATOM     42  H   UNK d   0      33.659  -4.982  48.066  0.00  0.00     0.167 HD
ENDBRANCH  39  41
ENDBRANCH  38  39
ENDBRANCH  31  38
BRANCH  27  43
ATOM     43  C   UNK d   0      35.523  -1.927  46.991  0.00  0.00     0.052 C 
BRANCH  43  44
ATOM     44  C   UNK d   0      36.764  -1.334  46.407  0.00  0.00     0.115 C 
BRANCH  44  45
ATOM     45  C   UNK d   0      37.908  -1.941  47.136  0.00  0.00     0.139 C 
ATOM     46  O   UNK d   0      37.686  -2.461  48.258  0.00  0.00    -0.650 OA
BRANCH  45  47
ATOM     47  O   UNK d   0      39.190  -1.961  46.631  0.00  0.00    -0.776 OA
ATOM     48  H   UNK d   0      39.936  -2.559  47.021  0.00  0.00     0.167 HD
ENDBRANCH  45  47
ENDBRANCH  44  45
ENDBRANCH  43  44
ENDBRANCH  27  43
BRANCH  24  49
ATOM     49  C   UNK d   0      32.474   2.025  44.596  0.00  0.00     0.052 C 
BRANCH  49  50
ATOM     50  C   UNK d   0      33.846   2.540  44.945  0.00  0.00     0.115 C 
BRANCH  50  51
ATOM     51  C   UNK d   0      34.328   2.285  46.296  0.00  0.00     0.139 C 
ATOM     52  O   UNK d   0      35.373   2.808  46.751  0.00  0.00    -0.650 OA
BRANCH  51  53
ATOM     53  O   UNK d   0      33.621   1.430  47.127  0.00  0.00    -0.776 OA
ATOM     54  H   UNK d   0      32.627   1.357  46.998  0.00  0.00     0.167 HD
ENDBRANCH  51  53
ENDBRANCH  50  51
ENDBRANCH  49  50
ENDBRANCH  24  49
BRANCH  21  55
ATOM     55  C   UNK d   0      32.030   2.227  41.545  0.00  0.00     0.151 C 
BRANCH  55  56
ATOM     56  C   UNK d   0      32.751   2.289  40.265  0.00  0.00     0.143 C 
ATOM     57  O   UNK d   0      32.174   2.454  39.172  0.00  0.00    -0.650 OA
BRANCH  56  58
ATOM     58  O   UNK d   0      34.138   2.155  40.294  0.00  0.00    -0.776 OA
ATOM     59  H   UNK d   0      34.544   1.641  39.491  0.00  0.00     0.167 HD
ENDBRANCH  56  58
ENDBRANCH  55  56
ENDBRANCH  21  55
BRANCH  18  60
ATOM     60  C   UNK d   0      30.665  -1.882  38.373  0.00  0.00     0.151 C 
BRANCH  60  61
ATOM     61  C   UNK d   0      31.356  -1.235  37.248  0.00  0.00     0.143 C 
ATOM     62  O   UNK d   0      32.129  -0.278  37.303  0.00  0.00    -0.650 OA
BRANCH  61  63
ATOM     63  O   UNK d   0      31.088  -1.793  35.974  0.00  0.00    -0.776 OA
ATOM     64  H   UNK d   0      31.802  -1.845  35.270  0.00  0.00     0.167 HD
ENDBRANCH  61  63
ENDBRANCH  60  61
ENDBRANCH  18  60
BRANCH  14  65
ATOM     65  C   UNK d   0      31.317  -4.811  37.917  0.00  0.00     0.052 C 
BRANCH  65  66
ATOM     66  C   UNK d   0      32.065  -4.854  36.632  0.00  0.00     0.115 C 
BRANCH  66  67
ATOM     67  C   UNK d   0      32.836  -6.018  36.297  0.00  0.00     0.139 C 
ATOM     68  O   UNK d   0      34.114  -5.966  36.431  0.00  0.00    -0.650 OA
BRANCH  67  69
ATOM     69  O   UNK d   0      32.369  -7.244  35.826  0.00  0.00    -0.776 OA
ATOM     70  H   UNK d   0      31.503  -7.210  35.269  0.00  0.00     0.167 HD
ENDBRANCH  67  69
ENDBRANCH  66  67
ENDBRANCH  65  66
ENDBRANCH  14  65
ENDBRANCH   6   7
ENDBRANCH   5   6
ENDBRANCH   2   5
TORSDOF 28
ENDMDL
MODEL 18
REMARK VINA RESULT:      -7.8     28.210     31.570
REMARK  28 active torsions:
REMARK  status: ('A' for Active; 'I' for Inactive)
REMARK    1  A    between atoms: C_2  and  O_3 
REMARK    2  A    between atoms: C_2  and  C_4 
REMARK    3  A    between atoms: C_4  and  C_5 
REMARK    4  A    between atoms: C_5  and  C_6 
REMARK    5  A    between atoms: C_7  and  C_8 
REMARK    6  A    between atoms: C_8  and  C_9 
REMARK    7  A    between atoms: C_9  and  O_11 
REMARK    8  A    between atoms: C_28  and  C_29 
REMARK    9  A    between atoms: C_29  and  C_30 
REMARK   10  A    between atoms: C_30  and  O_32 
REMARK   11  A    between atoms: C_33  and  C_34 
REMARK   12  A    between atoms: C_34  and  C_35 
REMARK   13  A    between atoms: C_35  and  C_36 
REMARK   14  A    between atoms: C_36  and  O_38 
REMARK   15  A    between atoms: C_39  and  C_40 
REMARK   16  A    between atoms: C_40  and  C_41 
REMARK   17  A    between atoms: C_41  and  C_42 
REMARK   18  A    between atoms: C_42  and  O_44 
REMARK   19  A    between atoms: C_45  and  C_46 
REMARK   20  A    between atoms: C_46  and  C_47 
REMARK   21  A    between atoms: C_47  and  O_49 
REMARK   22  A    between atoms: C_50  and  C_51 
REMARK   23  A    between atoms: C_51  and  C_52 
REMARK   24  A    between atoms: C_52  and  O_54 
REMARK   25  A    between atoms: C_55  and  C_56 
REMARK   26  A    between atoms: C_56  and  C_57 
REMARK   27  A    between atoms: C_57  and  C_58 
REMARK   28  A    between atoms: C_58  and  O_60 
ROOT
ATOM      1  O   UNK d   0       3.867  -1.973  45.603  0.00  0.00    -0.650 OA
ATOM      2  C   UNK d   0       4.706  -1.161  46.052  0.00  0.00     0.139 C 
ENDROOT
BRANCH   2   3
ATOM      3  O   UNK d   0       5.968  -1.603  46.370  0.00  0.00    -0.776 OA
ATOM      4  H   UNK d   0       6.705  -1.647  45.664  0.00  0.00     0.167 HD
ENDBRANCH   2   3
BRANCH   2   5
ATOM      5  C   UNK d   0       4.337   0.271  46.238  0.00  0.00     0.115 C 
BRANCH   5   6
ATOM      6  C   UNK d   0       5.548   1.071  46.633  0.00  0.00     0.052 C 
BRANCH   6   7
ATOM      7  C   UNK d   0       5.268   2.553  46.702  0.00  0.00    -0.020 A 
ATOM      8  C   UNK d   0       5.450   3.353  47.721  0.00  0.00    -0.011 A 
ATOM      9  C   UNK d   0       5.032   4.686  47.321  0.00  0.00     0.067 A 
ATOM     10  C   UNK d   0       4.992   5.957  47.916  0.00  0.00     0.062 C 
ATOM     11  N   UNK d   0       4.604   4.605  46.043  0.00  0.00    -0.248 NA
ATOM     12  C   UNK d   0       4.813   7.188  47.275  0.00  0.00     0.041 A 
ATOM     13  N   UNK d   0       3.973   7.561  46.291  0.00  0.00    -0.355 N 
ATOM     14  C   UNK d   0       5.653   8.262  47.620  0.00  0.00    -0.022 A 
ATOM     15  C   UNK d   0       4.263   8.843  45.998  0.00  0.00     0.042 A 
ATOM     16  H   UNK d   0       3.178   6.937  45.827  0.00  0.00     0.166 HD
ATOM     17  C   UNK d   0       3.690   9.716  45.052  0.00  0.00     0.062 C 
ATOM     18  C   UNK d   0       5.311   9.317  46.811  0.00  0.00    -0.013 A 
ATOM     19  C   UNK d   0       3.359   9.472  43.743  0.00  0.00     0.067 A 
ATOM     20  N   UNK d   0       3.390   8.200  43.339  0.00  0.00    -0.248 NA
ATOM     21  C   UNK d   0       2.972  10.277  42.597  0.00  0.00    -0.011 A 
ATOM     22  C   UNK d   0       3.052   8.114  42.010  0.00  0.00     0.066 A 
ATOM     23  C   UNK d   0       3.007   6.839  41.467  0.00  0.00     0.062 C 
ATOM     24  C   UNK d   0       2.798   9.476  41.585  0.00  0.00    -0.020 A 
ATOM     25  C   UNK d   0       3.177   5.614  42.131  0.00  0.00     0.041 A 
ATOM     26  N   UNK d   0       4.022   5.238  43.098  0.00  0.00    -0.355 N 
ATOM     27  C   UNK d   0       2.331   4.537  41.787  0.00  0.00    -0.022 A 
ATOM     28  C   UNK d   0       3.741   3.958  43.386  0.00  0.00     0.042 A 
ATOM     29  H   UNK d   0       4.828   5.863  43.556  0.00  0.00     0.166 HD
ATOM     30  C   UNK d   0       4.309   3.075  44.318  0.00  0.00     0.062 C 
ATOM     31  C   UNK d   0       2.680   3.485  42.577  0.00  0.00    -0.013 A 
ATOM     32  C   UNK d   0       4.720   3.348  45.613  0.00  0.00     0.066 A 
BRANCH   8  33
ATOM     33  C   UNK d   0       5.978   2.989  49.049  0.00  0.00     0.151 C 
BRANCH  33  34
ATOM     34  C   UNK d   0       6.013   4.130  49.982  0.00  0.00     0.143 C 
ATOM     35  O   UNK d   0       7.044   4.804  50.124  0.00  0.00    -0.650 OA
BRANCH  34  36
ATOM     36  O   UNK d   0       4.886   4.448  50.704  0.00  0.00    -0.776 OA
ATOM     37  H   UNK d   0       4.344   5.298  50.501  0.00  0.00     0.167 HD
ENDBRANCH  34  36
ENDBRANCH  33  34
ENDBRANCH   8  33
BRANCH  31  38
ATOM     38  C   UNK d   0       2.039   2.117  42.575  0.00  0.00     0.151 C 
BRANCH  38  39
ATOM     39  C   UNK d   0       2.557   1.256  41.533  0.00  0.00     0.143 C 
ATOM     40  O   UNK d   0       1.882   0.339  41.031  0.00  0.00    -0.650 OA
BRANCH  39  41
ATOM     41  O   UNK d   0       3.856   1.450  41.064  0.00  0.00    -0.776 OA
ATOM     42  H   UNK d   0       4.496   0.653  41.137  0.00  0.00     0.167 HD
ENDBRANCH  39  41
ENDBRANCH  38  39
ENDBRANCH  31  38
BRANCH  27  43
ATOM     43  C   UNK d   0       1.231   4.474  40.757  0.00  0.00     0.052 C 
BRANCH  43  44
ATOM     44  C   UNK d   0      -0.080   4.029  41.320  0.00  0.00     0.115 C 
BRANCH  44  45
ATOM     45  C   UNK d   0      -0.676   5.212  41.993  0.00  0.00     0.139 C 
ATOM     46  O   UNK d   0      -1.305   5.029  43.065  0.00  0.00    -0.650 OA
BRANCH  45  47
ATOM     47  O   UNK d   0      -0.562   6.492  41.495  0.00  0.00    -0.776 OA
ATOM     48  H   UNK d   0      -0.964   7.316  41.970  0.00  0.00     0.167 HD
ENDBRANCH  45  47
ENDBRANCH  44  45
ENDBRANCH  43  44
ENDBRANCH  27  43
BRANCH  24  49
ATOM     49  C   UNK d   0       2.363   9.868  40.233  0.00  0.00     0.052 C 
BRANCH  49  50
ATOM     50  C   UNK d   0       2.535   8.719  39.273  0.00  0.00     0.115 C 
BRANCH  50  51
ATOM     51  C   UNK d   0       1.324   8.092  38.761  0.00  0.00     0.139 C 
ATOM     52  O   UNK d   0       0.224   8.158  39.359  0.00  0.00    -0.650 OA
BRANCH  51  53
ATOM     53  O   UNK d   0       1.367   7.389  37.567  0.00  0.00    -0.776 OA
ATOM     54  H   UNK d   0       1.291   7.904  36.708  0.00  0.00     0.167 HD
ENDBRANCH  51  53
ENDBRANCH  50  51
ENDBRANCH  49  50
ENDBRANCH  24  49
BRANCH  21  55
ATOM     55  C   UNK d   0       2.812  11.760  42.633  0.00  0.00     0.151 C 
BRANCH  55  56
ATOM     56  C   UNK d   0       4.089  12.447  42.880  0.00  0.00     0.143 C 
ATOM     57  O   UNK d   0       4.228  13.319  43.760  0.00  0.00    -0.650 OA
BRANCH  56  58
ATOM     58  O   UNK d   0       5.179  12.094  42.086  0.00  0.00    -0.776 OA
ATOM     59  H   UNK d   0       5.915  11.551  42.572  0.00  0.00     0.167 HD
ENDBRANCH  56  58
ENDBRANCH  55  56
ENDBRANCH  21  55
BRANCH  18  60
ATOM     60  C   UNK d   0       5.968  10.675  46.837  0.00  0.00     0.151 C 
BRANCH  60  61
ATOM     61  C   UNK d   0       7.263  10.510  46.160  0.00  0.00     0.143 C 
ATOM     62  O   UNK d   0       7.506   9.798  45.186  0.00  0.00    -0.650 OA
BRANCH  61  63
ATOM     63  O   UNK d   0       8.329  11.264  46.707  0.00  0.00    -0.776 OA
ATOM     64  H   UNK d   0       8.404  12.252  46.541  0.00  0.00     0.167 HD
ENDBRANCH  61  63
ENDBRANCH  60  61
ENDBRANCH  18  60
BRANCH  14  65
ATOM     65  C   UNK d   0       6.675   8.397  48.713  0.00  0.00     0.052 C 
BRANCH  65  66
ATOM     66  C   UNK d   0       8.063   8.137  48.246  0.00  0.00     0.115 C 
BRANCH  66  67
ATOM     67  C   UNK d   0       9.174   8.676  48.979  0.00  0.00     0.139 C 
ATOM     68  O   UNK d   0       9.401   9.939  48.908  0.00  0.00    -0.650 OA
BRANCH  67  69
ATOM     69  O   UNK d   0      10.076   7.988  49.790  0.00  0.00    -0.776 OA
ATOM     70  H   UNK d   0       9.661   7.449  50.564  0.00  0.00     0.167 HD
ENDBRANCH  67  69
ENDBRANCH  66  67
ENDBRANCH  65  66
ENDBRANCH  14  65
ENDBRANCH   6   7
ENDBRANCH   5   6
ENDBRANCH   2   5
TORSDOF 28
ENDMDL
MODEL 19
REMARK VINA RESULT:      -7.7     27.140     31.454
REMARK  28 active torsions:
REMARK  status: ('A' for Active; 'I' for Inactive)
REMARK    1  A    between atoms: C_2  and  O_3 
REMARK    2  A    between atoms: C_2  and  C_4 
REMARK    3  A    between atoms: C_4  and  C_5 
REMARK    4  A    between atoms: C_5  and  C_6 
REMARK    5  A    between atoms: C_7  and  C_8 
REMARK    6  A    between atoms: C_8  and  C_9 
REMARK    7  A    between atoms: C_9  and  O_11 
REMARK    8  A    between atoms: C_28  and  C_29 
REMARK    9  A    between atoms: C_29  and  C_30 
REMARK   10  A    between atoms: C_30  and  O_32 
REMARK   11  A    between atoms: C_33  and  C_34 
REMARK   12  A    between atoms: C_34  and  C_35 
REMARK   13  A    between atoms: C_35  and  C_36 
REMARK   14  A    between atoms: C_36  and  O_38 
REMARK   15  A    between atoms: C_39  and  C_40 
REMARK   16  A    between atoms: C_40  and  C_41 
REMARK   17  A    between atoms: C_41  and  C_42 
REMARK   18  A    between atoms: C_42  and  O_44 
REMARK   19  A    between atoms: C_45  and  C_46 
REMARK   20  A    between atoms: C_46  and  C_47 
REMARK   21  A    between atoms: C_47  and  O_49 
REMARK   22  A    between atoms: C_50  and  C_51 
REMARK   23  A    between atoms: C_51  and  C_52 
REMARK   24  A    between atoms: C_52  and  O_54 
REMARK   25  A    between atoms: C_55  and  C_56 
REMARK   26  A    between atoms: C_56  and  C_57 
REMARK   27  A    between atoms: C_57  and  C_58 
REMARK   28  A    between atoms: C_58  and  O_60 
ROOT
ATOM      1  O   UNK d   0      11.782   1.599  30.109  0.00  0.00    -0.650 OA
ATOM      2  C   UNK d   0      11.082   0.977  30.939  0.00  0.00     0.139 C 
ENDROOT
BRANCH   2   3
ATOM      3  O   UNK d   0      11.485   0.919  32.251  0.00  0.00    -0.776 OA
ATOM      4  H   UNK d   0      10.805   0.949  33.014  0.00  0.00     0.167 HD
ENDBRANCH   2   3
BRANCH   2   5
ATOM      5  C   UNK d   0       9.823   0.307  30.503  0.00  0.00     0.115 C 
BRANCH   5   6
ATOM      6  C   UNK d   0       9.181   1.086  29.388  0.00  0.00     0.052 C 
BRANCH   6   7
ATOM      7  C   UNK d   0       8.457   2.317  29.881  0.00  0.00    -0.020 A 
ATOM      8  C   UNK d   0       8.652   3.558  29.515  0.00  0.00    -0.011 A 
ATOM      9  C   UNK d   0       7.729   4.393  30.264  0.00  0.00     0.067 A 
ATOM     10  C   UNK d   0       7.422   5.761  30.325  0.00  0.00     0.062 C 
ATOM     11  N   UNK d   0       7.013   3.578  31.067  0.00  0.00    -0.248 NA
ATOM     12  C   UNK d   0       6.299   6.353  30.913  0.00  0.00     0.041 A 
ATOM     13  N   UNK d   0       5.675   6.105  32.080  0.00  0.00    -0.355 N 
ATOM     14  C   UNK d   0       5.607   7.353  30.205  0.00  0.00    -0.022 A 
ATOM     15  C   UNK d   0       4.602   6.916  32.128  0.00  0.00     0.042 A 
ATOM     16  H   UNK d   0       5.999   5.385  32.864  0.00  0.00     0.166 HD
ATOM     17  C   UNK d   0       3.613   7.066  33.121  0.00  0.00     0.062 C 
ATOM     18  C   UNK d   0       4.525   7.713  30.969  0.00  0.00    -0.013 A 
ATOM     19  C   UNK d   0       2.935   6.097  33.816  0.00  0.00     0.067 A 
ATOM     20  N   UNK d   0       3.383   4.844  33.701  0.00  0.00    -0.248 NA
ATOM     21  C   UNK d   0       1.775   6.058  34.691  0.00  0.00    -0.011 A 
ATOM     22  C   UNK d   0       2.600   3.988  34.436  0.00  0.00     0.066 A 
ATOM     23  C   UNK d   0       2.978   2.654  34.436  0.00  0.00     0.062 C 
ATOM     24  C   UNK d   0       1.582   4.820  35.046  0.00  0.00    -0.020 A 
ATOM     25  C   UNK d   0       4.118   2.082  33.850  0.00  0.00     0.041 A 
ATOM     26  N   UNK d   0       4.729   2.318  32.683  0.00  0.00    -0.355 N 
ATOM     27  C   UNK d   0       4.814   1.082  34.563  0.00  0.00    -0.022 A 
ATOM     28  C   UNK d   0       5.795   1.504  32.629  0.00  0.00     0.042 A 
ATOM     29  H   UNK d   0       4.397   3.034  31.892  0.00  0.00     0.166 HD
ATOM     30  C   UNK d   0       6.780   1.338  31.643  0.00  0.00     0.062 C 
ATOM     31  C   UNK d   0       5.877   0.711  33.798  0.00  0.00    -0.013 A 
ATOM     32  C   UNK d   0       7.402   2.316  30.883  0.00  0.00     0.066 A 
BRANCH   8  33
ATOM     33  C   UNK d   0       9.632   4.045  28.526  0.00  0.00     0.151 C 
BRANCH  33  34
ATOM     34  C   UNK d   0       9.287   3.664  27.145  0.00  0.00     0.143 C 
ATOM     35  O   UNK d   0       8.248   4.079  26.611  0.00  0.00    -0.650 OA
BRANCH  34  36
ATOM     36  O   UNK d   0      10.130   2.835  26.442  0.00  0.00    -0.776 OA
ATOM     37  H   UNK d   0       9.963   2.620  25.450  0.00  0.00     0.167 HD
ENDBRANCH  34  36
ENDBRANCH  33  34
ENDBRANCH   8  33
BRANCH  31  38
ATOM     38  C   UNK d   0       6.916  -0.324  34.159  0.00  0.00     0.151 C 
BRANCH  38  39
ATOM     39  C   UNK d   0       8.057   0.242  34.848  0.00  0.00     0.143 C 
ATOM     40  O   UNK d   0       7.982   0.682  36.009  0.00  0.00    -0.650 OA
BRANCH  39  41
ATOM     41  O   UNK d   0       9.290   0.301  34.200  0.00  0.00    -0.776 OA
ATOM     42  H   UNK d   0       9.293   0.681  33.248  0.00  0.00     0.167 HD
ENDBRANCH  39  41
ENDBRANCH  38  39
ENDBRANCH  31  38
BRANCH  27  43
ATOM     43  C   UNK d   0       4.510   0.479  35.912  0.00  0.00     0.052 C 
BRANCH  43  44
ATOM     44  C   UNK d   0       3.123  -0.066  36.017  0.00  0.00     0.115 C 
BRANCH  44  45
ATOM     45  C   UNK d   0       2.534   0.506  37.255  0.00  0.00     0.139 C 
ATOM     46  O   UNK d   0       3.220   1.328  37.911  0.00  0.00    -0.650 OA
BRANCH  45  47
ATOM     47  O   UNK d   0       1.273   0.177  37.705  0.00  0.00    -0.776 OA
ATOM     48  H   UNK d   0       0.870   0.563  38.574  0.00  0.00     0.167 HD
ENDBRANCH  45  47
ENDBRANCH  44  45
ENDBRANCH  43  44
ENDBRANCH  27  43
BRANCH  24  49
ATOM     49  C   UNK d   0       0.535   4.333  35.961  0.00  0.00     0.052 C 
BRANCH  49  50
ATOM     50  C   UNK d   0       0.987   4.464  37.393  0.00  0.00     0.115 C 
BRANCH  50  51
ATOM     51  C   UNK d   0       0.538   3.442  38.328  0.00  0.00     0.139 C 
ATOM     52  O   UNK d   0      -0.518   2.787  38.159  0.00  0.00    -0.650 OA
BRANCH  51  53
ATOM     53  O   UNK d   0       1.292   3.167  39.459  0.00  0.00    -0.776 OA
ATOM     54  H   UNK d   0       1.937   2.398  39.425  0.00  0.00     0.167 HD
ENDBRANCH  51  53
ENDBRANCH  50  51
ENDBRANCH  49  50
ENDBRANCH  24  49
BRANCH  21  55
ATOM     55  C   UNK d   0       0.983   7.261  35.083  0.00  0.00     0.151 C 
BRANCH  55  56
ATOM     56  C   UNK d   0       1.680   8.075  36.091  0.00  0.00     0.143 C 
ATOM     57  O   UNK d   0       1.649   7.813  37.309  0.00  0.00    -0.650 OA
BRANCH  56  58
ATOM     58  O   UNK d   0       2.400   9.182  35.646  0.00  0.00    -0.776 OA
ATOM     59  H   UNK d   0       2.343  10.015  36.259  0.00  0.00     0.167 HD
ENDBRANCH  56  58
ENDBRANCH  55  56
ENDBRANCH  21  55
BRANCH  18  60
ATOM     60  C   UNK d   0       3.503   8.754  30.585  0.00  0.00     0.151 C 
BRANCH  60  61
ATOM     61  C   UNK d   0       2.442   8.032  29.868  0.00  0.00     0.143 C 
ATOM     62  O   UNK d   0       1.671   7.191  30.333  0.00  0.00    -0.650 OA
BRANCH  61  63
ATOM     63  O   UNK d   0       2.312   8.357  28.496  0.00  0.00    -0.776 OA
ATOM     64  H   UNK d   0       2.050   7.661  27.821  0.00  0.00     0.167 HD
ENDBRANCH  61  63
ENDBRANCH  60  61
ENDBRANCH  18  60
BRANCH  14  65
ATOM     65  C   UNK d   0       5.943   8.055  28.920  0.00  0.00     0.052 C 
BRANCH  65  66
ATOM     66  C   UNK d   0       5.482   7.315  27.715  0.00  0.00     0.115 C 
BRANCH  66  67
ATOM     67  C   UNK d   0       6.444   6.848  26.756  0.00  0.00     0.139 C 
ATOM     68  O   UNK d   0       6.015   6.305  25.672  0.00  0.00    -0.650 OA
BRANCH  67  69
ATOM     69  O   UNK d   0       7.834   6.906  26.844  0.00  0.00    -0.776 OA
ATOM     70  H   UNK d   0       8.272   7.755  26.461  0.00  0.00     0.167 HD
ENDBRANCH  67  69
ENDBRANCH  66  67
ENDBRANCH  65  66
ENDBRANCH  14  65
ENDBRANCH   6   7
ENDBRANCH   5   6
ENDBRANCH   2   5
TORSDOF 28
ENDMDL
