MODEL 1
REMARK VINA RESULT:      -8.1      0.000      0.000
REMARK  28 active torsions:
REMARK  status: ('A' for Active; 'I' for Inactive)
REMARK    1  A    between atoms: C_2  and  O_3 
REMARK    2  A    between atoms: C_2  and  C_4 
REMARK    3  A    between atoms: C_4  and  C_5 
REMARK    4  A    between atoms: C_5  and  C_6 
REMARK    5  A    between atoms: C_7  and  C_8 
REMARK    6  A    between atoms: C_8  and  C_9 
REMARK    7  A    between atoms: C_9  and  O_11 
REMARK    8  A    between atoms: C_28  and  C_29 
REMARK    9  A    between atoms: C_29  and  C_30 
REMARK   10  A    between atoms: C_30  and  O_32 
REMARK   11  A    between atoms: C_33  and  C_34 
REMARK   12  A    between atoms: C_34  and  C_35 
REMARK   13  A    between atoms: C_35  and  C_36 
REMARK   14  A    between atoms: C_36  and  O_38 
REMARK   15  A    between atoms: C_39  and  C_40 
REMARK   16  A    between atoms: C_40  and  C_41 
REMARK   17  A    between atoms: C_41  and  C_42 
REMARK   18  A    between atoms: C_42  and  O_44 
REMARK   19  A    between atoms: C_45  and  C_46 
REMARK   20  A    between atoms: C_46  and  C_47 
REMARK   21  A    between atoms: C_47  and  O_49 
REMARK   22  A    between atoms: C_50  and  C_51 
REMARK   23  A    between atoms: C_51  and  C_52 
REMARK   24  A    between atoms: C_52  and  O_54 
REMARK   25  A    between atoms: C_55  and  C_56 
REMARK   26  A    between atoms: C_56  and  C_57 
REMARK   27  A    between atoms: C_57  and  C_58 
REMARK   28  A    between atoms: C_58  and  O_60 
ROOT
ATOM      1  O   UNK d   0      11.261 -18.853   0.225  0.00  0.00    -0.650 OA
ATOM      2  C   UNK d   0      10.787 -18.187   1.172  0.00  0.00     0.139 C 
ENDROOT
BRANCH   2   3
ATOM      3  O   UNK d   0      11.097 -16.853   1.279  0.00  0.00    -0.776 OA
ATOM      4  H   UNK d   0      10.626 -16.255   1.962  0.00  0.00     0.167 HD
ENDBRANCH   2   3
BRANCH   2   5
ATOM      5  C   UNK d   0       9.897 -18.840   2.174  0.00  0.00     0.115 C 
BRANCH   5   6
ATOM      6  C   UNK d   0      10.715 -19.401   3.305  0.00  0.00     0.052 C 
BRANCH   6   7
ATOM      7  C   UNK d   0      10.902 -18.414   4.433  0.00  0.00    -0.020 A 
ATOM      8  C   UNK d   0      12.028 -18.014   4.965  0.00  0.00    -0.011 A 
ATOM      9  C   UNK d   0      11.710 -17.069   6.022  0.00  0.00     0.067 A 
ATOM     10  C   UNK d   0      12.436 -16.286   6.933  0.00  0.00     0.062 C 
ATOM     11  N   UNK d   0      10.365 -16.958   6.068  0.00  0.00    -0.248 NA
ATOM     12  C   UNK d   0      11.960 -15.216   7.699  0.00  0.00     0.041 A 
ATOM     13  N   UNK d   0      10.817 -15.063   8.394  0.00  0.00    -0.355 N 
ATOM     14  C   UNK d   0      12.721 -14.035   7.764  0.00  0.00    -0.022 A 
ATOM     15  C   UNK d   0      10.829 -13.812   8.892  0.00  0.00     0.042 A 
ATOM     16  H   UNK d   0      10.026 -15.830   8.545  0.00  0.00     0.166 HD
ATOM     17  C   UNK d   0       9.883 -13.138   9.690  0.00  0.00     0.062 C 
ATOM     18  C   UNK d   0      12.007 -13.137   8.518  0.00  0.00    -0.013 A 
ATOM     19  C   UNK d   0       8.519 -13.091   9.557  0.00  0.00     0.067 A 
ATOM     20  N   UNK d   0       7.967 -13.941   8.687  0.00  0.00    -0.248 NA
ATOM     21  C   UNK d   0       7.440 -12.306  10.132  0.00  0.00    -0.011 A 
ATOM     22  C   UNK d   0       6.605 -13.767   8.651  0.00  0.00     0.066 A 
ATOM     23  C   UNK d   0       5.898 -14.616   7.813  0.00  0.00     0.062 C 
ATOM     24  C   UNK d   0       6.323 -12.704   9.595  0.00  0.00    -0.020 A 
ATOM     25  C   UNK d   0       6.393 -15.694   7.062  0.00  0.00     0.041 A 
ATOM     26  N   UNK d   0       7.522 -15.841   6.359  0.00  0.00    -0.355 N 
ATOM     27  C   UNK d   0       5.631 -16.881   7.000  0.00  0.00    -0.022 A 
ATOM     28  C   UNK d   0       7.508 -17.084   5.854  0.00  0.00     0.042 A 
ATOM     29  H   UNK d   0       8.311 -15.065   6.198  0.00  0.00     0.166 HD
ATOM     30  C   UNK d   0       8.437 -17.765   5.051  0.00  0.00     0.062 C 
ATOM     31  C   UNK d   0       6.330 -17.766   6.238  0.00  0.00    -0.013 A 
ATOM     32  C   UNK d   0       9.820 -17.741   5.137  0.00  0.00     0.066 A 
BRANCH   8  33
ATOM     33  C   UNK d   0      13.388 -18.437   4.581  0.00  0.00     0.151 C 
BRANCH  33  34
ATOM     34  C   UNK d   0      13.733 -18.060   3.198  0.00  0.00     0.143 C 
ATOM     35  O   UNK d   0      14.126 -18.909   2.386  0.00  0.00    -0.650 OA
BRANCH  34  36
ATOM     36  O   UNK d   0      13.619 -16.746   2.808  0.00  0.00    -0.776 OA
ATOM     37  H   UNK d   0      13.167 -16.490   1.919  0.00  0.00     0.167 HD
ENDBRANCH  34  36
ENDBRANCH  33  34
ENDBRANCH   8  33
BRANCH  31  38
ATOM     38  C   UNK d   0       5.912 -19.179   5.905  0.00  0.00     0.151 C 
BRANCH  38  39
ATOM     39  C   UNK d   0       6.591 -20.171   6.712  0.00  0.00     0.143 C 
ATOM     40  O   UNK d   0       7.445 -20.941   6.239  0.00  0.00    -0.650 OA
BRANCH  39  41
ATOM     41  O   UNK d   0       6.288 -20.276   8.069  0.00  0.00    -0.776 OA
ATOM     42  H   UNK d   0       6.972 -19.889   8.726  0.00  0.00     0.167 HD
ENDBRANCH  39  41
ENDBRANCH  38  39
ENDBRANCH  31  38
BRANCH  27  43
ATOM     43  C   UNK d   0       4.294 -17.194   7.623  0.00  0.00     0.052 C 
BRANCH  43  44
ATOM     44  C   UNK d   0       3.195 -16.302   7.144  0.00  0.00     0.115 C 
BRANCH  44  45
ATOM     45  C   UNK d   0       2.401 -15.925   8.343  0.00  0.00     0.139 C 
ATOM     46  O   UNK d   0       3.021 -15.569   9.375  0.00  0.00    -0.650 OA
BRANCH  45  47
ATOM     47  O   UNK d   0       1.023 -15.946   8.363  0.00  0.00    -0.776 OA
ATOM     48  H   UNK d   0       0.474 -16.809   8.226  0.00  0.00     0.167 HD
ENDBRANCH  45  47
ENDBRANCH  44  45
ENDBRANCH  43  44
ENDBRANCH  27  43
BRANCH  24  49
ATOM     49  C   UNK d   0       4.976 -12.202   9.919  0.00  0.00     0.052 C 
BRANCH  49  50
ATOM     50  C   UNK d   0       4.319 -11.632   8.689  0.00  0.00     0.115 C 
BRANCH  50  51
ATOM     51  C   UNK d   0       3.034 -12.196   8.299  0.00  0.00     0.139 C 
ATOM     52  O   UNK d   0       2.056 -12.256   9.082  0.00  0.00    -0.650 OA
BRANCH  51  53
ATOM     53  O   UNK d   0       2.863 -12.694   7.017  0.00  0.00    -0.776 OA
ATOM     54  H   UNK d   0       3.515 -13.382   6.683  0.00  0.00     0.167 HD
ENDBRANCH  51  53
ENDBRANCH  50  51
ENDBRANCH  49  50
ENDBRANCH  24  49
BRANCH  21  55
ATOM     55  C   UNK d   0       7.637 -11.243  11.162  0.00  0.00     0.151 C 
BRANCH  55  56
ATOM     56  C   UNK d   0       7.579 -11.782  12.529  0.00  0.00     0.143 C 
ATOM     57  O   UNK d   0       8.599 -12.077  13.183  0.00  0.00    -0.650 OA
BRANCH  56  58
ATOM     58  O   UNK d   0       6.321 -11.965  13.102  0.00  0.00    -0.776 OA
ATOM     59  H   UNK d   0       5.987 -12.945  13.119  0.00  0.00     0.167 HD
ENDBRANCH  56  58
ENDBRANCH  55  56
ENDBRANCH  21  55
BRANCH  18  60
ATOM     60  C   UNK d   0      12.451 -11.731   8.838  0.00  0.00     0.151 C 
BRANCH  60  61
ATOM     61  C   UNK d   0      13.521 -11.863   9.837  0.00  0.00     0.143 C 
ATOM     62  O   UNK d   0      14.671 -11.430   9.755  0.00  0.00    -0.650 OA
BRANCH  61  63
ATOM     63  O   UNK d   0      13.165 -12.568  11.012  0.00  0.00    -0.776 OA
ATOM     64  H   UNK d   0      12.239 -12.939  11.133  0.00  0.00     0.167 HD
ENDBRANCH  61  63
ENDBRANCH  60  61
ENDBRANCH  18  60
BRANCH  14  65
ATOM     65  C   UNK d   0      14.101 -13.727   7.256  0.00  0.00     0.052 C 
BRANCH  65  66
ATOM     66  C   UNK d   0      14.105 -12.739   6.144  0.00  0.00     0.115 C 
BRANCH  66  67
ATOM     67  C   UNK d   0      13.819 -13.173   4.806  0.00  0.00     0.139 C 
ATOM     68  O   UNK d   0      13.708 -12.284   3.883  0.00  0.00    -0.650 OA
BRANCH  67  69
ATOM     69  O   UNK d   0      13.637 -14.479   4.353  0.00  0.00    -0.776 OA
ATOM     70  H   UNK d   0      12.691 -14.868   4.473  0.00  0.00     0.167 HD
ENDBRANCH  67  69
ENDBRANCH  66  67
ENDBRANCH  65  66
ENDBRANCH  14  65
ENDBRANCH   6   7
ENDBRANCH   5   6
ENDBRANCH   2   5
TORSDOF 28
ENDMDL
MODEL 2
REMARK VINA RESULT:      -6.4      4.433      8.304
REMARK  28 active torsions:
REMARK  status: ('A' for Active; 'I' for Inactive)
REMARK    1  A    between atoms: C_2  and  O_3 
REMARK    2  A    between atoms: C_2  and  C_4 
REMARK    3  A    between atoms: C_4  and  C_5 
REMARK    4  A    between atoms: C_5  and  C_6 
REMARK    5  A    between atoms: C_7  and  C_8 
REMARK    6  A    between atoms: C_8  and  C_9 
REMARK    7  A    between atoms: C_9  and  O_11 
REMARK    8  A    between atoms: C_28  and  C_29 
REMARK    9  A    between atoms: C_29  and  C_30 
REMARK   10  A    between atoms: C_30  and  O_32 
REMARK   11  A    between atoms: C_33  and  C_34 
REMARK   12  A    between atoms: C_34  and  C_35 
REMARK   13  A    between atoms: C_35  and  C_36 
REMARK   14  A    between atoms: C_36  and  O_38 
REMARK   15  A    between atoms: C_39  and  C_40 
REMARK   16  A    between atoms: C_40  and  C_41 
REMARK   17  A    between atoms: C_41  and  C_42 
REMARK   18  A    between atoms: C_42  and  O_44 
REMARK   19  A    between atoms: C_45  and  C_46 
REMARK   20  A    between atoms: C_46  and  C_47 
REMARK   21  A    between atoms: C_47  and  O_49 
REMARK   22  A    between atoms: C_50  and  C_51 
REMARK   23  A    between atoms: C_51  and  C_52 
REMARK   24  A    between atoms: C_52  and  O_54 
REMARK   25  A    between atoms: C_55  and  C_56 
REMARK   26  A    between atoms: C_56  and  C_57 
REMARK   27  A    between atoms: C_57  and  C_58 
REMARK   28  A    between atoms: C_58  and  O_60 
ROOT
ATOM      1  O   UNK d   0      14.358 -20.313   1.308  0.00  0.00    -0.650 OA
ATOM      2  C   UNK d   0      14.747 -19.343   1.996  0.00  0.00     0.139 C 
ENDROOT
BRANCH   2   3
ATOM      3  O   UNK d   0      15.490 -18.351   1.403  0.00  0.00    -0.776 OA
ATOM      4  H   UNK d   0      15.505 -17.403   1.785  0.00  0.00     0.167 HD
ENDBRANCH   2   3
BRANCH   2   5
ATOM      5  C   UNK d   0      14.406 -19.269   3.445  0.00  0.00     0.115 C 
BRANCH   5   6
ATOM      6  C   UNK d   0      12.938 -18.990   3.618  0.00  0.00     0.052 C 
BRANCH   6   7
ATOM      7  C   UNK d   0      12.675 -17.700   4.358  0.00  0.00    -0.020 A 
ATOM      8  C   UNK d   0      12.174 -17.556   5.558  0.00  0.00    -0.011 A 
ATOM      9  C   UNK d   0      12.099 -16.132   5.841  0.00  0.00     0.067 A 
ATOM     10  C   UNK d   0      11.691 -15.335   6.921  0.00  0.00     0.062 C 
ATOM     11  N   UNK d   0      12.569 -15.483   4.755  0.00  0.00    -0.248 NA
ATOM     12  C   UNK d   0      11.953 -13.974   7.117  0.00  0.00     0.041 A 
ATOM     13  N   UNK d   0      11.918 -12.933   6.263  0.00  0.00    -0.355 N 
ATOM     14  C   UNK d   0      12.387 -13.540   8.382  0.00  0.00    -0.022 A 
ATOM     15  C   UNK d   0      12.325 -11.851   6.953  0.00  0.00     0.042 A 
ATOM     16  H   UNK d   0      11.592 -12.959   5.200  0.00  0.00     0.166 HD
ATOM     17  C   UNK d   0      12.473 -10.510   6.545  0.00  0.00     0.062 C 
ATOM     18  C   UNK d   0      12.629 -12.192   8.285  0.00  0.00    -0.013 A 
ATOM     19  C   UNK d   0      13.039 -10.015   5.398  0.00  0.00     0.067 A 
ATOM     20  N   UNK d   0      13.319 -10.895   4.433  0.00  0.00    -0.248 NA
ATOM     21  C   UNK d   0      13.457  -8.708   4.919  0.00  0.00    -0.011 A 
ATOM     22  C   UNK d   0      13.892 -10.259   3.359  0.00  0.00     0.066 A 
ATOM     23  C   UNK d   0      14.201 -11.053   2.265  0.00  0.00     0.062 C 
ATOM     24  C   UNK d   0      13.959  -8.858   3.728  0.00  0.00    -0.020 A 
ATOM     25  C   UNK d   0      13.917 -12.416   2.083  0.00  0.00     0.041 A 
ATOM     26  N   UNK d   0      13.967 -13.453   2.927  0.00  0.00    -0.355 N 
ATOM     27  C   UNK d   0      13.477 -12.850   0.814  0.00  0.00    -0.022 A 
ATOM     28  C   UNK d   0      13.569 -14.535   2.240  0.00  0.00     0.042 A 
ATOM     29  H   UNK d   0      14.305 -13.427   3.993  0.00  0.00     0.166 HD
ATOM     30  C   UNK d   0      13.427 -15.876   2.630  0.00  0.00     0.062 C 
ATOM     31  C   UNK d   0      13.254 -14.190   0.904  0.00  0.00    -0.013 A 
ATOM     32  C   UNK d   0      12.932 -16.370   3.827  0.00  0.00     0.066 A 
BRANCH   8  33
ATOM     33  C   UNK d   0      11.750 -18.630   6.475  0.00  0.00     0.151 C 
BRANCH  33  34
ATOM     34  C   UNK d   0      10.300 -18.889   6.419  0.00  0.00     0.143 C 
ATOM     35  O   UNK d   0       9.779 -19.751   7.141  0.00  0.00    -0.650 OA
BRANCH  34  36
ATOM     36  O   UNK d   0       9.517 -18.161   5.553  0.00  0.00    -0.776 OA
ATOM     37  H   UNK d   0       9.469 -18.395   4.552  0.00  0.00     0.167 HD
ENDBRANCH  34  36
ENDBRANCH  33  34
ENDBRANCH   8  33
BRANCH  31  38
ATOM     38  C   UNK d   0      12.759 -15.088  -0.205  0.00  0.00     0.151 C 
BRANCH  38  39
ATOM     39  C   UNK d   0      13.820 -15.856  -0.822  0.00  0.00     0.143 C 
ATOM     40  O   UNK d   0      14.804 -15.319  -1.359  0.00  0.00    -0.650 OA
BRANCH  39  41
ATOM     41  O   UNK d   0      13.748 -17.249  -0.819  0.00  0.00    -0.776 OA
ATOM     42  H   UNK d   0      14.563 -17.753  -1.182  0.00  0.00     0.167 HD
ENDBRANCH  39  41
ENDBRANCH  38  39
ENDBRANCH  31  38
BRANCH  27  43
ATOM     43  C   UNK d   0      13.269 -12.056  -0.452  0.00  0.00     0.052 C 
BRANCH  43  44
ATOM     44  C   UNK d   0      11.836 -11.720  -0.709  0.00  0.00     0.115 C 
BRANCH  44  45
ATOM     45  C   UNK d   0      11.615 -10.355  -0.164  0.00  0.00     0.139 C 
ATOM     46  O   UNK d   0      11.957  -9.374  -0.870  0.00  0.00    -0.650 OA
BRANCH  45  47
ATOM     47  O   UNK d   0      11.050 -10.127   1.071  0.00  0.00    -0.776 OA
ATOM     48  H   UNK d   0      10.573 -10.864   1.615  0.00  0.00     0.167 HD
ENDBRANCH  45  47
ENDBRANCH  44  45
ENDBRANCH  43  44
ENDBRANCH  27  43
BRANCH  24  49
ATOM     49  C   UNK d   0      14.471  -7.784   2.859  0.00  0.00     0.052 C 
BRANCH  49  50
ATOM     50  C   UNK d   0      13.669  -7.714   1.585  0.00  0.00     0.115 C 
BRANCH  50  51
ATOM     51  C   UNK d   0      12.589  -6.737   1.532  0.00  0.00     0.139 C 
ATOM     52  O   UNK d   0      12.730  -5.551   1.913  0.00  0.00    -0.650 OA
BRANCH  51  53
ATOM     53  O   UNK d   0      11.347  -7.114   1.046  0.00  0.00    -0.776 OA
ATOM     54  H   UNK d   0      11.008  -8.034   1.268  0.00  0.00     0.167 HD
ENDBRANCH  51  53
ENDBRANCH  50  51
ENDBRANCH  49  50
ENDBRANCH  24  49
BRANCH  21  55
ATOM     55  C   UNK d   0      13.307  -7.445   5.701  0.00  0.00     0.151 C 
BRANCH  55  56
ATOM     56  C   UNK d   0      14.444  -7.220   6.607  0.00  0.00     0.143 C 
ATOM     57  O   UNK d   0      15.380  -6.442   6.336  0.00  0.00    -0.650 OA
BRANCH  56  58
ATOM     58  O   UNK d   0      14.458  -7.913   7.816  0.00  0.00    -0.776 OA
ATOM     59  H   UNK d   0      15.045  -8.767   7.823  0.00  0.00     0.167 HD
ENDBRANCH  56  58
ENDBRANCH  55  56
ENDBRANCH  21  55
BRANCH  18  60
ATOM     60  C   UNK d   0      13.121 -11.319   9.412  0.00  0.00     0.151 C 
BRANCH  60  61
ATOM     61  C   UNK d   0      14.589 -11.338   9.327  0.00  0.00     0.143 C 
ATOM     62  O   UNK d   0      15.286 -10.895   8.414  0.00  0.00    -0.650 OA
BRANCH  61  63
ATOM     63  O   UNK d   0      15.248 -11.937  10.428  0.00  0.00    -0.776 OA
ATOM     64  H   UNK d   0      14.846 -12.722  10.908  0.00  0.00     0.167 HD
ENDBRANCH  61  63
ENDBRANCH  60  61
ENDBRANCH  18  60
BRANCH  14  65
ATOM     65  C   UNK d   0      12.495 -14.275   9.688  0.00  0.00     0.052 C 
BRANCH  65  66
ATOM     66  C   UNK d   0      11.233 -14.250  10.476  0.00  0.00     0.115 C 
BRANCH  66  67
ATOM     67  C   UNK d   0      11.155 -13.455  11.669  0.00  0.00     0.139 C 
ATOM     68  O   UNK d   0      12.157 -13.460  12.476  0.00  0.00    -0.650 OA
BRANCH  67  69
ATOM     69  O   UNK d   0      10.099 -12.648  12.089  0.00  0.00    -0.776 OA
ATOM     70  H   UNK d   0      10.303 -12.016  12.877  0.00  0.00     0.167 HD
ENDBRANCH  67  69
ENDBRANCH  66  67
ENDBRANCH  65  66
ENDBRANCH  14  65
ENDBRANCH   6   7
ENDBRANCH   5   6
ENDBRANCH   2   5
TORSDOF 28
ENDMDL
MODEL 3
REMARK VINA RESULT:      -6.4     24.169     29.064
REMARK  28 active torsions:
REMARK  status: ('A' for Active; 'I' for Inactive)
REMARK    1  A    between atoms: C_2  and  O_3 
REMARK    2  A    between atoms: C_2  and  C_4 
REMARK    3  A    between atoms: C_4  and  C_5 
REMARK    4  A    between atoms: C_5  and  C_6 
REMARK    5  A    between atoms: C_7  and  C_8 
REMARK    6  A    between atoms: C_8  and  C_9 
REMARK    7  A    between atoms: C_9  and  O_11 
REMARK    8  A    between atoms: C_28  and  C_29 
REMARK    9  A    between atoms: C_29  and  C_30 
REMARK   10  A    between atoms: C_30  and  O_32 
REMARK   11  A    between atoms: C_33  and  C_34 
REMARK   12  A    between atoms: C_34  and  C_35 
REMARK   13  A    between atoms: C_35  and  C_36 
REMARK   14  A    between atoms: C_36  and  O_38 
REMARK   15  A    between atoms: C_39  and  C_40 
REMARK   16  A    between atoms: C_40  and  C_41 
REMARK   17  A    between atoms: C_41  and  C_42 
REMARK   18  A    between atoms: C_42  and  O_44 
REMARK   19  A    between atoms: C_45  and  C_46 
REMARK   20  A    between atoms: C_46  and  C_47 
REMARK   21  A    between atoms: C_47  and  O_49 
REMARK   22  A    between atoms: C_50  and  C_51 
REMARK   23  A    between atoms: C_51  and  C_52 
REMARK   24  A    between atoms: C_52  and  O_54 
REMARK   25  A    between atoms: C_55  and  C_56 
REMARK   26  A    between atoms: C_56  and  C_57 
REMARK   27  A    between atoms: C_57  and  C_58 
REMARK   28  A    between atoms: C_58  and  O_60 
ROOT
ATOM      1  O   UNK d   0     -18.383   1.704  -3.782  0.00  0.00    -0.650 OA
ATOM      2  C   UNK d   0     -17.316   1.187  -3.383  0.00  0.00     0.139 C 
ENDROOT
BRANCH   2   3
ATOM      3  O   UNK d   0     -16.264   1.054  -4.258  0.00  0.00    -0.776 OA
ATOM      4  H   UNK d   0     -16.361   1.310  -5.242  0.00  0.00     0.167 HD
ENDBRANCH   2   3
BRANCH   2   5
ATOM      5  C   UNK d   0     -17.191   0.720  -1.973  0.00  0.00     0.115 C 
BRANCH   5   6
ATOM      6  C   UNK d   0     -18.371  -0.139  -1.606  0.00  0.00     0.052 C 
BRANCH   6   7
ATOM      7  C   UNK d   0     -18.000  -1.593  -1.434  0.00  0.00    -0.020 A 
ATOM      8  C   UNK d   0     -18.138  -2.560  -2.304  0.00  0.00    -0.011 A 
ATOM      9  C   UNK d   0     -17.652  -3.784  -1.689  0.00  0.00     0.067 A 
ATOM     10  C   UNK d   0     -17.506  -5.124  -2.079  0.00  0.00     0.062 C 
ATOM     11  N   UNK d   0     -17.242  -3.471  -0.442  0.00  0.00    -0.248 NA
ATOM     12  C   UNK d   0     -16.754  -6.116  -1.440  0.00  0.00     0.041 A 
ATOM     13  N   UNK d   0     -16.618  -6.423  -0.136  0.00  0.00    -0.355 N 
ATOM     14  C   UNK d   0     -15.925  -6.947  -2.216  0.00  0.00    -0.022 A 
ATOM     15  C   UNK d   0     -15.718  -7.422  -0.064  0.00  0.00     0.042 A 
ATOM     16  H   UNK d   0     -17.161  -5.956   0.714  0.00  0.00     0.166 HD
ATOM     17  C   UNK d   0     -15.212  -8.116   1.053  0.00  0.00     0.062 C 
ATOM     18  C   UNK d   0     -15.261  -7.778  -1.347  0.00  0.00    -0.013 A 
ATOM     19  C   UNK d   0     -14.782  -7.617   2.256  0.00  0.00     0.067 A 
ATOM     20  N   UNK d   0     -15.046  -6.333   2.508  0.00  0.00    -0.248 NA
ATOM     21  C   UNK d   0     -14.056  -8.137   3.404  0.00  0.00    -0.011 A 
ATOM     22  C   UNK d   0     -14.544  -5.974   3.735  0.00  0.00     0.066 A 
ATOM     23  C   UNK d   0     -14.782  -4.669   4.140  0.00  0.00     0.062 C 
ATOM     24  C   UNK d   0     -13.917  -7.169   4.263  0.00  0.00    -0.020 A 
ATOM     25  C   UNK d   0     -15.551  -3.692   3.489  0.00  0.00     0.041 A 
ATOM     26  N   UNK d   0     -15.675  -3.377   2.195  0.00  0.00    -0.355 N 
ATOM     27  C   UNK d   0     -16.386  -2.861   4.268  0.00  0.00    -0.022 A 
ATOM     28  C   UNK d   0     -16.565  -2.375   2.120  0.00  0.00     0.042 A 
ATOM     29  H   UNK d   0     -15.120  -3.840   1.342  0.00  0.00     0.166 HD
ATOM     30  C   UNK d   0     -17.071  -1.669   1.017  0.00  0.00     0.062 C 
ATOM     31  C   UNK d   0     -17.032  -2.025   3.410  0.00  0.00    -0.013 A 
ATOM     32  C   UNK d   0     -17.424  -2.167  -0.227  0.00  0.00     0.066 A 
BRANCH   8  33
ATOM     33  C   UNK d   0     -18.690  -2.452  -3.667  0.00  0.00     0.151 C 
BRANCH  33  34
ATOM     34  C   UNK d   0     -17.663  -2.611  -4.713  0.00  0.00     0.143 C 
ATOM     35  O   UNK d   0     -17.173  -3.723  -4.960  0.00  0.00    -0.650 OA
BRANCH  34  36
ATOM     36  O   UNK d   0     -17.244  -1.509  -5.421  0.00  0.00    -0.776 OA
ATOM     37  H   UNK d   0     -16.435  -0.952  -5.114  0.00  0.00     0.167 HD
ENDBRANCH  34  36
ENDBRANCH  33  34
ENDBRANCH   8  33
BRANCH  31  38
ATOM     38  C   UNK d   0     -18.042  -0.967   3.787  0.00  0.00     0.151 C 
BRANCH  38  39
ATOM     39  C   UNK d   0     -17.425   0.277   4.197  0.00  0.00     0.143 C 
ATOM     40  O   UNK d   0     -17.546   0.732   5.348  0.00  0.00    -0.650 OA
BRANCH  39  41
ATOM     41  O   UNK d   0     -16.663   1.001   3.280  0.00  0.00    -0.776 OA
ATOM     42  H   UNK d   0     -15.832   0.536   2.902  0.00  0.00     0.167 HD
ENDBRANCH  39  41
ENDBRANCH  38  39
ENDBRANCH  31  38
BRANCH  27  43
ATOM     43  C   UNK d   0     -16.585  -2.833   5.763  0.00  0.00     0.052 C 
BRANCH  43  44
ATOM     44  C   UNK d   0     -17.795  -3.586   6.212  0.00  0.00     0.115 C 
BRANCH  44  45
ATOM     45  C   UNK d   0     -17.417  -4.287   7.467  0.00  0.00     0.139 C 
ATOM     46  O   UNK d   0     -17.960  -5.392   7.714  0.00  0.00    -0.650 OA
BRANCH  45  47
ATOM     47  O   UNK d   0     -16.498  -3.779   8.359  0.00  0.00    -0.776 OA
ATOM     48  H   UNK d   0     -16.638  -2.888   8.861  0.00  0.00     0.167 HD
ENDBRANCH  45  47
ENDBRANCH  44  45
ENDBRANCH  43  44
ENDBRANCH  27  43
BRANCH  24  49
ATOM     49  C   UNK d   0     -13.275  -7.268   5.585  0.00  0.00     0.052 C 
BRANCH  49  50
ATOM     50  C   UNK d   0     -14.295  -7.608   6.640  0.00  0.00     0.115 C 
BRANCH  50  51
ATOM     51  C   UNK d   0     -14.582  -6.588   7.641  0.00  0.00     0.139 C 
ATOM     52  O   UNK d   0     -14.045  -5.456   7.626  0.00  0.00    -0.650 OA
BRANCH  51  53
ATOM     53  O   UNK d   0     -15.481  -6.861   8.660  0.00  0.00    -0.776 OA
ATOM     54  H   UNK d   0     -15.198  -6.676   9.606  0.00  0.00     0.167 HD
ENDBRANCH  51  53
ENDBRANCH  50  51
ENDBRANCH  49  50
ENDBRANCH  24  49
BRANCH  21  55
ATOM     55  C   UNK d   0     -13.582  -9.547   3.523  0.00  0.00     0.151 C 
BRANCH  55  56
ATOM     56  C   UNK d   0     -14.686 -10.479   3.798  0.00  0.00     0.143 C 
ATOM     57  O   UNK d   0     -15.557 -10.257   4.662  0.00  0.00    -0.650 OA
BRANCH  56  58
ATOM     58  O   UNK d   0     -14.745 -11.655   3.051  0.00  0.00    -0.776 OA
ATOM     59  H   UNK d   0     -14.715 -11.521   2.025  0.00  0.00     0.167 HD
ENDBRANCH  56  58
ENDBRANCH  55  56
ENDBRANCH  21  55
BRANCH  18  60
ATOM     60  C   UNK d   0     -14.259  -8.830  -1.753  0.00  0.00     0.151 C 
BRANCH  60  61
ATOM     61  C   UNK d   0     -12.934  -8.223  -1.556  0.00  0.00     0.143 C 
ATOM     62  O   UNK d   0     -11.929  -8.767  -1.099  0.00  0.00    -0.650 OA
BRANCH  61  63
ATOM     63  O   UNK d   0     -12.830  -6.865  -1.942  0.00  0.00    -0.776 OA
ATOM     64  H   UNK d   0     -11.963  -6.365  -1.851  0.00  0.00     0.167 HD
ENDBRANCH  61  63
ENDBRANCH  60  61
ENDBRANCH  18  60
BRANCH  14  65
ATOM     65  C   UNK d   0     -15.788  -7.081  -3.706  0.00  0.00     0.052 C 
BRANCH  65  66
ATOM     66  C   UNK d   0     -16.829  -7.956  -4.309  0.00  0.00     0.115 C 
BRANCH  66  67
ATOM     67  C   UNK d   0     -17.712  -7.426  -5.310  0.00  0.00     0.139 C 
ATOM     68  O   UNK d   0     -17.922  -8.120  -6.372  0.00  0.00    -0.650 OA
BRANCH  67  69
ATOM     69  O   UNK d   0     -18.398  -6.212  -5.287  0.00  0.00    -0.776 OA
ATOM     70  H   UNK d   0     -17.845  -5.380  -5.540  0.00  0.00     0.167 HD
ENDBRANCH  67  69
ENDBRANCH  66  67
ENDBRANCH  65  66
ENDBRANCH  14  65
ENDBRANCH   6   7
ENDBRANCH   5   6
ENDBRANCH   2   5
TORSDOF 28
ENDMDL
MODEL 4
REMARK VINA RESULT:      -6.3     33.300     37.612
REMARK  28 active torsions:
REMARK  status: ('A' for Active; 'I' for Inactive)
REMARK    1  A    between atoms: C_2  and  O_3 
REMARK    2  A    between atoms: C_2  and  C_4 
REMARK    3  A    between atoms: C_4  and  C_5 
REMARK    4  A    between atoms: C_5  and  C_6 
REMARK    5  A    between atoms: C_7  and  C_8 
REMARK    6  A    between atoms: C_8  and  C_9 
REMARK    7  A    between atoms: C_9  and  O_11 
REMARK    8  A    between atoms: C_28  and  C_29 
REMARK    9  A    between atoms: C_29  and  C_30 
REMARK   10  A    between atoms: C_30  and  O_32 
REMARK   11  A    between atoms: C_33  and  C_34 
REMARK   12  A    between atoms: C_34  and  C_35 
REMARK   13  A    between atoms: C_35  and  C_36 
REMARK   14  A    between atoms: C_36  and  O_38 
REMARK   15  A    between atoms: C_39  and  C_40 
REMARK   16  A    between atoms: C_40  and  C_41 
REMARK   17  A    between atoms: C_41  and  C_42 
REMARK   18  A    between atoms: C_42  and  O_44 
REMARK   19  A    between atoms: C_45  and  C_46 
REMARK   20  A    between atoms: C_46  and  C_47 
REMARK   21  A    between atoms: C_47  and  O_49 
REMARK   22  A    between atoms: C_50  and  C_51 
REMARK   23  A    between atoms: C_51  and  C_52 
REMARK   24  A    between atoms: C_52  and  O_54 
REMARK   25  A    between atoms: C_55  and  C_56 
REMARK   26  A    between atoms: C_56  and  C_57 
REMARK   27  A    between atoms: C_57  and  C_58 
REMARK   28  A    between atoms: C_58  and  O_60 
ROOT
ATOM      1  O   UNK d   0      15.437  -1.855 -18.656  0.00  0.00    -0.650 OA
ATOM      2  C   UNK d   0      14.919  -0.764 -18.982  0.00  0.00     0.139 C 
ENDROOT
BRANCH   2   3
ATOM      3  O   UNK d   0      13.636  -0.481 -18.581  0.00  0.00    -0.776 OA
ATOM      4  H   UNK d   0      13.041   0.149 -19.123  0.00  0.00     0.167 HD
ENDBRANCH   2   3
BRANCH   2   5
ATOM      5  C   UNK d   0      15.690   0.216 -19.799  0.00  0.00     0.115 C 
BRANCH   5   6
ATOM      6  C   UNK d   0      14.749   1.106 -20.564  0.00  0.00     0.052 C 
BRANCH   6   7
ATOM      7  C   UNK d   0      15.134   2.564 -20.483  0.00  0.00    -0.020 A 
ATOM      8  C   UNK d   0      14.657   3.472 -19.670  0.00  0.00    -0.011 A 
ATOM      9  C   UNK d   0      15.321   4.730 -19.968  0.00  0.00     0.067 A 
ATOM     10  C   UNK d   0      15.284   6.039 -19.464  0.00  0.00     0.062 C 
ATOM     11  N   UNK d   0      16.183   4.497 -20.981  0.00  0.00    -0.248 NA
ATOM     12  C   UNK d   0      16.208   7.063 -19.698  0.00  0.00     0.041 A 
ATOM     13  N   UNK d   0      16.828   7.457 -20.827  0.00  0.00    -0.355 N 
ATOM     14  C   UNK d   0      16.662   7.831 -18.611  0.00  0.00    -0.022 A 
ATOM     15  C   UNK d   0      17.670   8.449 -20.482  0.00  0.00     0.042 A 
ATOM     16  H   UNK d   0      16.659   7.054 -21.850  0.00  0.00     0.166 HD
ATOM     17  C   UNK d   0      18.554   9.212 -21.271  0.00  0.00     0.062 C 
ATOM     18  C   UNK d   0      17.595   8.712 -19.100  0.00  0.00    -0.013 A 
ATOM     19  C   UNK d   0      19.420   8.792 -22.247  0.00  0.00     0.067 A 
ATOM     20  N   UNK d   0      19.294   7.530 -22.666  0.00  0.00    -0.248 NA
ATOM     21  C   UNK d   0      20.521   9.381 -22.991  0.00  0.00    -0.011 A 
ATOM     22  C   UNK d   0      20.233   7.250 -23.628  0.00  0.00     0.066 A 
ATOM     23  C   UNK d   0      20.190   5.979 -24.180  0.00  0.00     0.062 C 
ATOM     24  C   UNK d   0      20.995   8.472 -23.795  0.00  0.00    -0.020 A 
ATOM     25  C   UNK d   0      19.246   4.968 -23.940  0.00  0.00     0.041 A 
ATOM     26  N   UNK d   0      18.641   4.567 -22.816  0.00  0.00    -0.355 N 
ATOM     27  C   UNK d   0      18.787   4.201 -25.033  0.00  0.00    -0.022 A 
ATOM     28  C   UNK d   0      17.807   3.571 -23.156  0.00  0.00     0.042 A 
ATOM     29  H   UNK d   0      18.819   4.965 -21.787  0.00  0.00     0.166 HD
ATOM     30  C   UNK d   0      16.929   2.798 -22.380  0.00  0.00     0.062 C 
ATOM     31  C   UNK d   0      17.876   3.315 -24.546  0.00  0.00    -0.013 A 
ATOM     32  C   UNK d   0      16.118   3.213 -21.336  0.00  0.00     0.066 A 
BRANCH   8  33
ATOM     33  C   UNK d   0      13.627   3.277 -18.633  0.00  0.00     0.151 C 
BRANCH  33  34
ATOM     34  C   UNK d   0      14.198   2.929 -17.320  0.00  0.00     0.143 C 
ATOM     35  O   UNK d   0      14.978   3.699 -16.740  0.00  0.00    -0.650 OA
BRANCH  34  36
ATOM     36  O   UNK d   0      13.860   1.732 -16.732  0.00  0.00    -0.776 OA
ATOM     37  H   UNK d   0      12.957   1.277 -16.927  0.00  0.00     0.167 HD
ENDBRANCH  34  36
ENDBRANCH  33  34
ENDBRANCH   8  33
BRANCH  31  38
ATOM     38  C   UNK d   0      17.105   2.295 -25.351  0.00  0.00     0.151 C 
BRANCH  38  39
ATOM     39  C   UNK d   0      15.753   2.718 -25.646  0.00  0.00     0.143 C 
ATOM     40  O   UNK d   0      15.504   3.662 -26.417  0.00  0.00    -0.650 OA
BRANCH  39  41
ATOM     41  O   UNK d   0      14.681   2.052 -25.053  0.00  0.00    -0.776 OA
ATOM     42  H   UNK d   0      14.750   1.031 -24.989  0.00  0.00     0.167 HD
ENDBRANCH  39  41
ENDBRANCH  38  39
ENDBRANCH  31  38
BRANCH  27  43
ATOM     43  C   UNK d   0      19.177   4.276 -26.488  0.00  0.00     0.052 C 
BRANCH  43  44
ATOM     44  C   UNK d   0      18.487   5.377 -27.228  0.00  0.00     0.115 C 
BRANCH  44  45
ATOM     45  C   UNK d   0      18.045   4.803 -28.525  0.00  0.00     0.139 C 
ATOM     46  O   UNK d   0      18.157   5.514 -29.555  0.00  0.00    -0.650 OA
BRANCH  45  47
ATOM     47  O   UNK d   0      17.526   3.532 -28.643  0.00  0.00    -0.776 OA
ATOM     48  H   UNK d   0      16.538   3.350 -28.885  0.00  0.00     0.167 HD
ENDBRANCH  45  47
ENDBRANCH  44  45
ENDBRANCH  43  44
ENDBRANCH  27  43
BRANCH  24  49
ATOM     49  C   UNK d   0      22.093   8.654 -24.759  0.00  0.00     0.052 C 
BRANCH  49  50
ATOM     50  C   UNK d   0      21.548   8.757 -26.161  0.00  0.00     0.115 C 
BRANCH  50  51
ATOM     51  C   UNK d   0      20.993  10.041 -26.566  0.00  0.00     0.139 C 
ATOM     52  O   UNK d   0      21.538  11.134 -26.279  0.00  0.00    -0.650 OA
BRANCH  51  53
ATOM     53  O   UNK d   0      19.816  10.080 -27.296  0.00  0.00    -0.776 OA
ATOM     54  H   UNK d   0      19.003   9.632 -26.912  0.00  0.00     0.167 HD
ENDBRANCH  51  53
ENDBRANCH  50  51
ENDBRANCH  49  50
ENDBRANCH  24  49
BRANCH  21  55
ATOM     55  C   UNK d   0      20.982  10.791 -22.825  0.00  0.00     0.151 C 
BRANCH  55  56
ATOM     56  C   UNK d   0      21.624  11.011 -21.520  0.00  0.00     0.143 C 
ATOM     57  O   UNK d   0      22.386  10.177 -20.994  0.00  0.00    -0.650 OA
BRANCH  56  58
ATOM     58  O   UNK d   0      21.357  12.209 -20.859  0.00  0.00    -0.776 OA
ATOM     59  H   UNK d   0      21.991  12.992 -21.101  0.00  0.00     0.167 HD
ENDBRANCH  56  58
ENDBRANCH  55  56
ENDBRANCH  21  55
BRANCH  18  60
ATOM     60  C   UNK d   0      18.347   9.723 -18.272  0.00  0.00     0.151 C 
BRANCH  60  61
ATOM     61  C   UNK d   0      19.707   9.186 -18.116  0.00  0.00     0.143 C 
ATOM     62  O   UNK d   0      20.021   8.064 -17.716  0.00  0.00    -0.650 OA
BRANCH  61  63
ATOM     63  O   UNK d   0      20.751  10.074 -18.472  0.00  0.00    -0.776 OA
ATOM     64  H   UNK d   0      20.636  11.068 -18.388  0.00  0.00     0.167 HD
ENDBRANCH  61  63
ENDBRANCH  60  61
ENDBRANCH  18  60
BRANCH  14  65
ATOM     65  C   UNK d   0      16.215   7.862 -17.177  0.00  0.00     0.052 C 
BRANCH  65  66
ATOM     66  C   UNK d   0      17.088   7.060 -16.278  0.00  0.00     0.115 C 
BRANCH  66  67
ATOM     67  C   UNK d   0      17.657   7.669 -15.109  0.00  0.00     0.139 C 
ATOM     68  O   UNK d   0      16.904   8.406 -14.372  0.00  0.00    -0.650 OA
BRANCH  67  69
ATOM     69  O   UNK d   0      18.969   7.566 -14.646  0.00  0.00    -0.776 OA
ATOM     70  H   UNK d   0      19.236   8.231 -13.906  0.00  0.00     0.167 HD
ENDBRANCH  67  69
ENDBRANCH  66  67
ENDBRANCH  65  66
ENDBRANCH  14  65
ENDBRANCH   6   7
ENDBRANCH   5   6
ENDBRANCH   2   5
TORSDOF 28
ENDMDL
MODEL 5
REMARK VINA RESULT:      -6.3     21.990     28.675
REMARK  28 active torsions:
REMARK  status: ('A' for Active; 'I' for Inactive)
REMARK    1  A    between atoms: C_2  and  O_3 
REMARK    2  A    between atoms: C_2  and  C_4 
REMARK    3  A    between atoms: C_4  and  C_5 
REMARK    4  A    between atoms: C_5  and  C_6 
REMARK    5  A    between atoms: C_7  and  C_8 
REMARK    6  A    between atoms: C_8  and  C_9 
REMARK    7  A    between atoms: C_9  and  O_11 
REMARK    8  A    between atoms: C_28  and  C_29 
REMARK    9  A    between atoms: C_29  and  C_30 
REMARK   10  A    between atoms: C_30  and  O_32 
REMARK   11  A    between atoms: C_33  and  C_34 
REMARK   12  A    between atoms: C_34  and  C_35 
REMARK   13  A    between atoms: C_35  and  C_36 
REMARK   14  A    between atoms: C_36  and  O_38 
REMARK   15  A    between atoms: C_39  and  C_40 
REMARK   16  A    between atoms: C_40  and  C_41 
REMARK   17  A    between atoms: C_41  and  C_42 
REMARK   18  A    between atoms: C_42  and  O_44 
REMARK   19  A    between atoms: C_45  and  C_46 
REMARK   20  A    between atoms: C_46  and  C_47 
REMARK   21  A    between atoms: C_47  and  O_49 
REMARK   22  A    between atoms: C_50  and  C_51 
REMARK   23  A    between atoms: C_51  and  C_52 
REMARK   24  A    between atoms: C_52  and  O_54 
REMARK   25  A    between atoms: C_55  and  C_56 
REMARK   26  A    between atoms: C_56  and  C_57 
REMARK   27  A    between atoms: C_57  and  C_58 
REMARK   28  A    between atoms: C_58  and  O_60 
ROOT
ATOM      1  O   UNK d   0     -19.059  -5.671  10.364  0.00  0.00    -0.650 OA
ATOM      2  C   UNK d   0     -18.119  -5.020   9.857  0.00  0.00     0.139 C 
ENDROOT
BRANCH   2   3
ATOM      3  O   UNK d   0     -16.958  -4.845  10.571  0.00  0.00    -0.776 OA
ATOM      4  H   UNK d   0     -16.877  -5.173  11.536  0.00  0.00     0.167 HD
ENDBRANCH   2   3
BRANCH   2   5
ATOM      5  C   UNK d   0     -18.261  -4.442   8.491  0.00  0.00     0.115 C 
BRANCH   5   6
ATOM      6  C   UNK d   0     -16.949  -3.865   8.034  0.00  0.00     0.052 C 
BRANCH   6   7
ATOM      7  C   UNK d   0     -16.329  -4.653   6.905  0.00  0.00    -0.020 A 
ATOM      8  C   UNK d   0     -15.344  -5.511   6.978  0.00  0.00    -0.011 A 
ATOM      9  C   UNK d   0     -15.088  -6.010   5.637  0.00  0.00     0.067 A 
ATOM     10  C   UNK d   0     -14.209  -6.935   5.051  0.00  0.00     0.062 C 
ATOM     11  N   UNK d   0     -15.960  -5.398   4.809  0.00  0.00    -0.248 NA
ATOM     12  C   UNK d   0     -14.297  -7.493   3.771  0.00  0.00     0.041 A 
ATOM     13  N   UNK d   0     -14.596  -6.940   2.581  0.00  0.00    -0.355 N 
ATOM     14  C   UNK d   0     -14.108  -8.879   3.619  0.00  0.00    -0.022 A 
ATOM     15  C   UNK d   0     -14.609  -7.939   1.679  0.00  0.00     0.042 A 
ATOM     16  H   UNK d   0     -14.776  -5.861   2.379  0.00  0.00     0.166 HD
ATOM     17  C   UNK d   0     -14.861  -7.915   0.293  0.00  0.00     0.062 C 
ATOM     18  C   UNK d   0     -14.307  -9.170   2.293  0.00  0.00    -0.013 A 
ATOM     19  C   UNK d   0     -15.853  -7.261  -0.392  0.00  0.00     0.067 A 
ATOM     20  N   UNK d   0     -16.570  -6.365   0.291  0.00  0.00    -0.248 NA
ATOM     21  C   UNK d   0     -16.381  -7.288  -1.746  0.00  0.00    -0.011 A 
ATOM     22  C   UNK d   0     -17.529  -5.806  -0.517  0.00  0.00     0.066 A 
ATOM     23  C   UNK d   0     -18.325  -4.826   0.058  0.00  0.00     0.062 C 
ATOM     24  C   UNK d   0     -17.365  -6.438  -1.811  0.00  0.00    -0.020 A 
ATOM     25  C   UNK d   0     -18.212  -4.269   1.342  0.00  0.00     0.041 A 
ATOM     26  N   UNK d   0     -17.930  -4.822   2.528  0.00  0.00    -0.355 N 
ATOM     27  C   UNK d   0     -18.398  -2.878   1.493  0.00  0.00    -0.022 A 
ATOM     28  C   UNK d   0     -17.925  -3.829   3.430  0.00  0.00     0.042 A 
ATOM     29  H   UNK d   0     -17.760  -5.908   2.731  0.00  0.00     0.166 HD
ATOM     30  C   UNK d   0     -17.685  -3.839   4.813  0.00  0.00     0.062 C 
ATOM     31  C   UNK d   0     -18.218  -2.591   2.811  0.00  0.00    -0.013 A 
ATOM     32  C   UNK d   0     -16.735  -4.569   5.510  0.00  0.00     0.066 A 
BRANCH   8  33
ATOM     33  C   UNK d   0     -14.607  -5.911   8.191  0.00  0.00     0.151 C 
BRANCH  33  34
ATOM     34  C   UNK d   0     -15.249  -7.029   8.906  0.00  0.00     0.143 C 
ATOM     35  O   UNK d   0     -15.980  -7.831   8.308  0.00  0.00    -0.650 OA
BRANCH  34  36
ATOM     36  O   UNK d   0     -15.032  -7.180  10.256  0.00  0.00    -0.776 OA
ATOM     37  H   UNK d   0     -14.438  -6.522  10.779  0.00  0.00     0.167 HD
ENDBRANCH  34  36
ENDBRANCH  33  34
ENDBRANCH   8  33
BRANCH  31  38
ATOM     38  C   UNK d   0     -18.305  -1.222   3.445  0.00  0.00     0.151 C 
BRANCH  38  39
ATOM     39  C   UNK d   0     -17.116  -0.425   3.226  0.00  0.00     0.143 C 
ATOM     40  O   UNK d   0     -17.023   0.752   3.615  0.00  0.00    -0.650 OA
BRANCH  39  41
ATOM     41  O   UNK d   0     -16.027  -0.986   2.559  0.00  0.00    -0.776 OA
ATOM     42  H   UNK d   0     -15.987  -2.009   2.520  0.00  0.00     0.167 HD
ENDBRANCH  39  41
ENDBRANCH  38  39
ENDBRANCH  31  38
BRANCH  27  43
ATOM     43  C   UNK d   0     -18.735  -1.838   0.454  0.00  0.00     0.052 C 
BRANCH  43  44
ATOM     44  C   UNK d   0     -17.619  -1.576  -0.504  0.00  0.00     0.115 C 
BRANCH  44  45
ATOM     45  C   UNK d   0     -17.406  -0.106  -0.516  0.00  0.00     0.139 C 
ATOM     46  O   UNK d   0     -16.294   0.334  -0.130  0.00  0.00    -0.650 OA
BRANCH  45  47
ATOM     47  O   UNK d   0     -18.369   0.786  -0.935  0.00  0.00    -0.776 OA
ATOM     48  H   UNK d   0     -19.347   0.509  -1.118  0.00  0.00     0.167 HD
ENDBRANCH  45  47
ENDBRANCH  44  45
ENDBRANCH  43  44
ENDBRANCH  27  43
BRANCH  24  49
ATOM     49  C   UNK d   0     -18.159  -6.118  -3.010  0.00  0.00     0.052 C 
BRANCH  49  50
ATOM     50  C   UNK d   0     -18.185  -4.629  -3.240  0.00  0.00     0.115 C 
BRANCH  50  51
ATOM     51  C   UNK d   0     -17.379  -4.112  -4.338  0.00  0.00     0.139 C 
ATOM     52  O   UNK d   0     -17.753  -3.159  -5.061  0.00  0.00    -0.650 OA
BRANCH  51  53
ATOM     53  O   UNK d   0     -16.146  -4.684  -4.613  0.00  0.00    -0.776 OA
ATOM     54  H   UNK d   0     -15.947  -5.591  -4.230  0.00  0.00     0.167 HD
ENDBRANCH  51  53
ENDBRANCH  50  51
ENDBRANCH  49  50
ENDBRANCH  24  49
BRANCH  21  55
ATOM     55  C   UNK d   0     -15.845  -8.159  -2.834  0.00  0.00     0.151 C 
BRANCH  55  56
ATOM     56  C   UNK d   0     -14.865  -7.452  -3.673  0.00  0.00     0.143 C 
ATOM     57  O   UNK d   0     -15.023  -7.283  -4.898  0.00  0.00    -0.650 OA
BRANCH  56  58
ATOM     58  O   UNK d   0     -13.718  -6.957  -3.055  0.00  0.00    -0.776 OA
ATOM     59  H   UNK d   0     -12.880  -6.913  -3.662  0.00  0.00     0.167 HD
ENDBRANCH  56  58
ENDBRANCH  55  56
ENDBRANCH  21  55
BRANCH  18  60
ATOM     60  C   UNK d   0     -14.211 -10.548   1.686  0.00  0.00     0.151 C 
BRANCH  60  61
ATOM     61  C   UNK d   0     -15.530 -11.169   1.883  0.00  0.00     0.143 C 
ATOM     62  O   UNK d   0     -16.600 -10.808   1.393  0.00  0.00    -0.650 OA
BRANCH  61  63
ATOM     63  O   UNK d   0     -15.542 -12.302   2.731  0.00  0.00    -0.776 OA
ATOM     64  H   UNK d   0     -15.535 -12.202   3.731  0.00  0.00     0.167 HD
ENDBRANCH  61  63
ENDBRANCH  60  61
ENDBRANCH  18  60
BRANCH  14  65
ATOM     65  C   UNK d   0     -13.660  -9.922   4.604  0.00  0.00     0.052 C 
BRANCH  65  66
ATOM     66  C   UNK d   0     -12.180 -10.056   4.677  0.00  0.00     0.115 C 
BRANCH  66  67
ATOM     67  C   UNK d   0     -11.552 -11.262   4.215  0.00  0.00     0.139 C 
ATOM     68  O   UNK d   0     -11.028 -11.270   3.041  0.00  0.00    -0.650 OA
BRANCH  67  69
ATOM     69  O   UNK d   0     -11.427 -12.473   4.895  0.00  0.00    -0.776 OA
ATOM     70  H   UNK d   0     -11.046 -12.414   5.850  0.00  0.00     0.167 HD
ENDBRANCH  67  69
ENDBRANCH  66  67
ENDBRANCH  65  66
ENDBRANCH  14  65
ENDBRANCH   6   7
ENDBRANCH   5   6
ENDBRANCH   2   5
TORSDOF 28
ENDMDL
MODEL 6
REMARK VINA RESULT:      -6.2     28.323     33.071
REMARK  28 active torsions:
REMARK  status: ('A' for Active; 'I' for Inactive)
REMARK    1  A    between atoms: C_2  and  O_3 
REMARK    2  A    between atoms: C_2  and  C_4 
REMARK    3  A    between atoms: C_4  and  C_5 
REMARK    4  A    between atoms: C_5  and  C_6 
REMARK    5  A    between atoms: C_7  and  C_8 
REMARK    6  A    between atoms: C_8  and  C_9 
REMARK    7  A    between atoms: C_9  and  O_11 
REMARK    8  A    between atoms: C_28  and  C_29 
REMARK    9  A    between atoms: C_29  and  C_30 
REMARK   10  A    between atoms: C_30  and  O_32 
REMARK   11  A    between atoms: C_33  and  C_34 
REMARK   12  A    between atoms: C_34  and  C_35 
REMARK   13  A    between atoms: C_35  and  C_36 
REMARK   14  A    between atoms: C_36  and  O_38 
REMARK   15  A    between atoms: C_39  and  C_40 
REMARK   16  A    between atoms: C_40  and  C_41 
REMARK   17  A    between atoms: C_41  and  C_42 
REMARK   18  A    between atoms: C_42  and  O_44 
REMARK   19  A    between atoms: C_45  and  C_46 
REMARK   20  A    between atoms: C_46  and  C_47 
REMARK   21  A    between atoms: C_47  and  O_49 
REMARK   22  A    between atoms: C_50  and  C_51 
REMARK   23  A    between atoms: C_51  and  C_52 
REMARK   24  A    between atoms: C_52  and  O_54 
REMARK   25  A    between atoms: C_55  and  C_56 
REMARK   26  A    between atoms: C_56  and  C_57 
REMARK   27  A    between atoms: C_57  and  C_58 
REMARK   28  A    between atoms: C_58  and  O_60 
ROOT
ATOM      1  O   UNK d   0      18.876   6.288 -10.453  0.00  0.00    -0.650 OA
ATOM      2  C   UNK d   0      19.519   6.677 -11.453  0.00  0.00     0.139 C 
ENDROOT
BRANCH   2   3
ATOM      3  O   UNK d   0      20.865   6.930 -11.331  0.00  0.00    -0.776 OA
ATOM      4  H   UNK d   0      21.230   7.882 -11.397  0.00  0.00     0.167 HD
ENDBRANCH   2   3
BRANCH   2   5
ATOM      5  C   UNK d   0      18.830   6.863 -12.761  0.00  0.00     0.115 C 
BRANCH   5   6
ATOM      6  C   UNK d   0      17.489   6.180 -12.741  0.00  0.00     0.052 C 
BRANCH   6   7
ATOM      7  C   UNK d   0      17.435   4.982 -13.660  0.00  0.00    -0.020 A 
ATOM      8  C   UNK d   0      17.705   3.737 -13.364  0.00  0.00    -0.011 A 
ATOM      9  C   UNK d   0      17.522   2.944 -14.569  0.00  0.00     0.067 A 
ATOM     10  C   UNK d   0      17.625   1.587 -14.914  0.00  0.00     0.062 C 
ATOM     11  N   UNK d   0      17.146   3.789 -15.551  0.00  0.00    -0.248 NA
ATOM     12  C   UNK d   0      17.136   0.967 -16.069  0.00  0.00     0.041 A 
ATOM     13  N   UNK d   0      17.158   1.353 -17.359  0.00  0.00    -0.355 N 
ATOM     14  C   UNK d   0      16.442  -0.250 -15.946  0.00  0.00    -0.022 A 
ATOM     15  C   UNK d   0      16.487   0.417 -18.056  0.00  0.00     0.042 A 
ATOM     16  H   UNK d   0      17.653   2.260 -17.771  0.00  0.00     0.166 HD
ATOM     17  C   UNK d   0      16.213   0.327 -19.435  0.00  0.00     0.062 C 
ATOM     18  C   UNK d   0      16.023  -0.604 -17.204  0.00  0.00    -0.013 A 
ATOM     19  C   UNK d   0      15.776   1.305 -20.293  0.00  0.00     0.067 A 
ATOM     20  N   UNK d   0      15.790   2.560 -19.837  0.00  0.00    -0.248 NA
ATOM     21  C   UNK d   0      15.253   1.348 -21.648  0.00  0.00    -0.011 A 
ATOM     22  C   UNK d   0      15.314   3.420 -20.795  0.00  0.00     0.066 A 
ATOM     23  C   UNK d   0      15.309   4.768 -20.466  0.00  0.00     0.062 C 
ATOM     24  C   UNK d   0      14.981   2.588 -21.935  0.00  0.00    -0.020 A 
ATOM     25  C   UNK d   0      15.816   5.372 -19.305  0.00  0.00     0.041 A 
ATOM     26  N   UNK d   0      15.782   4.995 -18.021  0.00  0.00    -0.355 N 
ATOM     27  C   UNK d   0      16.517   6.591 -19.430  0.00  0.00    -0.022 A 
ATOM     28  C   UNK d   0      16.443   5.932 -17.323  0.00  0.00     0.042 A 
ATOM     29  H   UNK d   0      15.274   4.090 -17.608  0.00  0.00     0.166 HD
ATOM     30  C   UNK d   0      16.715   6.039 -15.950  0.00  0.00     0.062 C 
ATOM     31  C   UNK d   0      16.918   6.952 -18.181  0.00  0.00    -0.013 A 
ATOM     32  C   UNK d   0      17.074   5.031 -15.069  0.00  0.00     0.066 A 
BRANCH   8  33
ATOM     33  C   UNK d   0      18.126   3.209 -12.053  0.00  0.00     0.151 C 
BRANCH  33  34
ATOM     34  C   UNK d   0      16.989   2.925 -11.160  0.00  0.00     0.143 C 
ATOM     35  O   UNK d   0      16.739   3.659 -10.193  0.00  0.00    -0.650 OA
BRANCH  34  36
ATOM     36  O   UNK d   0      16.195   1.828 -11.405  0.00  0.00    -0.776 OA
ATOM     37  H   UNK d   0      15.519   1.820 -12.181  0.00  0.00     0.167 HD
ENDBRANCH  34  36
ENDBRANCH  33  34
ENDBRANCH   8  33
BRANCH  31  38
ATOM     38  C   UNK d   0      17.715   8.184 -17.822  0.00  0.00     0.151 C 
BRANCH  38  39
ATOM     39  C   UNK d   0      16.885   9.354 -17.629  0.00  0.00     0.143 C 
ATOM     40  O   UNK d   0      15.803   9.309 -17.017  0.00  0.00    -0.650 OA
BRANCH  39  41
ATOM     41  O   UNK d   0      17.301  10.583 -18.142  0.00  0.00    -0.776 OA
ATOM     42  H   UNK d   0      16.569  11.272 -18.339  0.00  0.00     0.167 HD
ENDBRANCH  39  41
ENDBRANCH  38  39
ENDBRANCH  31  38
BRANCH  27  43
ATOM     43  C   UNK d   0      16.811   7.406 -20.665  0.00  0.00     0.052 C 
BRANCH  43  44
ATOM     44  C   UNK d   0      18.228   7.290 -21.126  0.00  0.00     0.115 C 
BRANCH  44  45
ATOM     45  C   UNK d   0      18.647   8.650 -21.554  0.00  0.00     0.139 C 
ATOM     46  O   UNK d   0      18.240   9.633 -20.886  0.00  0.00    -0.650 OA
BRANCH  45  47
ATOM     47  O   UNK d   0      19.462   8.873 -22.642  0.00  0.00    -0.776 OA
ATOM     48  H   UNK d   0      19.766   8.118 -23.278  0.00  0.00     0.167 HD
ENDBRANCH  45  47
ENDBRANCH  44  45
ENDBRANCH  43  44
ENDBRANCH  27  43
BRANCH  24  49
ATOM     49  C   UNK d   0      14.466   3.090 -23.221  0.00  0.00     0.052 C 
BRANCH  49  50
ATOM     50  C   UNK d   0      12.968   2.934 -23.282  0.00  0.00     0.115 C 
BRANCH  50  51
ATOM     51  C   UNK d   0      12.412   2.330 -24.485  0.00  0.00     0.139 C 
ATOM     52  O   UNK d   0      11.244   2.559 -24.879  0.00  0.00    -0.650 OA
BRANCH  51  53
ATOM     53  O   UNK d   0      13.186   1.462 -25.239  0.00  0.00    -0.776 OA
ATOM     54  H   UNK d   0      14.183   1.593 -25.240  0.00  0.00     0.167 HD
ENDBRANCH  51  53
ENDBRANCH  50  51
ENDBRANCH  49  50
ENDBRANCH  24  49
BRANCH  21  55
ATOM     55  C   UNK d   0      15.085   0.146 -22.517  0.00  0.00     0.151 C 
BRANCH  55  56
ATOM     56  C   UNK d   0      13.829  -0.566 -22.236  0.00  0.00     0.143 C 
ATOM     57  O   UNK d   0      12.858  -0.556 -23.018  0.00  0.00    -0.650 OA
BRANCH  56  58
ATOM     58  O   UNK d   0      13.740  -1.278 -21.041  0.00  0.00    -0.776 OA
ATOM     59  H   UNK d   0      12.933  -1.024 -20.442  0.00  0.00     0.167 HD
ENDBRANCH  56  58
ENDBRANCH  55  56
ENDBRANCH  21  55
BRANCH  18  60
ATOM     60  C   UNK d   0      15.229  -1.844 -17.534  0.00  0.00     0.151 C 
BRANCH  60  61
ATOM     61  C   UNK d   0      13.814  -1.463 -17.411  0.00  0.00     0.143 C 
ATOM     62  O   UNK d   0      13.164  -0.762 -18.187  0.00  0.00    -0.650 OA
BRANCH  61  63
ATOM     63  O   UNK d   0      13.151  -1.970 -16.267  0.00  0.00    -0.776 OA
ATOM     64  H   UNK d   0      12.916  -2.944 -16.194  0.00  0.00     0.167 HD
ENDBRANCH  61  63
ENDBRANCH  60  61
ENDBRANCH  18  60
BRANCH  14  65
ATOM     65  C   UNK d   0      16.231  -1.143 -14.757  0.00  0.00     0.052 C 
BRANCH  65  66
ATOM     66  C   UNK d   0      15.239  -0.600 -13.789  0.00  0.00     0.115 C 
BRANCH  66  67
ATOM     67  C   UNK d   0      14.865  -1.378 -12.642  0.00  0.00     0.139 C 
ATOM     68  O   UNK d   0      15.581  -1.287 -11.578  0.00  0.00    -0.650 OA
BRANCH  67  69
ATOM     69  O   UNK d   0      13.786  -2.253 -12.520  0.00  0.00    -0.776 OA
ATOM     70  H   UNK d   0      13.592  -2.842 -13.343  0.00  0.00     0.167 HD
ENDBRANCH  67  69
ENDBRANCH  66  67
ENDBRANCH  65  66
ENDBRANCH  14  65
ENDBRANCH   6   7
ENDBRANCH   5   6
ENDBRANCH   2   5
TORSDOF 28
ENDMDL
MODEL 7
REMARK VINA RESULT:      -6.2      4.684     10.498
REMARK  28 active torsions:
REMARK  status: ('A' for Active; 'I' for Inactive)
REMARK    1  A    between atoms: C_2  and  O_3 
REMARK    2  A    between atoms: C_2  and  C_4 
REMARK    3  A    between atoms: C_4  and  C_5 
REMARK    4  A    between atoms: C_5  and  C_6 
REMARK    5  A    between atoms: C_7  and  C_8 
REMARK    6  A    between atoms: C_8  and  C_9 
REMARK    7  A    between atoms: C_9  and  O_11 
REMARK    8  A    between atoms: C_28  and  C_29 
REMARK    9  A    between atoms: C_29  and  C_30 
REMARK   10  A    between atoms: C_30  and  O_32 
REMARK   11  A    between atoms: C_33  and  C_34 
REMARK   12  A    between atoms: C_34  and  C_35 
REMARK   13  A    between atoms: C_35  and  C_36 
REMARK   14  A    between atoms: C_36  and  O_38 
REMARK   15  A    between atoms: C_39  and  C_40 
REMARK   16  A    between atoms: C_40  and  C_41 
REMARK   17  A    between atoms: C_41  and  C_42 
REMARK   18  A    between atoms: C_42  and  O_44 
REMARK   19  A    between atoms: C_45  and  C_46 
REMARK   20  A    between atoms: C_46  and  C_47 
REMARK   21  A    between atoms: C_47  and  O_49 
REMARK   22  A    between atoms: C_50  and  C_51 
REMARK   23  A    between atoms: C_51  and  C_52 
REMARK   24  A    between atoms: C_52  and  O_54 
REMARK   25  A    between atoms: C_55  and  C_56 
REMARK   26  A    between atoms: C_56  and  C_57 
REMARK   27  A    between atoms: C_57  and  C_58 
REMARK   28  A    between atoms: C_58  and  O_60 
ROOT
ATOM      1  O   UNK d   0      13.564 -14.408  10.238  0.00  0.00    -0.650 OA
ATOM      2  C   UNK d   0      13.948 -13.263  10.564  0.00  0.00     0.139 C 
ENDROOT
BRANCH   2   3
ATOM      3  O   UNK d   0      14.860 -13.122  11.581  0.00  0.00    -0.776 OA
ATOM      4  H   UNK d   0      15.538 -13.859  11.787  0.00  0.00     0.167 HD
ENDBRANCH   2   3
BRANCH   2   5
ATOM      5  C   UNK d   0      13.415 -12.065   9.853  0.00  0.00     0.115 C 
BRANCH   5   6
ATOM      6  C   UNK d   0      14.538 -11.319   9.184  0.00  0.00     0.052 C 
BRANCH   6   7
ATOM      7  C   UNK d   0      14.268 -11.053   7.722  0.00  0.00    -0.020 A 
ATOM      8  C   UNK d   0      14.213  -9.893   7.119  0.00  0.00    -0.011 A 
ATOM      9  C   UNK d   0      13.919 -10.135   5.716  0.00  0.00     0.067 A 
ATOM     10  C   UNK d   0      13.754  -9.348   4.566  0.00  0.00     0.062 C 
ATOM     11  N   UNK d   0      13.806 -11.470   5.555  0.00  0.00    -0.248 NA
ATOM     12  C   UNK d   0      13.749  -9.782   3.236  0.00  0.00     0.041 A 
ATOM     13  N   UNK d   0      13.172 -10.851   2.655  0.00  0.00    -0.355 N 
ATOM     14  C   UNK d   0      14.495  -9.065   2.283  0.00  0.00    -0.022 A 
ATOM     15  C   UNK d   0      13.539 -10.834   1.359  0.00  0.00     0.042 A 
ATOM     16  H   UNK d   0      12.502 -11.591   3.145  0.00  0.00     0.166 HD
ATOM     17  C   UNK d   0      13.219 -11.716   0.308  0.00  0.00     0.062 C 
ATOM     18  C   UNK d   0      14.370  -9.729   1.089  0.00  0.00    -0.013 A 
ATOM     19  C   UNK d   0      13.206 -13.087   0.306  0.00  0.00     0.067 A 
ATOM     20  N   UNK d   0      13.316 -13.695   1.490  0.00  0.00    -0.248 NA
ATOM     21  C   UNK d   0      13.113 -14.130  -0.703  0.00  0.00    -0.011 A 
ATOM     22  C   UNK d   0      13.304 -15.059   1.329  0.00  0.00     0.066 A 
ATOM     23  C   UNK d   0      13.373 -15.817   2.488  0.00  0.00     0.062 C 
ATOM     24  C   UNK d   0      13.175 -15.281  -0.098  0.00  0.00    -0.020 A 
ATOM     25  C   UNK d   0      13.365 -15.362   3.816  0.00  0.00     0.041 A 
ATOM     26  N   UNK d   0      13.950 -14.308   4.397  0.00  0.00    -0.355 N 
ATOM     27  C   UNK d   0      12.612 -16.080   4.770  0.00  0.00    -0.022 A 
ATOM     28  C   UNK d   0      13.592 -14.327   5.691  0.00  0.00     0.042 A 
ATOM     29  H   UNK d   0      14.632 -13.571   3.905  0.00  0.00     0.166 HD
ATOM     30  C   UNK d   0      13.911 -13.462   6.749  0.00  0.00     0.062 C 
ATOM     31  C   UNK d   0      12.750 -15.431   5.959  0.00  0.00    -0.013 A 
ATOM     32  C   UNK d   0      14.006 -12.080   6.725  0.00  0.00     0.066 A 
BRANCH   8  33
ATOM     33  C   UNK d   0      14.404  -8.566   7.733  0.00  0.00     0.151 C 
BRANCH  33  34
ATOM     34  C   UNK d   0      15.463  -7.780   7.074  0.00  0.00     0.143 C 
ATOM     35  O   UNK d   0      15.231  -6.647   6.630  0.00  0.00    -0.650 OA
BRANCH  34  36
ATOM     36  O   UNK d   0      16.724  -8.316   6.950  0.00  0.00    -0.776 OA
ATOM     37  H   UNK d   0      16.899  -9.138   6.356  0.00  0.00     0.167 HD
ENDBRANCH  34  36
ENDBRANCH  33  34
ENDBRANCH   8  33
BRANCH  31  38
ATOM     38  C   UNK d   0      12.110 -15.827   7.270  0.00  0.00     0.151 C 
BRANCH  38  39
ATOM     39  C   UNK d   0      11.077 -14.905   7.691  0.00  0.00     0.143 C 
ATOM     40  O   UNK d   0      10.340 -14.316   6.881  0.00  0.00    -0.650 OA
BRANCH  39  41
ATOM     41  O   UNK d   0      10.890 -14.659   9.051  0.00  0.00    -0.776 OA
ATOM     42  H   UNK d   0      10.728 -13.686   9.327  0.00  0.00     0.167 HD
ENDBRANCH  39  41
ENDBRANCH  38  39
ENDBRANCH  31  38
BRANCH  27  43
ATOM     43  C   UNK d   0      11.787 -17.331   4.597  0.00  0.00     0.052 C 
BRANCH  43  44
ATOM     44  C   UNK d   0      10.550 -17.116   3.787  0.00  0.00     0.115 C 
BRANCH  44  45
ATOM     45  C   UNK d   0       9.415 -17.085   4.746  0.00  0.00     0.139 C 
ATOM     46  O   UNK d   0       8.950 -18.181   5.147  0.00  0.00    -0.650 OA
BRANCH  45  47
ATOM     47  O   UNK d   0       8.862 -15.912   5.212  0.00  0.00    -0.776 OA
ATOM     48  H   UNK d   0       8.209 -15.340   4.653  0.00  0.00     0.167 HD
ENDBRANCH  45  47
ENDBRANCH  44  45
ENDBRANCH  43  44
ENDBRANCH  27  43
BRANCH  24  49
ATOM     49  C   UNK d   0      13.080 -16.604  -0.738  0.00  0.00     0.052 C 
BRANCH  49  50
ATOM     50  C   UNK d   0      14.281 -17.444  -0.387  0.00  0.00     0.115 C 
BRANCH  50  51
ATOM     51  C   UNK d   0      15.490 -17.236  -1.172  0.00  0.00     0.139 C 
ATOM     52  O   UNK d   0      16.101 -16.141  -1.197  0.00  0.00    -0.650 OA
BRANCH  51  53
ATOM     53  O   UNK d   0      16.002 -18.276  -1.932  0.00  0.00    -0.776 OA
ATOM     54  H   UNK d   0      15.885 -19.215  -1.593  0.00  0.00     0.167 HD
ENDBRANCH  51  53
ENDBRANCH  50  51
ENDBRANCH  49  50
ENDBRANCH  24  49
BRANCH  21  55
ATOM     55  C   UNK d   0      12.968 -13.867  -2.165  0.00  0.00     0.151 C 
BRANCH  55  56
ATOM     56  C   UNK d   0      14.227 -13.406  -2.770  0.00  0.00     0.143 C 
ATOM     57  O   UNK d   0      14.518 -12.199  -2.887  0.00  0.00    -0.650 OA
BRANCH  56  58
ATOM     58  O   UNK d   0      15.120 -14.374  -3.226  0.00  0.00    -0.776 OA
ATOM     59  H   UNK d   0      14.980 -15.319  -2.827  0.00  0.00     0.167 HD
ENDBRANCH  56  58
ENDBRANCH  55  56
ENDBRANCH  21  55
BRANCH  18  60
ATOM     60  C   UNK d   0      15.018  -9.309  -0.207  0.00  0.00     0.151 C 
BRANCH  60  61
ATOM     61  C   UNK d   0      13.954  -8.685  -1.007  0.00  0.00     0.143 C 
ATOM     62  O   UNK d   0      13.308  -7.676  -0.724  0.00  0.00    -0.650 OA
BRANCH  61  63
ATOM     63  O   UNK d   0      13.661  -9.334  -2.231  0.00  0.00    -0.776 OA
ATOM     64  H   UNK d   0      12.743  -9.284  -2.637  0.00  0.00     0.167 HD
ENDBRANCH  61  63
ENDBRANCH  60  61
ENDBRANCH  18  60
BRANCH  14  65
ATOM     65  C   UNK d   0      15.229  -7.759   2.394  0.00  0.00     0.052 C 
BRANCH  65  66
ATOM     66  C   UNK d   0      16.696  -7.929   2.574  0.00  0.00     0.115 C 
BRANCH  66  67
ATOM     67  C   UNK d   0      17.315  -7.513   3.801  0.00  0.00     0.139 C 
ATOM     68  O   UNK d   0      18.139  -8.316   4.376  0.00  0.00    -0.650 OA
BRANCH  67  69
ATOM     69  O   UNK d   0      17.137  -6.309   4.481  0.00  0.00    -0.776 OA
ATOM     70  H   UNK d   0      16.993  -5.477   3.890  0.00  0.00     0.167 HD
ENDBRANCH  67  69
ENDBRANCH  66  67
ENDBRANCH  65  66
ENDBRANCH  14  65
ENDBRANCH   6   7
ENDBRANCH   5   6
ENDBRANCH   2   5
TORSDOF 28
ENDMDL
MODEL 8
REMARK VINA RESULT:      -6.2      5.835     10.634
REMARK  28 active torsions:
REMARK  status: ('A' for Active; 'I' for Inactive)
REMARK    1  A    between atoms: C_2  and  O_3 
REMARK    2  A    between atoms: C_2  and  C_4 
REMARK    3  A    between atoms: C_4  and  C_5 
REMARK    4  A    between atoms: C_5  and  C_6 
REMARK    5  A    between atoms: C_7  and  C_8 
REMARK    6  A    between atoms: C_8  and  C_9 
REMARK    7  A    between atoms: C_9  and  O_11 
REMARK    8  A    between atoms: C_28  and  C_29 
REMARK    9  A    between atoms: C_29  and  C_30 
REMARK   10  A    between atoms: C_30  and  O_32 
REMARK   11  A    between atoms: C_33  and  C_34 
REMARK   12  A    between atoms: C_34  and  C_35 
REMARK   13  A    between atoms: C_35  and  C_36 
REMARK   14  A    between atoms: C_36  and  O_38 
REMARK   15  A    between atoms: C_39  and  C_40 
REMARK   16  A    between atoms: C_40  and  C_41 
REMARK   17  A    between atoms: C_41  and  C_42 
REMARK   18  A    between atoms: C_42  and  O_44 
REMARK   19  A    between atoms: C_45  and  C_46 
REMARK   20  A    between atoms: C_46  and  C_47 
REMARK   21  A    between atoms: C_47  and  O_49 
REMARK   22  A    between atoms: C_50  and  C_51 
REMARK   23  A    between atoms: C_51  and  C_52 
REMARK   24  A    between atoms: C_52  and  O_54 
REMARK   25  A    between atoms: C_55  and  C_56 
REMARK   26  A    between atoms: C_56  and  C_57 
REMARK   27  A    between atoms: C_57  and  C_58 
REMARK   28  A    between atoms: C_58  and  O_60 
ROOT
ATOM      1  O   UNK d   0      12.072 -17.238   5.322  0.00  0.00    -0.650 OA
ATOM      2  C   UNK d   0      12.912 -16.945   6.202  0.00  0.00     0.139 C 
ENDROOT
BRANCH   2   3
ATOM      3  O   UNK d   0      14.120 -17.599   6.225  0.00  0.00    -0.776 OA
ATOM      4  H   UNK d   0      14.362 -18.286   5.508  0.00  0.00     0.167 HD
ENDBRANCH   2   3
BRANCH   2   5
ATOM      5  C   UNK d   0      12.600 -15.895   7.213  0.00  0.00     0.115 C 
BRANCH   5   6
ATOM      6  C   UNK d   0      13.749 -14.931   7.330  0.00  0.00     0.052 C 
BRANCH   6   7
ATOM      7  C   UNK d   0      13.465 -13.606   6.665  0.00  0.00    -0.020 A 
ATOM      8  C   UNK d   0      13.068 -12.496   7.234  0.00  0.00    -0.011 A 
ATOM      9  C   UNK d   0      12.920 -11.492   6.194  0.00  0.00     0.067 A 
ATOM     10  C   UNK d   0      12.558 -10.136   6.139  0.00  0.00     0.062 C 
ATOM     11  N   UNK d   0      13.242 -12.078   5.022  0.00  0.00    -0.248 NA
ATOM     12  C   UNK d   0      12.742  -9.253   5.070  0.00  0.00     0.041 A 
ATOM     13  N   UNK d   0      12.555  -9.413   3.746  0.00  0.00    -0.355 N 
ATOM     14  C   UNK d   0      13.258  -7.970   5.328  0.00  0.00    -0.022 A 
ATOM     15  C   UNK d   0      12.948  -8.268   3.157  0.00  0.00     0.042 A 
ATOM     16  H   UNK d   0      12.136 -10.310   3.240  0.00  0.00     0.166 HD
ATOM     17  C   UNK d   0      12.963  -7.899   1.797  0.00  0.00     0.062 C 
ATOM     18  C   UNK d   0      13.396  -7.340   4.116  0.00  0.00    -0.013 A 
ATOM     19  C   UNK d   0      13.385  -8.624   0.711  0.00  0.00     0.067 A 
ATOM     20  N   UNK d   0      13.637  -9.920   0.910  0.00  0.00    -0.248 NA
ATOM     21  C   UNK d   0      13.665  -8.343  -0.687  0.00  0.00    -0.011 A 
ATOM     22  C   UNK d   0      14.062 -10.508  -0.256  0.00  0.00     0.066 A 
ATOM     23  C   UNK d   0      14.324 -11.869  -0.200  0.00  0.00     0.062 C 
ATOM     24  C   UNK d   0      14.065  -9.449  -1.246  0.00  0.00    -0.020 A 
ATOM     25  C   UNK d   0      14.121 -12.741   0.880  0.00  0.00     0.041 A 
ATOM     26  N   UNK d   0      14.321 -12.587   2.195  0.00  0.00    -0.355 N 
ATOM     27  C   UNK d   0      13.598 -14.026   0.621  0.00  0.00    -0.022 A 
ATOM     28  C   UNK d   0      13.938 -13.731   2.784  0.00  0.00     0.042 A 
ATOM     29  H   UNK d   0      14.752 -11.688   2.701  0.00  0.00     0.166 HD
ATOM     30  C   UNK d   0      13.926 -14.114   4.134  0.00  0.00     0.062 C 
ATOM     31  C   UNK d   0      13.479 -14.659   1.820  0.00  0.00    -0.013 A 
ATOM     32  C   UNK d   0      13.579 -13.350   5.237  0.00  0.00     0.066 A 
BRANCH   8  33
ATOM     33  C   UNK d   0      12.807 -12.282   8.669  0.00  0.00     0.151 C 
BRANCH  33  34
ATOM     34  C   UNK d   0      14.042 -12.121   9.457  0.00  0.00     0.143 C 
ATOM     35  O   UNK d   0      14.890 -11.273   9.144  0.00  0.00    -0.650 OA
BRANCH  34  36
ATOM     36  O   UNK d   0      14.254 -12.926  10.552  0.00  0.00    -0.776 OA
ATOM     37  H   UNK d   0      13.651 -12.867  11.383  0.00  0.00     0.167 HD
ENDBRANCH  34  36
ENDBRANCH  33  34
ENDBRANCH   8  33
BRANCH  31  38
ATOM     38  C   UNK d   0      12.948 -16.056   2.041  0.00  0.00     0.151 C 
BRANCH  38  39
ATOM     39  C   UNK d   0      13.998 -17.049   2.128  0.00  0.00     0.143 C 
ATOM     40  O   UNK d   0      14.949 -17.083   1.327  0.00  0.00    -0.650 OA
BRANCH  39  41
ATOM     41  O   UNK d   0      13.954 -18.007   3.140  0.00  0.00    -0.776 OA
ATOM     42  H   UNK d   0      13.089 -18.549   3.226  0.00  0.00     0.167 HD
ENDBRANCH  39  41
ENDBRANCH  38  39
ENDBRANCH  31  38
BRANCH  27  43
ATOM     43  C   UNK d   0      13.220 -14.659  -0.695  0.00  0.00     0.052 C 
BRANCH  43  44
ATOM     44  C   UNK d   0      11.758 -14.571  -0.994  0.00  0.00     0.115 C 
BRANCH  44  45
ATOM     45  C   UNK d   0      11.571 -13.361  -1.838  0.00  0.00     0.139 C 
ATOM     46  O   UNK d   0      11.918 -13.421  -3.043  0.00  0.00    -0.650 OA
BRANCH  45  47
ATOM     47  O   UNK d   0      11.031 -12.190  -1.354  0.00  0.00    -0.776 OA
ATOM     48  H   UNK d   0      11.601 -11.354  -1.144  0.00  0.00     0.167 HD
ENDBRANCH  45  47
ENDBRANCH  44  45
ENDBRANCH  43  44
ENDBRANCH  27  43
BRANCH  24  49
ATOM     49  C   UNK d   0      14.418  -9.626  -2.665  0.00  0.00     0.052 C 
BRANCH  49  50
ATOM     50  C   UNK d   0      15.789  -9.061  -2.939  0.00  0.00     0.115 C 
BRANCH  50  51
ATOM     51  C   UNK d   0      16.885  -9.547  -2.113  0.00  0.00     0.139 C 
ATOM     52  O   UNK d   0      17.568  -8.791  -1.383  0.00  0.00    -0.650 OA
BRANCH  51  53
ATOM     53  O   UNK d   0      17.205 -10.896  -2.122  0.00  0.00    -0.776 OA
ATOM     54  H   UNK d   0      16.622 -11.520  -2.651  0.00  0.00     0.167 HD
ENDBRANCH  51  53
ENDBRANCH  50  51
ENDBRANCH  49  50
ENDBRANCH  24  49
BRANCH  21  55
ATOM     55  C   UNK d   0      13.500  -7.001  -1.319  0.00  0.00     0.151 C 
BRANCH  55  56
ATOM     56  C   UNK d   0      14.619  -6.101  -1.002  0.00  0.00     0.143 C 
ATOM     57  O   UNK d   0      14.611  -4.887  -1.288  0.00  0.00    -0.650 OA
BRANCH  56  58
ATOM     58  O   UNK d   0      15.726  -6.645  -0.352  0.00  0.00    -0.776 OA
ATOM     59  H   UNK d   0      15.851  -7.665  -0.483  0.00  0.00     0.167 HD
ENDBRANCH  56  58
ENDBRANCH  55  56
ENDBRANCH  21  55
BRANCH  18  60
ATOM     60  C   UNK d   0      13.927  -5.941   3.925  0.00  0.00     0.151 C 
BRANCH  60  61
ATOM     61  C   UNK d   0      15.232  -6.091   3.264  0.00  0.00     0.143 C 
ATOM     62  O   UNK d   0      16.094  -6.935   3.507  0.00  0.00    -0.650 OA
BRANCH  61  63
ATOM     63  O   UNK d   0      15.500  -5.151   2.239  0.00  0.00    -0.776 OA
ATOM     64  H   UNK d   0      14.768  -4.578   1.857  0.00  0.00     0.167 HD
ENDBRANCH  61  63
ENDBRANCH  60  61
ENDBRANCH  18  60
BRANCH  14  65
ATOM     65  C   UNK d   0      13.537  -7.268   6.626  0.00  0.00     0.052 C 
BRANCH  65  66
ATOM     66  C   UNK d   0      14.987  -7.031   6.860  0.00  0.00     0.115 C 
BRANCH  66  67
ATOM     67  C   UNK d   0      15.899  -8.140   6.855  0.00  0.00     0.139 C 
ATOM     68  O   UNK d   0      17.108  -7.938   6.467  0.00  0.00    -0.650 OA
BRANCH  67  69
ATOM     69  O   UNK d   0      15.641  -9.459   7.227  0.00  0.00    -0.776 OA
ATOM     70  H   UNK d   0      16.357  -9.906   7.818  0.00  0.00     0.167 HD
ENDBRANCH  67  69
ENDBRANCH  66  67
ENDBRANCH  65  66
ENDBRANCH  14  65
ENDBRANCH   6   7
ENDBRANCH   5   6
ENDBRANCH   2   5
TORSDOF 28
ENDMDL
MODEL 9
REMARK VINA RESULT:      -6.1      4.439     10.097
REMARK  28 active torsions:
REMARK  status: ('A' for Active; 'I' for Inactive)
REMARK    1  A    between atoms: C_2  and  O_3 
REMARK    2  A    between atoms: C_2  and  C_4 
REMARK    3  A    between atoms: C_4  and  C_5 
REMARK    4  A    between atoms: C_5  and  C_6 
REMARK    5  A    between atoms: C_7  and  C_8 
REMARK    6  A    between atoms: C_8  and  C_9 
REMARK    7  A    between atoms: C_9  and  O_11 
REMARK    8  A    between atoms: C_28  and  C_29 
REMARK    9  A    between atoms: C_29  and  C_30 
REMARK   10  A    between atoms: C_30  and  O_32 
REMARK   11  A    between atoms: C_33  and  C_34 
REMARK   12  A    between atoms: C_34  and  C_35 
REMARK   13  A    between atoms: C_35  and  C_36 
REMARK   14  A    between atoms: C_36  and  O_38 
REMARK   15  A    between atoms: C_39  and  C_40 
REMARK   16  A    between atoms: C_40  and  C_41 
REMARK   17  A    between atoms: C_41  and  C_42 
REMARK   18  A    between atoms: C_42  and  O_44 
REMARK   19  A    between atoms: C_45  and  C_46 
REMARK   20  A    between atoms: C_46  and  C_47 
REMARK   21  A    between atoms: C_47  and  O_49 
REMARK   22  A    between atoms: C_50  and  C_51 
REMARK   23  A    between atoms: C_51  and  C_52 
REMARK   24  A    between atoms: C_52  and  O_54 
REMARK   25  A    between atoms: C_55  and  C_56 
REMARK   26  A    between atoms: C_56  and  C_57 
REMARK   27  A    between atoms: C_57  and  C_58 
REMARK   28  A    between atoms: C_58  and  O_60 
ROOT
ATOM      1  O   UNK d   0      14.676 -12.908  11.491  0.00  0.00    -0.650 OA
ATOM      2  C   UNK d   0      13.888 -13.131  10.546  0.00  0.00     0.139 C 
ENDROOT
BRANCH   2   3
ATOM      3  O   UNK d   0      13.516 -14.425  10.270  0.00  0.00    -0.776 OA
ATOM      4  H   UNK d   0      12.995 -14.981  10.952  0.00  0.00     0.167 HD
ENDBRANCH   2   3
BRANCH   2   5
ATOM      5  C   UNK d   0      13.362 -12.002   9.728  0.00  0.00     0.115 C 
BRANCH   5   6
ATOM      6  C   UNK d   0      14.495 -11.286   9.044  0.00  0.00     0.052 C 
BRANCH   6   7
ATOM      7  C   UNK d   0      14.235 -11.058   7.574  0.00  0.00    -0.020 A 
ATOM      8  C   UNK d   0      14.209  -9.916   6.936  0.00  0.00    -0.011 A 
ATOM      9  C   UNK d   0      13.912 -10.193   5.540  0.00  0.00     0.067 A 
ATOM     10  C   UNK d   0      13.769  -9.437   4.366  0.00  0.00     0.062 C 
ATOM     11  N   UNK d   0      13.767 -11.529   5.419  0.00  0.00    -0.248 NA
ATOM     12  C   UNK d   0      13.756  -9.911   3.050  0.00  0.00     0.041 A 
ATOM     13  N   UNK d   0      13.155 -10.983   2.499  0.00  0.00    -0.355 N 
ATOM     14  C   UNK d   0      14.522  -9.242   2.078  0.00  0.00    -0.022 A 
ATOM     15  C   UNK d   0      13.525 -11.015   1.205  0.00  0.00     0.042 A 
ATOM     16  H   UNK d   0      12.466 -11.691   3.010  0.00  0.00     0.166 HD
ATOM     17  C   UNK d   0      13.186 -11.920   0.180  0.00  0.00     0.062 C 
ATOM     18  C   UNK d   0      14.383  -9.939   0.904  0.00  0.00    -0.013 A 
ATOM     19  C   UNK d   0      13.140 -13.290   0.219  0.00  0.00     0.067 A 
ATOM     20  N   UNK d   0      13.233 -13.864   1.422  0.00  0.00    -0.248 NA
ATOM     21  C   UNK d   0      13.024 -14.360  -0.757  0.00  0.00    -0.011 A 
ATOM     22  C   UNK d   0      13.187 -15.231   1.302  0.00  0.00     0.066 A 
ATOM     23  C   UNK d   0      13.236 -15.956   2.484  0.00  0.00     0.062 C 
ATOM     24  C   UNK d   0      13.056 -15.494  -0.118  0.00  0.00    -0.020 A 
ATOM     25  C   UNK d   0      13.236 -15.460   3.797  0.00  0.00     0.041 A 
ATOM     26  N   UNK d   0      13.846 -14.404   4.348  0.00  0.00    -0.355 N 
ATOM     27  C   UNK d   0      12.463 -16.130   4.771  0.00  0.00    -0.022 A 
ATOM     28  C   UNK d   0      13.485 -14.375   5.640  0.00  0.00     0.042 A 
ATOM     29  H   UNK d   0      14.546 -13.699   3.835  0.00  0.00     0.166 HD
ATOM     30  C   UNK d   0      13.822 -13.486   6.673  0.00  0.00     0.062 C 
ATOM     31  C   UNK d   0      12.615 -15.450   5.940  0.00  0.00    -0.013 A 
ATOM     32  C   UNK d   0      13.950 -12.108   6.607  0.00  0.00     0.066 A 
BRANCH   8  33
ATOM     33  C   UNK d   0      14.431  -8.576   7.510  0.00  0.00     0.151 C 
BRANCH  33  34
ATOM     34  C   UNK d   0      13.267  -7.686   7.349  0.00  0.00     0.143 C 
ATOM     35  O   UNK d   0      13.417  -6.476   7.127  0.00  0.00    -0.650 OA
BRANCH  34  36
ATOM     36  O   UNK d   0      11.999  -8.209   7.449  0.00  0.00    -0.776 OA
ATOM     37  H   UNK d   0      11.178  -7.600   7.573  0.00  0.00     0.167 HD
ENDBRANCH  34  36
ENDBRANCH  33  34
ENDBRANCH   8  33
BRANCH  31  38
ATOM     38  C   UNK d   0      11.963 -15.790   7.260  0.00  0.00     0.151 C 
BRANCH  38  39
ATOM     39  C   UNK d   0      10.957 -14.827   7.654  0.00  0.00     0.143 C 
ATOM     40  O   UNK d   0      10.194 -14.287   6.833  0.00  0.00    -0.650 OA
BRANCH  39  41
ATOM     41  O   UNK d   0      10.826 -14.482   8.999  0.00  0.00    -0.776 OA
ATOM     42  H   UNK d   0      11.468 -13.768   9.357  0.00  0.00     0.167 HD
ENDBRANCH  39  41
ENDBRANCH  38  39
ENDBRANCH  31  38
BRANCH  27  43
ATOM     43  C   UNK d   0      11.610 -17.366   4.633  0.00  0.00     0.052 C 
BRANCH  43  44
ATOM     44  C   UNK d   0      10.251 -17.086   4.077  0.00  0.00     0.115 C 
BRANCH  44  45
ATOM     45  C   UNK d   0       9.304 -17.148   5.220  0.00  0.00     0.139 C 
ATOM     46  O   UNK d   0       9.381 -18.129   6.001  0.00  0.00    -0.650 OA
BRANCH  45  47
ATOM     47  O   UNK d   0       8.356 -16.176   5.458  0.00  0.00    -0.776 OA
ATOM     48  H   UNK d   0       7.497 -16.353   6.003  0.00  0.00     0.167 HD
ENDBRANCH  45  47
ENDBRANCH  44  45
ENDBRANCH  43  44
ENDBRANCH  27  43
BRANCH  24  49
ATOM     49  C   UNK d   0      12.931 -16.833  -0.717  0.00  0.00     0.052 C 
BRANCH  49  50
ATOM     50  C   UNK d   0      11.491 -17.279  -0.708  0.00  0.00     0.115 C 
BRANCH  50  51
ATOM     51  C   UNK d   0      11.207 -18.601  -0.167  0.00  0.00     0.139 C 
ATOM     52  O   UNK d   0      11.583 -19.657  -0.730  0.00  0.00    -0.650 OA
BRANCH  51  53
ATOM     53  O   UNK d   0      10.493 -18.720   1.015  0.00  0.00    -0.776 OA
ATOM     54  H   UNK d   0      10.434 -19.626   1.446  0.00  0.00     0.167 HD
ENDBRANCH  51  53
ENDBRANCH  50  51
ENDBRANCH  49  50
ENDBRANCH  24  49
BRANCH  21  55
ATOM     55  C   UNK d   0      12.888 -14.138  -2.227  0.00  0.00     0.151 C 
BRANCH  55  56
ATOM     56  C   UNK d   0      11.664 -13.393  -2.562  0.00  0.00     0.143 C 
ATOM     57  O   UNK d   0      10.522 -13.868  -2.409  0.00  0.00    -0.650 OA
BRANCH  56  58
ATOM     58  O   UNK d   0      11.808 -12.102  -3.068  0.00  0.00    -0.776 OA
ATOM     59  H   UNK d   0      11.011 -11.766  -3.639  0.00  0.00     0.167 HD
ENDBRANCH  56  58
ENDBRANCH  55  56
ENDBRANCH  21  55
BRANCH  18  60
ATOM     60  C   UNK d   0      15.044  -9.574  -0.402  0.00  0.00     0.151 C 
BRANCH  60  61
ATOM     61  C   UNK d   0      13.966  -9.097  -1.281  0.00  0.00     0.143 C 
ATOM     62  O   UNK d   0      13.186  -8.170  -1.063  0.00  0.00    -0.650 OA
BRANCH  61  63
ATOM     63  O   UNK d   0      13.832  -9.796  -2.505  0.00  0.00    -0.776 OA
ATOM     64  H   UNK d   0      14.333 -10.651  -2.670  0.00  0.00     0.167 HD
ENDBRANCH  61  63
ENDBRANCH  60  61
ENDBRANCH  18  60
BRANCH  14  65
ATOM     65  C   UNK d   0      15.287  -7.951   2.151  0.00  0.00     0.052 C 
BRANCH  65  66
ATOM     66  C   UNK d   0      14.494  -6.778   1.695  0.00  0.00     0.115 C 
BRANCH  66  67
ATOM     67  C   UNK d   0      13.139  -6.617   2.144  0.00  0.00     0.139 C 
ATOM     68  O   UNK d   0      12.935  -6.136   3.320  0.00  0.00    -0.650 OA
BRANCH  67  69
ATOM     69  O   UNK d   0      11.969  -6.924   1.452  0.00  0.00    -0.776 OA
ATOM     70  H   UNK d   0      11.294  -6.153   1.348  0.00  0.00     0.167 HD
ENDBRANCH  67  69
ENDBRANCH  66  67
ENDBRANCH  65  66
ENDBRANCH  14  65
ENDBRANCH   6   7
ENDBRANCH   5   6
ENDBRANCH   2   5
TORSDOF 28
ENDMDL
MODEL 10
REMARK VINA RESULT:      -6.1     24.470     28.748
REMARK  28 active torsions:
REMARK  status: ('A' for Active; 'I' for Inactive)
REMARK    1  A    between atoms: C_2  and  O_3 
REMARK    2  A    between atoms: C_2  and  C_4 
REMARK    3  A    between atoms: C_4  and  C_5 
REMARK    4  A    between atoms: C_5  and  C_6 
REMARK    5  A    between atoms: C_7  and  C_8 
REMARK    6  A    between atoms: C_8  and  C_9 
REMARK    7  A    between atoms: C_9  and  O_11 
REMARK    8  A    between atoms: C_28  and  C_29 
REMARK    9  A    between atoms: C_29  and  C_30 
REMARK   10  A    between atoms: C_30  and  O_32 
REMARK   11  A    between atoms: C_33  and  C_34 
REMARK   12  A    between atoms: C_34  and  C_35 
REMARK   13  A    between atoms: C_35  and  C_36 
REMARK   14  A    between atoms: C_36  and  O_38 
REMARK   15  A    between atoms: C_39  and  C_40 
REMARK   16  A    between atoms: C_40  and  C_41 
REMARK   17  A    between atoms: C_41  and  C_42 
REMARK   18  A    between atoms: C_42  and  O_44 
REMARK   19  A    between atoms: C_45  and  C_46 
REMARK   20  A    between atoms: C_46  and  C_47 
REMARK   21  A    between atoms: C_47  and  O_49 
REMARK   22  A    between atoms: C_50  and  C_51 
REMARK   23  A    between atoms: C_51  and  C_52 
REMARK   24  A    between atoms: C_52  and  O_54 
REMARK   25  A    between atoms: C_55  and  C_56 
REMARK   26  A    between atoms: C_56  and  C_57 
REMARK   27  A    between atoms: C_57  and  C_58 
REMARK   28  A    between atoms: C_58  and  O_60 
ROOT
ATOM      1  O   UNK d   0     -20.442  -0.034   0.725  0.00  0.00    -0.650 OA
ATOM      2  C   UNK d   0     -19.575   0.126  -0.163  0.00  0.00     0.139 C 
ENDROOT
BRANCH   2   3
ATOM      3  O   UNK d   0     -18.580   1.053   0.027  0.00  0.00    -0.776 OA
ATOM      4  H   UNK d   0     -17.639   0.768   0.309  0.00  0.00     0.167 HD
ENDBRANCH   2   3
BRANCH   2   5
ATOM      5  C   UNK d   0     -19.626  -0.685  -1.413  0.00  0.00     0.115 C 
BRANCH   5   6
ATOM      6  C   UNK d   0     -18.239  -1.106  -1.813  0.00  0.00     0.052 C 
BRANCH   6   7
ATOM      7  C   UNK d   0     -17.885  -2.487  -1.315  0.00  0.00    -0.020 A 
ATOM      8  C   UNK d   0     -17.967  -3.617  -1.970  0.00  0.00    -0.011 A 
ATOM      9  C   UNK d   0     -17.527  -4.679  -1.080  0.00  0.00     0.067 A 
ATOM     10  C   UNK d   0     -17.360  -6.070  -1.170  0.00  0.00     0.062 C 
ATOM     11  N   UNK d   0     -17.201  -4.107   0.097  0.00  0.00    -0.248 NA
ATOM     12  C   UNK d   0     -16.655  -6.897  -0.288  0.00  0.00     0.041 A 
ATOM     13  N   UNK d   0     -16.607  -6.922   1.058  0.00  0.00    -0.355 N 
ATOM     14  C   UNK d   0     -15.779  -7.863  -0.815  0.00  0.00    -0.022 A 
ATOM     15  C   UNK d   0     -15.718  -7.873   1.398  0.00  0.00     0.042 A 
ATOM     16  H   UNK d   0     -17.205  -6.293   1.753  0.00  0.00     0.166 HD
ATOM     17  C   UNK d   0     -15.289  -8.312   2.667  0.00  0.00     0.062 C 
ATOM     18  C   UNK d   0     -15.177  -8.486   0.250  0.00  0.00    -0.013 A 
ATOM     19  C   UNK d   0     -14.939  -7.567   3.764  0.00  0.00     0.067 A 
ATOM     20  N   UNK d   0     -15.216  -6.261   3.721  0.00  0.00    -0.248 NA
ATOM     21  C   UNK d   0     -14.294  -7.826   5.040  0.00  0.00    -0.011 A 
ATOM     22  C   UNK d   0     -14.796  -5.647   4.876  0.00  0.00     0.066 A 
ATOM     23  C   UNK d   0     -15.056  -4.289   4.981  0.00  0.00     0.062 C 
ATOM     24  C   UNK d   0     -14.209  -6.698   5.684  0.00  0.00    -0.020 A 
ATOM     25  C   UNK d   0     -15.777  -3.479   4.090  0.00  0.00     0.041 A 
ATOM     26  N   UNK d   0     -15.813  -3.444   2.753  0.00  0.00    -0.355 N 
ATOM     27  C   UNK d   0     -16.660  -2.512   4.620  0.00  0.00    -0.022 A 
ATOM     28  C   UNK d   0     -16.694  -2.490   2.411  0.00  0.00     0.042 A 
ATOM     29  H   UNK d   0     -15.204  -4.070   2.055  0.00  0.00     0.166 HD
ATOM     30  C   UNK d   0     -17.122  -2.037   1.153  0.00  0.00     0.062 C 
ATOM     31  C   UNK d   0     -17.244  -1.882   3.564  0.00  0.00    -0.013 A 
ATOM     32  C   UNK d   0     -17.393  -2.789   0.021  0.00  0.00     0.066 A 
BRANCH   8  33
ATOM     33  C   UNK d   0     -18.427  -3.804  -3.358  0.00  0.00     0.151 C 
BRANCH  33  34
ATOM     34  C   UNK d   0     -17.351  -3.604  -4.347  0.00  0.00     0.143 C 
ATOM     35  O   UNK d   0     -17.364  -2.630  -5.112  0.00  0.00    -0.650 OA
BRANCH  34  36
ATOM     36  O   UNK d   0     -16.322  -4.515  -4.419  0.00  0.00    -0.776 OA
ATOM     37  H   UNK d   0     -15.341  -4.209  -4.466  0.00  0.00     0.167 HD
ENDBRANCH  34  36
ENDBRANCH  33  34
ENDBRANCH   8  33
BRANCH  31  38
ATOM     38  C   UNK d   0     -18.273  -0.779   3.643  0.00  0.00     0.151 C 
BRANCH  38  39
ATOM     39  C   UNK d   0     -17.697   0.504   3.984  0.00  0.00     0.143 C 
ATOM     40  O   UNK d   0     -18.112   1.188   4.935  0.00  0.00    -0.650 OA
BRANCH  39  41
ATOM     41  O   UNK d   0     -16.636   1.002   3.228  0.00  0.00    -0.776 OA
ATOM     42  H   UNK d   0     -15.965   0.317   2.867  0.00  0.00     0.167 HD
ENDBRANCH  39  41
ENDBRANCH  38  39
ENDBRANCH  31  38
BRANCH  27  43
ATOM     43  C   UNK d   0     -16.958  -2.173   6.059  0.00  0.00     0.052 C 
BRANCH  43  44
ATOM     44  C   UNK d   0     -18.168  -2.870   6.592  0.00  0.00     0.115 C 
BRANCH  44  45
ATOM     45  C   UNK d   0     -17.698  -3.755   7.690  0.00  0.00     0.139 C 
ATOM     46  O   UNK d   0     -18.312  -4.833   7.884  0.00  0.00    -0.650 OA
BRANCH  45  47
ATOM     47  O   UNK d   0     -16.623  -3.443   8.493  0.00  0.00    -0.776 OA
ATOM     48  H   UNK d   0     -15.805  -2.911   8.152  0.00  0.00     0.167 HD
ENDBRANCH  45  47
ENDBRANCH  44  45
ENDBRANCH  43  44
ENDBRANCH  27  43
BRANCH  24  49
ATOM     49  C   UNK d   0     -13.657  -6.509   7.036  0.00  0.00     0.052 C 
BRANCH  49  50
ATOM     50  C   UNK d   0     -14.726  -6.015   7.976  0.00  0.00     0.115 C 
BRANCH  50  51
ATOM     51  C   UNK d   0     -15.259  -6.970   8.938  0.00  0.00     0.139 C 
ATOM     52  O   UNK d   0     -16.165  -7.787   8.650  0.00  0.00    -0.650 OA
BRANCH  51  53
ATOM     53  O   UNK d   0     -14.761  -6.991  10.232  0.00  0.00    -0.776 OA
ATOM     54  H   UNK d   0     -14.549  -6.114  10.674  0.00  0.00     0.167 HD
ENDBRANCH  51  53
ENDBRANCH  50  51
ENDBRANCH  49  50
ENDBRANCH  24  49
BRANCH  21  55
ATOM     55  C   UNK d   0     -13.833  -9.174   5.484  0.00  0.00     0.151 C 
BRANCH  55  56
ATOM     56  C   UNK d   0     -14.957 -10.045   5.861  0.00  0.00     0.143 C 
ATOM     57  O   UNK d   0     -14.896 -11.289   5.802  0.00  0.00    -0.650 OA
BRANCH  56  58
ATOM     58  O   UNK d   0     -16.131  -9.436   6.300  0.00  0.00    -0.776 OA
ATOM     59  H   UNK d   0     -17.001  -9.817   5.888  0.00  0.00     0.167 HD
ENDBRANCH  56  58
ENDBRANCH  55  56
ENDBRANCH  21  55
BRANCH  18  60
ATOM     60  C   UNK d   0     -14.153  -9.588   0.142  0.00  0.00     0.151 C 
BRANCH  60  61
ATOM     61  C   UNK d   0     -14.892 -10.845   0.334  0.00  0.00     0.143 C 
ATOM     62  O   UNK d   0     -15.736 -11.333  -0.418  0.00  0.00    -0.650 OA
BRANCH  61  63
ATOM     63  O   UNK d   0     -14.579 -11.553   1.520  0.00  0.00    -0.776 OA
ATOM     64  H   UNK d   0     -14.589 -12.557   1.542  0.00  0.00     0.167 HD
ENDBRANCH  61  63
ENDBRANCH  60  61
ENDBRANCH  18  60
BRANCH  14  65
ATOM     65  C   UNK d   0     -15.543  -8.306  -2.231  0.00  0.00     0.052 C 
BRANCH  65  66
ATOM     66  C   UNK d   0     -14.586  -7.432  -2.962  0.00  0.00     0.115 C 
BRANCH  66  67
ATOM     67  C   UNK d   0     -13.712  -6.563  -2.226  0.00  0.00     0.139 C 
ATOM     68  O   UNK d   0     -12.500  -6.942  -2.019  0.00  0.00    -0.650 OA
BRANCH  67  69
ATOM     69  O   UNK d   0     -14.010  -5.314  -1.682  0.00  0.00    -0.776 OA
ATOM     70  H   UNK d   0     -13.381  -4.545  -1.954  0.00  0.00     0.167 HD
ENDBRANCH  67  69
ENDBRANCH  66  67
ENDBRANCH  65  66
ENDBRANCH  14  65
ENDBRANCH   6   7
ENDBRANCH   5   6
ENDBRANCH   2   5
TORSDOF 28
ENDMDL
MODEL 11
REMARK VINA RESULT:      -6.1     26.334     30.778
REMARK  28 active torsions:
REMARK  status: ('A' for Active; 'I' for Inactive)
REMARK    1  A    between atoms: C_2  and  O_3 
REMARK    2  A    between atoms: C_2  and  C_4 
REMARK    3  A    between atoms: C_4  and  C_5 
REMARK    4  A    between atoms: C_5  and  C_6 
REMARK    5  A    between atoms: C_7  and  C_8 
REMARK    6  A    between atoms: C_8  and  C_9 
REMARK    7  A    between atoms: C_9  and  O_11 
REMARK    8  A    between atoms: C_28  and  C_29 
REMARK    9  A    between atoms: C_29  and  C_30 
REMARK   10  A    between atoms: C_30  and  O_32 
REMARK   11  A    between atoms: C_33  and  C_34 
REMARK   12  A    between atoms: C_34  and  C_35 
REMARK   13  A    between atoms: C_35  and  C_36 
REMARK   14  A    between atoms: C_36  and  O_38 
REMARK   15  A    between atoms: C_39  and  C_40 
REMARK   16  A    between atoms: C_40  and  C_41 
REMARK   17  A    between atoms: C_41  and  C_42 
REMARK   18  A    between atoms: C_42  and  O_44 
REMARK   19  A    between atoms: C_45  and  C_46 
REMARK   20  A    between atoms: C_46  and  C_47 
REMARK   21  A    between atoms: C_47  and  O_49 
REMARK   22  A    between atoms: C_50  and  C_51 
REMARK   23  A    between atoms: C_51  and  C_52 
REMARK   24  A    between atoms: C_52  and  O_54 
REMARK   25  A    between atoms: C_55  and  C_56 
REMARK   26  A    between atoms: C_56  and  C_57 
REMARK   27  A    between atoms: C_57  and  C_58 
REMARK   28  A    between atoms: C_58  and  O_60 
ROOT
ATOM      1  O   UNK d   0      18.839   6.779 -10.512  0.00  0.00    -0.650 OA
ATOM      2  C   UNK d   0      18.982   6.769 -11.755  0.00  0.00     0.139 C 
ENDROOT
BRANCH   2   3
ATOM      3  O   UNK d   0      20.153   6.293 -12.294  0.00  0.00    -0.776 OA
ATOM      4  H   UNK d   0      20.390   5.300 -12.245  0.00  0.00     0.167 HD
ENDBRANCH   2   3
BRANCH   2   5
ATOM      5  C   UNK d   0      17.892   7.272 -12.638  0.00  0.00     0.115 C 
BRANCH   5   6
ATOM      6  C   UNK d   0      18.347   7.275 -14.072  0.00  0.00     0.052 C 
BRANCH   6   7
ATOM      7  C   UNK d   0      17.463   6.437 -14.964  0.00  0.00    -0.020 A 
ATOM      8  C   UNK d   0      16.851   6.809 -16.059  0.00  0.00    -0.011 A 
ATOM      9  C   UNK d   0      16.112   5.666 -16.567  0.00  0.00     0.067 A 
ATOM     10  C   UNK d   0      15.295   5.400 -17.677  0.00  0.00     0.062 C 
ATOM     11  N   UNK d   0      16.325   4.641 -15.715  0.00  0.00    -0.248 NA
ATOM     12  C   UNK d   0      14.891   4.147 -18.151  0.00  0.00     0.041 A 
ATOM     13  N   UNK d   0      14.458   3.050 -17.500  0.00  0.00    -0.355 N 
ATOM     14  C   UNK d   0      14.970   3.883 -19.530  0.00  0.00    -0.022 A 
ATOM     15  C   UNK d   0      14.268   2.095 -18.430  0.00  0.00     0.042 A 
ATOM     16  H   UNK d   0      14.272   2.959 -16.407  0.00  0.00     0.166 HD
ATOM     17  C   UNK d   0      13.822   0.765 -18.295  0.00  0.00     0.062 C 
ATOM     18  C   UNK d   0      14.579   2.580 -19.715  0.00  0.00    -0.013 A 
ATOM     19  C   UNK d   0      14.196  -0.180 -17.375  0.00  0.00     0.067 A 
ATOM     20  N   UNK d   0      14.928   0.239 -16.340  0.00  0.00    -0.248 NA
ATOM     21  C   UNK d   0      14.012  -1.613 -17.216  0.00  0.00    -0.011 A 
ATOM     22  C   UNK d   0      15.237  -0.815 -15.516  0.00  0.00     0.066 A 
ATOM     23  C   UNK d   0      15.965  -0.513 -14.375  0.00  0.00     0.062 C 
ATOM     24  C   UNK d   0      14.627  -1.979 -16.128  0.00  0.00    -0.020 A 
ATOM     25  C   UNK d   0      16.350   0.754 -13.910  0.00  0.00     0.041 A 
ATOM     26  N   UNK d   0      16.795   1.839 -14.556  0.00  0.00    -0.355 N 
ATOM     27  C   UNK d   0      16.267   1.019 -12.526  0.00  0.00    -0.022 A 
ATOM     28  C   UNK d   0      16.994   2.790 -13.629  0.00  0.00     0.042 A 
ATOM     29  H   UNK d   0      16.992   1.925 -15.653  0.00  0.00     0.166 HD
ATOM     30  C   UNK d   0      17.446   4.114 -13.748  0.00  0.00     0.062 C 
ATOM     31  C   UNK d   0      16.672   2.305 -12.339  0.00  0.00    -0.013 A 
ATOM     32  C   UNK d   0      17.130   5.040 -14.730  0.00  0.00     0.066 A 
BRANCH   8  33
ATOM     33  C   UNK d   0      16.887   8.145 -16.682  0.00  0.00     0.151 C 
BRANCH  33  34
ATOM     34  C   UNK d   0      17.903   8.253 -17.745  0.00  0.00     0.143 C 
ATOM     35  O   UNK d   0      18.901   7.518 -17.748  0.00  0.00    -0.650 OA
BRANCH  34  36
ATOM     36  O   UNK d   0      17.739   9.183 -18.745  0.00  0.00    -0.776 OA
ATOM     37  H   UNK d   0      17.904   8.942 -19.731  0.00  0.00     0.167 HD
ENDBRANCH  34  36
ENDBRANCH  33  34
ENDBRANCH   8  33
BRANCH  31  38
ATOM     38  C   UNK d   0      16.736   3.037 -11.019  0.00  0.00     0.151 C 
BRANCH  38  39
ATOM     39  C   UNK d   0      18.043   2.963 -10.400  0.00  0.00     0.143 C 
ATOM     40  O   UNK d   0      18.368   3.689  -9.444  0.00  0.00    -0.650 OA
BRANCH  39  41
ATOM     41  O   UNK d   0      18.980   2.049 -10.881  0.00  0.00    -0.776 OA
ATOM     42  H   UNK d   0      19.655   1.681 -10.205  0.00  0.00     0.167 HD
ENDBRANCH  39  41
ENDBRANCH  38  39
ENDBRANCH  31  38
BRANCH  27  43
ATOM     43  C   UNK d   0      15.828   0.114 -11.402  0.00  0.00     0.052 C 
BRANCH  43  44
ATOM     44  C   UNK d   0      14.358   0.167 -11.140  0.00  0.00     0.115 C 
BRANCH  44  45
ATOM     45  C   UNK d   0      13.845  -1.216 -11.317  0.00  0.00     0.139 C 
ATOM     46  O   UNK d   0      14.677  -2.157 -11.341  0.00  0.00    -0.650 OA
BRANCH  45  47
ATOM     47  O   UNK d   0      12.504  -1.505 -11.449  0.00  0.00    -0.776 OA
ATOM     48  H   UNK d   0      11.872  -0.963 -12.059  0.00  0.00     0.167 HD
ENDBRANCH  45  47
ENDBRANCH  44  45
ENDBRANCH  43  44
ENDBRANCH  27  43
BRANCH  24  49
ATOM     49  C   UNK d   0      14.665  -3.341 -15.568  0.00  0.00     0.052 C 
BRANCH  49  50
ATOM     50  C   UNK d   0      13.707  -3.458 -14.410  0.00  0.00     0.115 C 
BRANCH  50  51
ATOM     51  C   UNK d   0      12.576  -4.362 -14.571  0.00  0.00     0.139 C 
ATOM     52  O   UNK d   0      11.392  -3.957 -14.645  0.00  0.00    -0.650 OA
BRANCH  51  53
ATOM     53  O   UNK d   0      12.795  -5.729 -14.645  0.00  0.00    -0.776 OA
ATOM     54  H   UNK d   0      13.513  -6.063 -15.264  0.00  0.00     0.167 HD
ENDBRANCH  51  53
ENDBRANCH  50  51
ENDBRANCH  49  50
ENDBRANCH  24  49
BRANCH  21  55
ATOM     55  C   UNK d   0      13.237  -2.466 -18.165  0.00  0.00     0.151 C 
BRANCH  55  56
ATOM     56  C   UNK d   0      11.807  -2.513 -17.823  0.00  0.00     0.143 C 
ATOM     57  O   UNK d   0      10.973  -3.149 -18.497  0.00  0.00    -0.650 OA
BRANCH  56  58
ATOM     58  O   UNK d   0      11.387  -1.812 -16.694  0.00  0.00    -0.776 OA
ATOM     59  H   UNK d   0      10.892  -0.924 -16.892  0.00  0.00     0.167 HD
ENDBRANCH  56  58
ENDBRANCH  55  56
ENDBRANCH  21  55
BRANCH  18  60
ATOM     60  C   UNK d   0      14.521   1.876 -21.048  0.00  0.00     0.151 C 
BRANCH  60  61
ATOM     61  C   UNK d   0      15.764   1.096 -21.147  0.00  0.00     0.143 C 
ATOM     62  O   UNK d   0      16.913   1.535 -21.198  0.00  0.00    -0.650 OA
BRANCH  61  63
ATOM     63  O   UNK d   0      15.593  -0.309 -21.186  0.00  0.00    -0.776 OA
ATOM     64  H   UNK d   0      15.056  -0.745 -21.915  0.00  0.00     0.167 HD
ENDBRANCH  61  63
ENDBRANCH  60  61
ENDBRANCH  18  60
BRANCH  14  65
ATOM     65  C   UNK d   0      15.289   4.789 -20.685  0.00  0.00     0.052 C 
BRANCH  65  66
ATOM     66  C   UNK d   0      16.747   5.037 -20.844  0.00  0.00     0.115 C 
BRANCH  66  67
ATOM     67  C   UNK d   0      17.257   6.376 -20.742  0.00  0.00     0.139 C 
ATOM     68  O   UNK d   0      16.419   7.350 -20.698  0.00  0.00    -0.650 OA
BRANCH  67  69
ATOM     69  O   UNK d   0      18.590   6.779 -20.681  0.00  0.00    -0.776 OA
ATOM     70  H   UNK d   0      18.924   7.085 -19.756  0.00  0.00     0.167 HD
ENDBRANCH  67  69
ENDBRANCH  66  67
ENDBRANCH  65  66
ENDBRANCH  14  65
ENDBRANCH   6   7
ENDBRANCH   5   6
ENDBRANCH   2   5
TORSDOF 28
ENDMDL
MODEL 12
REMARK VINA RESULT:      -6.1     13.404     17.843
REMARK  28 active torsions:
REMARK  status: ('A' for Active; 'I' for Inactive)
REMARK    1  A    between atoms: C_2  and  O_3 
REMARK    2  A    between atoms: C_2  and  C_4 
REMARK    3  A    between atoms: C_4  and  C_5 
REMARK    4  A    between atoms: C_5  and  C_6 
REMARK    5  A    between atoms: C_7  and  C_8 
REMARK    6  A    between atoms: C_8  and  C_9 
REMARK    7  A    between atoms: C_9  and  O_11 
REMARK    8  A    between atoms: C_28  and  C_29 
REMARK    9  A    between atoms: C_29  and  C_30 
REMARK   10  A    between atoms: C_30  and  O_32 
REMARK   11  A    between atoms: C_33  and  C_34 
REMARK   12  A    between atoms: C_34  and  C_35 
REMARK   13  A    between atoms: C_35  and  C_36 
REMARK   14  A    between atoms: C_36  and  O_38 
REMARK   15  A    between atoms: C_39  and  C_40 
REMARK   16  A    between atoms: C_40  and  C_41 
REMARK   17  A    between atoms: C_41  and  C_42 
REMARK   18  A    between atoms: C_42  and  O_44 
REMARK   19  A    between atoms: C_45  and  C_46 
REMARK   20  A    between atoms: C_46  and  C_47 
REMARK   21  A    between atoms: C_47  and  O_49 
REMARK   22  A    between atoms: C_50  and  C_51 
REMARK   23  A    between atoms: C_51  and  C_52 
REMARK   24  A    between atoms: C_52  and  O_54 
REMARK   25  A    between atoms: C_55  and  C_56 
REMARK   26  A    between atoms: C_56  and  C_57 
REMARK   27  A    between atoms: C_57  and  C_58 
REMARK   28  A    between atoms: C_58  and  O_60 
ROOT
ATOM      1  O   UNK d   0      -7.140  -3.869  -3.126  0.00  0.00    -0.650 OA
ATOM      2  C   UNK d   0      -6.495  -3.816  -2.055  0.00  0.00     0.139 C 
ENDROOT
BRANCH   2   3
ATOM      3  O   UNK d   0      -6.647  -2.727  -1.231  0.00  0.00    -0.776 OA
ATOM      4  H   UNK d   0      -5.870  -2.383  -0.663  0.00  0.00     0.167 HD
ENDBRANCH   2   3
BRANCH   2   5
ATOM      5  C   UNK d   0      -5.572  -4.925  -1.681  0.00  0.00     0.115 C 
BRANCH   5   6
ATOM      6  C   UNK d   0      -6.070  -6.226  -2.250  0.00  0.00     0.052 C 
BRANCH   6   7
ATOM      7  C   UNK d   0      -5.009  -6.963  -3.031  0.00  0.00    -0.020 A 
ATOM      8  C   UNK d   0      -4.860  -7.005  -4.331  0.00  0.00    -0.011 A 
ATOM      9  C   UNK d   0      -3.708  -7.844  -4.619  0.00  0.00     0.067 A 
ATOM     10  C   UNK d   0      -3.025  -8.264  -5.771  0.00  0.00     0.062 C 
ATOM     11  N   UNK d   0      -3.221  -8.275  -3.437  0.00  0.00    -0.248 NA
ATOM     12  C   UNK d   0      -1.758  -8.853  -5.837  0.00  0.00     0.041 A 
ATOM     13  N   UNK d   0      -1.184  -9.809  -5.081  0.00  0.00    -0.355 N 
ATOM     14  C   UNK d   0      -0.840  -8.389  -6.797  0.00  0.00    -0.022 A 
ATOM     15  C   UNK d   0       0.076  -9.956  -5.531  0.00  0.00     0.042 A 
ATOM     16  H   UNK d   0      -1.666 -10.381  -4.258  0.00  0.00     0.166 HD
ATOM     17  C   UNK d   0       1.105 -10.817  -5.100  0.00  0.00     0.062 C 
ATOM     18  C   UNK d   0       0.329  -9.083  -6.607  0.00  0.00    -0.013 A 
ATOM     19  C   UNK d   0       1.509 -11.106  -3.821  0.00  0.00     0.067 A 
ATOM     20  N   UNK d   0       0.721 -10.686  -2.829  0.00  0.00    -0.248 NA
ATOM     21  C   UNK d   0       2.645 -11.777  -3.211  0.00  0.00    -0.011 A 
ATOM     22  C   UNK d   0       1.259 -11.032  -1.614  0.00  0.00     0.066 A 
ATOM     23  C   UNK d   0       0.519 -10.689  -0.491  0.00  0.00     0.062 C 
ATOM     24  C   UNK d   0       2.494 -11.727  -1.919  0.00  0.00    -0.020 A 
ATOM     25  C   UNK d   0      -0.758 -10.109  -0.447  0.00  0.00     0.041 A 
ATOM     26  N   UNK d   0      -1.324  -9.149  -1.189  0.00  0.00    -0.355 N 
ATOM     27  C   UNK d   0      -1.680 -10.579   0.514  0.00  0.00    -0.022 A 
ATOM     28  C   UNK d   0      -2.578  -8.994  -0.736  0.00  0.00     0.042 A 
ATOM     29  H   UNK d   0      -0.834  -8.568  -2.009  0.00  0.00     0.166 HD
ATOM     30  C   UNK d   0      -3.608  -8.135  -1.149  0.00  0.00     0.062 C 
ATOM     31  C   UNK d   0      -2.834  -9.879   0.338  0.00  0.00    -0.013 A 
ATOM     32  C   UNK d   0      -3.958  -7.780  -2.443  0.00  0.00     0.066 A 
BRANCH   8  33
ATOM     33  C   UNK d   0      -5.700  -6.335  -5.340  0.00  0.00     0.151 C 
BRANCH  33  34
ATOM     34  C   UNK d   0      -5.126  -5.059  -5.804  0.00  0.00     0.143 C 
ATOM     35  O   UNK d   0      -5.203  -4.722  -6.994  0.00  0.00    -0.650 OA
BRANCH  34  36
ATOM     36  O   UNK d   0      -4.495  -4.234  -4.902  0.00  0.00    -0.776 OA
ATOM     37  H   UNK d   0      -3.604  -3.774  -5.131  0.00  0.00     0.167 HD
ENDBRANCH  34  36
ENDBRANCH  33  34
ENDBRANCH   8  33
BRANCH  31  38
ATOM     38  C   UNK d   0      -4.109 -10.048   1.131  0.00  0.00     0.151 C 
BRANCH  38  39
ATOM     39  C   UNK d   0      -4.954 -11.105   0.617  0.00  0.00     0.143 C 
ATOM     40  O   UNK d   0      -5.064 -12.205   1.186  0.00  0.00    -0.650 OA
BRANCH  39  41
ATOM     41  O   UNK d   0      -5.677 -10.895  -0.557  0.00  0.00    -0.776 OA
ATOM     42  H   UNK d   0      -5.136 -10.688  -1.402  0.00  0.00     0.167 HD
ENDBRANCH  39  41
ENDBRANCH  38  39
ENDBRANCH  31  38
BRANCH  27  43
ATOM     43  C   UNK d   0      -1.505 -11.642   1.569  0.00  0.00     0.052 C 
BRANCH  43  44
ATOM     44  C   UNK d   0      -1.661 -13.031   1.040  0.00  0.00     0.115 C 
BRANCH  44  45
ATOM     45  C   UNK d   0      -0.497 -13.808   1.541  0.00  0.00     0.139 C 
ATOM     46  O   UNK d   0      -0.538 -15.060   1.450  0.00  0.00    -0.650 OA
BRANCH  45  47
ATOM     47  O   UNK d   0       0.618 -13.214   2.091  0.00  0.00    -0.776 OA
ATOM     48  H   UNK d   0       1.089 -13.579   2.935  0.00  0.00     0.167 HD
ENDBRANCH  45  47
ENDBRANCH  44  45
ENDBRANCH  43  44
ENDBRANCH  27  43
BRANCH  24  49
ATOM     49  C   UNK d   0       3.396 -12.319  -0.916  0.00  0.00     0.052 C 
BRANCH  49  50
ATOM     50  C   UNK d   0       3.582 -11.374   0.244  0.00  0.00     0.115 C 
BRANCH  50  51
ATOM     51  C   UNK d   0       4.625 -10.365   0.119  0.00  0.00     0.139 C 
ATOM     52  O   UNK d   0       4.433  -9.261  -0.444  0.00  0.00    -0.650 OA
BRANCH  51  53
ATOM     53  O   UNK d   0       5.888 -10.614   0.633  0.00  0.00    -0.776 OA
ATOM     54  H   UNK d   0       6.521  -9.841   0.736  0.00  0.00     0.167 HD
ENDBRANCH  51  53
ENDBRANCH  50  51
ENDBRANCH  49  50
ENDBRANCH  24  49
BRANCH  21  55
ATOM     55  C   UNK d   0       3.759 -12.402  -3.983  0.00  0.00     0.151 C 
BRANCH  55  56
ATOM     56  C   UNK d   0       4.780 -11.417  -4.372  0.00  0.00     0.143 C 
ATOM     57  O   UNK d   0       5.019 -10.392  -3.704  0.00  0.00    -0.650 OA
BRANCH  56  58
ATOM     58  O   UNK d   0       5.501 -11.657  -5.541  0.00  0.00    -0.776 OA
ATOM     59  H   UNK d   0       6.530 -11.594  -5.439  0.00  0.00     0.167 HD
ENDBRANCH  56  58
ENDBRANCH  55  56
ENDBRANCH  21  55
BRANCH  18  60
ATOM     60  C   UNK d   0       1.587  -8.895  -7.417  0.00  0.00     0.151 C 
BRANCH  60  61
ATOM     61  C   UNK d   0       2.451  -8.009  -6.622  0.00  0.00     0.143 C 
ATOM     62  O   UNK d   0       3.251  -8.343  -5.747  0.00  0.00    -0.650 OA
BRANCH  61  63
ATOM     63  O   UNK d   0       2.331  -6.629  -6.914  0.00  0.00    -0.776 OA
ATOM     64  H   UNK d   0       2.590  -5.932  -6.239  0.00  0.00     0.167 HD
ENDBRANCH  61  63
ENDBRANCH  60  61
ENDBRANCH  18  60
BRANCH  14  65
ATOM     65  C   UNK d   0      -1.015  -7.420  -7.932  0.00  0.00     0.052 C 
BRANCH  65  66
ATOM     66  C   UNK d   0      -2.077  -7.830  -8.888  0.00  0.00     0.115 C 
BRANCH  66  67
ATOM     67  C   UNK d   0      -3.294  -7.071  -8.968  0.00  0.00     0.139 C 
ATOM     68  O   UNK d   0      -4.396  -7.699  -9.177  0.00  0.00    -0.650 OA
BRANCH  67  69
ATOM     69  O   UNK d   0      -3.449  -5.691  -8.845  0.00  0.00    -0.776 OA
ATOM     70  H   UNK d   0      -4.377  -5.320  -9.095  0.00  0.00     0.167 HD
ENDBRANCH  67  69
ENDBRANCH  66  67
ENDBRANCH  65  66
ENDBRANCH  14  65
ENDBRANCH   6   7
ENDBRANCH   5   6
ENDBRANCH   2   5
TORSDOF 28
ENDMDL
MODEL 13
REMARK VINA RESULT:      -6.0     13.544     17.135
REMARK  28 active torsions:
REMARK  status: ('A' for Active; 'I' for Inactive)
REMARK    1  A    between atoms: C_2  and  O_3 
REMARK    2  A    between atoms: C_2  and  C_4 
REMARK    3  A    between atoms: C_4  and  C_5 
REMARK    4  A    between atoms: C_5  and  C_6 
REMARK    5  A    between atoms: C_7  and  C_8 
REMARK    6  A    between atoms: C_8  and  C_9 
REMARK    7  A    between atoms: C_9  and  O_11 
REMARK    8  A    between atoms: C_28  and  C_29 
REMARK    9  A    between atoms: C_29  and  C_30 
REMARK   10  A    between atoms: C_30  and  O_32 
REMARK   11  A    between atoms: C_33  and  C_34 
REMARK   12  A    between atoms: C_34  and  C_35 
REMARK   13  A    between atoms: C_35  and  C_36 
REMARK   14  A    between atoms: C_36  and  O_38 
REMARK   15  A    between atoms: C_39  and  C_40 
REMARK   16  A    between atoms: C_40  and  C_41 
REMARK   17  A    between atoms: C_41  and  C_42 
REMARK   18  A    between atoms: C_42  and  O_44 
REMARK   19  A    between atoms: C_45  and  C_46 
REMARK   20  A    between atoms: C_46  and  C_47 
REMARK   21  A    between atoms: C_47  and  O_49 
REMARK   22  A    between atoms: C_50  and  C_51 
REMARK   23  A    between atoms: C_51  and  C_52 
REMARK   24  A    between atoms: C_52  and  O_54 
REMARK   25  A    between atoms: C_55  and  C_56 
REMARK   26  A    between atoms: C_56  and  C_57 
REMARK   27  A    between atoms: C_57  and  C_58 
REMARK   28  A    between atoms: C_58  and  O_60 
ROOT
ATOM      1  O   UNK d   0       0.244 -16.221   0.884  0.00  0.00    -0.650 OA
ATOM      2  C   UNK d   0       0.436 -15.130   1.466  0.00  0.00     0.139 C 
ENDROOT
BRANCH   2   3
ATOM      3  O   UNK d   0       1.360 -15.062   2.481  0.00  0.00    -0.776 OA
ATOM      4  H   UNK d   0       1.893 -15.886   2.766  0.00  0.00     0.167 HD
ENDBRANCH   2   3
BRANCH   2   5
ATOM      5  C   UNK d   0      -0.334 -13.920   1.060  0.00  0.00     0.115 C 
BRANCH   5   6
ATOM      6  C   UNK d   0       0.543 -12.700   1.137  0.00  0.00     0.052 C 
BRANCH   6   7
ATOM      7  C   UNK d   0       0.696 -12.009  -0.197  0.00  0.00    -0.020 A 
ATOM      8  C   UNK d   0       1.724 -12.052  -1.005  0.00  0.00    -0.011 A 
ATOM      9  C   UNK d   0       1.417 -11.226  -2.160  0.00  0.00     0.067 A 
ATOM     10  C   UNK d   0       2.063 -10.878  -3.357  0.00  0.00     0.062 C 
ATOM     11  N   UNK d   0       0.183 -10.713  -1.970  0.00  0.00    -0.248 NA
ATOM     12  C   UNK d   0       1.491 -10.285  -4.488  0.00  0.00     0.041 A 
ATOM     13  N   UNK d   0       0.605  -9.278  -4.608  0.00  0.00    -0.355 N 
ATOM     14  C   UNK d   0       1.798 -10.806  -5.758  0.00  0.00    -0.022 A 
ATOM     15  C   UNK d   0       0.337  -9.151  -5.922  0.00  0.00     0.042 A 
ATOM     16  H   UNK d   0       0.193  -8.656  -3.783  0.00  0.00     0.166 HD
ATOM     17  C   UNK d   0      -0.516  -8.256  -6.597  0.00  0.00     0.062 C 
ATOM     18  C   UNK d   0       1.066 -10.092  -6.674  0.00  0.00    -0.013 A 
ATOM     19  C   UNK d   0      -1.797  -7.880  -6.281  0.00  0.00     0.067 A 
ATOM     20  N   UNK d   0      -2.252  -8.239  -5.078  0.00  0.00    -0.248 NA
ATOM     21  C   UNK d   0      -2.870  -7.161  -6.948  0.00  0.00    -0.011 A 
ATOM     22  C   UNK d   0      -3.546  -7.808  -4.910  0.00  0.00     0.066 A 
ATOM     23  C   UNK d   0      -4.133  -8.082  -3.683  0.00  0.00     0.062 C 
ATOM     24  C   UNK d   0      -3.892  -7.127  -6.142  0.00  0.00    -0.020 A 
ATOM     25  C   UNK d   0      -3.536  -8.667  -2.556  0.00  0.00     0.041 A 
ATOM     26  N   UNK d   0      -2.668  -9.678  -2.435  0.00  0.00    -0.355 N 
ATOM     27  C   UNK d   0      -3.842  -8.141  -1.281  0.00  0.00    -0.022 A 
ATOM     28  C   UNK d   0      -2.405  -9.812  -1.125  0.00  0.00     0.042 A 
ATOM     29  H   UNK d   0      -2.263 -10.309  -3.264  0.00  0.00     0.166 HD
ATOM     30  C   UNK d   0      -1.566 -10.704  -0.439  0.00  0.00     0.062 C 
ATOM     31  C   UNK d   0      -3.130  -8.859  -0.371  0.00  0.00    -0.013 A 
ATOM     32  C   UNK d   0      -0.305 -11.147  -0.807  0.00  0.00     0.066 A 
BRANCH   8  33
ATOM     33  C   UNK d   0       2.982 -12.794  -0.798  0.00  0.00     0.151 C 
BRANCH  33  34
ATOM     34  C   UNK d   0       4.127 -11.909  -0.518  0.00  0.00     0.143 C 
ATOM     35  O   UNK d   0       4.222 -11.316   0.566  0.00  0.00    -0.650 OA
BRANCH  34  36
ATOM     36  O   UNK d   0       5.100 -11.741  -1.475  0.00  0.00    -0.776 OA
ATOM     37  H   UNK d   0       5.260 -12.448  -2.205  0.00  0.00     0.167 HD
ENDBRANCH  34  36
ENDBRANCH  33  34
ENDBRANCH   8  33
BRANCH  31  38
ATOM     38  C   UNK d   0      -3.126  -8.647   1.125  0.00  0.00     0.151 C 
BRANCH  38  39
ATOM     39  C   UNK d   0      -3.873  -9.662   1.838  0.00  0.00     0.143 C 
ATOM     40  O   UNK d   0      -4.636 -10.455   1.261  0.00  0.00    -0.650 OA
BRANCH  39  41
ATOM     41  O   UNK d   0      -3.740  -9.765   3.223  0.00  0.00    -0.776 OA
ATOM     42  H   UNK d   0      -3.587 -10.704   3.603  0.00  0.00     0.167 HD
ENDBRANCH  39  41
ENDBRANCH  38  39
ENDBRANCH  31  38
BRANCH  27  43
ATOM     43  C   UNK d   0      -4.766  -7.009  -0.908  0.00  0.00     0.052 C 
BRANCH  43  44
ATOM     44  C   UNK d   0      -4.090  -5.676  -0.893  0.00  0.00     0.115 C 
BRANCH  44  45
ATOM     45  C   UNK d   0      -5.019  -4.722  -1.554  0.00  0.00     0.139 C 
ATOM     46  O   UNK d   0      -5.637  -5.111  -2.576  0.00  0.00    -0.650 OA
BRANCH  45  47
ATOM     47  O   UNK d   0      -5.229  -3.441  -1.091  0.00  0.00    -0.776 OA
ATOM     48  H   UNK d   0      -4.720  -2.622  -1.459  0.00  0.00     0.167 HD
ENDBRANCH  45  47
ENDBRANCH  44  45
ENDBRANCH  43  44
ENDBRANCH  27  43
BRANCH  24  49
ATOM     49  C   UNK d   0      -5.181  -6.463  -6.402  0.00  0.00     0.052 C 
BRANCH  49  50
ATOM     50  C   UNK d   0      -5.031  -4.967  -6.294  0.00  0.00     0.115 C 
BRANCH  50  51
ATOM     51  C   UNK d   0      -6.246  -4.191  -6.080  0.00  0.00     0.139 C 
ATOM     52  O   UNK d   0      -7.219  -4.226  -6.869  0.00  0.00    -0.650 OA
BRANCH  51  53
ATOM     53  O   UNK d   0      -6.349  -3.373  -4.965  0.00  0.00    -0.776 OA
ATOM     54  H   UNK d   0      -6.047  -2.418  -5.047  0.00  0.00     0.167 HD
ENDBRANCH  51  53
ENDBRANCH  50  51
ENDBRANCH  49  50
ENDBRANCH  24  49
BRANCH  21  55
ATOM     55  C   UNK d   0      -2.760  -6.581  -8.318  0.00  0.00     0.151 C 
BRANCH  55  56
ATOM     56  C   UNK d   0      -3.077  -7.568  -9.362  0.00  0.00     0.143 C 
ATOM     57  O   UNK d   0      -2.208  -8.072 -10.100  0.00  0.00    -0.650 OA
BRANCH  56  58
ATOM     58  O   UNK d   0      -4.411  -7.943  -9.517  0.00  0.00    -0.776 OA
ATOM     59  H   UNK d   0      -5.071  -7.157  -9.658  0.00  0.00     0.167 HD
ENDBRANCH  56  58
ENDBRANCH  55  56
ENDBRANCH  21  55
BRANCH  18  60
ATOM     60  C   UNK d   0       1.084 -10.324  -8.165  0.00  0.00     0.151 C 
BRANCH  60  61
ATOM     61  C   UNK d   0      -0.071 -11.188  -8.453  0.00  0.00     0.143 C 
ATOM     62  O   UNK d   0      -0.210 -12.370  -8.137  0.00  0.00    -0.650 OA
BRANCH  61  63
ATOM     63  O   UNK d   0      -1.122 -10.570  -9.172  0.00  0.00    -0.776 OA
ATOM     64  H   UNK d   0      -1.585  -9.753  -8.813  0.00  0.00     0.167 HD
ENDBRANCH  61  63
ENDBRANCH  60  61
ENDBRANCH  18  60
BRANCH  14  65
ATOM     65  C   UNK d   0       2.795 -11.849  -6.176  0.00  0.00     0.052 C 
BRANCH  65  66
ATOM     66  C   UNK d   0       4.134 -11.282  -6.488  0.00  0.00     0.115 C 
BRANCH  66  67
ATOM     67  C   UNK d   0       5.020 -10.917  -5.419  0.00  0.00     0.139 C 
ATOM     68  O   UNK d   0       5.265 -11.785  -4.502  0.00  0.00    -0.650 OA
BRANCH  67  69
ATOM     69  O   UNK d   0       5.676  -9.701  -5.232  0.00  0.00    -0.776 OA
ATOM     70  H   UNK d   0       5.150  -8.983  -4.713  0.00  0.00     0.167 HD
ENDBRANCH  67  69
ENDBRANCH  66  67
ENDBRANCH  65  66
ENDBRANCH  14  65
ENDBRANCH   6   7
ENDBRANCH   5   6
ENDBRANCH   2   5
TORSDOF 28
ENDMDL
MODEL 14
REMARK VINA RESULT:      -6.0     24.457     29.372
REMARK  28 active torsions:
REMARK  status: ('A' for Active; 'I' for Inactive)
REMARK    1  A    between atoms: C_2  and  O_3 
REMARK    2  A    between atoms: C_2  and  C_4 
REMARK    3  A    between atoms: C_4  and  C_5 
REMARK    4  A    between atoms: C_5  and  C_6 
REMARK    5  A    between atoms: C_7  and  C_8 
REMARK    6  A    between atoms: C_8  and  C_9 
REMARK    7  A    between atoms: C_9  and  O_11 
REMARK    8  A    between atoms: C_28  and  C_29 
REMARK    9  A    between atoms: C_29  and  C_30 
REMARK   10  A    between atoms: C_30  and  O_32 
REMARK   11  A    between atoms: C_33  and  C_34 
REMARK   12  A    between atoms: C_34  and  C_35 
REMARK   13  A    between atoms: C_35  and  C_36 
REMARK   14  A    between atoms: C_36  and  O_38 
REMARK   15  A    between atoms: C_39  and  C_40 
REMARK   16  A    between atoms: C_40  and  C_41 
REMARK   17  A    between atoms: C_41  and  C_42 
REMARK   18  A    between atoms: C_42  and  O_44 
REMARK   19  A    between atoms: C_45  and  C_46 
REMARK   20  A    between atoms: C_46  and  C_47 
REMARK   21  A    between atoms: C_47  and  O_49 
REMARK   22  A    between atoms: C_50  and  C_51 
REMARK   23  A    between atoms: C_51  and  C_52 
REMARK   24  A    between atoms: C_52  and  O_54 
REMARK   25  A    between atoms: C_55  and  C_56 
REMARK   26  A    between atoms: C_56  and  C_57 
REMARK   27  A    between atoms: C_57  and  C_58 
REMARK   28  A    between atoms: C_58  and  O_60 
ROOT
ATOM      1  O   UNK d   0     -18.354   1.151   2.023  0.00  0.00    -0.650 OA
ATOM      2  C   UNK d   0     -18.052   1.186   3.237  0.00  0.00     0.139 C 
ENDROOT
BRANCH   2   3
ATOM      3  O   UNK d   0     -16.727   1.207   3.601  0.00  0.00    -0.776 OA
ATOM      4  H   UNK d   0     -16.058   0.551   3.193  0.00  0.00     0.167 HD
ENDBRANCH   2   3
BRANCH   2   5
ATOM      5  C   UNK d   0     -19.122   1.203   4.274  0.00  0.00     0.115 C 
BRANCH   5   6
ATOM      6  C   UNK d   0     -19.696  -0.176   4.450  0.00  0.00     0.052 C 
BRANCH   6   7
ATOM      7  C   UNK d   0     -18.629  -1.237   4.577  0.00  0.00    -0.020 A 
ATOM      8  C   UNK d   0     -17.859  -1.475   5.608  0.00  0.00    -0.011 A 
ATOM      9  C   UNK d   0     -16.985  -2.584   5.264  0.00  0.00     0.067 A 
ATOM     10  C   UNK d   0     -15.977  -3.317   5.909  0.00  0.00     0.062 C 
ATOM     11  N   UNK d   0     -17.287  -2.956   4.002  0.00  0.00    -0.248 NA
ATOM     12  C   UNK d   0     -15.432  -4.542   5.510  0.00  0.00     0.041 A 
ATOM     13  N   UNK d   0     -15.061  -4.995   4.297  0.00  0.00    -0.355 N 
ATOM     14  C   UNK d   0     -15.259  -5.555   6.471  0.00  0.00    -0.022 A 
ATOM     15  C   UNK d   0     -14.664  -6.271   4.463  0.00  0.00     0.042 A 
ATOM     16  H   UNK d   0     -15.061  -4.417   3.347  0.00  0.00     0.166 HD
ATOM     17  C   UNK d   0     -14.180  -7.205   3.526  0.00  0.00     0.062 C 
ATOM     18  C   UNK d   0     -14.774  -6.657   5.813  0.00  0.00    -0.013 A 
ATOM     19  C   UNK d   0     -14.656  -7.497   2.273  0.00  0.00     0.067 A 
ATOM     20  N   UNK d   0     -15.576  -6.670   1.769  0.00  0.00    -0.248 NA
ATOM     21  C   UNK d   0     -14.428  -8.538   1.285  0.00  0.00    -0.011 A 
ATOM     22  C   UNK d   0     -15.966  -7.096   0.523  0.00  0.00     0.066 A 
ATOM     23  C   UNK d   0     -16.895  -6.304  -0.136  0.00  0.00     0.062 C 
ATOM     24  C   UNK d   0     -15.201  -8.300   0.265  0.00  0.00    -0.020 A 
ATOM     25  C   UNK d   0     -17.420  -5.069   0.276  0.00  0.00     0.041 A 
ATOM     26  N   UNK d   0     -17.803  -4.625   1.479  0.00  0.00    -0.355 N 
ATOM     27  C   UNK d   0     -17.590  -4.052  -0.688  0.00  0.00    -0.022 A 
ATOM     28  C   UNK d   0     -18.208  -3.355   1.315  0.00  0.00     0.042 A 
ATOM     29  H   UNK d   0     -17.812  -5.210   2.432  0.00  0.00     0.166 HD
ATOM     30  C   UNK d   0     -18.700  -2.418   2.236  0.00  0.00     0.062 C 
ATOM     31  C   UNK d   0     -18.087  -2.964  -0.039  0.00  0.00    -0.013 A 
ATOM     32  C   UNK d   0     -18.270  -2.185   3.533  0.00  0.00     0.066 A 
BRANCH   8  33
ATOM     33  C   UNK d   0     -17.857  -0.756   6.895  0.00  0.00     0.151 C 
BRANCH  33  34
ATOM     34  C   UNK d   0     -16.774   0.239   6.991  0.00  0.00     0.143 C 
ATOM     35  O   UNK d   0     -16.982   1.433   6.734  0.00  0.00    -0.650 OA
BRANCH  34  36
ATOM     36  O   UNK d   0     -15.515  -0.167   7.370  0.00  0.00    -0.776 OA
ATOM     37  H   UNK d   0     -15.291  -1.163   7.498  0.00  0.00     0.167 HD
ENDBRANCH  34  36
ENDBRANCH  33  34
ENDBRANCH   8  33
BRANCH  31  38
ATOM     38  C   UNK d   0     -18.416  -1.628  -0.662  0.00  0.00     0.151 C 
BRANCH  38  39
ATOM     39  C   UNK d   0     -17.382  -0.638  -0.447  0.00  0.00     0.143 C 
ATOM     40  O   UNK d   0     -16.325  -0.899   0.154  0.00  0.00    -0.650 OA
BRANCH  39  41
ATOM     41  O   UNK d   0     -17.563   0.659  -0.927  0.00  0.00    -0.776 OA
ATOM     42  H   UNK d   0     -17.636   0.770  -1.943  0.00  0.00     0.167 HD
ENDBRANCH  39  41
ENDBRANCH  38  39
ENDBRANCH  31  38
BRANCH  27  43
ATOM     43  C   UNK d   0     -17.304  -4.078  -2.169  0.00  0.00     0.052 C 
BRANCH  43  44
ATOM     44  C   UNK d   0     -18.427  -4.643  -2.977  0.00  0.00     0.115 C 
BRANCH  44  45
ATOM     45  C   UNK d   0     -17.895  -4.863  -4.347  0.00  0.00     0.139 C 
ATOM     46  O   UNK d   0     -17.021  -4.071  -4.776  0.00  0.00    -0.650 OA
BRANCH  45  47
ATOM     47  O   UNK d   0     -18.317  -5.897  -5.155  0.00  0.00    -0.776 OA
ATOM     48  H   UNK d   0     -18.390  -5.812  -6.182  0.00  0.00     0.167 HD
ENDBRANCH  45  47
ENDBRANCH  44  45
ENDBRANCH  43  44
ENDBRANCH  27  43
BRANCH  24  49
ATOM     49  C   UNK d   0     -15.263  -9.086  -0.979  0.00  0.00     0.052 C 
BRANCH  49  50
ATOM     50  C   UNK d   0     -14.181  -8.646  -1.932  0.00  0.00     0.115 C 
BRANCH  50  51
ATOM     51  C   UNK d   0     -14.268  -7.290  -2.458  0.00  0.00     0.139 C 
ATOM     52  O   UNK d   0     -15.181  -6.924  -3.236  0.00  0.00    -0.650 OA
BRANCH  51  53
ATOM     53  O   UNK d   0     -13.313  -6.352  -2.098  0.00  0.00    -0.776 OA
ATOM     54  H   UNK d   0     -12.737  -5.958  -2.821  0.00  0.00     0.167 HD
ENDBRANCH  51  53
ENDBRANCH  50  51
ENDBRANCH  49  50
ENDBRANCH  24  49
BRANCH  21  55
ATOM     55  C   UNK d   0     -13.458  -9.659   1.462  0.00  0.00     0.151 C 
BRANCH  55  56
ATOM     56  C   UNK d   0     -14.067 -10.812   2.142  0.00  0.00     0.143 C 
ATOM     57  O   UNK d   0     -13.604 -11.967   2.057  0.00  0.00    -0.650 OA
BRANCH  56  58
ATOM     58  O   UNK d   0     -15.208 -10.586   2.909  0.00  0.00    -0.776 OA
ATOM     59  H   UNK d   0     -15.382  -9.593   3.150  0.00  0.00     0.167 HD
ENDBRANCH  56  58
ENDBRANCH  55  56
ENDBRANCH  21  55
BRANCH  18  60
ATOM     60  C   UNK d   0     -14.451  -7.980   6.462  0.00  0.00     0.151 C 
BRANCH  60  61
ATOM     61  C   UNK d   0     -15.680  -8.784   6.373  0.00  0.00     0.143 C 
ATOM     62  O   UNK d   0     -16.185  -9.256   5.354  0.00  0.00    -0.650 OA
BRANCH  61  63
ATOM     63  O   UNK d   0     -16.331  -9.028   7.606  0.00  0.00    -0.776 OA
ATOM     64  H   UNK d   0     -16.844  -8.302   8.074  0.00  0.00     0.167 HD
ENDBRANCH  61  63
ENDBRANCH  60  61
ENDBRANCH  18  60
BRANCH  14  65
ATOM     65  C   UNK d   0     -15.422  -5.528   7.965  0.00  0.00     0.052 C 
BRANCH  65  66
ATOM     66  C   UNK d   0     -16.835  -5.690   8.399  0.00  0.00     0.115 C 
BRANCH  66  67
ATOM     67  C   UNK d   0     -17.228  -5.271   9.714  0.00  0.00     0.139 C 
ATOM     68  O   UNK d   0     -18.483  -5.223   9.994  0.00  0.00    -0.650 OA
BRANCH  67  69
ATOM     69  O   UNK d   0     -16.402  -4.892  10.772  0.00  0.00    -0.776 OA
ATOM     70  H   UNK d   0     -15.960  -3.965  10.686  0.00  0.00     0.167 HD
ENDBRANCH  67  69
ENDBRANCH  66  67
ENDBRANCH  65  66
ENDBRANCH  14  65
ENDBRANCH   6   7
ENDBRANCH   5   6
ENDBRANCH   2   5
TORSDOF 28
ENDMDL
MODEL 15
REMARK VINA RESULT:      -6.0     23.619     28.937
REMARK  28 active torsions:
REMARK  status: ('A' for Active; 'I' for Inactive)
REMARK    1  A    between atoms: C_2  and  O_3 
REMARK    2  A    between atoms: C_2  and  C_4 
REMARK    3  A    between atoms: C_4  and  C_5 
REMARK    4  A    between atoms: C_5  and  C_6 
REMARK    5  A    between atoms: C_7  and  C_8 
REMARK    6  A    between atoms: C_8  and  C_9 
REMARK    7  A    between atoms: C_9  and  O_11 
REMARK    8  A    between atoms: C_28  and  C_29 
REMARK    9  A    between atoms: C_29  and  C_30 
REMARK   10  A    between atoms: C_30  and  O_32 
REMARK   11  A    between atoms: C_33  and  C_34 
REMARK   12  A    between atoms: C_34  and  C_35 
REMARK   13  A    between atoms: C_35  and  C_36 
REMARK   14  A    between atoms: C_36  and  O_38 
REMARK   15  A    between atoms: C_39  and  C_40 
REMARK   16  A    between atoms: C_40  and  C_41 
REMARK   17  A    between atoms: C_41  and  C_42 
REMARK   18  A    between atoms: C_42  and  O_44 
REMARK   19  A    between atoms: C_45  and  C_46 
REMARK   20  A    between atoms: C_46  and  C_47 
REMARK   21  A    between atoms: C_47  and  O_49 
REMARK   22  A    between atoms: C_50  and  C_51 
REMARK   23  A    between atoms: C_51  and  C_52 
REMARK   24  A    between atoms: C_52  and  O_54 
REMARK   25  A    between atoms: C_55  and  C_56 
REMARK   26  A    between atoms: C_56  and  C_57 
REMARK   27  A    between atoms: C_57  and  C_58 
REMARK   28  A    between atoms: C_58  and  O_60 
ROOT
ATOM      1  O   UNK d   0     -18.120  -5.726  -4.557  0.00  0.00    -0.650 OA
ATOM      2  C   UNK d   0     -17.210  -4.875  -4.440  0.00  0.00     0.139 C 
ENDROOT
BRANCH   2   3
ATOM      3  O   UNK d   0     -15.904  -5.254  -4.637  0.00  0.00    -0.776 OA
ATOM      4  H   UNK d   0     -15.534  -5.400  -5.579  0.00  0.00     0.167 HD
ENDBRANCH   2   3
BRANCH   2   5
ATOM      5  C   UNK d   0     -17.544  -3.466  -4.087  0.00  0.00     0.115 C 
BRANCH   5   6
ATOM      6  C   UNK d   0     -18.684  -3.434  -3.107  0.00  0.00     0.052 C 
BRANCH   6   7
ATOM      7  C   UNK d   0     -18.234  -3.108  -1.703  0.00  0.00    -0.020 A 
ATOM      8  C   UNK d   0     -18.285  -1.950  -1.096  0.00  0.00    -0.011 A 
ATOM      9  C   UNK d   0     -17.732  -2.121   0.237  0.00  0.00     0.067 A 
ATOM     10  C   UNK d   0     -17.524  -1.304   1.359  0.00  0.00     0.062 C 
ATOM     11  N   UNK d   0     -17.364  -3.414   0.355  0.00  0.00    -0.248 NA
ATOM     12  C   UNK d   0     -17.230  -1.715   2.664  0.00  0.00     0.041 A 
ATOM     13  N   UNK d   0     -16.391  -2.660   3.127  0.00  0.00    -0.355 N 
ATOM     14  C   UNK d   0     -17.928  -1.128   3.736  0.00  0.00    -0.022 A 
ATOM     15  C   UNK d   0     -16.543  -2.693   4.465  0.00  0.00     0.042 A 
ATOM     16  H   UNK d   0     -15.690  -3.277   2.523  0.00  0.00     0.166 HD
ATOM     17  C   UNK d   0     -15.909  -3.494   5.436  0.00  0.00     0.062 C 
ATOM     18  C   UNK d   0     -17.498  -1.747   4.883  0.00  0.00    -0.013 A 
ATOM     19  C   UNK d   0     -15.658  -4.842   5.413  0.00  0.00     0.067 A 
ATOM     20  N   UNK d   0     -15.849  -5.473   4.251  0.00  0.00    -0.248 NA
ATOM     21  C   UNK d   0     -15.224  -5.840   6.376  0.00  0.00    -0.011 A 
ATOM     22  C   UNK d   0     -15.574  -6.811   4.385  0.00  0.00     0.066 A 
ATOM     23  C   UNK d   0     -15.696  -7.583   3.239  0.00  0.00     0.062 C 
ATOM     24  C   UNK d   0     -15.181  -6.992   5.769  0.00  0.00    -0.020 A 
ATOM     25  C   UNK d   0     -15.980  -7.149   1.935  0.00  0.00     0.041 A 
ATOM     26  N   UNK d   0     -16.825  -6.220   1.473  0.00  0.00    -0.355 N 
ATOM     27  C   UNK d   0     -15.276  -7.735   0.861  0.00  0.00    -0.022 A 
ATOM     28  C   UNK d   0     -16.682  -6.191   0.139  0.00  0.00     0.042 A 
ATOM     29  H   UNK d   0     -17.536  -5.608   2.081  0.00  0.00     0.166 HD
ATOM     30  C   UNK d   0     -17.312  -5.407  -0.840  0.00  0.00     0.062 C 
ATOM     31  C   UNK d   0     -15.714  -7.134  -0.280  0.00  0.00    -0.013 A 
ATOM     32  C   UNK d   0     -17.640  -4.062  -0.777  0.00  0.00     0.066 A 
BRANCH   8  33
ATOM     33  C   UNK d   0     -18.800  -0.684  -1.649  0.00  0.00     0.151 C 
BRANCH  33  34
ATOM     34  C   UNK d   0     -17.774   0.078  -2.384  0.00  0.00     0.143 C 
ATOM     35  O   UNK d   0     -17.793   0.141  -3.622  0.00  0.00    -0.650 OA
BRANCH  34  36
ATOM     36  O   UNK d   0     -16.783   0.725  -1.684  0.00  0.00    -0.776 OA
ATOM     37  H   UNK d   0     -15.940   1.080  -2.156  0.00  0.00     0.167 HD
ENDBRANCH  34  36
ENDBRANCH  33  34
ENDBRANCH   8  33
BRANCH  31  38
ATOM     38  C   UNK d   0     -15.234  -7.427  -1.682  0.00  0.00     0.151 C 
BRANCH  38  39
ATOM     39  C   UNK d   0     -14.058  -6.664  -2.044  0.00  0.00     0.143 C 
ATOM     40  O   UNK d   0     -12.977  -7.206  -2.336  0.00  0.00    -0.650 OA
BRANCH  39  41
ATOM     41  O   UNK d   0     -14.125  -5.272  -2.071  0.00  0.00    -0.776 OA
ATOM     42  H   UNK d   0     -13.240  -4.769  -2.196  0.00  0.00     0.167 HD
ENDBRANCH  39  41
ENDBRANCH  38  39
ENDBRANCH  31  38
BRANCH  27  43
ATOM     43  C   UNK d   0     -14.230  -8.821   0.879  0.00  0.00     0.052 C 
BRANCH  43  44
ATOM     44  C   UNK d   0     -14.784 -10.180   0.598  0.00  0.00     0.115 C 
BRANCH  44  45
ATOM     45  C   UNK d   0     -14.669 -10.955   1.860  0.00  0.00     0.139 C 
ATOM     46  O   UNK d   0     -15.661 -10.980   2.631  0.00  0.00    -0.650 OA
BRANCH  45  47
ATOM     47  O   UNK d   0     -13.530 -11.645   2.213  0.00  0.00    -0.776 OA
ATOM     48  H   UNK d   0     -12.735 -11.781   1.568  0.00  0.00     0.167 HD
ENDBRANCH  45  47
ENDBRANCH  44  45
ENDBRANCH  43  44
ENDBRANCH  27  43
BRANCH  24  49
ATOM     49  C   UNK d   0     -14.756  -8.271   6.363  0.00  0.00     0.052 C 
BRANCH  49  50
ATOM     50  C   UNK d   0     -13.360  -8.619   5.914  0.00  0.00     0.115 C 
BRANCH  50  51
ATOM     51  C   UNK d   0     -13.197  -9.839   5.135  0.00  0.00     0.139 C 
ATOM     52  O   UNK d   0     -12.243 -10.013   4.341  0.00  0.00    -0.650 OA
BRANCH  51  53
ATOM     53  O   UNK d   0     -14.126 -10.861   5.259  0.00  0.00    -0.776 OA
ATOM     54  H   UNK d   0     -15.020 -10.645   5.663  0.00  0.00     0.167 HD
ENDBRANCH  51  53
ENDBRANCH  50  51
ENDBRANCH  49  50
ENDBRANCH  24  49
BRANCH  21  55
ATOM     55  C   UNK d   0     -14.894  -5.539   7.800  0.00  0.00     0.151 C 
BRANCH  55  56
ATOM     56  C   UNK d   0     -16.102  -5.381   8.625  0.00  0.00     0.143 C 
ATOM     57  O   UNK d   0     -16.720  -6.349   9.110  0.00  0.00    -0.650 OA
BRANCH  56  58
ATOM     58  O   UNK d   0     -16.560  -4.086   8.863  0.00  0.00    -0.776 OA
ATOM     59  H   UNK d   0     -15.828  -3.408   9.141  0.00  0.00     0.167 HD
ENDBRANCH  56  58
ENDBRANCH  55  56
ENDBRANCH  21  55
BRANCH  18  60
ATOM     60  C   UNK d   0     -17.994  -1.432   6.273  0.00  0.00     0.151 C 
BRANCH  60  61
ATOM     61  C   UNK d   0     -19.034  -2.429   6.567  0.00  0.00     0.143 C 
ATOM     62  O   UNK d   0     -18.886  -3.510   7.138  0.00  0.00    -0.650 OA
BRANCH  61  63
ATOM     63  O   UNK d   0     -20.338  -2.085   6.136  0.00  0.00    -0.776 OA
ATOM     64  H   UNK d   0     -20.652  -1.130   6.146  0.00  0.00     0.167 HD
ENDBRANCH  61  63
ENDBRANCH  60  61
ENDBRANCH  18  60
BRANCH  14  65
ATOM     65  C   UNK d   0     -18.886   0.028   3.767  0.00  0.00     0.052 C 
BRANCH  65  66
ATOM     66  C   UNK d   0     -18.210   1.339   3.964  0.00  0.00     0.115 C 
BRANCH  66  67
ATOM     67  C   UNK d   0     -18.475   2.105   5.149  0.00  0.00     0.139 C 
ATOM     68  O   UNK d   0     -17.614   2.075   6.104  0.00  0.00    -0.650 OA
BRANCH  67  69
ATOM     69  O   UNK d   0     -19.582   2.909   5.415  0.00  0.00    -0.776 OA
ATOM     70  H   UNK d   0     -20.491   2.424   5.444  0.00  0.00     0.167 HD
ENDBRANCH  67  69
ENDBRANCH  66  67
ENDBRANCH  65  66
ENDBRANCH  14  65
ENDBRANCH   6   7
ENDBRANCH   5   6
ENDBRANCH   2   5
TORSDOF 28
ENDMDL
MODEL 16
REMARK VINA RESULT:      -6.0      5.454     10.159
REMARK  28 active torsions:
REMARK  status: ('A' for Active; 'I' for Inactive)
REMARK    1  A    between atoms: C_2  and  O_3 
REMARK    2  A    between atoms: C_2  and  C_4 
REMARK    3  A    between atoms: C_4  and  C_5 
REMARK    4  A    between atoms: C_5  and  C_6 
REMARK    5  A    between atoms: C_7  and  C_8 
REMARK    6  A    between atoms: C_8  and  C_9 
REMARK    7  A    between atoms: C_9  and  O_11 
REMARK    8  A    between atoms: C_28  and  C_29 
REMARK    9  A    between atoms: C_29  and  C_30 
REMARK   10  A    between atoms: C_30  and  O_32 
REMARK   11  A    between atoms: C_33  and  C_34 
REMARK   12  A    between atoms: C_34  and  C_35 
REMARK   13  A    between atoms: C_35  and  C_36 
REMARK   14  A    between atoms: C_36  and  O_38 
REMARK   15  A    between atoms: C_39  and  C_40 
REMARK   16  A    between atoms: C_40  and  C_41 
REMARK   17  A    between atoms: C_41  and  C_42 
REMARK   18  A    between atoms: C_42  and  O_44 
REMARK   19  A    between atoms: C_45  and  C_46 
REMARK   20  A    between atoms: C_46  and  C_47 
REMARK   21  A    between atoms: C_47  and  O_49 
REMARK   22  A    between atoms: C_50  and  C_51 
REMARK   23  A    between atoms: C_51  and  C_52 
REMARK   24  A    between atoms: C_52  and  O_54 
REMARK   25  A    between atoms: C_55  and  C_56 
REMARK   26  A    between atoms: C_56  and  C_57 
REMARK   27  A    between atoms: C_57  and  C_58 
REMARK   28  A    between atoms: C_58  and  O_60 
ROOT
ATOM      1  O   UNK d   0      11.898 -18.033   6.325  0.00  0.00    -0.650 OA
ATOM      2  C   UNK d   0      12.835 -17.254   6.609  0.00  0.00     0.139 C 
ENDROOT
BRANCH   2   3
ATOM      3  O   UNK d   0      14.115 -17.571   6.223  0.00  0.00    -0.776 OA
ATOM      4  H   UNK d   0      14.345 -17.734   5.240  0.00  0.00     0.167 HD
ENDBRANCH   2   3
BRANCH   2   5
ATOM      5  C   UNK d   0      12.560 -15.995   7.359  0.00  0.00     0.115 C 
BRANCH   5   6
ATOM      6  C   UNK d   0      13.764 -15.094   7.314  0.00  0.00     0.052 C 
BRANCH   6   7
ATOM      7  C   UNK d   0      13.457 -13.744   6.711  0.00  0.00    -0.020 A 
ATOM      8  C   UNK d   0      13.066 -12.661   7.335  0.00  0.00    -0.011 A 
ATOM      9  C   UNK d   0      12.887 -11.616   6.341  0.00  0.00     0.067 A 
ATOM     10  C   UNK d   0      12.516 -10.262   6.351  0.00  0.00     0.062 C 
ATOM     11  N   UNK d   0      13.185 -12.151   5.138  0.00  0.00    -0.248 NA
ATOM     12  C   UNK d   0      12.669  -9.334   5.316  0.00  0.00     0.041 A 
ATOM     13  N   UNK d   0      12.453  -9.440   3.991  0.00  0.00    -0.355 N 
ATOM     14  C   UNK d   0      13.184  -8.059   5.615  0.00  0.00    -0.022 A 
ATOM     15  C   UNK d   0      12.824  -8.269   3.441  0.00  0.00     0.042 A 
ATOM     16  H   UNK d   0      12.027 -10.319   3.458  0.00  0.00     0.166 HD
ATOM     17  C   UNK d   0      12.806  -7.844   2.097  0.00  0.00     0.062 C 
ATOM     18  C   UNK d   0      13.289  -7.378   4.428  0.00  0.00    -0.013 A 
ATOM     19  C   UNK d   0      13.207  -8.520   0.973  0.00  0.00     0.067 A 
ATOM     20  N   UNK d   0      13.471  -9.822   1.112  0.00  0.00    -0.248 NA
ATOM     21  C   UNK d   0      13.453  -8.180  -0.418  0.00  0.00    -0.011 A 
ATOM     22  C   UNK d   0      13.873 -10.357  -0.087  0.00  0.00     0.066 A 
ATOM     23  C   UNK d   0      14.145 -11.718  -0.094  0.00  0.00     0.062 C 
ATOM     24  C   UNK d   0      13.846  -9.259  -1.032  0.00  0.00    -0.020 A 
ATOM     25  C   UNK d   0      13.972 -12.635   0.954  0.00  0.00     0.041 A 
ATOM     26  N   UNK d   0      14.201 -12.535   2.269  0.00  0.00    -0.355 N 
ATOM     27  C   UNK d   0      13.451 -13.913   0.654  0.00  0.00    -0.022 A 
ATOM     28  C   UNK d   0      13.840 -13.705   2.819  0.00  0.00     0.042 A 
ATOM     29  H   UNK d   0      14.639 -11.655   2.802  0.00  0.00     0.166 HD
ATOM     30  C   UNK d   0      13.862 -14.144   4.152  0.00  0.00     0.062 C 
ATOM     31  C   UNK d   0      13.363 -14.595   1.828  0.00  0.00    -0.013 A 
ATOM     32  C   UNK d   0      13.536 -13.428   5.293  0.00  0.00     0.066 A 
BRANCH   8  33
ATOM     33  C   UNK d   0      12.837 -12.509   8.783  0.00  0.00     0.151 C 
BRANCH  33  34
ATOM     34  C   UNK d   0      11.407 -12.542   9.141  0.00  0.00     0.143 C 
ATOM     35  O   UNK d   0      10.830 -13.617   9.358  0.00  0.00    -0.650 OA
BRANCH  34  36
ATOM     36  O   UNK d   0      10.706 -11.361   9.233  0.00  0.00    -0.776 OA
ATOM     37  H   UNK d   0      11.191 -10.455   9.279  0.00  0.00     0.167 HD
ENDBRANCH  34  36
ENDBRANCH  33  34
ENDBRANCH   8  33
BRANCH  31  38
ATOM     38  C   UNK d   0      12.846 -16.004   2.003  0.00  0.00     0.151 C 
BRANCH  38  39
ATOM     39  C   UNK d   0      13.903 -16.966   2.234  0.00  0.00     0.143 C 
ATOM     40  O   UNK d   0      13.900 -17.736   3.211  0.00  0.00    -0.650 OA
BRANCH  39  41
ATOM     41  O   UNK d   0      14.969 -17.043   1.338  0.00  0.00    -0.776 OA
ATOM     42  H   UNK d   0      15.791 -17.573   1.643  0.00  0.00     0.167 HD
ENDBRANCH  39  41
ENDBRANCH  38  39
ENDBRANCH  31  38
BRANCH  27  43
ATOM     43  C   UNK d   0      13.046 -14.494  -0.678  0.00  0.00     0.052 C 
BRANCH  43  44
ATOM     44  C   UNK d   0      11.571 -14.453  -0.916  0.00  0.00     0.115 C 
BRANCH  44  45
ATOM     45  C   UNK d   0      11.316 -13.288  -1.802  0.00  0.00     0.139 C 
ATOM     46  O   UNK d   0      10.915 -12.221  -1.275  0.00  0.00    -0.650 OA
BRANCH  45  47
ATOM     47  O   UNK d   0      11.505 -13.331  -3.166  0.00  0.00    -0.776 OA
ATOM     48  H   UNK d   0      12.429 -13.492  -3.599  0.00  0.00     0.167 HD
ENDBRANCH  45  47
ENDBRANCH  44  45
ENDBRANCH  43  44
ENDBRANCH  27  43
BRANCH  24  49
ATOM     49  C   UNK d   0      14.167  -9.374  -2.465  0.00  0.00     0.052 C 
BRANCH  49  50
ATOM     50  C   UNK d   0      13.100 -10.164  -3.179  0.00  0.00     0.115 C 
BRANCH  50  51
ATOM     51  C   UNK d   0      11.956  -9.422  -3.692  0.00  0.00     0.139 C 
ATOM     52  O   UNK d   0      10.824  -9.469  -3.155  0.00  0.00    -0.650 OA
BRANCH  51  53
ATOM     53  O   UNK d   0      12.101  -8.629  -4.820  0.00  0.00    -0.776 OA
ATOM     54  H   UNK d   0      12.813  -8.875  -5.485  0.00  0.00     0.167 HD
ENDBRANCH  51  53
ENDBRANCH  50  51
ENDBRANCH  49  50
ENDBRANCH  24  49
BRANCH  21  55
ATOM     55  C   UNK d   0      13.264  -6.814  -0.990  0.00  0.00     0.151 C 
BRANCH  55  56
ATOM     56  C   UNK d   0      11.866  -6.564  -1.371  0.00  0.00     0.143 C 
ATOM     57  O   UNK d   0      10.950  -6.440  -0.534  0.00  0.00    -0.650 OA
BRANCH  56  58
ATOM     58  O   UNK d   0      11.571  -6.464  -2.730  0.00  0.00    -0.776 OA
ATOM     59  H   UNK d   0      11.386  -5.502  -3.067  0.00  0.00     0.167 HD
ENDBRANCH  56  58
ENDBRANCH  55  56
ENDBRANCH  21  55
BRANCH  18  60
ATOM     60  C   UNK d   0      13.807  -5.969   4.283  0.00  0.00     0.151 C 
BRANCH  60  61
ATOM     61  C   UNK d   0      15.274  -6.076   4.277  0.00  0.00     0.143 C 
ATOM     62  O   UNK d   0      16.071  -5.379   4.905  0.00  0.00    -0.650 OA
BRANCH  61  63
ATOM     63  O   UNK d   0      15.799  -7.100   3.453  0.00  0.00    -0.776 OA
ATOM     64  H   UNK d   0      15.709  -7.059   2.453  0.00  0.00     0.167 HD
ENDBRANCH  61  63
ENDBRANCH  60  61
ENDBRANCH  18  60
BRANCH  14  65
ATOM     65  C   UNK d   0      13.488  -7.409   6.934  0.00  0.00     0.052 C 
BRANCH  65  66
ATOM     66  C   UNK d   0      14.904  -7.584   7.356  0.00  0.00     0.115 C 
BRANCH  66  67
ATOM     67  C   UNK d   0      15.626  -8.759   6.956  0.00  0.00     0.139 C 
ATOM     68  O   UNK d   0      16.385  -8.690   5.921  0.00  0.00    -0.650 OA
BRANCH  67  69
ATOM     69  O   UNK d   0      15.614 -10.015   7.562  0.00  0.00    -0.776 OA
ATOM     70  H   UNK d   0      16.477 -10.282   8.057  0.00  0.00     0.167 HD
ENDBRANCH  67  69
ENDBRANCH  66  67
ENDBRANCH  65  66
ENDBRANCH  14  65
ENDBRANCH   6   7
ENDBRANCH   5   6
ENDBRANCH   2   5
TORSDOF 28
ENDMDL
MODEL 17
REMARK VINA RESULT:      -6.0      6.092     11.045
REMARK  28 active torsions:
REMARK  status: ('A' for Active; 'I' for Inactive)
REMARK    1  A    between atoms: C_2  and  O_3 
REMARK    2  A    between atoms: C_2  and  C_4 
REMARK    3  A    between atoms: C_4  and  C_5 
REMARK    4  A    between atoms: C_5  and  C_6 
REMARK    5  A    between atoms: C_7  and  C_8 
REMARK    6  A    between atoms: C_8  and  C_9 
REMARK    7  A    between atoms: C_9  and  O_11 
REMARK    8  A    between atoms: C_28  and  C_29 
REMARK    9  A    between atoms: C_29  and  C_30 
REMARK   10  A    between atoms: C_30  and  O_32 
REMARK   11  A    between atoms: C_33  and  C_34 
REMARK   12  A    between atoms: C_34  and  C_35 
REMARK   13  A    between atoms: C_35  and  C_36 
REMARK   14  A    between atoms: C_36  and  O_38 
REMARK   15  A    between atoms: C_39  and  C_40 
REMARK   16  A    between atoms: C_40  and  C_41 
REMARK   17  A    between atoms: C_41  and  C_42 
REMARK   18  A    between atoms: C_42  and  O_44 
REMARK   19  A    between atoms: C_45  and  C_46 
REMARK   20  A    between atoms: C_46  and  C_47 
REMARK   21  A    between atoms: C_47  and  O_49 
REMARK   22  A    between atoms: C_50  and  C_51 
REMARK   23  A    between atoms: C_51  and  C_52 
REMARK   24  A    between atoms: C_52  and  O_54 
REMARK   25  A    between atoms: C_55  and  C_56 
REMARK   26  A    between atoms: C_56  and  C_57 
REMARK   27  A    between atoms: C_57  and  C_58 
REMARK   28  A    between atoms: C_58  and  O_60 
ROOT
ATOM      1  O   UNK d   0      14.793 -11.695  11.457  0.00  0.00    -0.650 OA
ATOM      2  C   UNK d   0      14.190 -12.420  10.634  0.00  0.00     0.139 C 
ENDROOT
BRANCH   2   3
ATOM      3  O   UNK d   0      14.036 -13.758  10.902  0.00  0.00    -0.776 OA
ATOM      4  H   UNK d   0      14.375 -14.469  10.251  0.00  0.00     0.167 HD
ENDBRANCH   2   3
BRANCH   2   5
ATOM      5  C   UNK d   0      13.646 -11.832   9.377  0.00  0.00     0.115 C 
BRANCH   5   6
ATOM      6  C   UNK d   0      14.738 -11.122   8.623  0.00  0.00     0.052 C 
BRANCH   6   7
ATOM      7  C   UNK d   0      14.345 -10.795   7.202  0.00  0.00    -0.020 A 
ATOM      8  C   UNK d   0      14.146  -9.611   6.681  0.00  0.00    -0.011 A 
ATOM      9  C   UNK d   0      13.777  -9.795   5.288  0.00  0.00     0.067 A 
ATOM     10  C   UNK d   0      13.464  -8.959   4.204  0.00  0.00     0.062 C 
ATOM     11  N   UNK d   0      13.770 -11.123   5.046  0.00  0.00    -0.248 NA
ATOM     12  C   UNK d   0      13.404  -9.311   2.852  0.00  0.00     0.041 A 
ATOM     13  N   UNK d   0      12.883 -10.392   2.240  0.00  0.00    -0.355 N 
ATOM     14  C   UNK d   0      14.017  -8.473   1.902  0.00  0.00    -0.022 A 
ATOM     15  C   UNK d   0      13.157 -10.265   0.927  0.00  0.00     0.042 A 
ATOM     16  H   UNK d   0      12.317 -11.218   2.723  0.00  0.00     0.166 HD
ATOM     17  C   UNK d   0      12.841 -11.107  -0.157  0.00  0.00     0.062 C 
ATOM     18  C   UNK d   0      13.867  -9.074   0.677  0.00  0.00    -0.013 A 
ATOM     19  C   UNK d   0      12.948 -12.472  -0.248  0.00  0.00     0.067 A 
ATOM     20  N   UNK d   0      13.193 -13.136   0.884  0.00  0.00    -0.248 NA
ATOM     21  C   UNK d   0      12.876 -13.456  -1.315  0.00  0.00    -0.011 A 
ATOM     22  C   UNK d   0      13.288 -14.483   0.635  0.00  0.00     0.066 A 
ATOM     23  C   UNK d   0      13.505 -15.300   1.735  0.00  0.00     0.062 C 
ATOM     24  C   UNK d   0      13.080 -14.631  -0.792  0.00  0.00    -0.020 A 
ATOM     25  C   UNK d   0      13.549 -14.928   3.087  0.00  0.00     0.041 A 
ATOM     26  N   UNK d   0      14.080 -13.861   3.698  0.00  0.00    -0.355 N 
ATOM     27  C   UNK d   0      12.930 -15.767   4.039  0.00  0.00    -0.022 A 
ATOM     28  C   UNK d   0      13.816 -13.990   5.008  0.00  0.00     0.042 A 
ATOM     29  H   UNK d   0      14.658 -13.037   3.212  0.00  0.00     0.166 HD
ATOM     30  C   UNK d   0      14.132 -13.164   6.098  0.00  0.00     0.062 C 
ATOM     31  C   UNK d   0      13.094 -15.181   5.256  0.00  0.00    -0.013 A 
ATOM     32  C   UNK d   0      14.104 -11.780   6.158  0.00  0.00     0.066 A 
BRANCH   8  33
ATOM     33  C   UNK d   0      14.264  -8.311   7.368  0.00  0.00     0.151 C 
BRANCH  33  34
ATOM     34  C   UNK d   0      15.551  -7.643   7.106  0.00  0.00     0.143 C 
ATOM     35  O   UNK d   0      16.525  -8.281   6.683  0.00  0.00    -0.650 OA
BRANCH  34  36
ATOM     36  O   UNK d   0      15.670  -6.292   7.338  0.00  0.00    -0.776 OA
ATOM     37  H   UNK d   0      16.386  -5.729   6.859  0.00  0.00     0.167 HD
ENDBRANCH  34  36
ENDBRANCH  33  34
ENDBRANCH   8  33
BRANCH  31  38
ATOM     38  C   UNK d   0      12.584 -15.711   6.577  0.00  0.00     0.151 C 
BRANCH  38  39
ATOM     39  C   UNK d   0      13.646 -16.187   7.438  0.00  0.00     0.143 C 
ATOM     40  O   UNK d   0      14.441 -17.076   7.084  0.00  0.00    -0.650 OA
BRANCH  39  41
ATOM     41  O   UNK d   0      13.794 -15.639   8.711  0.00  0.00    -0.776 OA
ATOM     42  H   UNK d   0      12.961 -15.622   9.307  0.00  0.00     0.167 HD
ENDBRANCH  39  41
ENDBRANCH  38  39
ENDBRANCH  31  38
BRANCH  27  43
ATOM     43  C   UNK d   0      12.208 -17.076   3.837  0.00  0.00     0.052 C 
BRANCH  43  44
ATOM     44  C   UNK d   0      13.100 -18.268   3.960  0.00  0.00     0.115 C 
BRANCH  44  45
ATOM     45  C   UNK d   0      13.299 -18.793   2.584  0.00  0.00     0.139 C 
ATOM     46  O   UNK d   0      12.319 -18.784   1.800  0.00  0.00    -0.650 OA
BRANCH  45  47
ATOM     47  O   UNK d   0      14.509 -19.280   2.138  0.00  0.00    -0.776 OA
ATOM     48  H   UNK d   0      14.791 -19.253   1.145  0.00  0.00     0.167 HD
ENDBRANCH  45  47
ENDBRANCH  44  45
ENDBRANCH  43  44
ENDBRANCH  27  43
BRANCH  24  49
ATOM     49  C   UNK d   0      13.056 -15.917  -1.510  0.00  0.00     0.052 C 
BRANCH  49  50
ATOM     50  C   UNK d   0      14.455 -16.456  -1.668  0.00  0.00     0.115 C 
BRANCH  50  51
ATOM     51  C   UNK d   0      14.830 -17.587  -0.831  0.00  0.00     0.139 C 
ATOM     52  O   UNK d   0      14.281 -18.709  -0.924  0.00  0.00    -0.650 OA
BRANCH  51  53
ATOM     53  O   UNK d   0      15.832 -17.436   0.116  0.00  0.00    -0.776 OA
ATOM     54  H   UNK d   0      15.587 -17.047   1.010  0.00  0.00     0.167 HD
ENDBRANCH  51  53
ENDBRANCH  50  51
ENDBRANCH  49  50
ENDBRANCH  24  49
BRANCH  21  55
ATOM     55  C   UNK d   0      12.606 -13.121  -2.744  0.00  0.00     0.151 C 
BRANCH  55  56
ATOM     56  C   UNK d   0      13.820 -12.672  -3.444  0.00  0.00     0.143 C 
ATOM     57  O   UNK d   0      14.765 -13.439  -3.716  0.00  0.00    -0.650 OA
BRANCH  56  58
ATOM     58  O   UNK d   0      13.899 -11.330  -3.811  0.00  0.00    -0.776 OA
ATOM     59  H   UNK d   0      14.852 -10.924  -3.778  0.00  0.00     0.167 HD
ENDBRANCH  56  58
ENDBRANCH  55  56
ENDBRANCH  21  55
BRANCH  18  60
ATOM     60  C   UNK d   0      14.384  -8.520  -0.627  0.00  0.00     0.151 C 
BRANCH  60  61
ATOM     61  C   UNK d   0      15.552  -9.341  -0.980  0.00  0.00     0.143 C 
ATOM     62  O   UNK d   0      15.705 -10.015  -1.999  0.00  0.00    -0.650 OA
BRANCH  61  63
ATOM     63  O   UNK d   0      16.600  -9.338  -0.027  0.00  0.00    -0.776 OA
ATOM     64  H   UNK d   0      17.552  -9.501  -0.304  0.00  0.00     0.167 HD
ENDBRANCH  61  63
ENDBRANCH  60  61
ENDBRANCH  18  60
BRANCH  14  65
ATOM     65  C   UNK d   0      14.640  -7.115   2.050  0.00  0.00     0.052 C 
BRANCH  65  66
ATOM     66  C   UNK d   0      16.000  -7.161   2.653  0.00  0.00     0.115 C 
BRANCH  66  67
ATOM     67  C   UNK d   0      16.322  -6.293   3.750  0.00  0.00     0.139 C 
ATOM     68  O   UNK d   0      15.364  -5.677   4.347  0.00  0.00    -0.650 OA
BRANCH  67  69
ATOM     69  O   UNK d   0      17.583  -6.015   4.276  0.00  0.00    -0.776 OA
ATOM     70  H   UNK d   0      18.310  -5.767   3.590  0.00  0.00     0.167 HD
ENDBRANCH  67  69
ENDBRANCH  66  67
ENDBRANCH  65  66
ENDBRANCH  14  65
ENDBRANCH   6   7
ENDBRANCH   5   6
ENDBRANCH   2   5
TORSDOF 28
ENDMDL
MODEL 18
REMARK VINA RESULT:      -6.0      4.677     10.858
REMARK  28 active torsions:
REMARK  status: ('A' for Active; 'I' for Inactive)
REMARK    1  A    between atoms: C_2  and  O_3 
REMARK    2  A    between atoms: C_2  and  C_4 
REMARK    3  A    between atoms: C_4  and  C_5 
REMARK    4  A    between atoms: C_5  and  C_6 
REMARK    5  A    between atoms: C_7  and  C_8 
REMARK    6  A    between atoms: C_8  and  C_9 
REMARK    7  A    between atoms: C_9  and  O_11 
REMARK    8  A    between atoms: C_28  and  C_29 
REMARK    9  A    between atoms: C_29  and  C_30 
REMARK   10  A    between atoms: C_30  and  O_32 
REMARK   11  A    between atoms: C_33  and  C_34 
REMARK   12  A    between atoms: C_34  and  C_35 
REMARK   13  A    between atoms: C_35  and  C_36 
REMARK   14  A    between atoms: C_36  and  O_38 
REMARK   15  A    between atoms: C_39  and  C_40 
REMARK   16  A    between atoms: C_40  and  C_41 
REMARK   17  A    between atoms: C_41  and  C_42 
REMARK   18  A    between atoms: C_42  and  O_44 
REMARK   19  A    between atoms: C_45  and  C_46 
REMARK   20  A    between atoms: C_46  and  C_47 
REMARK   21  A    between atoms: C_47  and  O_49 
REMARK   22  A    between atoms: C_50  and  C_51 
REMARK   23  A    between atoms: C_51  and  C_52 
REMARK   24  A    between atoms: C_52  and  O_54 
REMARK   25  A    between atoms: C_55  and  C_56 
REMARK   26  A    between atoms: C_56  and  C_57 
REMARK   27  A    between atoms: C_57  and  C_58 
REMARK   28  A    between atoms: C_58  and  O_60 
ROOT
ATOM      1  O   UNK d   0      12.202 -12.952  10.890  0.00  0.00    -0.650 OA
ATOM      2  C   UNK d   0      13.360 -12.509  10.723  0.00  0.00     0.139 C 
ENDROOT
BRANCH   2   3
ATOM      3  O   UNK d   0      14.320 -12.759  11.674  0.00  0.00    -0.776 OA
ATOM      4  H   UNK d   0      14.506 -12.090  12.424  0.00  0.00     0.167 HD
ENDBRANCH   2   3
BRANCH   2   5
ATOM      5  C   UNK d   0      13.690 -11.719   9.504  0.00  0.00     0.115 C 
BRANCH   5   6
ATOM      6  C   UNK d   0      12.429 -11.336   8.778  0.00  0.00     0.052 C 
BRANCH   6   7
ATOM      7  C   UNK d   0      12.666 -11.047   7.314  0.00  0.00    -0.020 A 
ATOM      8  C   UNK d   0      12.705  -9.878   6.728  0.00  0.00    -0.011 A 
ATOM      9  C   UNK d   0      12.952 -10.099   5.312  0.00  0.00     0.067 A 
ATOM     10  C   UNK d   0      13.121  -9.292   4.176  0.00  0.00     0.062 C 
ATOM     11  N   UNK d   0      13.043 -11.432   5.125  0.00  0.00    -0.248 NA
ATOM     12  C   UNK d   0      13.631  -9.678   2.932  0.00  0.00     0.041 A 
ATOM     13  N   UNK d   0      13.411 -10.777   2.186  0.00  0.00    -0.355 N 
ATOM     14  C   UNK d   0      14.586  -8.858   2.303  0.00  0.00    -0.022 A 
ATOM     15  C   UNK d   0      14.207 -10.680   1.105  0.00  0.00     0.042 A 
ATOM     16  H   UNK d   0      12.692 -11.596   2.410  0.00  0.00     0.166 HD
ATOM     17  C   UNK d   0      14.372 -11.552   0.010  0.00  0.00     0.062 C 
ATOM     18  C   UNK d   0      14.959  -9.490   1.144  0.00  0.00    -0.013 A 
ATOM     19  C   UNK d   0      14.504 -12.917   0.007  0.00  0.00     0.067 A 
ATOM     20  N   UNK d   0      14.253 -13.551   1.155  0.00  0.00    -0.248 NA
ATOM     21  C   UNK d   0      14.882 -13.928  -0.966  0.00  0.00    -0.011 A 
ATOM     22  C   UNK d   0      14.440 -14.903   1.003  0.00  0.00     0.066 A 
ATOM     23  C   UNK d   0      14.176 -15.691   2.114  0.00  0.00     0.062 C 
ATOM     24  C   UNK d   0      14.847 -15.087  -0.376  0.00  0.00    -0.020 A 
ATOM     25  C   UNK d   0      13.653 -15.285   3.352  0.00  0.00     0.041 A 
ATOM     26  N   UNK d   0      13.882 -14.200   4.100  0.00  0.00    -0.355 N 
ATOM     27  C   UNK d   0      12.691 -16.107   3.979  0.00  0.00    -0.022 A 
ATOM     28  C   UNK d   0      13.096 -14.299   5.183  0.00  0.00     0.042 A 
ATOM     29  H   UNK d   0      14.612 -13.383   3.879  0.00  0.00     0.166 HD
ATOM     30  C   UNK d   0      12.929 -13.444   6.284  0.00  0.00     0.062 C 
ATOM     31  C   UNK d   0      12.332 -15.490   5.138  0.00  0.00    -0.013 A 
ATOM     32  C   UNK d   0      12.881 -12.059   6.291  0.00  0.00     0.066 A 
BRANCH   8  33
ATOM     33  C   UNK d   0      12.529  -8.561   7.367  0.00  0.00     0.151 C 
BRANCH  33  34
ATOM     34  C   UNK d   0      13.773  -7.771   7.399  0.00  0.00     0.143 C 
ATOM     35  O   UNK d   0      13.786  -6.589   7.027  0.00  0.00    -0.650 OA
BRANCH  34  36
ATOM     36  O   UNK d   0      14.934  -8.357   7.848  0.00  0.00    -0.776 OA
ATOM     37  H   UNK d   0      15.643  -7.815   8.360  0.00  0.00     0.167 HD
ENDBRANCH  34  36
ENDBRANCH  33  34
ENDBRANCH   8  33
BRANCH  31  38
ATOM     38  C   UNK d   0      11.317 -15.991   6.138  0.00  0.00     0.151 C 
BRANCH  38  39
ATOM     39  C   UNK d   0       9.992 -15.456   5.910  0.00  0.00     0.143 C 
ATOM     40  O   UNK d   0       9.547 -14.486   6.550  0.00  0.00    -0.650 OA
BRANCH  39  41
ATOM     41  O   UNK d   0       9.174 -16.038   4.942  0.00  0.00    -0.776 OA
ATOM     42  H   UNK d   0       9.427 -15.869   3.963  0.00  0.00     0.167 HD
ENDBRANCH  39  41
ENDBRANCH  38  39
ENDBRANCH  31  38
BRANCH  27  43
ATOM     43  C   UNK d   0      12.116 -17.426   3.528  0.00  0.00     0.052 C 
BRANCH  43  44
ATOM     44  C   UNK d   0      12.615 -18.590   4.322  0.00  0.00     0.115 C 
BRANCH  44  45
ATOM     45  C   UNK d   0      13.757 -19.163   3.562  0.00  0.00     0.139 C 
ATOM     46  O   UNK d   0      13.688 -19.173   2.308  0.00  0.00    -0.650 OA
BRANCH  45  47
ATOM     47  O   UNK d   0      14.880 -19.675   4.174  0.00  0.00    -0.776 OA
ATOM     48  H   UNK d   0      15.052 -20.689   4.272  0.00  0.00     0.167 HD
ENDBRANCH  45  47
ENDBRANCH  44  45
ENDBRANCH  43  44
ENDBRANCH  27  43
BRANCH  24  49
ATOM     49  C   UNK d   0      15.122 -16.391  -1.005  0.00  0.00     0.052 C 
BRANCH  49  50
ATOM     50  C   UNK d   0      13.850 -17.188  -1.138  0.00  0.00     0.115 C 
BRANCH  50  51
ATOM     51  C   UNK d   0      12.873 -16.724  -2.114  0.00  0.00     0.139 C 
ATOM     52  O   UNK d   0      13.181 -16.437  -3.295  0.00  0.00    -0.650 OA
BRANCH  51  53
ATOM     53  O   UNK d   0      11.545 -16.584  -1.742  0.00  0.00    -0.776 OA
ATOM     54  H   UNK d   0      11.126 -17.312  -1.192  0.00  0.00     0.167 HD
ENDBRANCH  51  53
ENDBRANCH  50  51
ENDBRANCH  49  50
ENDBRANCH  24  49
BRANCH  21  55
ATOM     55  C   UNK d   0      15.234 -13.629  -2.386  0.00  0.00     0.151 C 
BRANCH  55  56
ATOM     56  C   UNK d   0      16.532 -12.947  -2.500  0.00  0.00     0.143 C 
ATOM     57  O   UNK d   0      16.670 -11.850  -3.077  0.00  0.00    -0.650 OA
BRANCH  56  58
ATOM     58  O   UNK d   0      17.644 -13.568  -1.933  0.00  0.00    -0.776 OA
ATOM     59  H   UNK d   0      17.481 -13.989  -1.001  0.00  0.00     0.167 HD
ENDBRANCH  56  58
ENDBRANCH  55  56
ENDBRANCH  21  55
BRANCH  18  60
ATOM     60  C   UNK d   0      15.975  -8.963   0.160  0.00  0.00     0.151 C 
BRANCH  60  61
ATOM     61  C   UNK d   0      15.207  -8.510  -1.010  0.00  0.00     0.143 C 
ATOM     62  O   UNK d   0      15.367  -8.857  -2.181  0.00  0.00    -0.650 OA
BRANCH  61  63
ATOM     63  O   UNK d   0      14.180  -7.576  -0.732  0.00  0.00    -0.776 OA
ATOM     64  H   UNK d   0      13.637  -7.638   0.111  0.00  0.00     0.167 HD
ENDBRANCH  61  63
ENDBRANCH  60  61
ENDBRANCH  18  60
BRANCH  14  65
ATOM     65  C   UNK d   0      15.093  -7.490   2.663  0.00  0.00     0.052 C 
BRANCH  65  66
ATOM     66  C   UNK d   0      16.407  -7.522   3.360  0.00  0.00     0.115 C 
BRANCH  66  67
ATOM     67  C   UNK d   0      16.450  -7.593   4.794  0.00  0.00     0.139 C 
ATOM     68  O   UNK d   0      16.484  -8.752   5.350  0.00  0.00    -0.650 OA
BRANCH  67  69
ATOM     69  O   UNK d   0      16.461  -6.534   5.700  0.00  0.00    -0.776 OA
ATOM     70  H   UNK d   0      16.957  -5.685   5.392  0.00  0.00     0.167 HD
ENDBRANCH  67  69
ENDBRANCH  66  67
ENDBRANCH  65  66
ENDBRANCH  14  65
ENDBRANCH   6   7
ENDBRANCH   5   6
ENDBRANCH   2   5
TORSDOF 28
ENDMDL
MODEL 19
REMARK VINA RESULT:      -6.0      4.796     11.814
REMARK  28 active torsions:
REMARK  status: ('A' for Active; 'I' for Inactive)
REMARK    1  A    between atoms: C_2  and  O_3 
REMARK    2  A    between atoms: C_2  and  C_4 
REMARK    3  A    between atoms: C_4  and  C_5 
REMARK    4  A    between atoms: C_5  and  C_6 
REMARK    5  A    between atoms: C_7  and  C_8 
REMARK    6  A    between atoms: C_8  and  C_9 
REMARK    7  A    between atoms: C_9  and  O_11 
REMARK    8  A    between atoms: C_28  and  C_29 
REMARK    9  A    between atoms: C_29  and  C_30 
REMARK   10  A    between atoms: C_30  and  O_32 
REMARK   11  A    between atoms: C_33  and  C_34 
REMARK   12  A    between atoms: C_34  and  C_35 
REMARK   13  A    between atoms: C_35  and  C_36 
REMARK   14  A    between atoms: C_36  and  O_38 
REMARK   15  A    between atoms: C_39  and  C_40 
REMARK   16  A    between atoms: C_40  and  C_41 
REMARK   17  A    between atoms: C_41  and  C_42 
REMARK   18  A    between atoms: C_42  and  O_44 
REMARK   19  A    between atoms: C_45  and  C_46 
REMARK   20  A    between atoms: C_46  and  C_47 
REMARK   21  A    between atoms: C_47  and  O_49 
REMARK   22  A    between atoms: C_50  and  C_51 
REMARK   23  A    between atoms: C_51  and  C_52 
REMARK   24  A    between atoms: C_52  and  O_54 
REMARK   25  A    between atoms: C_55  and  C_56 
REMARK   26  A    between atoms: C_56  and  C_57 
REMARK   27  A    between atoms: C_57  and  C_58 
REMARK   28  A    between atoms: C_58  and  O_60 
ROOT
ATOM      1  O   UNK d   0      13.422  -6.530   5.904  0.00  0.00    -0.650 OA
ATOM      2  C   UNK d   0      12.283  -6.743   6.377  0.00  0.00     0.139 C 
ENDROOT
BRANCH   2   3
ATOM      3  O   UNK d   0      11.378  -5.712   6.445  0.00  0.00    -0.776 OA
ATOM      4  H   UNK d   0      10.408  -5.879   6.722  0.00  0.00     0.167 HD
ENDBRANCH   2   3
BRANCH   2   5
ATOM      5  C   UNK d   0      11.917  -8.105   6.861  0.00  0.00     0.115 C 
BRANCH   5   6
ATOM      6  C   UNK d   0      13.149  -8.843   7.311  0.00  0.00     0.052 C 
BRANCH   6   7
ATOM      7  C   UNK d   0      13.295 -10.190   6.645  0.00  0.00    -0.020 A 
ATOM      8  C   UNK d   0      13.508 -11.346   7.221  0.00  0.00    -0.011 A 
ATOM      9  C   UNK d   0      13.585 -12.355   6.178  0.00  0.00     0.067 A 
ATOM     10  C   UNK d   0      13.768 -13.746   6.126  0.00  0.00     0.062 C 
ATOM     11  N   UNK d   0      13.413 -11.725   4.997  0.00  0.00    -0.248 NA
ATOM     12  C   UNK d   0      13.534 -14.591   5.036  0.00  0.00     0.041 A 
ATOM     13  N   UNK d   0      13.818 -14.449   3.727  0.00  0.00    -0.355 N 
ATOM     14  C   UNK d   0      12.838 -15.796   5.246  0.00  0.00    -0.022 A 
ATOM     15  C   UNK d   0      13.313 -15.529   3.100  0.00  0.00     0.042 A 
ATOM     16  H   UNK d   0      14.380 -13.612   3.258  0.00  0.00     0.166 HD
ATOM     17  C   UNK d   0      13.331 -15.884   1.737  0.00  0.00     0.062 C 
ATOM     18  C   UNK d   0      12.692 -16.396   4.020  0.00  0.00    -0.013 A 
ATOM     19  C   UNK d   0      13.072 -15.104   0.639  0.00  0.00     0.067 A 
ATOM     20  N   UNK d   0      12.982 -13.787   0.841  0.00  0.00    -0.248 NA
ATOM     21  C   UNK d   0      12.841 -15.337  -0.777  0.00  0.00    -0.011 A 
ATOM     22  C   UNK d   0      12.707 -13.142  -0.340  0.00  0.00     0.066 A 
ATOM     23  C   UNK d   0      12.623 -11.758  -0.282  0.00  0.00     0.062 C 
ATOM     24  C   UNK d   0      12.623 -14.185  -1.343  0.00  0.00    -0.020 A 
ATOM     25  C   UNK d   0      12.875 -10.927   0.821  0.00  0.00     0.041 A 
ATOM     26  N   UNK d   0      12.579 -11.061   2.119  0.00  0.00    -0.355 N 
ATOM     27  C   UNK d   0      13.576  -9.720   0.610  0.00  0.00    -0.022 A 
ATOM     28  C   UNK d   0      13.073  -9.981   2.745  0.00  0.00     0.042 A 
ATOM     29  H   UNK d   0      12.004 -11.898   2.587  0.00  0.00     0.166 HD
ATOM     30  C   UNK d   0      13.055  -9.610   4.099  0.00  0.00     0.062 C 
ATOM     31  C   UNK d   0      13.707  -9.116   1.822  0.00  0.00    -0.013 A 
ATOM     32  C   UNK d   0      13.233 -10.420   5.210  0.00  0.00     0.066 A 
BRANCH   8  33
ATOM     33  C   UNK d   0      13.654 -11.601   8.666  0.00  0.00     0.151 C 
BRANCH  33  34
ATOM     34  C   UNK d   0      12.495 -12.308   9.240  0.00  0.00     0.143 C 
ATOM     35  O   UNK d   0      11.344 -11.879   9.078  0.00  0.00    -0.650 OA
BRANCH  34  36
ATOM     36  O   UNK d   0      12.698 -13.459   9.966  0.00  0.00    -0.776 OA
ATOM     37  H   UNK d   0      11.981 -14.196  10.010  0.00  0.00     0.167 HD
ENDBRANCH  34  36
ENDBRANCH  33  34
ENDBRANCH   8  33
BRANCH  31  38
ATOM     38  C   UNK d   0      14.403  -7.802   2.093  0.00  0.00     0.151 C 
BRANCH  38  39
ATOM     39  C   UNK d   0      13.480  -6.695   2.229  0.00  0.00     0.143 C 
ATOM     40  O   UNK d   0      12.414  -6.636   1.592  0.00  0.00    -0.650 OA
BRANCH  39  41
ATOM     41  O   UNK d   0      13.785  -5.651   3.102  0.00  0.00    -0.776 OA
ATOM     42  H   UNK d   0      14.429  -5.865   3.869  0.00  0.00     0.167 HD
ENDBRANCH  39  41
ENDBRANCH  38  39
ENDBRANCH  31  38
BRANCH  27  43
ATOM     43  C   UNK d   0      14.112  -9.135  -0.673  0.00  0.00     0.052 C 
BRANCH  43  44
ATOM     44  C   UNK d   0      15.579  -9.354  -0.855  0.00  0.00     0.115 C 
BRANCH  44  45
ATOM     45  C   UNK d   0      15.725 -10.526  -1.756  0.00  0.00     0.139 C 
ATOM     46  O   UNK d   0      15.616 -10.339  -2.993  0.00  0.00    -0.650 OA
BRANCH  45  47
ATOM     47  O   UNK d   0      15.978 -11.799  -1.292  0.00  0.00    -0.776 OA
ATOM     48  H   UNK d   0      16.309 -12.563  -1.903  0.00  0.00     0.167 HD
ENDBRANCH  45  47
ENDBRANCH  44  45
ENDBRANCH  43  44
ENDBRANCH  27  43
BRANCH  24  49
ATOM     49  C   UNK d   0      12.382 -13.954  -2.778  0.00  0.00     0.052 C 
BRANCH  49  50
ATOM     50  C   UNK d   0      13.483 -13.110  -3.367  0.00  0.00     0.115 C 
BRANCH  50  51
ATOM     51  C   UNK d   0      14.598 -13.811  -3.988  0.00  0.00     0.139 C 
ATOM     52  O   UNK d   0      14.449 -14.861  -4.656  0.00  0.00    -0.650 OA
BRANCH  51  53
ATOM     53  O   UNK d   0      15.885 -13.315  -3.845  0.00  0.00    -0.776 OA
ATOM     54  H   UNK d   0      16.320 -13.374  -2.942  0.00  0.00     0.167 HD
ENDBRANCH  51  53
ENDBRANCH  50  51
ENDBRANCH  49  50
ENDBRANCH  24  49
BRANCH  21  55
ATOM     55  C   UNK d   0      12.866 -16.685  -1.417  0.00  0.00     0.151 C 
BRANCH  55  56
ATOM     56  C   UNK d   0      14.217 -17.061  -1.859  0.00  0.00     0.143 C 
ATOM     57  O   UNK d   0      15.175 -17.186  -1.071  0.00  0.00    -0.650 OA
BRANCH  56  58
ATOM     58  O   UNK d   0      14.416 -17.283  -3.221  0.00  0.00    -0.776 OA
ATOM     59  H   UNK d   0      13.788 -16.747  -3.847  0.00  0.00     0.167 HD
ENDBRANCH  56  58
ENDBRANCH  55  56
ENDBRANCH  21  55
BRANCH  18  60
ATOM     60  C   UNK d   0      11.994 -17.711   3.779  0.00  0.00     0.151 C 
BRANCH  60  61
ATOM     61  C   UNK d   0      12.983 -18.755   4.085  0.00  0.00     0.143 C 
ATOM     62  O   UNK d   0      14.110 -18.873   3.603  0.00  0.00    -0.650 OA
BRANCH  61  63
ATOM     63  O   UNK d   0      12.571 -19.716   5.040  0.00  0.00    -0.776 OA
ATOM     64  H   UNK d   0      11.959 -19.465   5.796  0.00  0.00     0.167 HD
ENDBRANCH  61  63
ENDBRANCH  60  61
ENDBRANCH  18  60
BRANCH  14  65
ATOM     65  C   UNK d   0      12.394 -16.463   6.516  0.00  0.00     0.052 C 
BRANCH  65  66
ATOM     66  C   UNK d   0      10.949 -16.260   6.805  0.00  0.00     0.115 C 
BRANCH  66  67
ATOM     67  C   UNK d   0      10.523 -15.090   7.520  0.00  0.00     0.139 C 
ATOM     68  O   UNK d   0      10.244 -14.028   6.850  0.00  0.00    -0.650 OA
BRANCH  67  69
ATOM     69  O   UNK d   0      10.366 -14.942   8.898  0.00  0.00    -0.776 OA
ATOM     70  H   UNK d   0       9.509 -15.351   9.297  0.00  0.00     0.167 HD
ENDBRANCH  67  69
ENDBRANCH  66  67
ENDBRANCH  65  66
ENDBRANCH  14  65
ENDBRANCH   6   7
ENDBRANCH   5   6
ENDBRANCH   2   5
TORSDOF 28
ENDMDL
MODEL 20
REMARK VINA RESULT:      -6.0     13.740     18.290
REMARK  28 active torsions:
REMARK  status: ('A' for Active; 'I' for Inactive)
REMARK    1  A    between atoms: C_2  and  O_3 
REMARK    2  A    between atoms: C_2  and  C_4 
REMARK    3  A    between atoms: C_4  and  C_5 
REMARK    4  A    between atoms: C_5  and  C_6 
REMARK    5  A    between atoms: C_7  and  C_8 
REMARK    6  A    between atoms: C_8  and  C_9 
REMARK    7  A    between atoms: C_9  and  O_11 
REMARK    8  A    between atoms: C_28  and  C_29 
REMARK    9  A    between atoms: C_29  and  C_30 
REMARK   10  A    between atoms: C_30  and  O_32 
REMARK   11  A    between atoms: C_33  and  C_34 
REMARK   12  A    between atoms: C_34  and  C_35 
REMARK   13  A    between atoms: C_35  and  C_36 
REMARK   14  A    between atoms: C_36  and  O_38 
REMARK   15  A    between atoms: C_39  and  C_40 
REMARK   16  A    between atoms: C_40  and  C_41 
REMARK   17  A    between atoms: C_41  and  C_42 
REMARK   18  A    between atoms: C_42  and  O_44 
REMARK   19  A    between atoms: C_45  and  C_46 
REMARK   20  A    between atoms: C_46  and  C_47 
REMARK   21  A    between atoms: C_47  and  O_49 
REMARK   22  A    between atoms: C_50  and  C_51 
REMARK   23  A    between atoms: C_51  and  C_52 
REMARK   24  A    between atoms: C_52  and  O_54 
REMARK   25  A    between atoms: C_55  and  C_56 
REMARK   26  A    between atoms: C_56  and  C_57 
REMARK   27  A    between atoms: C_57  and  C_58 
REMARK   28  A    between atoms: C_58  and  O_60 
ROOT
ATOM      1  O   UNK d   0      17.498  -4.907   3.832  0.00  0.00    -0.650 OA
ATOM      2  C   UNK d   0      16.346  -4.513   4.122  0.00  0.00     0.139 C 
ENDROOT
BRANCH   2   3
ATOM      3  O   UNK d   0      15.703  -5.055   5.209  0.00  0.00    -0.776 OA
ATOM      4  H   UNK d   0      15.450  -6.045   5.233  0.00  0.00     0.167 HD
ENDBRANCH   2   3
BRANCH   2   5
ATOM      5  C   UNK d   0      15.682  -3.467   3.293  0.00  0.00     0.115 C 
BRANCH   5   6
ATOM      6  C   UNK d   0      14.224  -3.794   3.119  0.00  0.00     0.052 C 
BRANCH   6   7
ATOM      7  C   UNK d   0      13.863  -4.095   1.684  0.00  0.00    -0.020 A 
ATOM      8  C   UNK d   0      13.972  -5.237   1.056  0.00  0.00    -0.011 A 
ATOM      9  C   UNK d   0      13.512  -5.041  -0.309  0.00  0.00     0.067 A 
ATOM     10  C   UNK d   0      13.356  -5.843  -1.450  0.00  0.00     0.062 C 
ATOM     11  N   UNK d   0      13.146  -3.748  -0.426  0.00  0.00    -0.248 NA
ATOM     12  C   UNK d   0      12.630  -5.539  -2.607  0.00  0.00     0.041 A 
ATOM     13  N   UNK d   0      12.541  -4.404  -3.325  0.00  0.00    -0.355 N 
ATOM     14  C   UNK d   0      11.776  -6.516  -3.150  0.00  0.00    -0.022 A 
ATOM     15  C   UNK d   0      11.647  -4.633  -4.305  0.00  0.00     0.042 A 
ATOM     16  H   UNK d   0      13.113  -3.466  -3.154  0.00  0.00     0.166 HD
ATOM     17  C   UNK d   0      11.183  -3.788  -5.334  0.00  0.00     0.062 C 
ATOM     18  C   UNK d   0      11.146  -5.946  -4.228  0.00  0.00    -0.013 A 
ATOM     19  C   UNK d   0      10.795  -2.475  -5.262  0.00  0.00     0.067 A 
ATOM     20  N   UNK d   0      11.064  -1.826  -4.126  0.00  0.00    -0.248 NA
ATOM     21  C   UNK d   0      10.112  -1.537  -6.138  0.00  0.00    -0.011 A 
ATOM     22  C   UNK d   0      10.606  -0.533  -4.195  0.00  0.00     0.066 A 
ATOM     23  C   UNK d   0      10.854   0.269  -3.091  0.00  0.00     0.062 C 
ATOM     24  C   UNK d   0      10.001  -0.405  -5.506  0.00  0.00    -0.020 A 
ATOM     25  C   UNK d   0      11.597  -0.052  -1.944  0.00  0.00     0.041 A 
ATOM     26  N   UNK d   0      11.674  -1.175  -1.222  0.00  0.00    -0.355 N 
ATOM     27  C   UNK d   0      12.457   0.928  -1.402  0.00  0.00    -0.022 A 
ATOM     28  C   UNK d   0      12.558  -0.947  -0.238  0.00  0.00     0.042 A 
ATOM     29  H   UNK d   0      11.091  -2.114  -1.389  0.00  0.00     0.166 HD
ATOM     30  C   UNK d   0      13.022  -1.774   0.797  0.00  0.00     0.062 C 
ATOM     31  C   UNK d   0      13.070   0.370  -0.322  0.00  0.00    -0.013 A 
ATOM     32  C   UNK d   0      13.333  -3.124   0.738  0.00  0.00     0.066 A 
BRANCH   8  33
ATOM     33  C   UNK d   0      14.475  -6.508   1.611  0.00  0.00     0.151 C 
BRANCH  33  34
ATOM     34  C   UNK d   0      13.418  -7.525   1.756  0.00  0.00     0.143 C 
ATOM     35  O   UNK d   0      13.577  -8.674   1.321  0.00  0.00    -0.650 OA
BRANCH  34  36
ATOM     36  O   UNK d   0      12.241  -7.190   2.383  0.00  0.00    -0.776 OA
ATOM     37  H   UNK d   0      11.425  -7.818   2.359  0.00  0.00     0.167 HD
ENDBRANCH  34  36
ENDBRANCH  33  34
ENDBRANCH   8  33
BRANCH  31  38
ATOM     38  C   UNK d   0      14.089   1.039   0.569  0.00  0.00     0.151 C 
BRANCH  38  39
ATOM     39  C   UNK d   0      13.484   1.809   1.635  0.00  0.00     0.143 C 
ATOM     40  O   UNK d   0      12.380   1.514   2.126  0.00  0.00    -0.650 OA
BRANCH  39  41
ATOM     41  O   UNK d   0      14.151   2.925   2.140  0.00  0.00    -0.776 OA
ATOM     42  H   UNK d   0      15.112   2.780   2.466  0.00  0.00     0.167 HD
ENDBRANCH  39  41
ENDBRANCH  38  39
ENDBRANCH  31  38
BRANCH  27  43
ATOM     43  C   UNK d   0      12.709   2.343  -1.861  0.00  0.00     0.052 C 
BRANCH  43  44
ATOM     44  C   UNK d   0      14.018   2.512  -2.562  0.00  0.00     0.115 C 
BRANCH  44  45
ATOM     45  C   UNK d   0      13.729   2.465  -4.019  0.00  0.00     0.139 C 
ATOM     46  O   UNK d   0      14.121   1.464  -4.668  0.00  0.00    -0.650 OA
BRANCH  45  47
ATOM     47  O   UNK d   0      13.048   3.465  -4.678  0.00  0.00    -0.776 OA
ATOM     48  H   UNK d   0      12.044   3.400  -4.912  0.00  0.00     0.167 HD
ENDBRANCH  45  47
ENDBRANCH  44  45
ENDBRANCH  43  44
ENDBRANCH  27  43
BRANCH  24  49
ATOM     49  C   UNK d   0       9.406   0.833  -6.040  0.00  0.00     0.052 C 
BRANCH  49  50
ATOM     50  C   UNK d   0      10.468   1.886  -6.229  0.00  0.00     0.115 C 
BRANCH  50  51
ATOM     51  C   UNK d   0      11.423   1.681  -7.310  0.00  0.00     0.139 C 
ATOM     52  O   UNK d   0      11.114   1.809  -8.518  0.00  0.00    -0.650 OA
BRANCH  51  53
ATOM     53  O   UNK d   0      12.730   1.328  -7.013  0.00  0.00    -0.776 OA
ATOM     54  H   UNK d   0      12.915   0.895  -6.125  0.00  0.00     0.167 HD
ENDBRANCH  51  53
ENDBRANCH  50  51
ENDBRANCH  49  50
ENDBRANCH  24  49
BRANCH  21  55
ATOM     55  C   UNK d   0       9.646  -1.871  -7.516  0.00  0.00     0.151 C 
BRANCH  55  56
ATOM     56  C   UNK d   0      10.655  -1.541  -8.534  0.00  0.00     0.143 C 
ATOM     57  O   UNK d   0      11.849  -1.887  -8.439  0.00  0.00    -0.650 OA
BRANCH  56  58
ATOM     58  O   UNK d   0      10.240  -0.809  -9.646  0.00  0.00    -0.776 OA
ATOM     59  H   UNK d   0      10.885  -0.844 -10.457  0.00  0.00     0.167 HD
ENDBRANCH  56  58
ENDBRANCH  55  56
ENDBRANCH  21  55
BRANCH  18  60
ATOM     60  C   UNK d   0      10.132  -6.641  -5.104  0.00  0.00     0.151 C 
BRANCH  60  61
ATOM     61  C   UNK d   0       8.865  -5.923  -4.902  0.00  0.00     0.143 C 
ATOM     62  O   UNK d   0       8.114  -5.483  -5.773  0.00  0.00    -0.650 OA
BRANCH  61  63
ATOM     63  O   UNK d   0       8.489  -5.732  -3.550  0.00  0.00    -0.776 OA
ATOM     64  H   UNK d   0       7.684  -5.182  -3.309  0.00  0.00     0.167 HD
ENDBRANCH  61  63
ENDBRANCH  60  61
ENDBRANCH  18  60
BRANCH  14  65
ATOM     65  C   UNK d   0      11.587  -7.963  -2.792  0.00  0.00     0.052 C 
BRANCH  65  66
ATOM     66  C   UNK d   0      10.392  -8.199  -1.937  0.00  0.00     0.115 C 
BRANCH  66  67
ATOM     67  C   UNK d   0      10.499  -8.066  -0.512  0.00  0.00     0.139 C 
ATOM     68  O   UNK d   0      10.394  -6.893   0.005  0.00  0.00    -0.650 OA
BRANCH  67  69
ATOM     69  O   UNK d   0      10.711  -9.076   0.426  0.00  0.00    -0.776 OA
ATOM     70  H   UNK d   0      10.754 -10.034   0.050  0.00  0.00     0.167 HD
ENDBRANCH  67  69
ENDBRANCH  66  67
ENDBRANCH  65  66
ENDBRANCH  14  65
ENDBRANCH   6   7
ENDBRANCH   5   6
ENDBRANCH   2   5
TORSDOF 28
ENDMDL
