MODEL 1
REMARK VINA RESULT:     -10.9      0.000      0.000
REMARK  28 active torsions:
REMARK  status: ('A' for Active; 'I' for Inactive)
REMARK    1  A    between atoms: C_2  and  O_3 
REMARK    2  A    between atoms: C_2  and  C_4 
REMARK    3  A    between atoms: C_4  and  C_5 
REMARK    4  A    between atoms: C_5  and  C_6 
REMARK    5  A    between atoms: C_7  and  C_8 
REMARK    6  A    between atoms: C_8  and  C_9 
REMARK    7  A    between atoms: C_9  and  O_11 
REMARK    8  A    between atoms: C_28  and  C_29 
REMARK    9  A    between atoms: C_29  and  C_30 
REMARK   10  A    between atoms: C_30  and  O_32 
REMARK   11  A    between atoms: C_33  and  C_34 
REMARK   12  A    between atoms: C_34  and  C_35 
REMARK   13  A    between atoms: C_35  and  C_36 
REMARK   14  A    between atoms: C_36  and  O_38 
REMARK   15  A    between atoms: C_39  and  C_40 
REMARK   16  A    between atoms: C_40  and  C_41 
REMARK   17  A    between atoms: C_41  and  C_42 
REMARK   18  A    between atoms: C_42  and  O_44 
REMARK   19  A    between atoms: C_45  and  C_46 
REMARK   20  A    between atoms: C_46  and  C_47 
REMARK   21  A    between atoms: C_47  and  O_49 
REMARK   22  A    between atoms: C_50  and  C_51 
REMARK   23  A    between atoms: C_51  and  C_52 
REMARK   24  A    between atoms: C_52  and  O_54 
REMARK   25  A    between atoms: C_55  and  C_56 
REMARK   26  A    between atoms: C_56  and  C_57 
REMARK   27  A    between atoms: C_57  and  C_58 
REMARK   28  A    between atoms: C_58  and  O_60 
ROOT
ATOM      1  O   UNK d   0     -15.640 -18.696  -5.208  0.00  0.00    -0.650 OA
ATOM      2  C   UNK d   0     -15.111 -18.248  -6.250  0.00  0.00     0.139 C 
ENDROOT
BRANCH   2   3
ATOM      3  O   UNK d   0     -15.911 -17.831  -7.286  0.00  0.00    -0.776 OA
ATOM      4  H   UNK d   0     -15.524 -17.303  -8.072  0.00  0.00     0.167 HD
ENDBRANCH   2   3
BRANCH   2   5
ATOM      5  C   UNK d   0     -13.627 -18.170  -6.361  0.00  0.00     0.115 C 
BRANCH   5   6
ATOM      6  C   UNK d   0     -13.237 -17.113  -7.357  0.00  0.00     0.052 C 
BRANCH   6   7
ATOM      7  C   UNK d   0     -12.953 -15.779  -6.709  0.00  0.00    -0.020 A 
ATOM      8  C   UNK d   0     -13.681 -14.693  -6.763  0.00  0.00    -0.011 A 
ATOM      9  C   UNK d   0     -13.003 -13.663  -5.994  0.00  0.00     0.067 A 
ATOM     10  C   UNK d   0     -13.255 -12.326  -5.650  0.00  0.00     0.062 C 
ATOM     11  N   UNK d   0     -11.866 -14.207  -5.511  0.00  0.00    -0.248 NA
ATOM     12  C   UNK d   0     -12.615 -11.571  -4.661  0.00  0.00     0.041 A 
ATOM     13  N   UNK d   0     -11.315 -11.471  -4.325  0.00  0.00    -0.355 N 
ATOM     14  C   UNK d   0     -13.396 -10.794  -3.786  0.00  0.00    -0.022 A 
ATOM     15  C   UNK d   0     -11.251 -10.656  -3.254  0.00  0.00     0.042 A 
ATOM     16  H   UNK d   0     -10.457 -11.951  -4.845  0.00  0.00     0.166 HD
ATOM     17  C   UNK d   0     -10.141 -10.215  -2.507  0.00  0.00     0.062 C 
ATOM     18  C   UNK d   0     -12.536 -10.212  -2.887  0.00  0.00    -0.013 A 
ATOM     19  C   UNK d   0      -9.072 -10.937  -2.043  0.00  0.00     0.067 A 
ATOM     20  N   UNK d   0      -8.935 -12.182  -2.508  0.00  0.00    -0.248 NA
ATOM     21  C   UNK d   0      -7.982 -10.707  -1.109  0.00  0.00    -0.011 A 
ATOM     22  C   UNK d   0      -7.835 -12.782  -1.946  0.00  0.00     0.066 A 
ATOM     23  C   UNK d   0      -7.551 -14.071  -2.372  0.00  0.00     0.062 C 
ATOM     24  C   UNK d   0      -7.264 -11.792  -1.054  0.00  0.00    -0.020 A 
ATOM     25  C   UNK d   0      -8.199 -14.808  -3.377  0.00  0.00     0.041 A 
ATOM     26  N   UNK d   0      -9.493 -14.919  -3.702  0.00  0.00    -0.355 N 
ATOM     27  C   UNK d   0      -7.414 -15.584  -4.257  0.00  0.00    -0.022 A 
ATOM     28  C   UNK d   0      -9.559 -15.738  -4.763  0.00  0.00     0.042 A 
ATOM     29  H   UNK d   0     -10.354 -14.445  -3.171  0.00  0.00     0.166 HD
ATOM     30  C   UNK d   0     -10.657 -16.192  -5.511  0.00  0.00     0.062 C 
ATOM     31  C   UNK d   0      -8.266 -16.175  -5.138  0.00  0.00    -0.013 A 
ATOM     32  C   UNK d   0     -11.777 -15.478  -5.905  0.00  0.00     0.066 A 
BRANCH   8  33
ATOM     33  C   UNK d   0     -14.961 -14.521  -7.476  0.00  0.00     0.151 C 
BRANCH  33  34
ATOM     34  C   UNK d   0     -14.820 -14.642  -8.938  0.00  0.00     0.143 C 
ATOM     35  O   UNK d   0     -14.121 -13.843  -9.579  0.00  0.00    -0.650 OA
BRANCH  34  36
ATOM     36  O   UNK d   0     -15.476 -15.655  -9.599  0.00  0.00    -0.776 OA
ATOM     37  H   UNK d   0     -16.318 -16.094  -9.201  0.00  0.00     0.167 HD
ENDBRANCH  34  36
ENDBRANCH  33  34
ENDBRANCH   8  33
BRANCH  31  38
ATOM     38  C   UNK d   0      -7.879 -17.090  -6.276  0.00  0.00     0.151 C 
BRANCH  38  39
ATOM     39  C   UNK d   0      -7.578 -16.372  -7.496  0.00  0.00     0.143 C 
ATOM     40  O   UNK d   0      -6.534 -15.712  -7.640  0.00  0.00    -0.650 OA
BRANCH  39  41
ATOM     41  O   UNK d   0      -8.481 -16.415  -8.558  0.00  0.00    -0.776 OA
ATOM     42  H   UNK d   0      -9.079 -17.245  -8.623  0.00  0.00     0.167 HD
ENDBRANCH  39  41
ENDBRANCH  38  39
ENDBRANCH  31  38
BRANCH  27  43
ATOM     43  C   UNK d   0      -5.919 -15.780  -4.288  0.00  0.00     0.052 C 
BRANCH  43  44
ATOM     44  C   UNK d   0      -5.438 -16.809  -3.316  0.00  0.00     0.115 C 
BRANCH  44  45
ATOM     45  C   UNK d   0      -4.414 -16.145  -2.468  0.00  0.00     0.139 C 
ATOM     46  O   UNK d   0      -3.976 -16.771  -1.471  0.00  0.00    -0.650 OA
BRANCH  45  47
ATOM     47  O   UNK d   0      -3.928 -14.883  -2.732  0.00  0.00    -0.776 OA
ATOM     48  H   UNK d   0      -4.538 -14.091  -2.994  0.00  0.00     0.167 HD
ENDBRANCH  45  47
ENDBRANCH  44  45
ENDBRANCH  43  44
ENDBRANCH  27  43
BRANCH  24  49
ATOM     49  C   UNK d   0      -6.038 -11.983  -0.260  0.00  0.00     0.052 C 
BRANCH  49  50
ATOM     50  C   UNK d   0      -6.374 -12.557   1.093  0.00  0.00     0.115 C 
BRANCH  50  51
ATOM     51  C   UNK d   0      -6.277 -11.662   2.238  0.00  0.00     0.139 C 
ATOM     52  O   UNK d   0      -6.675 -11.982   3.382  0.00  0.00    -0.650 OA
BRANCH  51  53
ATOM     53  O   UNK d   0      -5.727 -10.399   2.076  0.00  0.00    -0.776 OA
ATOM     54  H   UNK d   0      -5.036 -10.269   1.359  0.00  0.00     0.167 HD
ENDBRANCH  51  53
ENDBRANCH  50  51
ENDBRANCH  49  50
ENDBRANCH  24  49
BRANCH  21  55
ATOM     55  C   UNK d   0      -7.769  -9.426  -0.374  0.00  0.00     0.151 C 
BRANCH  55  56
ATOM     56  C   UNK d   0      -6.499  -8.782  -0.744  0.00  0.00     0.143 C 
ATOM     57  O   UNK d   0      -5.566  -8.615   0.065  0.00  0.00    -0.650 OA
BRANCH  56  58
ATOM     58  O   UNK d   0      -6.352  -8.347  -2.060  0.00  0.00    -0.776 OA
ATOM     59  H   UNK d   0      -5.372  -8.236  -2.376  0.00  0.00     0.167 HD
ENDBRANCH  56  58
ENDBRANCH  55  56
ENDBRANCH  21  55
BRANCH  18  60
ATOM     60  C   UNK d   0     -12.952  -9.299  -1.761  0.00  0.00     0.151 C 
BRANCH  60  61
ATOM     61  C   UNK d   0     -13.358 -10.180  -0.655  0.00  0.00     0.143 C 
ATOM     62  O   UNK d   0     -12.913 -11.298  -0.396  0.00  0.00    -0.650 OA
BRANCH  61  63
ATOM     63  O   UNK d   0     -14.370  -9.661   0.188  0.00  0.00    -0.776 OA
ATOM     64  H   UNK d   0     -15.042 -10.267   0.625  0.00  0.00     0.167 HD
ENDBRANCH  61  63
ENDBRANCH  60  61
ENDBRANCH  18  60
BRANCH  14  65
ATOM     65  C   UNK d   0     -14.866 -10.484  -3.796  0.00  0.00     0.052 C 
BRANCH  65  66
ATOM     66  C   UNK d   0     -15.211  -9.332  -4.671  0.00  0.00     0.115 C 
BRANCH  66  67
ATOM     67  C   UNK d   0     -16.375  -8.543  -4.382  0.00  0.00     0.139 C 
ATOM     68  O   UNK d   0     -17.510  -8.929  -4.846  0.00  0.00    -0.650 OA
BRANCH  67  69
ATOM     69  O   UNK d   0     -16.444  -7.366  -3.636  0.00  0.00    -0.776 OA
ATOM     70  H   UNK d   0     -15.786  -7.296  -2.847  0.00  0.00     0.167 HD
ENDBRANCH  67  69
ENDBRANCH  66  67
ENDBRANCH  65  66
ENDBRANCH  14  65
ENDBRANCH   6   7
ENDBRANCH   5   6
ENDBRANCH   2   5
TORSDOF 28
ENDMDL
MODEL 2
REMARK VINA RESULT:     -10.6     27.698     32.420
REMARK  28 active torsions:
REMARK  status: ('A' for Active; 'I' for Inactive)
REMARK    1  A    between atoms: C_2  and  O_3 
REMARK    2  A    between atoms: C_2  and  C_4 
REMARK    3  A    between atoms: C_4  and  C_5 
REMARK    4  A    between atoms: C_5  and  C_6 
REMARK    5  A    between atoms: C_7  and  C_8 
REMARK    6  A    between atoms: C_8  and  C_9 
REMARK    7  A    between atoms: C_9  and  O_11 
REMARK    8  A    between atoms: C_28  and  C_29 
REMARK    9  A    between atoms: C_29  and  C_30 
REMARK   10  A    between atoms: C_30  and  O_32 
REMARK   11  A    between atoms: C_33  and  C_34 
REMARK   12  A    between atoms: C_34  and  C_35 
REMARK   13  A    between atoms: C_35  and  C_36 
REMARK   14  A    between atoms: C_36  and  O_38 
REMARK   15  A    between atoms: C_39  and  C_40 
REMARK   16  A    between atoms: C_40  and  C_41 
REMARK   17  A    between atoms: C_41  and  C_42 
REMARK   18  A    between atoms: C_42  and  O_44 
REMARK   19  A    between atoms: C_45  and  C_46 
REMARK   20  A    between atoms: C_46  and  C_47 
REMARK   21  A    between atoms: C_47  and  O_49 
REMARK   22  A    between atoms: C_50  and  C_51 
REMARK   23  A    between atoms: C_51  and  C_52 
REMARK   24  A    between atoms: C_52  and  O_54 
REMARK   25  A    between atoms: C_55  and  C_56 
REMARK   26  A    between atoms: C_56  and  C_57 
REMARK   27  A    between atoms: C_57  and  C_58 
REMARK   28  A    between atoms: C_58  and  O_60 
ROOT
ATOM      1  O   UNK d   0     -30.593 -18.329  15.842  0.00  0.00    -0.650 OA
ATOM      2  C   UNK d   0     -30.997 -18.885  14.797  0.00  0.00     0.139 C 
ENDROOT
BRANCH   2   3
ATOM      3  O   UNK d   0     -30.643 -18.362  13.576  0.00  0.00    -0.776 OA
ATOM      4  H   UNK d   0     -30.410 -17.372  13.473  0.00  0.00     0.167 HD
ENDBRANCH   2   3
BRANCH   2   5
ATOM      5  C   UNK d   0     -31.855 -20.101  14.879  0.00  0.00     0.115 C 
BRANCH   5   6
ATOM      6  C   UNK d   0     -31.453 -21.091  13.820  0.00  0.00     0.052 C 
BRANCH   6   7
ATOM      7  C   UNK d   0     -32.622 -21.551  12.982  0.00  0.00    -0.020 A 
ATOM      8  C   UNK d   0     -32.765 -22.703  12.377  0.00  0.00    -0.011 A 
ATOM      9  C   UNK d   0     -34.045 -22.686  11.688  0.00  0.00     0.067 A 
ATOM     10  C   UNK d   0     -34.782 -23.585  10.900  0.00  0.00     0.062 C 
ATOM     11  N   UNK d   0     -34.611 -21.484  11.922  0.00  0.00    -0.248 NA
ATOM     12  C   UNK d   0     -36.133 -23.492  10.549  0.00  0.00     0.041 A 
ATOM     13  N   UNK d   0     -36.874 -22.442  10.144  0.00  0.00    -0.355 N 
ATOM     14  C   UNK d   0     -36.946 -24.635  10.662  0.00  0.00    -0.022 A 
ATOM     15  C   UNK d   0     -38.136 -22.888  10.004  0.00  0.00     0.042 A 
ATOM     16  H   UNK d   0     -36.507 -21.412   9.942  0.00  0.00     0.166 HD
ATOM     17  C   UNK d   0     -39.305 -22.210   9.604  0.00  0.00     0.062 C 
ATOM     18  C   UNK d   0     -38.221 -24.258  10.320  0.00  0.00    -0.013 A 
ATOM     19  C   UNK d   0     -39.764 -20.979   9.995  0.00  0.00     0.067 A 
ATOM     20  N   UNK d   0     -38.922 -20.213  10.693  0.00  0.00    -0.248 NA
ATOM     21  C   UNK d   0     -41.006 -20.235   9.859  0.00  0.00    -0.011 A 
ATOM     22  C   UNK d   0     -39.523 -19.023  11.025  0.00  0.00     0.066 A 
ATOM     23  C   UNK d   0     -38.743 -18.112  11.722  0.00  0.00     0.062 C 
ATOM     24  C   UNK d   0     -40.859 -19.094  10.468  0.00  0.00    -0.020 A 
ATOM     25  C   UNK d   0     -37.384 -18.220  12.054  0.00  0.00     0.041 A 
ATOM     26  N   UNK d   0     -36.651 -19.259  12.471  0.00  0.00    -0.355 N 
ATOM     27  C   UNK d   0     -36.568 -17.073  11.937  0.00  0.00    -0.022 A 
ATOM     28  C   UNK d   0     -35.393 -18.815  12.620  0.00  0.00     0.042 A 
ATOM     29  H   UNK d   0     -37.023 -20.291  12.683  0.00  0.00     0.166 HD
ATOM     30  C   UNK d   0     -34.223 -19.475  13.026  0.00  0.00     0.062 C 
ATOM     31  C   UNK d   0     -35.307 -17.441  12.292  0.00  0.00    -0.013 A 
ATOM     32  C   UNK d   0     -33.805 -20.755  12.695  0.00  0.00     0.066 A 
BRANCH   8  33
ATOM     33  C   UNK d   0     -31.811 -23.827  12.376  0.00  0.00     0.151 C 
BRANCH  33  34
ATOM     34  C   UNK d   0     -30.965 -23.857  11.169  0.00  0.00     0.143 C 
ATOM     35  O   UNK d   0     -29.774 -23.519  11.218  0.00  0.00    -0.650 OA
BRANCH  34  36
ATOM     36  O   UNK d   0     -31.509 -24.264   9.973  0.00  0.00    -0.776 OA
ATOM     37  H   UNK d   0     -32.468 -24.636   9.921  0.00  0.00     0.167 HD
ENDBRANCH  34  36
ENDBRANCH  33  34
ENDBRANCH   8  33
BRANCH  31  38
ATOM     38  C   UNK d   0     -34.089 -16.547  12.308  0.00  0.00     0.151 C 
BRANCH  38  39
ATOM     39  C   UNK d   0     -33.312 -16.635  11.090  0.00  0.00     0.143 C 
ATOM     40  O   UNK d   0     -33.561 -15.940  10.089  0.00  0.00    -0.650 OA
BRANCH  39  41
ATOM     41  O   UNK d   0     -32.241 -17.527  11.022  0.00  0.00    -0.776 OA
ATOM     42  H   UNK d   0     -32.474 -18.523  10.957  0.00  0.00     0.167 HD
ENDBRANCH  39  41
ENDBRANCH  38  39
ENDBRANCH  31  38
BRANCH  27  43
ATOM     43  C   UNK d   0     -36.937 -15.674  11.511  0.00  0.00     0.052 C 
BRANCH  43  44
ATOM     44  C   UNK d   0     -37.121 -15.534  10.035  0.00  0.00     0.115 C 
BRANCH  44  45
ATOM     45  C   UNK d   0     -38.235 -14.572   9.835  0.00  0.00     0.139 C 
ATOM     46  O   UNK d   0     -38.884 -14.631   8.761  0.00  0.00    -0.650 OA
BRANCH  45  47
ATOM     47  O   UNK d   0     -38.586 -13.628  10.776  0.00  0.00    -0.776 OA
ATOM     48  H   UNK d   0     -38.658 -13.842  11.784  0.00  0.00     0.167 HD
ENDBRANCH  45  47
ENDBRANCH  44  45
ENDBRANCH  43  44
ENDBRANCH  27  43
BRANCH  24  49
ATOM     49  C   UNK d   0     -41.860 -18.016  10.544  0.00  0.00     0.052 C 
BRANCH  49  50
ATOM     50  C   UNK d   0     -41.301 -16.740   9.968  0.00  0.00     0.115 C 
BRANCH  50  51
ATOM     51  C   UNK d   0     -41.569 -15.508  10.698  0.00  0.00     0.139 C 
ATOM     52  O   UNK d   0     -42.206 -14.550  10.199  0.00  0.00    -0.650 OA
BRANCH  51  53
ATOM     53  O   UNK d   0     -41.108 -15.366  11.998  0.00  0.00    -0.776 OA
ATOM     54  H   UNK d   0     -40.148 -15.593  12.189  0.00  0.00     0.167 HD
ENDBRANCH  51  53
ENDBRANCH  50  51
ENDBRANCH  49  50
ENDBRANCH  24  49
BRANCH  21  55
ATOM     55  C   UNK d   0     -42.207 -20.742   9.132  0.00  0.00     0.151 C 
BRANCH  55  56
ATOM     56  C   UNK d   0     -41.995 -20.783   7.677  0.00  0.00     0.143 C 
ATOM     57  O   UNK d   0     -41.888 -21.849   7.040  0.00  0.00    -0.650 OA
BRANCH  56  58
ATOM     58  O   UNK d   0     -41.912 -19.568   6.998  0.00  0.00    -0.776 OA
ATOM     59  H   UNK d   0     -42.134 -19.617   5.988  0.00  0.00     0.167 HD
ENDBRANCH  56  58
ENDBRANCH  55  56
ENDBRANCH  21  55
BRANCH  18  60
ATOM     60  C   UNK d   0     -39.419 -25.174  10.310  0.00  0.00     0.151 C 
BRANCH  60  61
ATOM     61  C   UNK d   0     -39.999 -25.095  11.660  0.00  0.00     0.143 C 
ATOM     62  O   UNK d   0     -39.662 -25.743  12.651  0.00  0.00    -0.650 OA
BRANCH  61  63
ATOM     63  O   UNK d   0     -41.056 -24.165  11.808  0.00  0.00    -0.776 OA
ATOM     64  H   UNK d   0     -40.891 -23.249  12.186  0.00  0.00     0.167 HD
ENDBRANCH  61  63
ENDBRANCH  60  61
ENDBRANCH  18  60
BRANCH  14  65
ATOM     65  C   UNK d   0     -36.593 -26.062  10.969  0.00  0.00     0.052 C 
BRANCH  65  66
ATOM     66  C   UNK d   0     -35.833 -26.722   9.874  0.00  0.00     0.115 C 
BRANCH  66  67
ATOM     67  C   UNK d   0     -34.399 -26.776   9.935  0.00  0.00     0.139 C 
ATOM     68  O   UNK d   0     -33.848 -27.301  10.971  0.00  0.00    -0.650 OA
BRANCH  67  69
ATOM     69  O   UNK d   0     -33.487 -26.317   8.985  0.00  0.00    -0.776 OA
ATOM     70  H   UNK d   0     -33.774 -26.421   8.001  0.00  0.00     0.167 HD
ENDBRANCH  67  69
ENDBRANCH  66  67
ENDBRANCH  65  66
ENDBRANCH  14  65
ENDBRANCH   6   7
ENDBRANCH   5   6
ENDBRANCH   2   5
TORSDOF 28
ENDMDL
MODEL 3
REMARK VINA RESULT:     -10.6     27.797     31.941
REMARK  28 active torsions:
REMARK  status: ('A' for Active; 'I' for Inactive)
REMARK    1  A    between atoms: C_2  and  O_3 
REMARK    2  A    between atoms: C_2  and  C_4 
REMARK    3  A    between atoms: C_4  and  C_5 
REMARK    4  A    between atoms: C_5  and  C_6 
REMARK    5  A    between atoms: C_7  and  C_8 
REMARK    6  A    between atoms: C_8  and  C_9 
REMARK    7  A    between atoms: C_9  and  O_11 
REMARK    8  A    between atoms: C_28  and  C_29 
REMARK    9  A    between atoms: C_29  and  C_30 
REMARK   10  A    between atoms: C_30  and  O_32 
REMARK   11  A    between atoms: C_33  and  C_34 
REMARK   12  A    between atoms: C_34  and  C_35 
REMARK   13  A    between atoms: C_35  and  C_36 
REMARK   14  A    between atoms: C_36  and  O_38 
REMARK   15  A    between atoms: C_39  and  C_40 
REMARK   16  A    between atoms: C_40  and  C_41 
REMARK   17  A    between atoms: C_41  and  C_42 
REMARK   18  A    between atoms: C_42  and  O_44 
REMARK   19  A    between atoms: C_45  and  C_46 
REMARK   20  A    between atoms: C_46  and  C_47 
REMARK   21  A    between atoms: C_47  and  O_49 
REMARK   22  A    between atoms: C_50  and  C_51 
REMARK   23  A    between atoms: C_51  and  C_52 
REMARK   24  A    between atoms: C_52  and  O_54 
REMARK   25  A    between atoms: C_55  and  C_56 
REMARK   26  A    between atoms: C_56  and  C_57 
REMARK   27  A    between atoms: C_57  and  C_58 
REMARK   28  A    between atoms: C_58  and  O_60 
ROOT
ATOM      1  O   UNK d   0     -31.739 -19.105  16.106  0.00  0.00    -0.650 OA
ATOM      2  C   UNK d   0     -30.996 -18.723  15.175  0.00  0.00     0.139 C 
ENDROOT
BRANCH   2   3
ATOM      3  O   UNK d   0     -30.189 -17.627  15.363  0.00  0.00    -0.776 OA
ATOM      4  H   UNK d   0     -29.331 -17.692  15.914  0.00  0.00     0.167 HD
ENDBRANCH   2   3
BRANCH   2   5
ATOM      5  C   UNK d   0     -30.989 -19.453  13.875  0.00  0.00     0.115 C 
BRANCH   5   6
ATOM      6  C   UNK d   0     -31.471 -20.865  14.072  0.00  0.00     0.052 C 
BRANCH   6   7
ATOM      7  C   UNK d   0     -32.590 -21.234  13.127  0.00  0.00    -0.020 A 
ATOM      8  C   UNK d   0     -32.891 -22.424  12.673  0.00  0.00    -0.011 A 
ATOM      9  C   UNK d   0     -34.036 -22.286  11.789  0.00  0.00     0.067 A 
ATOM     10  C   UNK d   0     -34.835 -23.150  11.024  0.00  0.00     0.062 C 
ATOM     11  N   UNK d   0     -34.363 -20.977  11.758  0.00  0.00    -0.248 NA
ATOM     12  C   UNK d   0     -36.078 -22.867  10.448  0.00  0.00     0.041 A 
ATOM     13  N   UNK d   0     -36.522 -21.782   9.785  0.00  0.00    -0.355 N 
ATOM     14  C   UNK d   0     -37.120 -23.802  10.584  0.00  0.00    -0.022 A 
ATOM     15  C   UNK d   0     -37.820 -22.001   9.505  0.00  0.00     0.042 A 
ATOM     16  H   UNK d   0     -35.923 -20.887   9.505  0.00  0.00     0.166 HD
ATOM     17  C   UNK d   0     -38.757 -21.195   8.829  0.00  0.00     0.062 C 
ATOM     18  C   UNK d   0     -38.231 -23.258   9.990  0.00  0.00    -0.013 A 
ATOM     19  C   UNK d   0     -38.995 -19.851   8.964  0.00  0.00     0.067 A 
ATOM     20  N   UNK d   0     -38.110 -19.149   9.676  0.00  0.00    -0.248 NA
ATOM     21  C   UNK d   0     -40.023 -18.922   8.525  0.00  0.00    -0.011 A 
ATOM     22  C   UNK d   0     -38.486 -17.829   9.737  0.00  0.00     0.066 A 
ATOM     23  C   UNK d   0     -37.631 -16.976  10.418  0.00  0.00     0.062 C 
ATOM     24  C   UNK d   0     -39.722 -17.742   8.984  0.00  0.00    -0.020 A 
ATOM     25  C   UNK d   0     -36.380 -17.277  10.979  0.00  0.00     0.041 A 
ATOM     26  N   UNK d   0     -35.944 -18.349  11.651  0.00  0.00    -0.355 N 
ATOM     27  C   UNK d   0     -35.334 -16.340  10.838  0.00  0.00    -0.022 A 
ATOM     28  C   UNK d   0     -34.652 -18.129  11.940  0.00  0.00     0.042 A 
ATOM     29  H   UNK d   0     -36.549 -19.243  11.942  0.00  0.00     0.166 HD
ATOM     30  C   UNK d   0     -33.710 -18.919  12.619  0.00  0.00     0.062 C 
ATOM     31  C   UNK d   0     -34.236 -16.871  11.442  0.00  0.00    -0.013 A 
ATOM     32  C   UNK d   0     -33.531 -20.291  12.543  0.00  0.00     0.066 A 
BRANCH   8  33
ATOM     33  C   UNK d   0     -32.203 -23.690  12.985  0.00  0.00     0.151 C 
BRANCH  33  34
ATOM     34  C   UNK d   0     -31.431 -24.216  11.844  0.00  0.00     0.143 C 
ATOM     35  O   UNK d   0     -31.750 -25.282  11.297  0.00  0.00    -0.650 OA
BRANCH  34  36
ATOM     36  O   UNK d   0     -30.342 -23.513  11.383  0.00  0.00    -0.776 OA
ATOM     37  H   UNK d   0     -29.550 -23.990  10.932  0.00  0.00     0.167 HD
ENDBRANCH  34  36
ENDBRANCH  33  34
ENDBRANCH   8  33
BRANCH  31  38
ATOM     38  C   UNK d   0     -32.870 -16.231  11.532  0.00  0.00     0.151 C 
BRANCH  38  39
ATOM     39  C   UNK d   0     -32.503 -15.879  12.887  0.00  0.00     0.143 C 
ATOM     40  O   UNK d   0     -31.319 -15.812  13.260  0.00  0.00    -0.650 OA
BRANCH  39  41
ATOM     41  O   UNK d   0     -33.503 -15.601  13.819  0.00  0.00    -0.776 OA
ATOM     42  H   UNK d   0     -33.296 -15.822  14.798  0.00  0.00     0.167 HD
ENDBRANCH  39  41
ENDBRANCH  38  39
ENDBRANCH  31  38
BRANCH  27  43
ATOM     43  C   UNK d   0     -35.341 -14.989  10.167  0.00  0.00     0.052 C 
BRANCH  43  44
ATOM     44  C   UNK d   0     -36.152 -13.970  10.900  0.00  0.00     0.115 C 
BRANCH  44  45
ATOM     45  C   UNK d   0     -35.188 -13.095  11.615  0.00  0.00     0.139 C 
ATOM     46  O   UNK d   0     -34.737 -13.489  12.719  0.00  0.00    -0.650 OA
BRANCH  45  47
ATOM     47  O   UNK d   0     -34.769 -11.880  11.117  0.00  0.00    -0.776 OA
ATOM     48  H   UNK d   0     -34.542 -11.075  11.722  0.00  0.00     0.167 HD
ENDBRANCH  45  47
ENDBRANCH  44  45
ENDBRANCH  43  44
ENDBRANCH  27  43
BRANCH  24  49
ATOM     49  C   UNK d   0     -40.475 -16.499   8.745  0.00  0.00     0.052 C 
BRANCH  49  50
ATOM     50  C   UNK d   0     -41.446 -16.250   9.870  0.00  0.00     0.115 C 
BRANCH  50  51
ATOM     51  C   UNK d   0     -41.735 -14.861  10.203  0.00  0.00     0.139 C 
ATOM     52  O   UNK d   0     -41.088 -14.225  11.068  0.00  0.00    -0.650 OA
BRANCH  51  53
ATOM     53  O   UNK d   0     -42.764 -14.199   9.552  0.00  0.00    -0.776 OA
ATOM     54  H   UNK d   0     -42.537 -13.385   9.008  0.00  0.00     0.167 HD
ENDBRANCH  51  53
ENDBRANCH  50  51
ENDBRANCH  49  50
ENDBRANCH  24  49
BRANCH  21  55
ATOM     55  C   UNK d   0     -41.197 -19.311   7.689  0.00  0.00     0.151 C 
BRANCH  55  56
ATOM     56  C   UNK d   0     -42.043 -20.312   8.357  0.00  0.00     0.143 C 
ATOM     57  O   UNK d   0     -42.539 -21.286   7.757  0.00  0.00    -0.650 OA
BRANCH  56  58
ATOM     58  O   UNK d   0     -42.288 -20.149   9.720  0.00  0.00    -0.776 OA
ATOM     59  H   UNK d   0     -43.192 -20.534  10.049  0.00  0.00     0.167 HD
ENDBRANCH  56  58
ENDBRANCH  55  56
ENDBRANCH  21  55
BRANCH  18  60
ATOM     60  C   UNK d   0     -39.584 -23.922   9.913  0.00  0.00     0.151 C 
BRANCH  60  61
ATOM     61  C   UNK d   0     -40.384 -23.335  10.998  0.00  0.00     0.143 C 
ATOM     62  O   UNK d   0     -40.466 -22.144  11.300  0.00  0.00    -0.650 OA
BRANCH  61  63
ATOM     63  O   UNK d   0     -41.133 -24.262  11.763  0.00  0.00    -0.776 OA
ATOM     64  H   UNK d   0     -40.733 -24.715  12.565  0.00  0.00     0.167 HD
ENDBRANCH  61  63
ENDBRANCH  60  61
ENDBRANCH  18  60
BRANCH  14  65
ATOM     65  C   UNK d   0     -37.119 -25.198  11.141  0.00  0.00     0.052 C 
BRANCH  65  66
ATOM     66  C   UNK d   0     -36.471 -26.185  10.235  0.00  0.00     0.115 C 
BRANCH  66  67
ATOM     67  C   UNK d   0     -35.128 -26.618  10.500  0.00  0.00     0.139 C 
ATOM     68  O   UNK d   0     -34.411 -27.030   9.515  0.00  0.00    -0.650 OA
BRANCH  67  69
ATOM     69  O   UNK d   0     -34.470 -26.656  11.729  0.00  0.00    -0.776 OA
ATOM     70  H   UNK d   0     -34.208 -27.592  12.068  0.00  0.00     0.167 HD
ENDBRANCH  67  69
ENDBRANCH  66  67
ENDBRANCH  65  66
ENDBRANCH  14  65
ENDBRANCH   6   7
ENDBRANCH   5   6
ENDBRANCH   2   5
TORSDOF 28
ENDMDL
MODEL 4
REMARK VINA RESULT:     -10.5      1.844      7.484
REMARK  28 active torsions:
REMARK  status: ('A' for Active; 'I' for Inactive)
REMARK    1  A    between atoms: C_2  and  O_3 
REMARK    2  A    between atoms: C_2  and  C_4 
REMARK    3  A    between atoms: C_4  and  C_5 
REMARK    4  A    between atoms: C_5  and  C_6 
REMARK    5  A    between atoms: C_7  and  C_8 
REMARK    6  A    between atoms: C_8  and  C_9 
REMARK    7  A    between atoms: C_9  and  O_11 
REMARK    8  A    between atoms: C_28  and  C_29 
REMARK    9  A    between atoms: C_29  and  C_30 
REMARK   10  A    between atoms: C_30  and  O_32 
REMARK   11  A    between atoms: C_33  and  C_34 
REMARK   12  A    between atoms: C_34  and  C_35 
REMARK   13  A    between atoms: C_35  and  C_36 
REMARK   14  A    between atoms: C_36  and  O_38 
REMARK   15  A    between atoms: C_39  and  C_40 
REMARK   16  A    between atoms: C_40  and  C_41 
REMARK   17  A    between atoms: C_41  and  C_42 
REMARK   18  A    between atoms: C_42  and  O_44 
REMARK   19  A    between atoms: C_45  and  C_46 
REMARK   20  A    between atoms: C_46  and  C_47 
REMARK   21  A    between atoms: C_47  and  O_49 
REMARK   22  A    between atoms: C_50  and  C_51 
REMARK   23  A    between atoms: C_51  and  C_52 
REMARK   24  A    between atoms: C_52  and  O_54 
REMARK   25  A    between atoms: C_55  and  C_56 
REMARK   26  A    between atoms: C_56  and  C_57 
REMARK   27  A    between atoms: C_57  and  C_58 
REMARK   28  A    between atoms: C_58  and  O_60 
ROOT
ATOM      1  O   UNK d   0     -16.916  -9.604  -6.208  0.00  0.00    -0.650 OA
ATOM      2  C   UNK d   0     -15.922 -10.330  -6.431  0.00  0.00     0.139 C 
ENDROOT
BRANCH   2   3
ATOM      3  O   UNK d   0     -14.807  -9.784  -7.019  0.00  0.00    -0.776 OA
ATOM      4  H   UNK d   0     -13.951 -10.330  -7.136  0.00  0.00     0.167 HD
ENDBRANCH   2   3
BRANCH   2   5
ATOM      5  C   UNK d   0     -15.952 -11.773  -6.060  0.00  0.00     0.115 C 
BRANCH   5   6
ATOM      6  C   UNK d   0     -15.349 -12.603  -7.161  0.00  0.00     0.052 C 
BRANCH   6   7
ATOM      7  C   UNK d   0     -14.144 -13.390  -6.703  0.00  0.00    -0.020 A 
ATOM      8  C   UNK d   0     -13.754 -14.567  -7.120  0.00  0.00    -0.011 A 
ATOM      9  C   UNK d   0     -12.551 -14.923  -6.386  0.00  0.00     0.067 A 
ATOM     10  C   UNK d   0     -11.655 -16.003  -6.373  0.00  0.00     0.062 C 
ATOM     11  N   UNK d   0     -12.283 -13.907  -5.539  0.00  0.00    -0.248 NA
ATOM     12  C   UNK d   0     -10.385 -16.044  -5.787  0.00  0.00     0.041 A 
ATOM     13  N   UNK d   0      -9.942 -15.591  -4.599  0.00  0.00    -0.355 N 
ATOM     14  C   UNK d   0      -9.315 -16.589  -6.519  0.00  0.00    -0.022 A 
ATOM     15  C   UNK d   0      -8.617 -15.826  -4.562  0.00  0.00     0.042 A 
ATOM     16  H   UNK d   0     -10.557 -15.131  -3.794  0.00  0.00     0.166 HD
ATOM     17  C   UNK d   0      -7.668 -15.553  -3.557  0.00  0.00     0.062 C 
ATOM     18  C   UNK d   0      -8.187 -16.451  -5.749  0.00  0.00    -0.013 A 
ATOM     19  C   UNK d   0      -7.504 -14.413  -2.812  0.00  0.00     0.067 A 
ATOM     20  N   UNK d   0      -8.474 -13.497  -2.887  0.00  0.00    -0.248 NA
ATOM     21  C   UNK d   0      -6.489 -13.888  -1.915  0.00  0.00    -0.011 A 
ATOM     22  C   UNK d   0      -8.165 -12.412  -2.105  0.00  0.00     0.066 A 
ATOM     23  C   UNK d   0      -9.108 -11.396  -2.060  0.00  0.00     0.062 C 
ATOM     24  C   UNK d   0      -6.879 -12.715  -1.508  0.00  0.00    -0.020 A 
ATOM     25  C   UNK d   0     -10.384 -11.380  -2.646  0.00  0.00     0.041 A 
ATOM     26  N   UNK d   0     -10.821 -11.817  -3.832  0.00  0.00    -0.355 N 
ATOM     27  C   UNK d   0     -11.458 -10.837  -1.908  0.00  0.00    -0.022 A 
ATOM     28  C   UNK d   0     -12.141 -11.575  -3.875  0.00  0.00     0.042 A 
ATOM     29  H   UNK d   0     -10.200 -12.270  -4.644  0.00  0.00     0.166 HD
ATOM     30  C   UNK d   0     -13.095 -11.833  -4.872  0.00  0.00     0.062 C 
ATOM     31  C   UNK d   0     -12.574 -10.957  -2.678  0.00  0.00    -0.013 A 
ATOM     32  C   UNK d   0     -13.205 -12.953  -5.681  0.00  0.00     0.066 A 
BRANCH   8  33
ATOM     33  C   UNK d   0     -14.405 -15.403  -8.145  0.00  0.00     0.151 C 
BRANCH  33  34
ATOM     34  C   UNK d   0     -15.415 -16.315  -7.580  0.00  0.00     0.143 C 
ATOM     35  O   UNK d   0     -16.590 -15.950  -7.430  0.00  0.00    -0.650 OA
BRANCH  34  36
ATOM     36  O   UNK d   0     -15.046 -17.589  -7.213  0.00  0.00    -0.776 OA
ATOM     37  H   UNK d   0     -15.733 -18.258  -6.840  0.00  0.00     0.167 HD
ENDBRANCH  34  36
ENDBRANCH  33  34
ENDBRANCH   8  33
BRANCH  31  38
ATOM     38  C   UNK d   0     -13.971 -10.524  -2.297  0.00  0.00     0.151 C 
BRANCH  38  39
ATOM     39  C   UNK d   0     -14.479  -9.463  -3.140  0.00  0.00     0.143 C 
ATOM     40  O   UNK d   0     -13.729  -8.664  -3.729  0.00  0.00    -0.650 OA
BRANCH  39  41
ATOM     41  O   UNK d   0     -15.856  -9.318  -3.306  0.00  0.00    -0.776 OA
ATOM     42  H   UNK d   0     -16.447 -10.069  -2.936  0.00  0.00     0.167 HD
ENDBRANCH  39  41
ENDBRANCH  38  39
ENDBRANCH  31  38
BRANCH  27  43
ATOM     43  C   UNK d   0     -11.461 -10.221  -0.531  0.00  0.00     0.052 C 
BRANCH  43  44
ATOM     44  C   UNK d   0     -10.655  -8.966  -0.444  0.00  0.00     0.115 C 
BRANCH  44  45
ATOM     45  C   UNK d   0     -11.610  -7.868  -0.142  0.00  0.00     0.139 C 
ATOM     46  O   UNK d   0     -12.670  -7.805  -0.813  0.00  0.00    -0.650 OA
BRANCH  45  47
ATOM     47  O   UNK d   0     -11.382  -6.929   0.840  0.00  0.00    -0.776 OA
ATOM     48  H   UNK d   0     -12.079  -6.699   1.568  0.00  0.00     0.167 HD
ENDBRANCH  45  47
ENDBRANCH  44  45
ENDBRANCH  43  44
ENDBRANCH  27  43
BRANCH  24  49
ATOM     49  C   UNK d   0      -6.168 -11.845  -0.555  0.00  0.00     0.052 C 
BRANCH  49  50
ATOM     50  C   UNK d   0      -5.645 -10.618  -1.256  0.00  0.00     0.115 C 
BRANCH  50  51
ATOM     51  C   UNK d   0      -5.982  -9.326  -0.674  0.00  0.00     0.139 C 
ATOM     52  O   UNK d   0      -5.793  -9.059   0.537  0.00  0.00    -0.650 OA
BRANCH  51  53
ATOM     53  O   UNK d   0      -6.537  -8.337  -1.472  0.00  0.00    -0.776 OA
ATOM     54  H   UNK d   0      -7.352  -7.857  -1.135  0.00  0.00     0.167 HD
ENDBRANCH  51  53
ENDBRANCH  50  51
ENDBRANCH  49  50
ENDBRANCH  24  49
BRANCH  21  55
ATOM     55  C   UNK d   0      -5.236 -14.616  -1.555  0.00  0.00     0.151 C 
BRANCH  55  56
ATOM     56  C   UNK d   0      -4.224 -14.533  -2.619  0.00  0.00     0.143 C 
ATOM     57  O   UNK d   0      -4.271 -15.230  -3.651  0.00  0.00    -0.650 OA
BRANCH  56  58
ATOM     58  O   UNK d   0      -3.176 -13.630  -2.449  0.00  0.00    -0.776 OA
ATOM     59  H   UNK d   0      -2.595 -13.472  -3.292  0.00  0.00     0.167 HD
ENDBRANCH  56  58
ENDBRANCH  55  56
ENDBRANCH  21  55
BRANCH  18  60
ATOM     60  C   UNK d   0      -6.804 -16.896  -6.154  0.00  0.00     0.151 C 
BRANCH  60  61
ATOM     61  C   UNK d   0      -6.242 -15.794  -6.950  0.00  0.00     0.143 C 
ATOM     62  O   UNK d   0      -6.404 -15.590  -8.153  0.00  0.00    -0.650 OA
BRANCH  61  63
ATOM     63  O   UNK d   0      -5.431 -14.884  -6.230  0.00  0.00    -0.776 OA
ATOM     64  H   UNK d   0      -5.392 -13.912  -6.483  0.00  0.00     0.167 HD
ENDBRANCH  61  63
ENDBRANCH  60  61
ENDBRANCH  18  60
BRANCH  14  65
ATOM     65  C   UNK d   0      -9.295 -17.311  -7.836  0.00  0.00     0.052 C 
BRANCH  65  66
ATOM     66  C   UNK d   0      -9.783 -18.713  -7.739  0.00  0.00     0.115 C 
BRANCH  66  67
ATOM     67  C   UNK d   0     -10.666 -19.231  -8.745  0.00  0.00     0.139 C 
ATOM     68  O   UNK d   0     -11.628 -20.002  -8.380  0.00  0.00    -0.650 OA
BRANCH  67  69
ATOM     69  O   UNK d   0     -10.619 -19.004 -10.120  0.00  0.00    -0.776 OA
ATOM     70  H   UNK d   0      -9.723 -18.650 -10.486  0.00  0.00     0.167 HD
ENDBRANCH  67  69
ENDBRANCH  66  67
ENDBRANCH  65  66
ENDBRANCH  14  65
ENDBRANCH   6   7
ENDBRANCH   5   6
ENDBRANCH   2   5
TORSDOF 28
ENDMDL
MODEL 5
REMARK VINA RESULT:     -10.3      1.740      7.413
REMARK  28 active torsions:
REMARK  status: ('A' for Active; 'I' for Inactive)
REMARK    1  A    between atoms: C_2  and  O_3 
REMARK    2  A    between atoms: C_2  and  C_4 
REMARK    3  A    between atoms: C_4  and  C_5 
REMARK    4  A    between atoms: C_5  and  C_6 
REMARK    5  A    between atoms: C_7  and  C_8 
REMARK    6  A    between atoms: C_8  and  C_9 
REMARK    7  A    between atoms: C_9  and  O_11 
REMARK    8  A    between atoms: C_28  and  C_29 
REMARK    9  A    between atoms: C_29  and  C_30 
REMARK   10  A    between atoms: C_30  and  O_32 
REMARK   11  A    between atoms: C_33  and  C_34 
REMARK   12  A    between atoms: C_34  and  C_35 
REMARK   13  A    between atoms: C_35  and  C_36 
REMARK   14  A    between atoms: C_36  and  O_38 
REMARK   15  A    between atoms: C_39  and  C_40 
REMARK   16  A    between atoms: C_40  and  C_41 
REMARK   17  A    between atoms: C_41  and  C_42 
REMARK   18  A    between atoms: C_42  and  O_44 
REMARK   19  A    between atoms: C_45  and  C_46 
REMARK   20  A    between atoms: C_46  and  C_47 
REMARK   21  A    between atoms: C_47  and  O_49 
REMARK   22  A    between atoms: C_50  and  C_51 
REMARK   23  A    between atoms: C_51  and  C_52 
REMARK   24  A    between atoms: C_52  and  O_54 
REMARK   25  A    between atoms: C_55  and  C_56 
REMARK   26  A    between atoms: C_56  and  C_57 
REMARK   27  A    between atoms: C_57  and  C_58 
REMARK   28  A    between atoms: C_58  and  O_60 
ROOT
ATOM      1  O   UNK d   0     -16.081  -8.782  -6.740  0.00  0.00    -0.650 OA
ATOM      2  C   UNK d   0     -16.220  -9.475  -5.708  0.00  0.00     0.139 C 
ENDROOT
BRANCH   2   3
ATOM      3  O   UNK d   0     -16.451  -8.853  -4.504  0.00  0.00    -0.776 OA
ATOM      4  H   UNK d   0     -16.662  -7.854  -4.459  0.00  0.00     0.167 HD
ENDBRANCH   2   3
BRANCH   2   5
ATOM      5  C   UNK d   0     -16.135 -10.961  -5.787  0.00  0.00     0.115 C 
BRANCH   5   6
ATOM      6  C   UNK d   0     -15.241 -11.368  -6.927  0.00  0.00     0.052 C 
BRANCH   6   7
ATOM      7  C   UNK d   0     -14.201 -12.383  -6.517  0.00  0.00    -0.020 A 
ATOM      8  C   UNK d   0     -14.052 -13.601  -6.972  0.00  0.00    -0.011 A 
ATOM      9  C   UNK d   0     -12.927 -14.201  -6.276  0.00  0.00     0.067 A 
ATOM     10  C   UNK d   0     -12.255 -15.434  -6.310  0.00  0.00     0.062 C 
ATOM     11  N   UNK d   0     -12.453 -13.280  -5.411  0.00  0.00    -0.248 NA
ATOM     12  C   UNK d   0     -11.006 -15.733  -5.756  0.00  0.00     0.041 A 
ATOM     13  N   UNK d   0     -10.462 -15.407  -4.568  0.00  0.00    -0.355 N 
ATOM     14  C   UNK d   0     -10.074 -16.452  -6.527  0.00  0.00    -0.022 A 
ATOM     15  C   UNK d   0      -9.206 -15.893  -4.569  0.00  0.00     0.042 A 
ATOM     16  H   UNK d   0     -10.962 -14.861  -3.738  0.00  0.00     0.166 HD
ATOM     17  C   UNK d   0      -8.204 -15.835  -3.580  0.00  0.00     0.062 C 
ATOM     18  C   UNK d   0      -8.927 -16.554  -5.780  0.00  0.00    -0.013 A 
ATOM     19  C   UNK d   0      -7.810 -14.769  -2.812  0.00  0.00     0.067 A 
ATOM     20  N   UNK d   0      -8.587 -13.683  -2.842  0.00  0.00    -0.248 NA
ATOM     21  C   UNK d   0      -6.696 -14.474  -1.927  0.00  0.00    -0.011 A 
ATOM     22  C   UNK d   0      -8.060 -12.699  -2.041  0.00  0.00     0.066 A 
ATOM     23  C   UNK d   0      -8.790 -11.523  -1.949  0.00  0.00     0.062 C 
ATOM     24  C   UNK d   0      -6.846 -13.260  -1.482  0.00  0.00    -0.020 A 
ATOM     25  C   UNK d   0     -10.050 -11.247  -2.503  0.00  0.00     0.041 A 
ATOM     26  N   UNK d   0     -10.585 -11.558  -3.689  0.00  0.00    -0.355 N 
ATOM     27  C   UNK d   0     -10.986 -10.529  -1.727  0.00  0.00    -0.022 A 
ATOM     28  C   UNK d   0     -11.835 -11.067  -3.695  0.00  0.00     0.042 A 
ATOM     29  H   UNK d   0     -10.078 -12.098  -4.526  0.00  0.00     0.166 HD
ATOM     30  C   UNK d   0     -12.839 -11.109  -4.675  0.00  0.00     0.062 C 
ATOM     31  C   UNK d   0     -12.118 -10.412  -2.473  0.00  0.00    -0.013 A 
ATOM     32  C   UNK d   0     -13.177 -12.164  -5.508  0.00  0.00     0.066 A 
BRANCH   8  33
ATOM     33  C   UNK d   0     -14.871 -14.268  -8.001  0.00  0.00     0.151 C 
BRANCH  33  34
ATOM     34  C   UNK d   0     -15.421 -15.558  -7.546  0.00  0.00     0.143 C 
ATOM     35  O   UNK d   0     -16.280 -15.604  -6.654  0.00  0.00    -0.650 OA
BRANCH  34  36
ATOM     36  O   UNK d   0     -14.972 -16.724  -8.120  0.00  0.00    -0.776 OA
ATOM     37  H   UNK d   0     -14.375 -16.711  -8.959  0.00  0.00     0.167 HD
ENDBRANCH  34  36
ENDBRANCH  33  34
ENDBRANCH   8  33
BRANCH  31  38
ATOM     38  C   UNK d   0     -13.398  -9.730  -2.049  0.00  0.00     0.151 C 
BRANCH  38  39
ATOM     39  C   UNK d   0     -13.488  -8.363  -2.514  0.00  0.00     0.143 C 
ATOM     40  O   UNK d   0     -12.519  -7.767  -3.018  0.00  0.00    -0.650 OA
BRANCH  39  41
ATOM     41  O   UNK d   0     -14.697  -7.677  -2.402  0.00  0.00    -0.776 OA
ATOM     42  H   UNK d   0     -15.080  -7.272  -3.262  0.00  0.00     0.167 HD
ENDBRANCH  39  41
ENDBRANCH  38  39
ENDBRANCH  31  38
BRANCH  27  43
ATOM     43  C   UNK d   0     -10.844  -9.964  -0.336  0.00  0.00     0.052 C 
BRANCH  43  44
ATOM     44  C   UNK d   0     -10.268  -8.585  -0.315  0.00  0.00     0.115 C 
BRANCH  44  45
ATOM     45  C   UNK d   0      -8.824  -8.733   0.005  0.00  0.00     0.139 C 
ATOM     46  O   UNK d   0      -7.993  -8.567  -0.921  0.00  0.00    -0.650 OA
BRANCH  45  47
ATOM     47  O   UNK d   0      -8.367  -9.038   1.269  0.00  0.00    -0.776 OA
ATOM     48  H   UNK d   0      -7.803  -9.880   1.473  0.00  0.00     0.167 HD
ENDBRANCH  45  47
ENDBRANCH  44  45
ENDBRANCH  43  44
ENDBRANCH  27  43
BRANCH  24  49
ATOM     49  C   UNK d   0      -5.963 -12.570  -0.526  0.00  0.00     0.052 C 
BRANCH  49  50
ATOM     50  C   UNK d   0      -6.417 -12.829   0.888  0.00  0.00     0.115 C 
BRANCH  50  51
ATOM     51  C   UNK d   0      -6.303 -11.728   1.835  0.00  0.00     0.139 C 
ATOM     52  O   UNK d   0      -6.454 -11.880   3.070  0.00  0.00    -0.650 OA
BRANCH  51  53
ATOM     53  O   UNK d   0      -6.019 -10.452   1.373  0.00  0.00    -0.776 OA
ATOM     54  H   UNK d   0      -6.431  -9.670   1.851  0.00  0.00     0.167 HD
ENDBRANCH  51  53
ENDBRANCH  50  51
ENDBRANCH  49  50
ENDBRANCH  24  49
BRANCH  21  55
ATOM     55  C   UNK d   0      -5.600 -15.438  -1.614  0.00  0.00     0.151 C 
BRANCH  55  56
ATOM     56  C   UNK d   0      -4.672 -15.604  -2.744  0.00  0.00     0.143 C 
ATOM     57  O   UNK d   0      -4.832 -16.470  -3.627  0.00  0.00    -0.650 OA
BRANCH  56  58
ATOM     58  O   UNK d   0      -3.575 -14.748  -2.814  0.00  0.00    -0.776 OA
ATOM     59  H   UNK d   0      -3.714 -13.823  -2.369  0.00  0.00     0.167 HD
ENDBRANCH  56  58
ENDBRANCH  55  56
ENDBRANCH  21  55
BRANCH  18  60
ATOM     60  C   UNK d   0      -7.662 -17.244  -6.229  0.00  0.00     0.151 C 
BRANCH  60  61
ATOM     61  C   UNK d   0      -6.900 -16.239  -6.985  0.00  0.00     0.143 C 
ATOM     62  O   UNK d   0      -7.130 -15.837  -8.126  0.00  0.00    -0.650 OA
BRANCH  61  63
ATOM     63  O   UNK d   0      -5.787 -15.689  -6.304  0.00  0.00    -0.776 OA
ATOM     64  H   UNK d   0      -5.118 -15.115  -6.784  0.00  0.00     0.167 HD
ENDBRANCH  61  63
ENDBRANCH  60  61
ENDBRANCH  18  60
BRANCH  14  65
ATOM     65  C   UNK d   0     -10.218 -17.127  -7.861  0.00  0.00     0.052 C 
BRANCH  65  66
ATOM     66  C   UNK d   0     -10.604 -18.559  -7.750  0.00  0.00     0.115 C 
BRANCH  66  67
ATOM     67  C   UNK d   0     -10.539 -19.406  -8.908  0.00  0.00     0.139 C 
ATOM     68  O   UNK d   0      -9.984 -20.560  -8.793  0.00  0.00    -0.650 OA
BRANCH  67  69
ATOM     69  O   UNK d   0     -11.014 -19.135 -10.190  0.00  0.00    -0.776 OA
ATOM     70  H   UNK d   0     -10.978 -19.921 -10.856  0.00  0.00     0.167 HD
ENDBRANCH  67  69
ENDBRANCH  66  67
ENDBRANCH  65  66
ENDBRANCH  14  65
ENDBRANCH   6   7
ENDBRANCH   5   6
ENDBRANCH   2   5
TORSDOF 28
ENDMDL
MODEL 6
REMARK VINA RESULT:     -10.2     27.262     31.473
REMARK  28 active torsions:
REMARK  status: ('A' for Active; 'I' for Inactive)
REMARK    1  A    between atoms: C_2  and  O_3 
REMARK    2  A    between atoms: C_2  and  C_4 
REMARK    3  A    between atoms: C_4  and  C_5 
REMARK    4  A    between atoms: C_5  and  C_6 
REMARK    5  A    between atoms: C_7  and  C_8 
REMARK    6  A    between atoms: C_8  and  C_9 
REMARK    7  A    between atoms: C_9  and  O_11 
REMARK    8  A    between atoms: C_28  and  C_29 
REMARK    9  A    between atoms: C_29  and  C_30 
REMARK   10  A    between atoms: C_30  and  O_32 
REMARK   11  A    between atoms: C_33  and  C_34 
REMARK   12  A    between atoms: C_34  and  C_35 
REMARK   13  A    between atoms: C_35  and  C_36 
REMARK   14  A    between atoms: C_36  and  O_38 
REMARK   15  A    between atoms: C_39  and  C_40 
REMARK   16  A    between atoms: C_40  and  C_41 
REMARK   17  A    between atoms: C_41  and  C_42 
REMARK   18  A    between atoms: C_42  and  O_44 
REMARK   19  A    between atoms: C_45  and  C_46 
REMARK   20  A    between atoms: C_46  and  C_47 
REMARK   21  A    between atoms: C_47  and  O_49 
REMARK   22  A    between atoms: C_50  and  C_51 
REMARK   23  A    between atoms: C_51  and  C_52 
REMARK   24  A    between atoms: C_52  and  O_54 
REMARK   25  A    between atoms: C_55  and  C_56 
REMARK   26  A    between atoms: C_56  and  C_57 
REMARK   27  A    between atoms: C_57  and  C_58 
REMARK   28  A    between atoms: C_58  and  O_60 
ROOT
ATOM      1  O   UNK d   0     -29.089 -16.220  14.748  0.00  0.00    -0.650 OA
ATOM      2  C   UNK d   0     -29.904 -15.803  13.896  0.00  0.00     0.139 C 
ENDROOT
BRANCH   2   3
ATOM      3  O   UNK d   0     -29.478 -14.924  12.929  0.00  0.00    -0.776 OA
ATOM      4  H   UNK d   0     -28.514 -14.586  12.912  0.00  0.00     0.167 HD
ENDBRANCH   2   3
BRANCH   2   5
ATOM      5  C   UNK d   0     -31.323 -16.258  13.933  0.00  0.00     0.115 C 
BRANCH   5   6
ATOM      6  C   UNK d   0     -32.122 -15.548  12.874  0.00  0.00     0.052 C 
BRANCH   6   7
ATOM      7  C   UNK d   0     -33.440 -16.226  12.588  0.00  0.00    -0.020 A 
ATOM      8  C   UNK d   0     -34.619 -15.668  12.482  0.00  0.00    -0.011 A 
ATOM      9  C   UNK d   0     -35.586 -16.718  12.210  0.00  0.00     0.067 A 
ATOM     10  C   UNK d   0     -36.968 -16.786  11.975  0.00  0.00     0.062 C 
ATOM     11  N   UNK d   0     -34.910 -17.885  12.172  0.00  0.00    -0.248 NA
ATOM     12  C   UNK d   0     -37.687 -17.866  11.452  0.00  0.00     0.041 A 
ATOM     13  N   UNK d   0     -37.608 -19.187  11.702  0.00  0.00    -0.355 N 
ATOM     14  C   UNK d   0     -38.640 -17.626  10.446  0.00  0.00    -0.022 A 
ATOM     15  C   UNK d   0     -38.482 -19.792  10.874  0.00  0.00     0.042 A 
ATOM     16  H   UNK d   0     -36.963 -19.681  12.461  0.00  0.00     0.166 HD
ATOM     17  C   UNK d   0     -38.800 -21.156  10.721  0.00  0.00     0.062 C 
ATOM     18  C   UNK d   0     -39.147 -18.845  10.072  0.00  0.00    -0.013 A 
ATOM     19  C   UNK d   0     -37.957 -22.235  10.649  0.00  0.00     0.067 A 
ATOM     20  N   UNK d   0     -36.675 -22.023  10.958  0.00  0.00    -0.248 NA
ATOM     21  C   UNK d   0     -38.084 -23.639  10.292  0.00  0.00    -0.011 A 
ATOM     22  C   UNK d   0     -35.955 -23.185  10.826  0.00  0.00     0.066 A 
ATOM     23  C   UNK d   0     -34.608 -23.116  11.153  0.00  0.00     0.062 C 
ATOM     24  C   UNK d   0     -36.908 -24.188  10.394  0.00  0.00    -0.020 A 
ATOM     25  C   UNK d   0     -33.908 -22.024  11.690  0.00  0.00     0.041 A 
ATOM     26  N   UNK d   0     -33.976 -20.713  11.431  0.00  0.00    -0.355 N 
ATOM     27  C   UNK d   0     -32.955 -22.266  12.703  0.00  0.00    -0.022 A 
ATOM     28  C   UNK d   0     -33.099 -20.108  12.249  0.00  0.00     0.042 A 
ATOM     29  H   UNK d   0     -34.617 -20.219  10.660  0.00  0.00     0.166 HD
ATOM     30  C   UNK d   0     -32.766 -18.754  12.405  0.00  0.00     0.062 C 
ATOM     31  C   UNK d   0     -32.438 -21.059  13.062  0.00  0.00    -0.013 A 
ATOM     32  C   UNK d   0     -33.614 -17.658  12.392  0.00  0.00     0.066 A 
BRANCH   8  33
ATOM     33  C   UNK d   0     -34.934 -14.233  12.616  0.00  0.00     0.151 C 
BRANCH  33  34
ATOM     34  C   UNK d   0     -35.074 -13.556  11.315  0.00  0.00     0.143 C 
ATOM     35  O   UNK d   0     -35.321 -14.199  10.285  0.00  0.00    -0.650 OA
BRANCH  34  36
ATOM     36  O   UNK d   0     -34.927 -12.189  11.245  0.00  0.00    -0.776 OA
ATOM     37  H   UNK d   0     -35.615 -11.556  11.673  0.00  0.00     0.167 HD
ENDBRANCH  34  36
ENDBRANCH  33  34
ENDBRANCH   8  33
BRANCH  31  38
ATOM     38  C   UNK d   0     -31.390 -20.818  14.124  0.00  0.00     0.151 C 
BRANCH  38  39
ATOM     39  C   UNK d   0     -31.946 -20.296  15.354  0.00  0.00     0.143 C 
ATOM     40  O   UNK d   0     -31.429 -19.347  15.969  0.00  0.00    -0.650 OA
BRANCH  39  41
ATOM     41  O   UNK d   0     -33.105 -20.868  15.880  0.00  0.00    -0.776 OA
ATOM     42  H   UNK d   0     -33.497 -21.667  15.372  0.00  0.00     0.167 HD
ENDBRANCH  39  41
ENDBRANCH  38  39
ENDBRANCH  31  38
BRANCH  27  43
ATOM     43  C   UNK d   0     -32.526 -23.571  13.323  0.00  0.00     0.052 C 
BRANCH  43  44
ATOM     44  C   UNK d   0     -31.091 -23.904  13.069  0.00  0.00     0.115 C 
BRANCH  44  45
ATOM     45  C   UNK d   0     -30.989 -24.274  11.634  0.00  0.00     0.139 C 
ATOM     46  O   UNK d   0     -30.229 -23.596  10.900  0.00  0.00    -0.650 OA
BRANCH  45  47
ATOM     47  O   UNK d   0     -31.686 -25.328  11.083  0.00  0.00    -0.776 OA
ATOM     48  H   UNK d   0     -31.553 -26.307  11.385  0.00  0.00     0.167 HD
ENDBRANCH  45  47
ENDBRANCH  44  45
ENDBRANCH  43  44
ENDBRANCH  27  43
BRANCH  24  49
ATOM     49  C   UNK d   0     -36.589 -25.606  10.161  0.00  0.00     0.052 C 
BRANCH  49  50
ATOM     50  C   UNK d   0     -36.337 -26.309  11.470  0.00  0.00     0.115 C 
BRANCH  50  51
ATOM     51  C   UNK d   0     -35.283 -27.314  11.493  0.00  0.00     0.139 C 
ATOM     52  O   UNK d   0     -34.146 -27.113  11.004  0.00  0.00    -0.650 OA
BRANCH  51  53
ATOM     53  O   UNK d   0     -35.525 -28.550  12.072  0.00  0.00    -0.776 OA
ATOM     54  H   UNK d   0     -34.825 -29.265  11.979  0.00  0.00     0.167 HD
ENDBRANCH  51  53
ENDBRANCH  50  51
ENDBRANCH  49  50
ENDBRANCH  24  49
BRANCH  21  55
ATOM     55  C   UNK d   0     -39.369 -24.285   9.891  0.00  0.00     0.151 C 
BRANCH  55  56
ATOM     56  C   UNK d   0     -40.288 -24.439  11.029  0.00  0.00     0.143 C 
ATOM     57  O   UNK d   0     -41.217 -23.639  11.259  0.00  0.00    -0.650 OA
BRANCH  56  58
ATOM     58  O   UNK d   0     -40.097 -25.530  11.875  0.00  0.00    -0.776 OA
ATOM     59  H   UNK d   0     -39.228 -26.067  11.704  0.00  0.00     0.167 HD
ENDBRANCH  56  58
ENDBRANCH  55  56
ENDBRANCH  21  55
BRANCH  18  60
ATOM     60  C   UNK d   0     -40.197 -19.056   9.009  0.00  0.00     0.151 C 
BRANCH  60  61
ATOM     61  C   UNK d   0     -41.476 -19.183   9.724  0.00  0.00     0.143 C 
ATOM     62  O   UNK d   0     -41.935 -20.199  10.248  0.00  0.00    -0.650 OA
BRANCH  61  63
ATOM     63  O   UNK d   0     -42.242 -17.995   9.806  0.00  0.00    -0.776 OA
ATOM     64  H   UNK d   0     -41.973 -17.170   9.301  0.00  0.00     0.167 HD
ENDBRANCH  61  63
ENDBRANCH  60  61
ENDBRANCH  18  60
BRANCH  14  65
ATOM     65  C   UNK d   0     -39.174 -16.337   9.888  0.00  0.00     0.052 C 
BRANCH  65  66
ATOM     66  C   UNK d   0     -39.672 -15.410  10.939  0.00  0.00     0.115 C 
BRANCH  66  67
ATOM     67  C   UNK d   0     -41.077 -15.351  11.228  0.00  0.00     0.139 C 
ATOM     68  O   UNK d   0     -41.808 -14.533  10.556  0.00  0.00    -0.650 OA
BRANCH  67  69
ATOM     69  O   UNK d   0     -41.786 -16.089  12.175  0.00  0.00    -0.776 OA
ATOM     70  H   UNK d   0     -42.603 -15.618  12.590  0.00  0.00     0.167 HD
ENDBRANCH  67  69
ENDBRANCH  66  67
ENDBRANCH  65  66
ENDBRANCH  14  65
ENDBRANCH   6   7
ENDBRANCH   5   6
ENDBRANCH   2   5
TORSDOF 28
ENDMDL
MODEL 7
REMARK VINA RESULT:     -10.1     27.353     31.476
REMARK  28 active torsions:
REMARK  status: ('A' for Active; 'I' for Inactive)
REMARK    1  A    between atoms: C_2  and  O_3 
REMARK    2  A    between atoms: C_2  and  C_4 
REMARK    3  A    between atoms: C_4  and  C_5 
REMARK    4  A    between atoms: C_5  and  C_6 
REMARK    5  A    between atoms: C_7  and  C_8 
REMARK    6  A    between atoms: C_8  and  C_9 
REMARK    7  A    between atoms: C_9  and  O_11 
REMARK    8  A    between atoms: C_28  and  C_29 
REMARK    9  A    between atoms: C_29  and  C_30 
REMARK   10  A    between atoms: C_30  and  O_32 
REMARK   11  A    between atoms: C_33  and  C_34 
REMARK   12  A    between atoms: C_34  and  C_35 
REMARK   13  A    between atoms: C_35  and  C_36 
REMARK   14  A    between atoms: C_36  and  O_38 
REMARK   15  A    between atoms: C_39  and  C_40 
REMARK   16  A    between atoms: C_40  and  C_41 
REMARK   17  A    between atoms: C_41  and  C_42 
REMARK   18  A    between atoms: C_42  and  O_44 
REMARK   19  A    between atoms: C_45  and  C_46 
REMARK   20  A    between atoms: C_46  and  C_47 
REMARK   21  A    between atoms: C_47  and  O_49 
REMARK   22  A    between atoms: C_50  and  C_51 
REMARK   23  A    between atoms: C_51  and  C_52 
REMARK   24  A    between atoms: C_52  and  O_54 
REMARK   25  A    between atoms: C_55  and  C_56 
REMARK   26  A    between atoms: C_56  and  C_57 
REMARK   27  A    between atoms: C_57  and  C_58 
REMARK   28  A    between atoms: C_58  and  O_60 
ROOT
ATOM      1  O   UNK d   0     -31.371 -13.846  11.346  0.00  0.00    -0.650 OA
ATOM      2  C   UNK d   0     -32.464 -14.341  11.699  0.00  0.00     0.139 C 
ENDROOT
BRANCH   2   3
ATOM      3  O   UNK d   0     -32.695 -14.581  13.032  0.00  0.00    -0.776 OA
ATOM      4  H   UNK d   0     -32.173 -15.301  13.537  0.00  0.00     0.167 HD
ENDBRANCH   2   3
BRANCH   2   5
ATOM      5  C   UNK d   0     -33.502 -14.666  10.680  0.00  0.00     0.115 C 
BRANCH   5   6
ATOM      6  C   UNK d   0     -34.876 -14.480  11.264  0.00  0.00     0.052 C 
BRANCH   6   7
ATOM      7  C   UNK d   0     -35.772 -15.674  11.034  0.00  0.00    -0.020 A 
ATOM      8  C   UNK d   0     -37.015 -15.673  10.627  0.00  0.00    -0.011 A 
ATOM      9  C   UNK d   0     -37.464 -17.054  10.562  0.00  0.00     0.067 A 
ATOM     10  C   UNK d   0     -38.644 -17.719  10.194  0.00  0.00     0.062 C 
ATOM     11  N   UNK d   0     -36.431 -17.829  10.952  0.00  0.00    -0.248 NA
ATOM     12  C   UNK d   0     -38.800 -19.084   9.930  0.00  0.00     0.041 A 
ATOM     13  N   UNK d   0     -38.320 -20.170  10.565  0.00  0.00    -0.355 N 
ATOM     14  C   UNK d   0     -39.525 -19.478   8.791  0.00  0.00    -0.022 A 
ATOM     15  C   UNK d   0     -38.716 -21.243   9.854  0.00  0.00     0.042 A 
ATOM     16  H   UNK d   0     -37.731 -20.179  11.508  0.00  0.00     0.166 HD
ATOM     17  C   UNK d   0     -38.492 -22.617  10.072  0.00  0.00     0.062 C 
ATOM     18  C   UNK d   0     -39.474 -20.848   8.734  0.00  0.00    -0.013 A 
ATOM     19  C   UNK d   0     -37.330 -23.255  10.424  0.00  0.00     0.067 A 
ATOM     20  N   UNK d   0     -36.308 -22.485  10.807  0.00  0.00    -0.248 NA
ATOM     21  C   UNK d   0     -36.872 -24.634  10.483  0.00  0.00    -0.011 A 
ATOM     22  C   UNK d   0     -35.216 -23.260  11.112  0.00  0.00     0.066 A 
ATOM     23  C   UNK d   0     -34.090 -22.587  11.563  0.00  0.00     0.062 C 
ATOM     24  C   UNK d   0     -35.633 -24.629  10.882  0.00  0.00    -0.020 A 
ATOM     25  C   UNK d   0     -33.958 -21.216  11.834  0.00  0.00     0.041 A 
ATOM     26  N   UNK d   0     -34.422 -20.136  11.195  0.00  0.00    -0.355 N 
ATOM     27  C   UNK d   0     -33.233 -20.821  12.980  0.00  0.00    -0.022 A 
ATOM     28  C   UNK d   0     -34.021 -19.064  11.897  0.00  0.00     0.042 A 
ATOM     29  H   UNK d   0     -35.005 -20.128  10.241  0.00  0.00     0.166 HD
ATOM     30  C   UNK d   0     -34.229 -17.692  11.686  0.00  0.00     0.062 C 
ATOM     31  C   UNK d   0     -33.269 -19.462  13.028  0.00  0.00    -0.013 A 
ATOM     32  C   UNK d   0     -35.382 -17.060  11.249  0.00  0.00     0.066 A 
BRANCH   8  33
ATOM     33  C   UNK d   0     -37.836 -14.494  10.294  0.00  0.00     0.151 C 
BRANCH  33  34
ATOM     34  C   UNK d   0     -39.274 -14.806  10.204  0.00  0.00     0.143 C 
ATOM     35  O   UNK d   0     -39.976 -14.872  11.223  0.00  0.00    -0.650 OA
BRANCH  34  36
ATOM     36  O   UNK d   0     -39.840 -15.030   8.970  0.00  0.00    -0.776 OA
ATOM     37  H   UNK d   0     -39.260 -15.136   8.127  0.00  0.00     0.167 HD
ENDBRANCH  34  36
ENDBRANCH  33  34
ENDBRANCH   8  33
BRANCH  31  38
ATOM     38  C   UNK d   0     -32.639 -18.590  14.089  0.00  0.00     0.151 C 
BRANCH  38  39
ATOM     39  C   UNK d   0     -31.282 -18.204  13.767  0.00  0.00     0.143 C 
ATOM     40  O   UNK d   0     -30.305 -18.931  14.022  0.00  0.00    -0.650 OA
BRANCH  39  41
ATOM     41  O   UNK d   0     -31.046 -16.978  13.147  0.00  0.00    -0.776 OA
ATOM     42  H   UNK d   0     -30.214 -16.461  13.448  0.00  0.00     0.167 HD
ENDBRANCH  39  41
ENDBRANCH  38  39
ENDBRANCH  31  38
BRANCH  27  43
ATOM     43  C   UNK d   0     -32.524 -21.671  14.005  0.00  0.00     0.052 C 
BRANCH  43  44
ATOM     44  C   UNK d   0     -31.249 -22.265  13.500  0.00  0.00     0.115 C 
BRANCH  44  45
ATOM     45  C   UNK d   0     -31.439 -23.739  13.499  0.00  0.00     0.139 C 
ATOM     46  O   UNK d   0     -30.974 -24.395  12.534  0.00  0.00    -0.650 OA
BRANCH  45  47
ATOM     47  O   UNK d   0     -32.095 -24.408  14.510  0.00  0.00    -0.776 OA
ATOM     48  H   UNK d   0     -32.800 -23.957  15.115  0.00  0.00     0.167 HD
ENDBRANCH  45  47
ENDBRANCH  44  45
ENDBRANCH  43  44
ENDBRANCH  27  43
BRANCH  24  49
ATOM     49  C   UNK d   0     -34.792 -25.815  11.118  0.00  0.00     0.052 C 
BRANCH  49  50
ATOM     50  C   UNK d   0     -34.408 -26.454   9.808  0.00  0.00     0.115 C 
BRANCH  50  51
ATOM     51  C   UNK d   0     -33.013 -26.354   9.403  0.00  0.00     0.139 C 
ATOM     52  O   UNK d   0     -32.308 -27.360   9.151  0.00  0.00    -0.650 OA
BRANCH  51  53
ATOM     53  O   UNK d   0     -32.419 -25.107   9.289  0.00  0.00    -0.776 OA
ATOM     54  H   UNK d   0     -33.004 -24.320   9.071  0.00  0.00     0.167 HD
ENDBRANCH  51  53
ENDBRANCH  50  51
ENDBRANCH  49  50
ENDBRANCH  24  49
BRANCH  21  55
ATOM     55  C   UNK d   0     -37.722 -25.811  10.139  0.00  0.00     0.151 C 
BRANCH  55  56
ATOM     56  C   UNK d   0     -38.403 -26.364  11.320  0.00  0.00     0.143 C 
ATOM     57  O   UNK d   0     -37.934 -27.305  11.990  0.00  0.00    -0.650 OA
BRANCH  56  58
ATOM     58  O   UNK d   0     -39.622 -25.800  11.690  0.00  0.00    -0.776 OA
ATOM     59  H   UNK d   0     -39.954 -26.059  12.637  0.00  0.00     0.167 HD
ENDBRANCH  56  58
ENDBRANCH  55  56
ENDBRANCH  21  55
BRANCH  18  60
ATOM     60  C   UNK d   0     -40.116 -21.694   7.663  0.00  0.00     0.151 C 
BRANCH  60  61
ATOM     61  C   UNK d   0     -41.461 -22.021   8.158  0.00  0.00     0.143 C 
ATOM     62  O   UNK d   0     -41.889 -21.866   9.303  0.00  0.00    -0.650 OA
BRANCH  61  63
ATOM     63  O   UNK d   0     -42.340 -22.573   7.195  0.00  0.00    -0.776 OA
ATOM     64  H   UNK d   0     -42.335 -22.251   6.244  0.00  0.00     0.167 HD
ENDBRANCH  61  63
ENDBRANCH  60  61
ENDBRANCH  18  60
BRANCH  14  65
ATOM     65  C   UNK d   0     -40.338 -18.672   7.818  0.00  0.00     0.052 C 
BRANCH  65  66
ATOM     66  C   UNK d   0     -41.751 -18.494   8.247  0.00  0.00     0.115 C 
BRANCH  66  67
ATOM     67  C   UNK d   0     -42.053 -18.289   9.636  0.00  0.00     0.139 C 
ATOM     68  O   UNK d   0     -42.099 -17.084  10.082  0.00  0.00    -0.650 OA
BRANCH  67  69
ATOM     69  O   UNK d   0     -42.313 -19.257  10.605  0.00  0.00    -0.776 OA
ATOM     70  H   UNK d   0     -42.690 -18.908  11.497  0.00  0.00     0.167 HD
ENDBRANCH  67  69
ENDBRANCH  66  67
ENDBRANCH  65  66
ENDBRANCH  14  65
ENDBRANCH   6   7
ENDBRANCH   5   6
ENDBRANCH   2   5
TORSDOF 28
ENDMDL
MODEL 8
REMARK VINA RESULT:     -10.0     27.008     31.435
REMARK  28 active torsions:
REMARK  status: ('A' for Active; 'I' for Inactive)
REMARK    1  A    between atoms: C_2  and  O_3 
REMARK    2  A    between atoms: C_2  and  C_4 
REMARK    3  A    between atoms: C_4  and  C_5 
REMARK    4  A    between atoms: C_5  and  C_6 
REMARK    5  A    between atoms: C_7  and  C_8 
REMARK    6  A    between atoms: C_8  and  C_9 
REMARK    7  A    between atoms: C_9  and  O_11 
REMARK    8  A    between atoms: C_28  and  C_29 
REMARK    9  A    between atoms: C_29  and  C_30 
REMARK   10  A    between atoms: C_30  and  O_32 
REMARK   11  A    between atoms: C_33  and  C_34 
REMARK   12  A    between atoms: C_34  and  C_35 
REMARK   13  A    between atoms: C_35  and  C_36 
REMARK   14  A    between atoms: C_36  and  O_38 
REMARK   15  A    between atoms: C_39  and  C_40 
REMARK   16  A    between atoms: C_40  and  C_41 
REMARK   17  A    between atoms: C_41  and  C_42 
REMARK   18  A    between atoms: C_42  and  O_44 
REMARK   19  A    between atoms: C_45  and  C_46 
REMARK   20  A    between atoms: C_46  and  C_47 
REMARK   21  A    between atoms: C_47  and  O_49 
REMARK   22  A    between atoms: C_50  and  C_51 
REMARK   23  A    between atoms: C_51  and  C_52 
REMARK   24  A    between atoms: C_52  and  O_54 
REMARK   25  A    between atoms: C_55  and  C_56 
REMARK   26  A    between atoms: C_56  and  C_57 
REMARK   27  A    between atoms: C_57  and  C_58 
REMARK   28  A    between atoms: C_58  and  O_60 
ROOT
ATOM      1  O   UNK d   0     -31.768 -25.856  11.234  0.00  0.00    -0.650 OA
ATOM      2  C   UNK d   0     -31.684 -24.688  10.791  0.00  0.00     0.139 C 
ENDROOT
BRANCH   2   3
ATOM      3  O   UNK d   0     -32.142 -24.413   9.525  0.00  0.00    -0.776 OA
ATOM      4  H   UNK d   0     -33.127 -24.536   9.283  0.00  0.00     0.167 HD
ENDBRANCH   2   3
BRANCH   2   5
ATOM      5  C   UNK d   0     -31.090 -23.610  11.632  0.00  0.00     0.115 C 
BRANCH   5   6
ATOM      6  C   UNK d   0     -31.873 -23.460  12.909  0.00  0.00     0.052 C 
BRANCH   6   7
ATOM      7  C   UNK d   0     -32.698 -22.195  12.939  0.00  0.00    -0.020 A 
ATOM      8  C   UNK d   0     -32.479 -21.117  13.647  0.00  0.00    -0.011 A 
ATOM      9  C   UNK d   0     -33.542 -20.169  13.353  0.00  0.00     0.067 A 
ATOM     10  C   UNK d   0     -33.872 -18.864  13.749  0.00  0.00     0.062 C 
ATOM     11  N   UNK d   0     -34.366 -20.756  12.461  0.00  0.00    -0.248 NA
ATOM     12  C   UNK d   0     -34.792 -18.002  13.142  0.00  0.00     0.041 A 
ATOM     13  N   UNK d   0     -36.026 -18.225  12.653  0.00  0.00    -0.355 N 
ATOM     14  C   UNK d   0     -34.423 -16.663  12.916  0.00  0.00    -0.022 A 
ATOM     15  C   UNK d   0     -36.447 -17.064  12.115  0.00  0.00     0.042 A 
ATOM     16  H   UNK d   0     -36.596 -19.178  12.703  0.00  0.00     0.166 HD
ATOM     17  C   UNK d   0     -37.660 -16.741  11.474  0.00  0.00     0.062 C 
ATOM     18  C   UNK d   0     -35.469 -16.062  12.261  0.00  0.00    -0.013 A 
ATOM     19  C   UNK d   0     -38.350 -17.452  10.525  0.00  0.00     0.067 A 
ATOM     20  N   UNK d   0     -37.950 -18.706  10.300  0.00  0.00    -0.248 NA
ATOM     21  C   UNK d   0     -39.462 -17.190   9.628  0.00  0.00    -0.011 A 
ATOM     22  C   UNK d   0     -38.720 -19.283   9.320  0.00  0.00     0.066 A 
ATOM     23  C   UNK d   0     -38.436 -20.605   9.011  0.00  0.00     0.062 C 
ATOM     24  C   UNK d   0     -39.671 -18.264   8.922  0.00  0.00    -0.020 A 
ATOM     25  C   UNK d   0     -37.517 -21.457   9.642  0.00  0.00     0.041 A 
ATOM     26  N   UNK d   0     -36.284 -21.239  10.114  0.00  0.00    -0.355 N 
ATOM     27  C   UNK d   0     -37.889 -22.800   9.872  0.00  0.00    -0.022 A 
ATOM     28  C   UNK d   0     -35.858 -22.398  10.643  0.00  0.00     0.042 A 
ATOM     29  H   UNK d   0     -35.708 -20.283  10.053  0.00  0.00     0.166 HD
ATOM     30  C   UNK d   0     -34.651 -22.735  11.275  0.00  0.00     0.062 C 
ATOM     31  C   UNK d   0     -36.846 -23.402  10.505  0.00  0.00    -0.013 A 
ATOM     32  C   UNK d   0     -33.914 -21.977  12.170  0.00  0.00     0.066 A 
BRANCH   8  33
ATOM     33  C   UNK d   0     -31.366 -20.884  14.585  0.00  0.00     0.151 C 
BRANCH  33  34
ATOM     34  C   UNK d   0     -30.999 -19.461  14.693  0.00  0.00     0.143 C 
ATOM     35  O   UNK d   0     -31.210 -18.827  15.737  0.00  0.00    -0.650 OA
BRANCH  34  36
ATOM     36  O   UNK d   0     -30.415 -18.830  13.619  0.00  0.00    -0.776 OA
ATOM     37  H   UNK d   0     -30.933 -18.140  13.058  0.00  0.00     0.167 HD
ENDBRANCH  34  36
ENDBRANCH  33  34
ENDBRANCH   8  33
BRANCH  31  38
ATOM     38  C   UNK d   0     -36.792 -24.840  10.966  0.00  0.00     0.151 C 
BRANCH  38  39
ATOM     39  C   UNK d   0     -35.511 -25.464  10.711  0.00  0.00     0.143 C 
ATOM     40  O   UNK d   0     -35.032 -25.556   9.567  0.00  0.00    -0.650 OA
BRANCH  39  41
ATOM     41  O   UNK d   0     -34.777 -25.984  11.776  0.00  0.00    -0.776 OA
ATOM     42  H   UNK d   0     -34.284 -26.867  11.610  0.00  0.00     0.167 HD
ENDBRANCH  39  41
ENDBRANCH  38  39
ENDBRANCH  31  38
BRANCH  27  43
ATOM     43  C   UNK d   0     -39.170 -23.514   9.517  0.00  0.00     0.052 C 
BRANCH  43  44
ATOM     44  C   UNK d   0     -40.146 -23.572  10.647  0.00  0.00     0.115 C 
BRANCH  44  45
ATOM     45  C   UNK d   0     -40.851 -22.264  10.666  0.00  0.00     0.139 C 
ATOM     46  O   UNK d   0     -40.631 -21.487  11.628  0.00  0.00    -0.650 OA
BRANCH  45  47
ATOM     47  O   UNK d   0     -41.724 -21.871   9.675  0.00  0.00    -0.776 OA
ATOM     48  H   UNK d   0     -42.459 -22.491   9.297  0.00  0.00     0.167 HD
ENDBRANCH  45  47
ENDBRANCH  44  45
ENDBRANCH  43  44
ENDBRANCH  27  43
BRANCH  24  49
ATOM     49  C   UNK d   0     -40.730 -18.449   7.915  0.00  0.00     0.052 C 
BRANCH  49  50
ATOM     50  C   UNK d   0     -40.233 -18.046   6.551  0.00  0.00     0.115 C 
BRANCH  50  51
ATOM     51  C   UNK d   0     -41.043 -17.094   5.802  0.00  0.00     0.139 C 
ATOM     52  O   UNK d   0     -40.581 -16.019   5.353  0.00  0.00    -0.650 OA
BRANCH  51  53
ATOM     53  O   UNK d   0     -42.381 -17.368   5.567  0.00  0.00    -0.776 OA
ATOM     54  H   UNK d   0     -43.017 -16.594   5.482  0.00  0.00     0.167 HD
ENDBRANCH  51  53
ENDBRANCH  50  51
ENDBRANCH  49  50
ENDBRANCH  24  49
BRANCH  21  55
ATOM     55  C   UNK d   0     -40.203 -15.895   9.572  0.00  0.00     0.151 C 
BRANCH  55  56
ATOM     56  C   UNK d   0     -41.113 -15.731  10.716  0.00  0.00     0.143 C 
ATOM     57  O   UNK d   0     -41.162 -14.686  11.395  0.00  0.00    -0.650 OA
BRANCH  56  58
ATOM     58  O   UNK d   0     -41.948 -16.799  11.040  0.00  0.00    -0.776 OA
ATOM     59  H   UNK d   0     -41.501 -17.732  10.992  0.00  0.00     0.167 HD
ENDBRANCH  56  58
ENDBRANCH  55  56
ENDBRANCH  21  55
BRANCH  18  60
ATOM     60  C   UNK d   0     -35.496 -14.621  11.815  0.00  0.00     0.151 C 
BRANCH  60  61
ATOM     61  C   UNK d   0     -35.462 -14.652  10.345  0.00  0.00     0.143 C 
ATOM     62  O   UNK d   0     -34.541 -15.051   9.633  0.00  0.00    -0.650 OA
BRANCH  61  63
ATOM     63  O   UNK d   0     -36.627 -14.165   9.705  0.00  0.00    -0.776 OA
ATOM     64  H   UNK d   0     -36.586 -13.776   8.780  0.00  0.00     0.167 HD
ENDBRANCH  61  63
ENDBRANCH  60  61
ENDBRANCH  18  60
BRANCH  14  65
ATOM     65  C   UNK d   0     -33.211 -15.892  13.355  0.00  0.00     0.052 C 
BRANCH  65  66
ATOM     66  C   UNK d   0     -32.179 -15.774  12.290  0.00  0.00     0.115 C 
BRANCH  66  67
ATOM     67  C   UNK d   0     -31.230 -14.698  12.335  0.00  0.00     0.139 C 
ATOM     68  O   UNK d   0     -31.235 -13.835  11.381  0.00  0.00    -0.650 OA
BRANCH  67  69
ATOM     69  O   UNK d   0     -30.265 -14.451  13.311  0.00  0.00    -0.776 OA
ATOM     70  H   UNK d   0     -30.252 -15.108  14.104  0.00  0.00     0.167 HD
ENDBRANCH  67  69
ENDBRANCH  66  67
ENDBRANCH  65  66
ENDBRANCH  14  65
ENDBRANCH   6   7
ENDBRANCH   5   6
ENDBRANCH   2   5
TORSDOF 28
ENDMDL
MODEL 9
REMARK VINA RESULT:      -9.9     27.097     29.873
REMARK  28 active torsions:
REMARK  status: ('A' for Active; 'I' for Inactive)
REMARK    1  A    between atoms: C_2  and  O_3 
REMARK    2  A    between atoms: C_2  and  C_4 
REMARK    3  A    between atoms: C_4  and  C_5 
REMARK    4  A    between atoms: C_5  and  C_6 
REMARK    5  A    between atoms: C_7  and  C_8 
REMARK    6  A    between atoms: C_8  and  C_9 
REMARK    7  A    between atoms: C_9  and  O_11 
REMARK    8  A    between atoms: C_28  and  C_29 
REMARK    9  A    between atoms: C_29  and  C_30 
REMARK   10  A    between atoms: C_30  and  O_32 
REMARK   11  A    between atoms: C_33  and  C_34 
REMARK   12  A    between atoms: C_34  and  C_35 
REMARK   13  A    between atoms: C_35  and  C_36 
REMARK   14  A    between atoms: C_36  and  O_38 
REMARK   15  A    between atoms: C_39  and  C_40 
REMARK   16  A    between atoms: C_40  and  C_41 
REMARK   17  A    between atoms: C_41  and  C_42 
REMARK   18  A    between atoms: C_42  and  O_44 
REMARK   19  A    between atoms: C_45  and  C_46 
REMARK   20  A    between atoms: C_46  and  C_47 
REMARK   21  A    between atoms: C_47  and  O_49 
REMARK   22  A    between atoms: C_50  and  C_51 
REMARK   23  A    between atoms: C_51  and  C_52 
REMARK   24  A    between atoms: C_52  and  O_54 
REMARK   25  A    between atoms: C_55  and  C_56 
REMARK   26  A    between atoms: C_56  and  C_57 
REMARK   27  A    between atoms: C_57  and  C_58 
REMARK   28  A    between atoms: C_58  and  O_60 
ROOT
ATOM      1  O   UNK d   0     -39.216 -24.239  10.103  0.00  0.00    -0.650 OA
ATOM      2  C   UNK d   0     -40.190 -23.490  10.336  0.00  0.00     0.139 C 
ENDROOT
BRANCH   2   3
ATOM      3  O   UNK d   0     -41.085 -23.835  11.320  0.00  0.00    -0.776 OA
ATOM      4  H   UNK d   0     -41.924 -24.377  11.103  0.00  0.00     0.167 HD
ENDBRANCH   2   3
BRANCH   2   5
ATOM      5  C   UNK d   0     -40.374 -22.236   9.551  0.00  0.00     0.115 C 
BRANCH   5   6
ATOM      6  C   UNK d   0     -39.243 -22.066   8.575  0.00  0.00     0.052 C 
BRANCH   6   7
ATOM      7  C   UNK d   0     -38.343 -20.905   8.925  0.00  0.00    -0.020 A 
ATOM      8  C   UNK d   0     -38.440 -19.667   8.514  0.00  0.00    -0.011 A 
ATOM      9  C   UNK d   0     -37.347 -18.914   9.107  0.00  0.00     0.067 A 
ATOM     10  C   UNK d   0     -36.909 -17.581   9.088  0.00  0.00     0.062 C 
ATOM     11  N   UNK d   0     -36.631 -19.774   9.860  0.00  0.00    -0.248 NA
ATOM     12  C   UNK d   0     -35.987 -16.980   9.952  0.00  0.00     0.041 A 
ATOM     13  N   UNK d   0     -34.809 -17.418  10.436  0.00  0.00    -0.355 N 
ATOM     14  C   UNK d   0     -36.289 -15.719  10.500  0.00  0.00    -0.022 A 
ATOM     15  C   UNK d   0     -34.361 -16.472  11.283  0.00  0.00     0.042 A 
ATOM     16  H   UNK d   0     -34.296 -18.368  10.170  0.00  0.00     0.166 HD
ATOM     17  C   UNK d   0     -33.183 -16.422  12.055  0.00  0.00     0.062 C 
ATOM     18  C   UNK d   0     -35.262 -15.392  11.349  0.00  0.00    -0.013 A 
ATOM     19  C   UNK d   0     -32.613 -17.405  12.823  0.00  0.00     0.067 A 
ATOM     20  N   UNK d   0     -33.104 -18.640  12.687  0.00  0.00    -0.248 NA
ATOM     21  C   UNK d   0     -31.558 -17.472  13.820  0.00  0.00    -0.011 A 
ATOM     22  C   UNK d   0     -32.448 -19.508  13.524  0.00  0.00     0.066 A 
ATOM     23  C   UNK d   0     -32.835 -20.839  13.458  0.00  0.00     0.062 C 
ATOM     24  C   UNK d   0     -31.469 -18.704  14.230  0.00  0.00    -0.020 A 
ATOM     25  C   UNK d   0     -33.753 -21.425  12.574  0.00  0.00     0.041 A 
ATOM     26  N   UNK d   0     -34.931 -20.996  12.104  0.00  0.00    -0.355 N 
ATOM     27  C   UNK d   0     -33.447 -22.687  12.021  0.00  0.00    -0.022 A 
ATOM     28  C   UNK d   0     -35.385 -21.941  11.267  0.00  0.00     0.042 A 
ATOM     29  H   UNK d   0     -35.450 -20.045  12.381  0.00  0.00     0.166 HD
ATOM     30  C   UNK d   0     -36.559 -22.008  10.499  0.00  0.00     0.062 C 
ATOM     31  C   UNK d   0     -34.474 -23.021  11.192  0.00  0.00    -0.013 A 
ATOM     32  C   UNK d   0     -37.178 -20.989   9.794  0.00  0.00     0.066 A 
BRANCH   8  33
ATOM     33  C   UNK d   0     -39.462 -19.113   7.607  0.00  0.00     0.151 C 
BRANCH  33  34
ATOM     34  C   UNK d   0     -40.505 -18.353   8.319  0.00  0.00     0.143 C 
ATOM     35  O   UNK d   0     -40.728 -18.551   9.522  0.00  0.00    -0.650 OA
BRANCH  34  36
ATOM     36  O   UNK d   0     -41.240 -17.411   7.636  0.00  0.00    -0.776 OA
ATOM     37  H   UNK d   0     -40.811 -16.826   6.906  0.00  0.00     0.167 HD
ENDBRANCH  34  36
ENDBRANCH  33  34
ENDBRANCH   8  33
BRANCH  31  38
ATOM     38  C   UNK d   0     -34.580 -24.283  10.368  0.00  0.00     0.151 C 
BRANCH  38  39
ATOM     39  C   UNK d   0     -35.208 -25.372  11.086  0.00  0.00     0.143 C 
ATOM     40  O   UNK d   0     -36.438 -25.554  11.075  0.00  0.00    -0.650 OA
BRANCH  39  41
ATOM     41  O   UNK d   0     -34.418 -26.256  11.821  0.00  0.00    -0.776 OA
ATOM     42  H   UNK d   0     -33.895 -26.958  11.289  0.00  0.00     0.167 HD
ENDBRANCH  39  41
ENDBRANCH  38  39
ENDBRANCH  31  38
BRANCH  27  43
ATOM     43  C   UNK d   0     -32.244 -23.567  12.250  0.00  0.00     0.052 C 
BRANCH  43  44
ATOM     44  C   UNK d   0     -31.537 -23.940  10.987  0.00  0.00     0.115 C 
BRANCH  44  45
ATOM     45  C   UNK d   0     -30.908 -25.265  11.229  0.00  0.00     0.139 C 
ATOM     46  O   UNK d   0     -29.654 -25.336  11.217  0.00  0.00    -0.650 OA
BRANCH  45  47
ATOM     47  O   UNK d   0     -31.640 -26.407  11.469  0.00  0.00    -0.776 OA
ATOM     48  H   UNK d   0     -31.807 -27.128  10.747  0.00  0.00     0.167 HD
ENDBRANCH  45  47
ENDBRANCH  44  45
ENDBRANCH  43  44
ENDBRANCH  27  43
BRANCH  24  49
ATOM     49  C   UNK d   0     -30.504 -19.226  15.213  0.00  0.00     0.052 C 
BRANCH  49  50
ATOM     50  C   UNK d   0     -30.867 -18.765  16.601  0.00  0.00     0.115 C 
BRANCH  50  51
ATOM     51  C   UNK d   0     -32.124 -19.250  17.155  0.00  0.00     0.139 C 
ATOM     52  O   UNK d   0     -32.618 -20.358  16.841  0.00  0.00    -0.650 OA
BRANCH  51  53
ATOM     53  O   UNK d   0     -32.819 -18.470  18.067  0.00  0.00    -0.776 OA
ATOM     54  H   UNK d   0     -33.815 -18.393  17.964  0.00  0.00     0.167 HD
ENDBRANCH  51  53
ENDBRANCH  50  51
ENDBRANCH  49  50
ENDBRANCH  24  49
BRANCH  21  55
ATOM     55  C   UNK d   0     -30.746 -16.298  14.257  0.00  0.00     0.151 C 
BRANCH  55  56
ATOM     56  C   UNK d   0     -30.921 -15.143  13.363  0.00  0.00     0.143 C 
ATOM     57  O   UNK d   0     -30.247 -14.984  12.326  0.00  0.00    -0.650 OA
BRANCH  56  58
ATOM     58  O   UNK d   0     -31.886 -14.197  13.705  0.00  0.00    -0.776 OA
ATOM     59  H   UNK d   0     -32.865 -14.536  13.657  0.00  0.00     0.167 HD
ENDBRANCH  56  58
ENDBRANCH  55  56
ENDBRANCH  21  55
BRANCH  18  60
ATOM     60  C   UNK d   0     -35.181 -14.121  12.158  0.00  0.00     0.151 C 
BRANCH  60  61
ATOM     61  C   UNK d   0     -34.308 -13.214  11.398  0.00  0.00     0.143 C 
ATOM     62  O   UNK d   0     -33.157 -13.435  11.020  0.00  0.00    -0.650 OA
BRANCH  61  63
ATOM     63  O   UNK d   0     -34.876 -11.957  11.080  0.00  0.00    -0.776 OA
ATOM     64  H   UNK d   0     -35.029 -11.262  11.790  0.00  0.00     0.167 HD
ENDBRANCH  61  63
ENDBRANCH  60  61
ENDBRANCH  18  60
BRANCH  14  65
ATOM     65  C   UNK d   0     -37.415 -14.768  10.209  0.00  0.00     0.052 C 
BRANCH  65  66
ATOM     66  C   UNK d   0     -38.743 -15.293  10.626  0.00  0.00     0.115 C 
BRANCH  66  67
ATOM     67  C   UNK d   0     -39.918 -14.924   9.888  0.00  0.00     0.139 C 
ATOM     68  O   UNK d   0     -40.940 -14.491  10.537  0.00  0.00    -0.650 OA
BRANCH  67  69
ATOM     69  O   UNK d   0     -40.109 -14.972   8.507  0.00  0.00    -0.776 OA
ATOM     70  H   UNK d   0     -39.262 -15.134   7.943  0.00  0.00     0.167 HD
ENDBRANCH  67  69
ENDBRANCH  66  67
ENDBRANCH  65  66
ENDBRANCH  14  65
ENDBRANCH   6   7
ENDBRANCH   5   6
ENDBRANCH   2   5
TORSDOF 28
ENDMDL
MODEL 10
REMARK VINA RESULT:      -9.8      1.462      8.384
REMARK  28 active torsions:
REMARK  status: ('A' for Active; 'I' for Inactive)
REMARK    1  A    between atoms: C_2  and  O_3 
REMARK    2  A    between atoms: C_2  and  C_4 
REMARK    3  A    between atoms: C_4  and  C_5 
REMARK    4  A    between atoms: C_5  and  C_6 
REMARK    5  A    between atoms: C_7  and  C_8 
REMARK    6  A    between atoms: C_8  and  C_9 
REMARK    7  A    between atoms: C_9  and  O_11 
REMARK    8  A    between atoms: C_28  and  C_29 
REMARK    9  A    between atoms: C_29  and  C_30 
REMARK   10  A    between atoms: C_30  and  O_32 
REMARK   11  A    between atoms: C_33  and  C_34 
REMARK   12  A    between atoms: C_34  and  C_35 
REMARK   13  A    between atoms: C_35  and  C_36 
REMARK   14  A    between atoms: C_36  and  O_38 
REMARK   15  A    between atoms: C_39  and  C_40 
REMARK   16  A    between atoms: C_40  and  C_41 
REMARK   17  A    between atoms: C_41  and  C_42 
REMARK   18  A    between atoms: C_42  and  O_44 
REMARK   19  A    between atoms: C_45  and  C_46 
REMARK   20  A    between atoms: C_46  and  C_47 
REMARK   21  A    between atoms: C_47  and  O_49 
REMARK   22  A    between atoms: C_50  and  C_51 
REMARK   23  A    between atoms: C_51  and  C_52 
REMARK   24  A    between atoms: C_52  and  O_54 
REMARK   25  A    between atoms: C_55  and  C_56 
REMARK   26  A    between atoms: C_56  and  C_57 
REMARK   27  A    between atoms: C_57  and  C_58 
REMARK   28  A    between atoms: C_58  and  O_60 
ROOT
ATOM      1  O   UNK d   0      -7.916 -16.635  -8.289  0.00  0.00    -0.650 OA
ATOM      2  C   UNK d   0      -7.775 -17.666  -7.594  0.00  0.00     0.139 C 
ENDROOT
BRANCH   2   3
ATOM      3  O   UNK d   0      -8.617 -18.733  -7.793  0.00  0.00    -0.776 OA
ATOM      4  H   UNK d   0      -9.632 -18.611  -7.791  0.00  0.00     0.167 HD
ENDBRANCH   2   3
BRANCH   2   5
ATOM      5  C   UNK d   0      -6.702 -17.731  -6.561  0.00  0.00     0.115 C 
BRANCH   5   6
ATOM      6  C   UNK d   0      -7.288 -18.116  -5.230  0.00  0.00     0.052 C 
BRANCH   6   7
ATOM      7  C   UNK d   0      -7.714 -16.918  -4.414  0.00  0.00    -0.020 A 
ATOM      8  C   UNK d   0      -7.144 -16.443  -3.336  0.00  0.00    -0.011 A 
ATOM      9  C   UNK d   0      -7.912 -15.289  -2.899  0.00  0.00     0.067 A 
ATOM     10  C   UNK d   0      -7.826 -14.351  -1.859  0.00  0.00     0.062 C 
ATOM     11  N   UNK d   0      -8.936 -15.138  -3.766  0.00  0.00    -0.248 NA
ATOM     12  C   UNK d   0      -8.506 -13.132  -1.759  0.00  0.00     0.041 A 
ATOM     13  N   UNK d   0      -9.787 -12.808  -2.020  0.00  0.00    -0.355 N 
ATOM     14  C   UNK d   0      -7.791 -11.983  -1.378  0.00  0.00    -0.022 A 
ATOM     15  C   UNK d   0      -9.901 -11.481  -1.822  0.00  0.00     0.042 A 
ATOM     16  H   UNK d   0     -10.599 -13.506  -2.319  0.00  0.00     0.166 HD
ATOM     17  C   UNK d   0     -11.017 -10.631  -1.950  0.00  0.00     0.062 C 
ATOM     18  C   UNK d   0      -8.669 -10.929  -1.419  0.00  0.00    -0.013 A 
ATOM     19  C   UNK d   0     -11.951 -10.579  -2.953  0.00  0.00     0.067 A 
ATOM     20  N   UNK d   0     -11.943 -11.579  -3.839  0.00  0.00    -0.248 NA
ATOM     21  C   UNK d   0     -13.008  -9.664  -3.350  0.00  0.00    -0.011 A 
ATOM     22  C   UNK d   0     -12.918 -11.383  -4.786  0.00  0.00     0.066 A 
ATOM     23  C   UNK d   0     -13.046 -12.372  -5.751  0.00  0.00     0.062 C 
ATOM     24  C   UNK d   0     -13.567 -10.138  -4.426  0.00  0.00    -0.020 A 
ATOM     25  C   UNK d   0     -12.362 -13.595  -5.826  0.00  0.00     0.041 A 
ATOM     26  N   UNK d   0     -11.086 -13.914  -5.582  0.00  0.00    -0.355 N 
ATOM     27  C   UNK d   0     -13.082 -14.749  -6.204  0.00  0.00    -0.022 A 
ATOM     28  C   UNK d   0     -10.968 -15.236  -5.787  0.00  0.00     0.042 A 
ATOM     29  H   UNK d   0     -10.268 -13.210  -5.291  0.00  0.00     0.166 HD
ATOM     30  C   UNK d   0      -9.862 -16.093  -5.672  0.00  0.00     0.062 C 
ATOM     31  C   UNK d   0     -12.208 -15.792  -6.182  0.00  0.00    -0.013 A 
ATOM     32  C   UNK d   0      -8.873 -16.086  -4.701  0.00  0.00     0.066 A 
BRANCH   8  33
ATOM     33  C   UNK d   0      -5.942 -16.971  -2.665  0.00  0.00     0.151 C 
BRANCH  33  34
ATOM     34  C   UNK d   0      -4.789 -16.057  -2.759  0.00  0.00     0.143 C 
ATOM     35  O   UNK d   0      -3.916 -16.041  -1.879  0.00  0.00    -0.650 OA
BRANCH  34  36
ATOM     36  O   UNK d   0      -4.684 -15.211  -3.838  0.00  0.00    -0.776 OA
ATOM     37  H   UNK d   0      -5.511 -14.941  -4.388  0.00  0.00     0.167 HD
ENDBRANCH  34  36
ENDBRANCH  33  34
ENDBRANCH   8  33
BRANCH  31  38
ATOM     38  C   UNK d   0     -12.530 -17.233  -6.502  0.00  0.00     0.151 C 
BRANCH  38  39
ATOM     39  C   UNK d   0     -11.755 -17.749  -7.610  0.00  0.00     0.143 C 
ATOM     40  O   UNK d   0     -11.612 -18.968  -7.811  0.00  0.00    -0.650 OA
BRANCH  39  41
ATOM     41  O   UNK d   0     -11.142 -16.860  -8.492  0.00  0.00    -0.776 OA
ATOM     42  H   UNK d   0     -11.667 -16.612  -9.336  0.00  0.00     0.167 HD
ENDBRANCH  39  41
ENDBRANCH  38  39
ENDBRANCH  31  38
BRANCH  27  43
ATOM     43  C   UNK d   0     -14.536 -14.892  -6.580  0.00  0.00     0.052 C 
BRANCH  43  44
ATOM     44  C   UNK d   0     -14.786 -14.735  -8.045  0.00  0.00     0.115 C 
BRANCH  44  45
ATOM     45  C   UNK d   0     -15.668 -15.861  -8.447  0.00  0.00     0.139 C 
ATOM     46  O   UNK d   0     -16.893 -15.778  -8.181  0.00  0.00    -0.650 OA
BRANCH  45  47
ATOM     47  O   UNK d   0     -15.200 -16.981  -9.099  0.00  0.00    -0.776 OA
ATOM     48  H   UNK d   0     -14.901 -16.970 -10.088  0.00  0.00     0.167 HD
ENDBRANCH  45  47
ENDBRANCH  44  45
ENDBRANCH  43  44
ENDBRANCH  27  43
BRANCH  24  49
ATOM     49  C   UNK d   0     -14.709  -9.547  -5.144  0.00  0.00     0.052 C 
BRANCH  49  50
ATOM     50  C   UNK d   0     -16.002  -9.904  -4.458  0.00  0.00     0.115 C 
BRANCH  50  51
ATOM     51  C   UNK d   0     -16.982  -8.839  -4.290  0.00  0.00     0.139 C 
ATOM     52  O   UNK d   0     -17.062  -7.864  -5.074  0.00  0.00    -0.650 OA
BRANCH  51  53
ATOM     53  O   UNK d   0     -17.869  -8.885  -3.226  0.00  0.00    -0.776 OA
ATOM     54  H   UNK d   0     -18.705  -9.434  -3.326  0.00  0.00     0.167 HD
ENDBRANCH  51  53
ENDBRANCH  50  51
ENDBRANCH  49  50
ENDBRANCH  24  49
BRANCH  21  55
ATOM     55  C   UNK d   0     -13.352  -8.414  -2.611  0.00  0.00     0.151 C 
BRANCH  55  56
ATOM     56  C   UNK d   0     -14.080  -8.693  -1.363  0.00  0.00     0.143 C 
ATOM     57  O   UNK d   0     -15.293  -8.977  -1.339  0.00  0.00    -0.650 OA
BRANCH  56  58
ATOM     58  O   UNK d   0     -13.365  -8.634  -0.168  0.00  0.00    -0.776 OA
ATOM     59  H   UNK d   0     -13.113  -7.678   0.143  0.00  0.00     0.167 HD
ENDBRANCH  56  58
ENDBRANCH  55  56
ENDBRANCH  21  55
BRANCH  18  60
ATOM     60  C   UNK d   0      -8.319  -9.498  -1.091  0.00  0.00     0.151 C 
BRANCH  60  61
ATOM     61  C   UNK d   0      -7.378  -9.063  -2.133  0.00  0.00     0.143 C 
ATOM     62  O   UNK d   0      -7.425  -9.330  -3.334  0.00  0.00    -0.650 OA
BRANCH  61  63
ATOM     63  O   UNK d   0      -6.310  -8.251  -1.680  0.00  0.00    -0.776 OA
ATOM     64  H   UNK d   0      -6.448  -7.572  -0.952  0.00  0.00     0.167 HD
ENDBRANCH  61  63
ENDBRANCH  60  61
ENDBRANCH  18  60
BRANCH  14  65
ATOM     65  C   UNK d   0      -6.379 -11.823  -0.889  0.00  0.00     0.052 C 
BRANCH  65  66
ATOM     66  C   UNK d   0      -6.234 -12.094   0.567  0.00  0.00     0.115 C 
BRANCH  66  67
ATOM     67  C   UNK d   0      -5.382 -13.161   1.011  0.00  0.00     0.139 C 
ATOM     68  O   UNK d   0      -5.541 -14.328   0.496  0.00  0.00    -0.650 OA
BRANCH  67  69
ATOM     69  O   UNK d   0      -4.366 -13.101   1.964  0.00  0.00    -0.776 OA
ATOM     70  H   UNK d   0      -4.121 -12.158   2.299  0.00  0.00     0.167 HD
ENDBRANCH  67  69
ENDBRANCH  66  67
ENDBRANCH  65  66
ENDBRANCH  14  65
ENDBRANCH   6   7
ENDBRANCH   5   6
ENDBRANCH   2   5
TORSDOF 28
ENDMDL
MODEL 11
REMARK VINA RESULT:      -9.6     28.088     31.020
REMARK  28 active torsions:
REMARK  status: ('A' for Active; 'I' for Inactive)
REMARK    1  A    between atoms: C_2  and  O_3 
REMARK    2  A    between atoms: C_2  and  C_4 
REMARK    3  A    between atoms: C_4  and  C_5 
REMARK    4  A    between atoms: C_5  and  C_6 
REMARK    5  A    between atoms: C_7  and  C_8 
REMARK    6  A    between atoms: C_8  and  C_9 
REMARK    7  A    between atoms: C_9  and  O_11 
REMARK    8  A    between atoms: C_28  and  C_29 
REMARK    9  A    between atoms: C_29  and  C_30 
REMARK   10  A    between atoms: C_30  and  O_32 
REMARK   11  A    between atoms: C_33  and  C_34 
REMARK   12  A    between atoms: C_34  and  C_35 
REMARK   13  A    between atoms: C_35  and  C_36 
REMARK   14  A    between atoms: C_36  and  O_38 
REMARK   15  A    between atoms: C_39  and  C_40 
REMARK   16  A    between atoms: C_40  and  C_41 
REMARK   17  A    between atoms: C_41  and  C_42 
REMARK   18  A    between atoms: C_42  and  O_44 
REMARK   19  A    between atoms: C_45  and  C_46 
REMARK   20  A    between atoms: C_46  and  C_47 
REMARK   21  A    between atoms: C_47  and  O_49 
REMARK   22  A    between atoms: C_50  and  C_51 
REMARK   23  A    between atoms: C_51  and  C_52 
REMARK   24  A    between atoms: C_52  and  O_54 
REMARK   25  A    between atoms: C_55  and  C_56 
REMARK   26  A    between atoms: C_56  and  C_57 
REMARK   27  A    between atoms: C_57  and  C_58 
REMARK   28  A    between atoms: C_58  and  O_60 
ROOT
ATOM      1  O   UNK d   0     -39.936 -25.952  12.314  0.00  0.00    -0.650 OA
ATOM      2  C   UNK d   0     -40.164 -25.081  11.445  0.00  0.00     0.139 C 
ENDROOT
BRANCH   2   3
ATOM      3  O   UNK d   0     -41.165 -24.164  11.658  0.00  0.00    -0.776 OA
ATOM      4  H   UNK d   0     -41.368 -23.812  12.596  0.00  0.00     0.167 HD
ENDBRANCH   2   3
BRANCH   2   5
ATOM      5  C   UNK d   0     -39.355 -25.042  10.194  0.00  0.00     0.115 C 
BRANCH   5   6
ATOM      6  C   UNK d   0     -40.081 -24.260   9.133  0.00  0.00     0.052 C 
BRANCH   6   7
ATOM      7  C   UNK d   0     -39.585 -22.838   9.017  0.00  0.00    -0.020 A 
ATOM      8  C   UNK d   0     -40.142 -21.848   8.369  0.00  0.00    -0.011 A 
ATOM      9  C   UNK d   0     -39.299 -20.676   8.535  0.00  0.00     0.067 A 
ATOM     10  C   UNK d   0     -39.339 -19.334   8.126  0.00  0.00     0.062 C 
ATOM     11  N   UNK d   0     -38.246 -21.045   9.294  0.00  0.00    -0.248 NA
ATOM     12  C   UNK d   0     -38.570 -18.275   8.620  0.00  0.00     0.041 A 
ATOM     13  N   UNK d   0     -37.262 -18.199   8.932  0.00  0.00    -0.355 N 
ATOM     14  C   UNK d   0     -39.204 -17.056   8.922  0.00  0.00    -0.022 A 
ATOM     15  C   UNK d   0     -37.052 -16.966   9.431  0.00  0.00     0.042 A 
ATOM     16  H   UNK d   0     -36.499 -18.994   8.783  0.00  0.00     0.166 HD
ATOM     17  C   UNK d   0     -35.871 -16.363   9.907  0.00  0.00     0.062 C 
ATOM     18  C   UNK d   0     -38.247 -16.221   9.441  0.00  0.00    -0.013 A 
ATOM     19  C   UNK d   0     -34.912 -16.882  10.738  0.00  0.00     0.067 A 
ATOM     20  N   UNK d   0     -34.974 -18.193  10.989  0.00  0.00    -0.248 NA
ATOM     21  C   UNK d   0     -33.778 -16.358  11.481  0.00  0.00    -0.011 A 
ATOM     22  C   UNK d   0     -33.964 -18.563  11.843  0.00  0.00     0.066 A 
ATOM     23  C   UNK d   0     -33.888 -19.911  12.159  0.00  0.00     0.062 C 
ATOM     24  C   UNK d   0     -33.230 -17.346  12.129  0.00  0.00    -0.020 A 
ATOM     25  C   UNK d   0     -34.662 -20.962  11.642  0.00  0.00     0.041 A 
ATOM     26  N   UNK d   0     -35.965 -21.042  11.346  0.00  0.00    -0.355 N 
ATOM     27  C   UNK d   0     -34.024 -22.183  11.335  0.00  0.00    -0.022 A 
ATOM     28  C   UNK d   0     -36.179 -22.273  10.856  0.00  0.00     0.042 A 
ATOM     29  H   UNK d   0     -36.733 -20.246  11.506  0.00  0.00     0.166 HD
ATOM     30  C   UNK d   0     -37.349 -22.890  10.388  0.00  0.00     0.062 C 
ATOM     31  C   UNK d   0     -34.976 -23.018  10.837  0.00  0.00    -0.013 A 
ATOM     32  C   UNK d   0     -38.359 -22.334   9.618  0.00  0.00     0.066 A 
BRANCH   8  33
ATOM     33  C   UNK d   0     -41.398 -21.892   7.596  0.00  0.00     0.151 C 
BRANCH  33  34
ATOM     34  C   UNK d   0     -42.390 -20.908   8.064  0.00  0.00     0.143 C 
ATOM     35  O   UNK d   0     -42.677 -19.917   7.376  0.00  0.00    -0.650 OA
BRANCH  34  36
ATOM     36  O   UNK d   0     -43.003 -21.093   9.282  0.00  0.00    -0.776 OA
ATOM     37  H   UNK d   0     -42.676 -21.812   9.941  0.00  0.00     0.167 HD
ENDBRANCH  34  36
ENDBRANCH  33  34
ENDBRANCH   8  33
BRANCH  31  38
ATOM     38  C   UNK d   0     -34.757 -24.434  10.358  0.00  0.00     0.151 C 
BRANCH  38  39
ATOM     39  C   UNK d   0     -34.971 -25.418  11.397  0.00  0.00     0.143 C 
ATOM     40  O   UNK d   0     -36.105 -25.819  11.711  0.00  0.00    -0.650 OA
BRANCH  39  41
ATOM     41  O   UNK d   0     -33.874 -25.945  12.079  0.00  0.00    -0.776 OA
ATOM     42  H   UNK d   0     -33.155 -26.405  11.512  0.00  0.00     0.167 HD
ENDBRANCH  39  41
ENDBRANCH  38  39
ENDBRANCH  31  38
BRANCH  27  43
ATOM     43  C   UNK d   0     -32.576 -22.575  11.497  0.00  0.00     0.052 C 
BRANCH  43  44
ATOM     44  C   UNK d   0     -32.194 -22.852  12.914  0.00  0.00     0.115 C 
BRANCH  44  45
ATOM     45  C   UNK d   0     -31.195 -23.952  12.877  0.00  0.00     0.139 C 
ATOM     46  O   UNK d   0     -30.243 -23.859  12.063  0.00  0.00    -0.650 OA
BRANCH  45  47
ATOM     47  O   UNK d   0     -31.269 -25.057  13.697  0.00  0.00    -0.776 OA
ATOM     48  H   UNK d   0     -30.938 -25.992  13.409  0.00  0.00     0.167 HD
ENDBRANCH  45  47
ENDBRANCH  44  45
ENDBRANCH  43  44
ENDBRANCH  27  43
BRANCH  24  49
ATOM     49  C   UNK d   0     -32.029 -17.268  12.978  0.00  0.00     0.052 C 
BRANCH  49  50
ATOM     50  C   UNK d   0     -32.341 -17.747  14.372  0.00  0.00     0.115 C 
BRANCH  50  51
ATOM     51  C   UNK d   0     -31.483 -18.787  14.925  0.00  0.00     0.139 C 
ATOM     52  O   UNK d   0     -31.059 -19.748  14.240  0.00  0.00    -0.650 OA
BRANCH  51  53
ATOM     53  O   UNK d   0     -31.113 -18.734  16.260  0.00  0.00    -0.776 OA
ATOM     54  H   UNK d   0     -31.300 -17.890  16.772  0.00  0.00     0.167 HD
ENDBRANCH  51  53
ENDBRANCH  50  51
ENDBRANCH  49  50
ENDBRANCH  24  49
BRANCH  21  55
ATOM     55  C   UNK d   0     -33.358 -14.926  11.463  0.00  0.00     0.151 C 
BRANCH  55  56
ATOM     56  C   UNK d   0     -34.230 -14.084  12.296  0.00  0.00     0.143 C 
ATOM     57  O   UNK d   0     -34.950 -13.182  11.823  0.00  0.00    -0.650 OA
BRANCH  56  58
ATOM     58  O   UNK d   0     -34.241 -14.320  13.669  0.00  0.00    -0.776 OA
ATOM     59  H   UNK d   0     -35.057 -13.928  14.173  0.00  0.00     0.167 HD
ENDBRANCH  56  58
ENDBRANCH  55  56
ENDBRANCH  21  55
BRANCH  18  60
ATOM     60  C   UNK d   0     -38.494 -14.808   9.909  0.00  0.00     0.151 C 
BRANCH  60  61
ATOM     61  C   UNK d   0     -39.580 -14.894  10.897  0.00  0.00     0.143 C 
ATOM     62  O   UNK d   0     -40.570 -14.167  10.977  0.00  0.00    -0.650 OA
BRANCH  61  63
ATOM     63  O   UNK d   0     -39.448 -15.935  11.848  0.00  0.00    -0.776 OA
ATOM     64  H   UNK d   0     -39.886 -15.872  12.750  0.00  0.00     0.167 HD
ENDBRANCH  61  63
ENDBRANCH  60  61
ENDBRANCH  18  60
BRANCH  14  65
ATOM     65  C   UNK d   0     -40.611 -16.593   8.669  0.00  0.00     0.052 C 
BRANCH  65  66
ATOM     66  C   UNK d   0     -41.636 -17.569   9.129  0.00  0.00     0.115 C 
BRANCH  66  67
ATOM     67  C   UNK d   0     -41.816 -17.802  10.534  0.00  0.00     0.139 C 
ATOM     68  O   UNK d   0     -41.678 -19.000  10.980  0.00  0.00    -0.650 OA
BRANCH  67  69
ATOM     69  O   UNK d   0     -42.133 -16.869  11.520  0.00  0.00    -0.776 OA
ATOM     70  H   UNK d   0     -41.784 -15.913  11.361  0.00  0.00     0.167 HD
ENDBRANCH  67  69
ENDBRANCH  66  67
ENDBRANCH  65  66
ENDBRANCH  14  65
ENDBRANCH   6   7
ENDBRANCH   5   6
ENDBRANCH   2   5
TORSDOF 28
ENDMDL
MODEL 12
REMARK VINA RESULT:      -9.6      2.060      8.560
REMARK  28 active torsions:
REMARK  status: ('A' for Active; 'I' for Inactive)
REMARK    1  A    between atoms: C_2  and  O_3 
REMARK    2  A    between atoms: C_2  and  C_4 
REMARK    3  A    between atoms: C_4  and  C_5 
REMARK    4  A    between atoms: C_5  and  C_6 
REMARK    5  A    between atoms: C_7  and  C_8 
REMARK    6  A    between atoms: C_8  and  C_9 
REMARK    7  A    between atoms: C_9  and  O_11 
REMARK    8  A    between atoms: C_28  and  C_29 
REMARK    9  A    between atoms: C_29  and  C_30 
REMARK   10  A    between atoms: C_30  and  O_32 
REMARK   11  A    between atoms: C_33  and  C_34 
REMARK   12  A    between atoms: C_34  and  C_35 
REMARK   13  A    between atoms: C_35  and  C_36 
REMARK   14  A    between atoms: C_36  and  O_38 
REMARK   15  A    between atoms: C_39  and  C_40 
REMARK   16  A    between atoms: C_40  and  C_41 
REMARK   17  A    between atoms: C_41  and  C_42 
REMARK   18  A    between atoms: C_42  and  O_44 
REMARK   19  A    between atoms: C_45  and  C_46 
REMARK   20  A    between atoms: C_46  and  C_47 
REMARK   21  A    between atoms: C_47  and  O_49 
REMARK   22  A    between atoms: C_50  and  C_51 
REMARK   23  A    between atoms: C_51  and  C_52 
REMARK   24  A    between atoms: C_52  and  O_54 
REMARK   25  A    between atoms: C_55  and  C_56 
REMARK   26  A    between atoms: C_56  and  C_57 
REMARK   27  A    between atoms: C_57  and  C_58 
REMARK   28  A    between atoms: C_58  and  O_60 
ROOT
ATOM      1  O   UNK d   0      -8.980 -17.876  -8.468  0.00  0.00    -0.650 OA
ATOM      2  C   UNK d   0      -8.056 -17.112  -8.110  0.00  0.00     0.139 C 
ENDROOT
BRANCH   2   3
ATOM      3  O   UNK d   0      -7.702 -16.059  -8.917  0.00  0.00    -0.776 OA
ATOM      4  H   UNK d   0      -6.983 -16.163  -9.636  0.00  0.00     0.167 HD
ENDBRANCH   2   3
BRANCH   2   5
ATOM      5  C   UNK d   0      -7.349 -17.347  -6.819  0.00  0.00     0.115 C 
BRANCH   5   6
ATOM      6  C   UNK d   0      -8.333 -17.760  -5.758  0.00  0.00     0.052 C 
BRANCH   6   7
ATOM      7  C   UNK d   0      -8.897 -16.583  -4.999  0.00  0.00    -0.020 A 
ATOM      8  C   UNK d   0      -8.416 -16.025  -3.918  0.00  0.00    -0.011 A 
ATOM      9  C   UNK d   0      -9.302 -14.934  -3.548  0.00  0.00     0.067 A 
ATOM     10  C   UNK d   0      -9.342 -13.960  -2.538  0.00  0.00     0.062 C 
ATOM     11  N   UNK d   0     -10.301 -14.904  -4.455  0.00  0.00    -0.248 NA
ATOM     12  C   UNK d   0     -10.134 -12.807  -2.504  0.00  0.00     0.041 A 
ATOM     13  N   UNK d   0     -11.428 -12.611  -2.821  0.00  0.00    -0.355 N 
ATOM     14  C   UNK d   0      -9.542 -11.585  -2.137  0.00  0.00    -0.022 A 
ATOM     15  C   UNK d   0     -11.670 -11.295  -2.672  0.00  0.00     0.042 A 
ATOM     16  H   UNK d   0     -12.161 -13.390  -3.125  0.00  0.00     0.166 HD
ATOM     17  C   UNK d   0     -12.853 -10.555  -2.869  0.00  0.00     0.062 C 
ATOM     18  C   UNK d   0     -10.511 -10.619  -2.245  0.00  0.00    -0.013 A 
ATOM     19  C   UNK d   0     -13.748 -10.621  -3.906  0.00  0.00     0.067 A 
ATOM     20  N   UNK d   0     -13.615 -11.643  -4.756  0.00  0.00    -0.248 NA
ATOM     21  C   UNK d   0     -14.868  -9.821  -4.372  0.00  0.00    -0.011 A 
ATOM     22  C   UNK d   0     -14.566 -11.567  -5.744  0.00  0.00     0.066 A 
ATOM     23  C   UNK d   0     -14.567 -12.592  -6.679  0.00  0.00     0.062 C 
ATOM     24  C   UNK d   0     -15.340 -10.377  -5.450  0.00  0.00    -0.020 A 
ATOM     25  C   UNK d   0     -13.771 -13.749  -6.688  0.00  0.00     0.041 A 
ATOM     26  N   UNK d   0     -12.481 -13.941  -6.387  0.00  0.00    -0.355 N 
ATOM     27  C   UNK d   0     -14.368 -14.975  -7.052  0.00  0.00    -0.022 A 
ATOM     28  C   UNK d   0     -12.236 -15.251  -6.543  0.00  0.00     0.042 A 
ATOM     29  H   UNK d   0     -11.743 -13.155  -6.092  0.00  0.00     0.166 HD
ATOM     30  C   UNK d   0     -11.061 -15.999  -6.360  0.00  0.00     0.062 C 
ATOM     31  C   UNK d   0     -13.403 -15.932  -6.963  0.00  0.00    -0.013 A 
ATOM     32  C   UNK d   0     -10.115 -15.871  -5.355  0.00  0.00     0.066 A 
BRANCH   8  33
ATOM     33  C   UNK d   0      -7.197 -16.418  -3.187  0.00  0.00     0.151 C 
BRANCH  33  34
ATOM     34  C   UNK d   0      -6.075 -15.487  -3.404  0.00  0.00     0.143 C 
ATOM     35  O   UNK d   0      -5.430 -15.034  -2.449  0.00  0.00    -0.650 OA
BRANCH  34  36
ATOM     36  O   UNK d   0      -5.745 -15.116  -4.687  0.00  0.00    -0.776 OA
ATOM     37  H   UNK d   0      -6.410 -14.606  -5.284  0.00  0.00     0.167 HD
ENDBRANCH  34  36
ENDBRANCH  33  34
ENDBRANCH   8  33
BRANCH  31  38
ATOM     38  C   UNK d   0     -13.581 -17.405  -7.245  0.00  0.00     0.151 C 
BRANCH  38  39
ATOM     39  C   UNK d   0     -14.140 -18.129  -6.123  0.00  0.00     0.143 C 
ATOM     40  O   UNK d   0     -14.021 -19.360  -5.999  0.00  0.00    -0.650 OA
BRANCH  39  41
ATOM     41  O   UNK d   0     -14.839 -17.432  -5.137  0.00  0.00    -0.776 OA
ATOM     42  H   UNK d   0     -15.155 -16.488  -5.376  0.00  0.00     0.167 HD
ENDBRANCH  39  41
ENDBRANCH  38  39
ENDBRANCH  31  38
BRANCH  27  43
ATOM     43  C   UNK d   0     -15.787 -15.263  -7.474  0.00  0.00     0.052 C 
BRANCH  43  44
ATOM     44  C   UNK d   0     -15.931 -15.497  -8.943  0.00  0.00     0.115 C 
BRANCH  44  45
ATOM     45  C   UNK d   0     -16.861 -16.645  -9.101  0.00  0.00     0.139 C 
ATOM     46  O   UNK d   0     -17.479 -16.761 -10.188  0.00  0.00    -0.650 OA
BRANCH  45  47
ATOM     47  O   UNK d   0     -17.065 -17.583  -8.112  0.00  0.00    -0.776 OA
ATOM     48  H   UNK d   0     -17.903 -17.585  -7.507  0.00  0.00     0.167 HD
ENDBRANCH  45  47
ENDBRANCH  44  45
ENDBRANCH  43  44
ENDBRANCH  27  43
BRANCH  24  49
ATOM     49  C   UNK d   0     -16.503  -9.916  -6.228  0.00  0.00     0.052 C 
BRANCH  49  50
ATOM     50  C   UNK d   0     -16.370  -8.449  -6.550  0.00  0.00     0.115 C 
BRANCH  50  51
ATOM     51  C   UNK d   0     -15.552  -8.092  -7.701  0.00  0.00     0.139 C 
ATOM     52  O   UNK d   0     -14.460  -8.652  -7.954  0.00  0.00    -0.650 OA
BRANCH  51  53
ATOM     53  O   UNK d   0     -15.980  -7.094  -8.563  0.00  0.00    -0.776 OA
ATOM     54  H   UNK d   0     -16.122  -7.330  -9.530  0.00  0.00     0.167 HD
ENDBRANCH  51  53
ENDBRANCH  50  51
ENDBRANCH  49  50
ENDBRANCH  24  49
BRANCH  21  55
ATOM     55  C   UNK d   0     -15.353  -8.585  -3.688  0.00  0.00     0.151 C 
BRANCH  55  56
ATOM     56  C   UNK d   0     -16.432  -8.873  -2.730  0.00  0.00     0.143 C 
ATOM     57  O   UNK d   0     -17.628  -8.606  -2.961  0.00  0.00    -0.650 OA
BRANCH  56  58
ATOM     58  O   UNK d   0     -16.083  -9.468  -1.519  0.00  0.00    -0.776 OA
ATOM     59  H   UNK d   0     -15.898  -8.805  -0.745  0.00  0.00     0.167 HD
ENDBRANCH  56  58
ENDBRANCH  55  56
ENDBRANCH  21  55
BRANCH  18  60
ATOM     60  C   UNK d   0     -10.306  -9.153  -1.953  0.00  0.00     0.151 C 
BRANCH  60  61
ATOM     61  C   UNK d   0     -10.662  -8.969  -0.538  0.00  0.00     0.143 C 
ATOM     62  O   UNK d   0     -11.772  -9.119  -0.027  0.00  0.00    -0.650 OA
BRANCH  61  63
ATOM     63  O   UNK d   0      -9.595  -8.578   0.306  0.00  0.00    -0.776 OA
ATOM     64  H   UNK d   0      -9.237  -7.640   0.288  0.00  0.00     0.167 HD
ENDBRANCH  61  63
ENDBRANCH  60  61
ENDBRANCH  18  60
BRANCH  14  65
ATOM     65  C   UNK d   0      -8.171 -11.281  -1.603  0.00  0.00     0.052 C 
BRANCH  65  66
ATOM     66  C   UNK d   0      -7.225 -10.822  -2.656  0.00  0.00     0.115 C 
BRANCH  66  67
ATOM     67  C   UNK d   0      -6.320 -11.761  -3.258  0.00  0.00     0.139 C 
ATOM     68  O   UNK d   0      -6.660 -12.317  -4.366  0.00  0.00    -0.650 OA
BRANCH  67  69
ATOM     69  O   UNK d   0      -5.074 -12.168  -2.784  0.00  0.00    -0.776 OA
ATOM     70  H   UNK d   0      -4.303 -12.138  -3.467  0.00  0.00     0.167 HD
ENDBRANCH  67  69
ENDBRANCH  66  67
ENDBRANCH  65  66
ENDBRANCH  14  65
ENDBRANCH   6   7
ENDBRANCH   5   6
ENDBRANCH   2   5
TORSDOF 28
ENDMDL
MODEL 13
REMARK VINA RESULT:      -9.5      1.749      7.905
REMARK  28 active torsions:
REMARK  status: ('A' for Active; 'I' for Inactive)
REMARK    1  A    between atoms: C_2  and  O_3 
REMARK    2  A    between atoms: C_2  and  C_4 
REMARK    3  A    between atoms: C_4  and  C_5 
REMARK    4  A    between atoms: C_5  and  C_6 
REMARK    5  A    between atoms: C_7  and  C_8 
REMARK    6  A    between atoms: C_8  and  C_9 
REMARK    7  A    between atoms: C_9  and  O_11 
REMARK    8  A    between atoms: C_28  and  C_29 
REMARK    9  A    between atoms: C_29  and  C_30 
REMARK   10  A    between atoms: C_30  and  O_32 
REMARK   11  A    between atoms: C_33  and  C_34 
REMARK   12  A    between atoms: C_34  and  C_35 
REMARK   13  A    between atoms: C_35  and  C_36 
REMARK   14  A    between atoms: C_36  and  O_38 
REMARK   15  A    between atoms: C_39  and  C_40 
REMARK   16  A    between atoms: C_40  and  C_41 
REMARK   17  A    between atoms: C_41  and  C_42 
REMARK   18  A    between atoms: C_42  and  O_44 
REMARK   19  A    between atoms: C_45  and  C_46 
REMARK   20  A    between atoms: C_46  and  C_47 
REMARK   21  A    between atoms: C_47  and  O_49 
REMARK   22  A    between atoms: C_50  and  C_51 
REMARK   23  A    between atoms: C_51  and  C_52 
REMARK   24  A    between atoms: C_52  and  O_54 
REMARK   25  A    between atoms: C_55  and  C_56 
REMARK   26  A    between atoms: C_56  and  C_57 
REMARK   27  A    between atoms: C_57  and  C_58 
REMARK   28  A    between atoms: C_58  and  O_60 
ROOT
ATOM      1  O   UNK d   0      -6.011  -8.797   0.515  0.00  0.00    -0.650 OA
ATOM      2  C   UNK d   0      -7.073  -8.744  -0.145  0.00  0.00     0.139 C 
ENDROOT
BRANCH   2   3
ATOM      3  O   UNK d   0      -7.067  -8.151  -1.385  0.00  0.00    -0.776 OA
ATOM      4  H   UNK d   0      -7.072  -7.134  -1.483  0.00  0.00     0.167 HD
ENDBRANCH   2   3
BRANCH   2   5
ATOM      5  C   UNK d   0      -8.330  -9.318   0.413  0.00  0.00     0.115 C 
BRANCH   5   6
ATOM      6  C   UNK d   0      -9.526  -8.670  -0.231  0.00  0.00     0.052 C 
BRANCH   6   7
ATOM      7  C   UNK d   0     -10.275  -9.611  -1.144  0.00  0.00    -0.020 A 
ATOM      8  C   UNK d   0     -11.507  -9.497  -1.570  0.00  0.00    -0.011 A 
ATOM      9  C   UNK d   0     -11.793 -10.643  -2.417  0.00  0.00     0.067 A 
ATOM     10  C   UNK d   0     -12.885 -11.096  -3.173  0.00  0.00     0.062 C 
ATOM     11  N   UNK d   0     -10.680 -11.407  -2.446  0.00  0.00    -0.248 NA
ATOM     12  C   UNK d   0     -12.879 -12.092  -4.156  0.00  0.00     0.041 A 
ATOM     13  N   UNK d   0     -12.283 -13.299  -4.193  0.00  0.00    -0.355 N 
ATOM     14  C   UNK d   0     -13.544 -11.851  -5.372  0.00  0.00    -0.022 A 
ATOM     15  C   UNK d   0     -12.546 -13.826  -5.403  0.00  0.00     0.042 A 
ATOM     16  H   UNK d   0     -11.704 -13.776  -3.372  0.00  0.00     0.166 HD
ATOM     17  C   UNK d   0     -12.166 -15.062  -5.963  0.00  0.00     0.062 C 
ATOM     18  C   UNK d   0     -13.334 -12.948  -6.171  0.00  0.00    -0.013 A 
ATOM     19  C   UNK d   0     -10.941 -15.679  -5.940  0.00  0.00     0.067 A 
ATOM     20  N   UNK d   0     -10.019 -15.163  -5.124  0.00  0.00    -0.248 NA
ATOM     21  C   UNK d   0     -10.327 -16.810  -6.617  0.00  0.00    -0.011 A 
ATOM     22  C   UNK d   0      -8.847 -15.872  -5.219  0.00  0.00     0.066 A 
ATOM     23  C   UNK d   0      -7.810 -15.464  -4.393  0.00  0.00     0.062 C 
ATOM     24  C   UNK d   0      -9.101 -16.914  -6.194  0.00  0.00    -0.020 A 
ATOM     25  C   UNK d   0      -7.840 -14.470  -3.403  0.00  0.00     0.041 A 
ATOM     26  N   UNK d   0      -8.420 -13.264  -3.372  0.00  0.00    -0.355 N 
ATOM     27  C   UNK d   0      -7.176 -14.714  -2.181  0.00  0.00    -0.022 A 
ATOM     28  C   UNK d   0      -8.152 -12.732  -2.169  0.00  0.00     0.042 A 
ATOM     29  H   UNK d   0      -8.992 -12.781  -4.202  0.00  0.00     0.166 HD
ATOM     30  C   UNK d   0      -8.516 -11.500  -1.603  0.00  0.00     0.062 C 
ATOM     31  C   UNK d   0      -7.369 -13.620  -1.394  0.00  0.00    -0.013 A 
ATOM     32  C   UNK d   0      -9.730 -10.840  -1.701  0.00  0.00     0.066 A 
BRANCH   8  33
ATOM     33  C   UNK d   0     -12.456  -8.413  -1.256  0.00  0.00     0.151 C 
BRANCH  33  34
ATOM     34  C   UNK d   0     -13.195  -7.941  -2.440  0.00  0.00     0.143 C 
ATOM     35  O   UNK d   0     -14.433  -7.870  -2.431  0.00  0.00    -0.650 OA
BRANCH  34  36
ATOM     36  O   UNK d   0     -12.500  -7.577  -3.570  0.00  0.00    -0.776 OA
ATOM     37  H   UNK d   0     -11.519  -7.855  -3.706  0.00  0.00     0.167 HD
ENDBRANCH  34  36
ENDBRANCH  33  34
ENDBRANCH   8  33
BRANCH  31  38
ATOM     38  C   UNK d   0      -6.853 -13.432   0.013  0.00  0.00     0.151 C 
BRANCH  38  39
ATOM     39  C   UNK d   0      -5.917 -12.333   0.127  0.00  0.00     0.143 C 
ATOM     40  O   UNK d   0      -5.209 -11.962  -0.826  0.00  0.00    -0.650 OA
BRANCH  39  41
ATOM     41  O   UNK d   0      -5.796 -11.658   1.341  0.00  0.00    -0.776 OA
ATOM     42  H   UNK d   0      -6.652 -11.252   1.730  0.00  0.00     0.167 HD
ENDBRANCH  39  41
ENDBRANCH  38  39
ENDBRANCH  31  38
BRANCH  27  43
ATOM     43  C   UNK d   0      -6.382 -15.920  -1.746  0.00  0.00     0.052 C 
BRANCH  43  44
ATOM     44  C   UNK d   0      -4.963 -15.601  -1.400  0.00  0.00     0.115 C 
BRANCH  44  45
ATOM     45  C   UNK d   0      -4.372 -14.945  -2.596  0.00  0.00     0.139 C 
ATOM     46  O   UNK d   0      -4.478 -15.528  -3.703  0.00  0.00    -0.650 OA
BRANCH  45  47
ATOM     47  O   UNK d   0      -3.724 -13.731  -2.538  0.00  0.00    -0.776 OA
ATOM     48  H   UNK d   0      -4.126 -12.862  -2.924  0.00  0.00     0.167 HD
ENDBRANCH  45  47
ENDBRANCH  44  45
ENDBRANCH  43  44
ENDBRANCH  27  43
BRANCH  24  49
ATOM     49  C   UNK d   0      -8.130 -17.949  -6.592  0.00  0.00     0.052 C 
BRANCH  49  50
ATOM     50  C   UNK d   0      -6.741 -17.368  -6.654  0.00  0.00     0.115 C 
BRANCH  50  51
ATOM     51  C   UNK d   0      -6.452 -16.447  -7.745  0.00  0.00     0.139 C 
ATOM     52  O   UNK d   0      -6.793 -16.675  -8.930  0.00  0.00    -0.650 OA
BRANCH  51  53
ATOM     53  O   UNK d   0      -5.772 -15.267  -7.486  0.00  0.00    -0.776 OA
ATOM     54  H   UNK d   0      -4.925 -15.085  -7.995  0.00  0.00     0.167 HD
ENDBRANCH  51  53
ENDBRANCH  50  51
ENDBRANCH  49  50
ENDBRANCH  24  49
BRANCH  21  55
ATOM     55  C   UNK d   0     -11.033 -17.669  -7.613  0.00  0.00     0.151 C 
BRANCH  55  56
ATOM     56  C   UNK d   0     -10.230 -17.877  -8.828  0.00  0.00     0.143 C 
ATOM     57  O   UNK d   0     -10.085 -18.997  -9.358  0.00  0.00    -0.650 OA
BRANCH  56  58
ATOM     58  O   UNK d   0      -9.614 -16.764  -9.398  0.00  0.00    -0.776 OA
ATOM     59  H   UNK d   0     -10.222 -15.931  -9.496  0.00  0.00     0.167 HD
ENDBRANCH  56  58
ENDBRANCH  55  56
ENDBRANCH  21  55
BRANCH  18  60
ATOM     60  C   UNK d   0     -13.865 -13.110  -7.574  0.00  0.00     0.151 C 
BRANCH  60  61
ATOM     61  C   UNK d   0     -14.881 -14.170  -7.502  0.00  0.00     0.143 C 
ATOM     62  O   UNK d   0     -15.856 -14.214  -6.751  0.00  0.00    -0.650 OA
BRANCH  61  63
ATOM     63  O   UNK d   0     -14.695 -15.245  -8.403  0.00  0.00    -0.776 OA
ATOM     64  H   UNK d   0     -14.307 -15.094  -9.318  0.00  0.00     0.167 HD
ENDBRANCH  61  63
ENDBRANCH  60  61
ENDBRANCH  18  60
BRANCH  14  65
ATOM     65  C   UNK d   0     -14.436 -10.719  -5.795  0.00  0.00     0.052 C 
BRANCH  65  66
ATOM     66  C   UNK d   0     -15.810 -10.819  -5.233  0.00  0.00     0.115 C 
BRANCH  66  67
ATOM     67  C   UNK d   0     -16.463  -9.641  -4.737  0.00  0.00     0.139 C 
ATOM     68  O   UNK d   0     -16.984  -8.825  -5.584  0.00  0.00    -0.650 OA
BRANCH  67  69
ATOM     69  O   UNK d   0     -16.616  -9.245  -3.409  0.00  0.00    -0.776 OA
ATOM     70  H   UNK d   0     -16.622 -10.005  -2.713  0.00  0.00     0.167 HD
ENDBRANCH  67  69
ENDBRANCH  66  67
ENDBRANCH  65  66
ENDBRANCH  14  65
ENDBRANCH   6   7
ENDBRANCH   5   6
ENDBRANCH   2   5
TORSDOF 28
ENDMDL
MODEL 14
REMARK VINA RESULT:      -9.1     27.521     32.116
REMARK  28 active torsions:
REMARK  status: ('A' for Active; 'I' for Inactive)
REMARK    1  A    between atoms: C_2  and  O_3 
REMARK    2  A    between atoms: C_2  and  C_4 
REMARK    3  A    between atoms: C_4  and  C_5 
REMARK    4  A    between atoms: C_5  and  C_6 
REMARK    5  A    between atoms: C_7  and  C_8 
REMARK    6  A    between atoms: C_8  and  C_9 
REMARK    7  A    between atoms: C_9  and  O_11 
REMARK    8  A    between atoms: C_28  and  C_29 
REMARK    9  A    between atoms: C_29  and  C_30 
REMARK   10  A    between atoms: C_30  and  O_32 
REMARK   11  A    between atoms: C_33  and  C_34 
REMARK   12  A    between atoms: C_34  and  C_35 
REMARK   13  A    between atoms: C_35  and  C_36 
REMARK   14  A    between atoms: C_36  and  O_38 
REMARK   15  A    between atoms: C_39  and  C_40 
REMARK   16  A    between atoms: C_40  and  C_41 
REMARK   17  A    between atoms: C_41  and  C_42 
REMARK   18  A    between atoms: C_42  and  O_44 
REMARK   19  A    between atoms: C_45  and  C_46 
REMARK   20  A    between atoms: C_46  and  C_47 
REMARK   21  A    between atoms: C_47  and  O_49 
REMARK   22  A    between atoms: C_50  and  C_51 
REMARK   23  A    between atoms: C_51  and  C_52 
REMARK   24  A    between atoms: C_52  and  O_54 
REMARK   25  A    between atoms: C_55  and  C_56 
REMARK   26  A    between atoms: C_56  and  C_57 
REMARK   27  A    between atoms: C_57  and  C_58 
REMARK   28  A    between atoms: C_58  and  O_60 
ROOT
ATOM      1  O   UNK d   0     -41.621 -14.572  10.420  0.00  0.00    -0.650 OA
ATOM      2  C   UNK d   0     -40.456 -14.769  10.007  0.00  0.00     0.139 C 
ENDROOT
BRANCH   2   3
ATOM      3  O   UNK d   0     -40.253 -15.066   8.681  0.00  0.00    -0.776 OA
ATOM      4  H   UNK d   0     -40.573 -14.435   7.944  0.00  0.00     0.167 HD
ENDBRANCH   2   3
BRANCH   2   5
ATOM      5  C   UNK d   0     -39.304 -14.681  10.948  0.00  0.00     0.115 C 
BRANCH   5   6
ATOM      6  C   UNK d   0     -38.014 -14.585  10.179  0.00  0.00     0.052 C 
BRANCH   6   7
ATOM      7  C   UNK d   0     -37.102 -15.763  10.425  0.00  0.00    -0.020 A 
ATOM      8  C   UNK d   0     -35.868 -15.741  10.859  0.00  0.00    -0.011 A 
ATOM      9  C   UNK d   0     -35.396 -17.114  10.929  0.00  0.00     0.067 A 
ATOM     10  C   UNK d   0     -34.212 -17.759  11.321  0.00  0.00     0.062 C 
ATOM     11  N   UNK d   0     -36.406 -17.906  10.513  0.00  0.00    -0.248 NA
ATOM     12  C   UNK d   0     -34.037 -19.122  11.583  0.00  0.00     0.041 A 
ATOM     13  N   UNK d   0     -34.483 -20.214  10.934  0.00  0.00    -0.355 N 
ATOM     14  C   UNK d   0     -33.330 -19.507  12.737  0.00  0.00    -0.022 A 
ATOM     15  C   UNK d   0     -34.083 -21.282  11.650  0.00  0.00     0.042 A 
ATOM     16  H   UNK d   0     -35.051 -20.230   9.978  0.00  0.00     0.166 HD
ATOM     17  C   UNK d   0     -34.278 -22.659  11.422  0.00  0.00     0.062 C 
ATOM     18  C   UNK d   0     -33.358 -20.879  12.788  0.00  0.00    -0.013 A 
ATOM     19  C   UNK d   0     -35.420 -23.317  11.042  0.00  0.00     0.067 A 
ATOM     20  N   UNK d   0     -36.446 -22.564  10.639  0.00  0.00    -0.248 NA
ATOM     21  C   UNK d   0     -35.851 -24.703  10.968  0.00  0.00    -0.011 A 
ATOM     22  C   UNK d   0     -37.518 -23.357  10.308  0.00  0.00     0.066 A 
ATOM     23  C   UNK d   0     -38.645 -22.703   9.834  0.00  0.00     0.062 C 
ATOM     24  C   UNK d   0     -37.081 -24.720  10.541  0.00  0.00    -0.020 A 
ATOM     25  C   UNK d   0     -38.797 -21.334   9.565  0.00  0.00     0.041 A 
ATOM     26  N   UNK d   0     -38.367 -20.248  10.218  0.00  0.00    -0.355 N 
ATOM     27  C   UNK d   0     -39.503 -20.948   8.404  0.00  0.00    -0.022 A 
ATOM     28  C   UNK d   0     -38.771 -19.181   9.511  0.00  0.00     0.042 A 
ATOM     29  H   UNK d   0     -37.804 -20.233  11.184  0.00  0.00     0.166 HD
ATOM     30  C   UNK d   0     -38.593 -17.807   9.731  0.00  0.00     0.062 C 
ATOM     31  C   UNK d   0     -39.491 -19.588   8.362  0.00  0.00    -0.013 A 
ATOM     32  C   UNK d   0     -37.461 -17.155  10.196  0.00  0.00     0.066 A 
BRANCH   8  33
ATOM     33  C   UNK d   0     -35.077 -14.548  11.214  0.00  0.00     0.151 C 
BRANCH  33  34
ATOM     34  C   UNK d   0     -33.632 -14.733  10.986  0.00  0.00     0.143 C 
ATOM     35  O   UNK d   0     -32.848 -14.857  11.937  0.00  0.00    -0.650 OA
BRANCH  34  36
ATOM     36  O   UNK d   0     -33.151 -14.767   9.697  0.00  0.00    -0.776 OA
ATOM     37  H   UNK d   0     -32.183 -14.493   9.481  0.00  0.00     0.167 HD
ENDBRANCH  34  36
ENDBRANCH  33  34
ENDBRANCH   8  33
BRANCH  31  38
ATOM     38  C   UNK d   0     -40.113 -18.724   7.290  0.00  0.00     0.151 C 
BRANCH  38  39
ATOM     39  C   UNK d   0     -41.454 -18.293   7.624  0.00  0.00     0.143 C 
ATOM     40  O   UNK d   0     -41.755 -17.869   8.754  0.00  0.00    -0.650 OA
BRANCH  39  41
ATOM     41  O   UNK d   0     -42.454 -18.349   6.654  0.00  0.00    -0.776 OA
ATOM     42  H   UNK d   0     -42.386 -17.678   5.882  0.00  0.00     0.167 HD
ENDBRANCH  39  41
ENDBRANCH  38  39
ENDBRANCH  31  38
BRANCH  27  43
ATOM     43  C   UNK d   0     -40.174 -21.806   7.361  0.00  0.00     0.052 C 
BRANCH  43  44
ATOM     44  C   UNK d   0     -41.666 -21.764   7.432  0.00  0.00     0.115 C 
BRANCH  44  45
ATOM     45  C   UNK d   0     -42.021 -21.719   8.874  0.00  0.00     0.139 C 
ATOM     46  O   UNK d   0     -41.739 -22.716   9.585  0.00  0.00    -0.650 OA
BRANCH  45  47
ATOM     47  O   UNK d   0     -42.637 -20.634   9.459  0.00  0.00    -0.776 OA
ATOM     48  H   UNK d   0     -42.412 -19.658   9.205  0.00  0.00     0.167 HD
ENDBRANCH  45  47
ENDBRANCH  44  45
ENDBRANCH  43  44
ENDBRANCH  27  43
BRANCH  24  49
ATOM     49  C   UNK d   0     -37.894 -25.920  10.283  0.00  0.00     0.052 C 
BRANCH  49  50
ATOM     50  C   UNK d   0     -38.192 -26.639  11.574  0.00  0.00     0.115 C 
BRANCH  50  51
ATOM     51  C   UNK d   0     -39.393 -26.240  12.296  0.00  0.00     0.139 C 
ATOM     52  O   UNK d   0     -39.619 -26.590  13.478  0.00  0.00    -0.650 OA
BRANCH  51  53
ATOM     53  O   UNK d   0     -40.338 -25.444  11.668  0.00  0.00    -0.776 OA
ATOM     54  H   UNK d   0     -40.016 -24.736  11.031  0.00  0.00     0.167 HD
ENDBRANCH  51  53
ENDBRANCH  50  51
ENDBRANCH  49  50
ENDBRANCH  24  49
BRANCH  21  55
ATOM     55  C   UNK d   0     -34.987 -25.867  11.327  0.00  0.00     0.151 C 
BRANCH  55  56
ATOM     56  C   UNK d   0     -34.083 -26.242  10.229  0.00  0.00     0.143 C 
ATOM     57  O   UNK d   0     -32.885 -25.897  10.194  0.00  0.00    -0.650 OA
BRANCH  56  58
ATOM     58  O   UNK d   0     -34.605 -27.015   9.193  0.00  0.00    -0.776 OA
ATOM     59  H   UNK d   0     -35.142 -26.486   8.483  0.00  0.00     0.167 HD
ENDBRANCH  56  58
ENDBRANCH  55  56
ENDBRANCH  21  55
BRANCH  18  60
ATOM     60  C   UNK d   0     -32.725 -21.717  13.870  0.00  0.00     0.151 C 
BRANCH  60  61
ATOM     61  C   UNK d   0     -31.862 -22.686  13.178  0.00  0.00     0.143 C 
ATOM     62  O   UNK d   0     -30.984 -22.440  12.351  0.00  0.00    -0.650 OA
BRANCH  61  63
ATOM     63  O   UNK d   0     -32.087 -24.042  13.518  0.00  0.00    -0.776 OA
ATOM     64  H   UNK d   0     -31.937 -24.373  14.454  0.00  0.00     0.167 HD
ENDBRANCH  61  63
ENDBRANCH  60  61
ENDBRANCH  18  60
BRANCH  14  65
ATOM     65  C   UNK d   0     -32.554 -18.690  13.730  0.00  0.00     0.052 C 
BRANCH  65  66
ATOM     66  C   UNK d   0     -31.082 -18.841  13.584  0.00  0.00     0.115 C 
BRANCH  66  67
ATOM     67  C   UNK d   0     -30.202 -18.145  14.481  0.00  0.00     0.139 C 
ATOM     68  O   UNK d   0     -30.126 -18.545  15.700  0.00  0.00    -0.650 OA
BRANCH  67  69
ATOM     69  O   UNK d   0     -29.388 -17.049  14.197  0.00  0.00    -0.776 OA
ATOM     70  H   UNK d   0     -28.399 -17.143  14.469  0.00  0.00     0.167 HD
ENDBRANCH  67  69
ENDBRANCH  66  67
ENDBRANCH  65  66
ENDBRANCH  14  65
ENDBRANCH   6   7
ENDBRANCH   5   6
ENDBRANCH   2   5
TORSDOF 28
ENDMDL
MODEL 15
REMARK VINA RESULT:      -8.9     27.712     32.029
REMARK  28 active torsions:
REMARK  status: ('A' for Active; 'I' for Inactive)
REMARK    1  A    between atoms: C_2  and  O_3 
REMARK    2  A    between atoms: C_2  and  C_4 
REMARK    3  A    between atoms: C_4  and  C_5 
REMARK    4  A    between atoms: C_5  and  C_6 
REMARK    5  A    between atoms: C_7  and  C_8 
REMARK    6  A    between atoms: C_8  and  C_9 
REMARK    7  A    between atoms: C_9  and  O_11 
REMARK    8  A    between atoms: C_28  and  C_29 
REMARK    9  A    between atoms: C_29  and  C_30 
REMARK   10  A    between atoms: C_30  and  O_32 
REMARK   11  A    between atoms: C_33  and  C_34 
REMARK   12  A    between atoms: C_34  and  C_35 
REMARK   13  A    between atoms: C_35  and  C_36 
REMARK   14  A    between atoms: C_36  and  O_38 
REMARK   15  A    between atoms: C_39  and  C_40 
REMARK   16  A    between atoms: C_40  and  C_41 
REMARK   17  A    between atoms: C_41  and  C_42 
REMARK   18  A    between atoms: C_42  and  O_44 
REMARK   19  A    between atoms: C_45  and  C_46 
REMARK   20  A    between atoms: C_46  and  C_47 
REMARK   21  A    between atoms: C_47  and  O_49 
REMARK   22  A    between atoms: C_50  and  C_51 
REMARK   23  A    between atoms: C_51  and  C_52 
REMARK   24  A    between atoms: C_52  and  O_54 
REMARK   25  A    between atoms: C_55  and  C_56 
REMARK   26  A    between atoms: C_56  and  C_57 
REMARK   27  A    between atoms: C_57  and  C_58 
REMARK   28  A    between atoms: C_58  and  O_60 
ROOT
ATOM      1  O   UNK d   0     -29.863 -25.901  11.045  0.00  0.00    -0.650 OA
ATOM      2  C   UNK d   0     -31.043 -25.534  10.854  0.00  0.00     0.139 C 
ENDROOT
BRANCH   2   3
ATOM      3  O   UNK d   0     -32.042 -26.477  10.805  0.00  0.00    -0.776 OA
ATOM      4  H   UNK d   0     -31.829 -27.462  10.634  0.00  0.00     0.167 HD
ENDBRANCH   2   3
BRANCH   2   5
ATOM      5  C   UNK d   0     -31.359 -24.088  10.681  0.00  0.00     0.115 C 
BRANCH   5   6
ATOM      6  C   UNK d   0     -31.251 -23.373  12.000  0.00  0.00     0.052 C 
BRANCH   6   7
ATOM      7  C   UNK d   0     -32.352 -22.360  12.204  0.00  0.00    -0.020 A 
ATOM      8  C   UNK d   0     -32.274 -21.211  12.825  0.00  0.00    -0.011 A 
ATOM      9  C   UNK d   0     -33.587 -20.588  12.774  0.00  0.00     0.067 A 
ATOM     10  C   UNK d   0     -34.153 -19.382  13.217  0.00  0.00     0.062 C 
ATOM     11  N   UNK d   0     -34.404 -21.430  12.108  0.00  0.00    -0.248 NA
ATOM     12  C   UNK d   0     -35.379 -18.830  12.829  0.00  0.00     0.041 A 
ATOM     13  N   UNK d   0     -36.587 -19.394  12.646  0.00  0.00    -0.355 N 
ATOM     14  C   UNK d   0     -35.436 -17.462  12.504  0.00  0.00    -0.022 A 
ATOM     15  C   UNK d   0     -37.408 -18.422  12.205  0.00  0.00     0.042 A 
ATOM     16  H   UNK d   0     -36.860 -20.455  12.843  0.00  0.00     0.166 HD
ATOM     17  C   UNK d   0     -38.774 -18.466  11.861  0.00  0.00     0.062 C 
ATOM     18  C   UNK d   0     -36.722 -17.197  12.103  0.00  0.00    -0.013 A 
ATOM     19  C   UNK d   0     -39.444 -19.398  11.110  0.00  0.00     0.067 A 
ATOM     20  N   UNK d   0     -38.789 -20.523  10.817  0.00  0.00    -0.248 NA
ATOM     21  C   UNK d   0     -40.757 -19.494  10.494  0.00  0.00    -0.011 A 
ATOM     22  C   UNK d   0     -39.577 -21.348  10.052  0.00  0.00     0.066 A 
ATOM     23  C   UNK d   0     -39.030 -22.575   9.705  0.00  0.00     0.062 C 
ATOM     24  C   UNK d   0     -40.827 -20.636   9.873  0.00  0.00    -0.020 A 
ATOM     25  C   UNK d   0     -37.802 -23.117  10.115  0.00  0.00     0.041 A 
ATOM     26  N   UNK d   0     -36.598 -22.559  10.283  0.00  0.00    -0.355 N 
ATOM     27  C   UNK d   0     -37.747 -24.489  10.446  0.00  0.00    -0.022 A 
ATOM     28  C   UNK d   0     -35.775 -23.528  10.714  0.00  0.00     0.042 A 
ATOM     29  H   UNK d   0     -36.323 -21.496  10.075  0.00  0.00     0.166 HD
ATOM     30  C   UNK d   0     -34.413 -23.501  11.051  0.00  0.00     0.062 C 
ATOM     31  C   UNK d   0     -36.468 -24.757  10.826  0.00  0.00    -0.013 A 
ATOM     32  C   UNK d   0     -33.722 -22.515  11.738  0.00  0.00     0.066 A 
BRANCH   8  33
ATOM     33  C   UNK d   0     -31.082 -20.634  13.473  0.00  0.00     0.151 C 
BRANCH  33  34
ATOM     34  C   UNK d   0     -31.398 -19.937  14.733  0.00  0.00     0.143 C 
ATOM     35  O   UNK d   0     -31.929 -20.539  15.678  0.00  0.00    -0.650 OA
BRANCH  34  36
ATOM     36  O   UNK d   0     -31.101 -18.600  14.858  0.00  0.00    -0.776 OA
ATOM     37  H   UNK d   0     -31.770 -17.874  14.568  0.00  0.00     0.167 HD
ENDBRANCH  34  36
ENDBRANCH  33  34
ENDBRANCH   8  33
BRANCH  31  38
ATOM     38  C   UNK d   0     -35.936 -26.096  11.282  0.00  0.00     0.151 C 
BRANCH  38  39
ATOM     39  C   UNK d   0     -35.727 -27.019  10.188  0.00  0.00     0.143 C 
ATOM     40  O   UNK d   0     -36.489 -27.978   9.971  0.00  0.00    -0.650 OA
BRANCH  39  41
ATOM     41  O   UNK d   0     -34.636 -26.840   9.337  0.00  0.00    -0.776 OA
ATOM     42  H   UNK d   0     -33.868 -27.513   9.424  0.00  0.00     0.167 HD
ENDBRANCH  39  41
ENDBRANCH  38  39
ENDBRANCH  31  38
BRANCH  27  43
ATOM     43  C   UNK d   0     -38.839 -25.528  10.411  0.00  0.00     0.052 C 
BRANCH  43  44
ATOM     44  C   UNK d   0     -39.806 -25.407  11.544  0.00  0.00     0.115 C 
BRANCH  44  45
ATOM     45  C   UNK d   0     -39.416 -26.433  12.546  0.00  0.00     0.139 C 
ATOM     46  O   UNK d   0     -39.996 -26.422  13.660  0.00  0.00    -0.650 OA
BRANCH  45  47
ATOM     47  O   UNK d   0     -38.456 -27.390  12.300  0.00  0.00    -0.776 OA
ATOM     48  H   UNK d   0     -38.686 -28.344  11.977  0.00  0.00     0.167 HD
ENDBRANCH  45  47
ENDBRANCH  44  45
ENDBRANCH  43  44
ENDBRANCH  27  43
BRANCH  24  49
ATOM     49  C   UNK d   0     -41.996 -21.159   9.144  0.00  0.00     0.052 C 
BRANCH  49  50
ATOM     50  C   UNK d   0     -41.806 -20.990   7.659  0.00  0.00     0.115 C 
BRANCH  50  51
ATOM     51  C   UNK d   0     -41.424 -19.667   7.183  0.00  0.00     0.139 C 
ATOM     52  O   UNK d   0     -42.263 -18.771   6.929  0.00  0.00    -0.650 OA
BRANCH  51  53
ATOM     53  O   UNK d   0     -40.083 -19.367   6.994  0.00  0.00    -0.776 OA
ATOM     54  H   UNK d   0     -39.842 -18.439   6.692  0.00  0.00     0.167 HD
ENDBRANCH  51  53
ENDBRANCH  50  51
ENDBRANCH  49  50
ENDBRANCH  24  49
BRANCH  21  55
ATOM     55  C   UNK d   0     -41.806 -18.437  10.594  0.00  0.00     0.151 C 
BRANCH  55  56
ATOM     56  C   UNK d   0     -41.309 -17.123  10.159  0.00  0.00     0.143 C 
ATOM     57  O   UNK d   0     -41.277 -16.130  10.912  0.00  0.00    -0.650 OA
BRANCH  56  58
ATOM     58  O   UNK d   0     -40.858 -17.003   8.845  0.00  0.00    -0.776 OA
ATOM     59  H   UNK d   0     -41.501 -17.383   8.127  0.00  0.00     0.167 HD
ENDBRANCH  56  58
ENDBRANCH  55  56
ENDBRANCH  21  55
BRANCH  18  60
ATOM     60  C   UNK d   0     -37.226 -15.847  11.655  0.00  0.00     0.151 C 
BRANCH  60  61
ATOM     61  C   UNK d   0     -37.359 -15.931  10.193  0.00  0.00     0.143 C 
ATOM     62  O   UNK d   0     -36.584 -16.477   9.407  0.00  0.00    -0.650 OA
BRANCH  61  63
ATOM     63  O   UNK d   0     -38.512 -15.309   9.656  0.00  0.00    -0.776 OA
ATOM     64  H   UNK d   0     -39.269 -15.019  10.250  0.00  0.00     0.167 HD
ENDBRANCH  61  63
ENDBRANCH  60  61
ENDBRANCH  18  60
BRANCH  14  65
ATOM     65  C   UNK d   0     -34.404 -16.378  12.636  0.00  0.00     0.052 C 
BRANCH  65  66
ATOM     66  C   UNK d   0     -33.719 -16.068  11.353  0.00  0.00     0.115 C 
BRANCH  66  67
ATOM     67  C   UNK d   0     -33.376 -14.710  11.039  0.00  0.00     0.139 C 
ATOM     68  O   UNK d   0     -33.945 -13.765  11.700  0.00  0.00    -0.650 OA
BRANCH  67  69
ATOM     69  O   UNK d   0     -32.474 -14.258  10.077  0.00  0.00    -0.776 OA
ATOM     70  H   UNK d   0     -32.169 -13.279  10.173  0.00  0.00     0.167 HD
ENDBRANCH  67  69
ENDBRANCH  66  67
ENDBRANCH  65  66
ENDBRANCH  14  65
ENDBRANCH   6   7
ENDBRANCH   5   6
ENDBRANCH   2   5
TORSDOF 28
ENDMDL
MODEL 16
REMARK VINA RESULT:      -8.8      1.756      7.176
REMARK  28 active torsions:
REMARK  status: ('A' for Active; 'I' for Inactive)
REMARK    1  A    between atoms: C_2  and  O_3 
REMARK    2  A    between atoms: C_2  and  C_4 
REMARK    3  A    between atoms: C_4  and  C_5 
REMARK    4  A    between atoms: C_5  and  C_6 
REMARK    5  A    between atoms: C_7  and  C_8 
REMARK    6  A    between atoms: C_8  and  C_9 
REMARK    7  A    between atoms: C_9  and  O_11 
REMARK    8  A    between atoms: C_28  and  C_29 
REMARK    9  A    between atoms: C_29  and  C_30 
REMARK   10  A    between atoms: C_30  and  O_32 
REMARK   11  A    between atoms: C_33  and  C_34 
REMARK   12  A    between atoms: C_34  and  C_35 
REMARK   13  A    between atoms: C_35  and  C_36 
REMARK   14  A    between atoms: C_36  and  O_38 
REMARK   15  A    between atoms: C_39  and  C_40 
REMARK   16  A    between atoms: C_40  and  C_41 
REMARK   17  A    between atoms: C_41  and  C_42 
REMARK   18  A    between atoms: C_42  and  O_44 
REMARK   19  A    between atoms: C_45  and  C_46 
REMARK   20  A    between atoms: C_46  and  C_47 
REMARK   21  A    between atoms: C_47  and  O_49 
REMARK   22  A    between atoms: C_50  and  C_51 
REMARK   23  A    between atoms: C_51  and  C_52 
REMARK   24  A    between atoms: C_52  and  O_54 
REMARK   25  A    between atoms: C_55  and  C_56 
REMARK   26  A    between atoms: C_56  and  C_57 
REMARK   27  A    between atoms: C_57  and  C_58 
REMARK   28  A    between atoms: C_58  and  O_60 
ROOT
ATOM      1  O   UNK d   0     -17.316 -16.296  -9.018  0.00  0.00    -0.650 OA
ATOM      2  C   UNK d   0     -16.345 -15.838  -9.661  0.00  0.00     0.139 C 
ENDROOT
BRANCH   2   3
ATOM      3  O   UNK d   0     -15.979 -16.434 -10.844  0.00  0.00    -0.776 OA
ATOM      4  H   UNK d   0     -16.677 -16.682 -11.547  0.00  0.00     0.167 HD
ENDBRANCH   2   3
BRANCH   2   5
ATOM      5  C   UNK d   0     -15.595 -14.658  -9.144  0.00  0.00     0.115 C 
BRANCH   5   6
ATOM      6  C   UNK d   0     -15.607 -14.656  -7.639  0.00  0.00     0.052 C 
BRANCH   6   7
ATOM      7  C   UNK d   0     -14.266 -15.018  -7.047  0.00  0.00    -0.020 A 
ATOM      8  C   UNK d   0     -13.647 -16.168  -7.116  0.00  0.00    -0.011 A 
ATOM      9  C   UNK d   0     -12.393 -16.044  -6.391  0.00  0.00     0.067 A 
ATOM     10  C   UNK d   0     -11.297 -16.875  -6.113  0.00  0.00     0.062 C 
ATOM     11  N   UNK d   0     -12.333 -14.785  -5.908  0.00  0.00    -0.248 NA
ATOM     12  C   UNK d   0     -10.043 -16.490  -5.628  0.00  0.00     0.041 A 
ATOM     13  N   UNK d   0      -9.695 -15.617  -4.664  0.00  0.00    -0.355 N 
ATOM     14  C   UNK d   0      -8.888 -17.018  -6.233  0.00  0.00    -0.022 A 
ATOM     15  C   UNK d   0      -8.350 -15.571  -4.646  0.00  0.00     0.042 A 
ATOM     16  H   UNK d   0     -10.387 -15.058  -3.995  0.00  0.00     0.166 HD
ATOM     17  C   UNK d   0      -7.471 -14.826  -3.835  0.00  0.00     0.062 C 
ATOM     18  C   UNK d   0      -7.808 -16.436  -5.616  0.00  0.00    -0.013 A 
ATOM     19  C   UNK d   0      -7.539 -13.503  -3.480  0.00  0.00     0.067 A 
ATOM     20  N   UNK d   0      -8.674 -12.858  -3.762  0.00  0.00    -0.248 NA
ATOM     21  C   UNK d   0      -6.646 -12.543  -2.852  0.00  0.00    -0.011 A 
ATOM     22  C   UNK d   0      -8.588 -11.546  -3.365  0.00  0.00     0.066 A 
ATOM     23  C   UNK d   0      -9.717 -10.766  -3.564  0.00  0.00     0.062 C 
ATOM     24  C   UNK d   0      -7.265 -11.399  -2.791  0.00  0.00    -0.020 A 
ATOM     25  C   UNK d   0     -10.972 -11.176  -4.041  0.00  0.00     0.041 A 
ATOM     26  N   UNK d   0     -11.318 -12.033  -5.010  0.00  0.00    -0.355 N 
ATOM     27  C   UNK d   0     -12.131 -10.649  -3.431  0.00  0.00    -0.022 A 
ATOM     28  C   UNK d   0     -12.659 -12.073  -5.035  0.00  0.00     0.042 A 
ATOM     29  H   UNK d   0     -10.621 -12.585  -5.687  0.00  0.00     0.166 HD
ATOM     30  C   UNK d   0     -13.545 -12.803  -5.843  0.00  0.00     0.062 C 
ATOM     31  C   UNK d   0     -13.203 -11.211  -4.053  0.00  0.00    -0.013 A 
ATOM     32  C   UNK d   0     -13.430 -14.116  -6.269  0.00  0.00     0.066 A 
BRANCH   8  33
ATOM     33  C   UNK d   0     -14.119 -17.388  -7.797  0.00  0.00     0.151 C 
BRANCH  33  34
ATOM     34  C   UNK d   0     -14.928 -18.254  -6.920  0.00  0.00     0.143 C 
ATOM     35  O   UNK d   0     -14.389 -19.004  -6.094  0.00  0.00    -0.650 OA
BRANCH  34  36
ATOM     36  O   UNK d   0     -16.300 -18.228  -7.024  0.00  0.00    -0.776 OA
ATOM     37  H   UNK d   0     -16.844 -17.412  -6.712  0.00  0.00     0.167 HD
ENDBRANCH  34  36
ENDBRANCH  33  34
ENDBRANCH   8  33
BRANCH  31  38
ATOM     38  C   UNK d   0     -14.656 -10.958  -3.728  0.00  0.00     0.151 C 
BRANCH  38  39
ATOM     39  C   UNK d   0     -15.306 -10.097  -4.693  0.00  0.00     0.143 C 
ATOM     40  O   UNK d   0     -14.884  -8.958  -4.959  0.00  0.00    -0.650 OA
BRANCH  39  41
ATOM     41  O   UNK d   0     -16.447 -10.548  -5.357  0.00  0.00    -0.776 OA
ATOM     42  H   UNK d   0     -16.580 -11.563  -5.408  0.00  0.00     0.167 HD
ENDBRANCH  39  41
ENDBRANCH  38  39
ENDBRANCH  31  38
BRANCH  27  43
ATOM     43  C   UNK d   0     -12.252  -9.651  -2.306  0.00  0.00     0.052 C 
BRANCH  43  44
ATOM     44  C   UNK d   0     -11.681 -10.143  -1.016  0.00  0.00     0.115 C 
BRANCH  44  45
ATOM     45  C   UNK d   0     -11.180  -8.947  -0.290  0.00  0.00     0.139 C 
ATOM     46  O   UNK d   0      -9.960  -8.901   0.005  0.00  0.00    -0.650 OA
BRANCH  45  47
ATOM     47  O   UNK d   0     -11.995  -7.893   0.065  0.00  0.00    -0.776 OA
ATOM     48  H   UNK d   0     -12.061  -7.536   1.032  0.00  0.00     0.167 HD
ENDBRANCH  45  47
ENDBRANCH  44  45
ENDBRANCH  43  44
ENDBRANCH  27  43
BRANCH  24  49
ATOM     49  C   UNK d   0      -6.740 -10.159  -2.193  0.00  0.00     0.052 C 
BRANCH  49  50
ATOM     50  C   UNK d   0      -6.821 -10.227  -0.690  0.00  0.00     0.115 C 
BRANCH  50  51
ATOM     51  C   UNK d   0      -6.472  -9.021   0.050  0.00  0.00     0.139 C 
ATOM     52  O   UNK d   0      -5.460  -8.948   0.785  0.00  0.00    -0.650 OA
BRANCH  51  53
ATOM     53  O   UNK d   0      -7.280  -7.898  -0.048  0.00  0.00    -0.776 OA
ATOM     54  H   UNK d   0      -7.277  -7.384  -0.911  0.00  0.00     0.167 HD
ENDBRANCH  51  53
ENDBRANCH  50  51
ENDBRANCH  49  50
ENDBRANCH  24  49
BRANCH  21  55
ATOM     55  C   UNK d   0      -5.270 -12.871  -2.374  0.00  0.00     0.151 C 
BRANCH  55  56
ATOM     56  C   UNK d   0      -5.286 -13.857  -1.283  0.00  0.00     0.143 C 
ATOM     57  O   UNK d   0      -4.792 -14.996  -1.395  0.00  0.00    -0.650 OA
BRANCH  56  58
ATOM     58  O   UNK d   0      -5.882 -13.484  -0.079  0.00  0.00    -0.776 OA
ATOM     59  H   UNK d   0      -6.896 -13.277  -0.140  0.00  0.00     0.167 HD
ENDBRANCH  56  58
ENDBRANCH  55  56
ENDBRANCH  21  55
BRANCH  18  60
ATOM     60  C   UNK d   0      -6.365 -16.711  -5.960  0.00  0.00     0.151 C 
BRANCH  60  61
ATOM     61  C   UNK d   0      -6.070 -15.894  -7.147  0.00  0.00     0.143 C 
ATOM     62  O   UNK d   0      -6.277 -16.192  -8.324  0.00  0.00    -0.650 OA
BRANCH  61  63
ATOM     63  O   UNK d   0      -5.485 -14.633  -6.880  0.00  0.00    -0.776 OA
ATOM     64  H   UNK d   0      -6.049 -13.847  -6.607  0.00  0.00     0.167 HD
ENDBRANCH  61  63
ENDBRANCH  60  61
ENDBRANCH  18  60
BRANCH  14  65
ATOM     65  C   UNK d   0      -8.728 -18.093  -7.270  0.00  0.00     0.052 C 
BRANCH  65  66
ATOM     66  C   UNK d   0      -9.477 -17.808  -8.523  0.00  0.00     0.115 C 
BRANCH  66  67
ATOM     67  C   UNK d   0     -10.359 -18.802  -9.066  0.00  0.00     0.139 C 
ATOM     68  O   UNK d   0     -10.947 -19.610  -8.257  0.00  0.00    -0.650 OA
BRANCH  67  69
ATOM     69  O   UNK d   0     -10.676 -19.021 -10.407  0.00  0.00    -0.776 OA
ATOM     70  H   UNK d   0     -10.254 -18.365 -11.080  0.00  0.00     0.167 HD
ENDBRANCH  67  69
ENDBRANCH  66  67
ENDBRANCH  65  66
ENDBRANCH  14  65
ENDBRANCH   6   7
ENDBRANCH   5   6
ENDBRANCH   2   5
TORSDOF 28
ENDMDL
MODEL 17
REMARK VINA RESULT:      -8.8      1.561      9.901
REMARK  28 active torsions:
REMARK  status: ('A' for Active; 'I' for Inactive)
REMARK    1  A    between atoms: C_2  and  O_3 
REMARK    2  A    between atoms: C_2  and  C_4 
REMARK    3  A    between atoms: C_4  and  C_5 
REMARK    4  A    between atoms: C_5  and  C_6 
REMARK    5  A    between atoms: C_7  and  C_8 
REMARK    6  A    between atoms: C_8  and  C_9 
REMARK    7  A    between atoms: C_9  and  O_11 
REMARK    8  A    between atoms: C_28  and  C_29 
REMARK    9  A    between atoms: C_29  and  C_30 
REMARK   10  A    between atoms: C_30  and  O_32 
REMARK   11  A    between atoms: C_33  and  C_34 
REMARK   12  A    between atoms: C_34  and  C_35 
REMARK   13  A    between atoms: C_35  and  C_36 
REMARK   14  A    between atoms: C_36  and  O_38 
REMARK   15  A    between atoms: C_39  and  C_40 
REMARK   16  A    between atoms: C_40  and  C_41 
REMARK   17  A    between atoms: C_41  and  C_42 
REMARK   18  A    between atoms: C_42  and  O_44 
REMARK   19  A    between atoms: C_45  and  C_46 
REMARK   20  A    between atoms: C_46  and  C_47 
REMARK   21  A    between atoms: C_47  and  O_49 
REMARK   22  A    between atoms: C_50  and  C_51 
REMARK   23  A    between atoms: C_51  and  C_52 
REMARK   24  A    between atoms: C_52  and  O_54 
REMARK   25  A    between atoms: C_55  and  C_56 
REMARK   26  A    between atoms: C_56  and  C_57 
REMARK   27  A    between atoms: C_57  and  C_58 
REMARK   28  A    between atoms: C_58  and  O_60 
ROOT
ATOM      1  O   UNK d   0     -14.722  -8.126  -2.195  0.00  0.00    -0.650 OA
ATOM      2  C   UNK d   0     -14.787  -8.472  -0.995  0.00  0.00     0.139 C 
ENDROOT
BRANCH   2   3
ATOM      3  O   UNK d   0     -15.932  -8.214  -0.281  0.00  0.00    -0.776 OA
ATOM      4  H   UNK d   0     -16.785  -7.901  -0.748  0.00  0.00     0.167 HD
ENDBRANCH   2   3
BRANCH   2   5
ATOM      5  C   UNK d   0     -13.630  -9.156  -0.349  0.00  0.00     0.115 C 
BRANCH   5   6
ATOM      6  C   UNK d   0     -12.339  -8.534  -0.807  0.00  0.00     0.052 C 
BRANCH   6   7
ATOM      7  C   UNK d   0     -11.364  -9.551  -1.349  0.00  0.00    -0.020 A 
ATOM      8  C   UNK d   0     -10.109  -9.711  -1.014  0.00  0.00    -0.011 A 
ATOM      9  C   UNK d   0      -9.574 -10.806  -1.806  0.00  0.00     0.067 A 
ATOM     10  C   UNK d   0      -8.342 -11.471  -1.912  0.00  0.00     0.062 C 
ATOM     11  N   UNK d   0     -10.569 -11.249  -2.602  0.00  0.00    -0.248 NA
ATOM     12  C   UNK d   0      -8.093 -12.696  -2.540  0.00  0.00     0.041 A 
ATOM     13  N   UNK d   0      -8.525 -13.195  -3.714  0.00  0.00    -0.355 N 
ATOM     14  C   UNK d   0      -7.305 -13.654  -1.876  0.00  0.00    -0.022 A 
ATOM     15  C   UNK d   0      -8.039 -14.447  -3.808  0.00  0.00     0.042 A 
ATOM     16  H   UNK d   0      -9.146 -12.665  -4.470  0.00  0.00     0.166 HD
ATOM     17  C   UNK d   0      -8.185 -15.409  -4.826  0.00  0.00     0.062 C 
ATOM     18  C   UNK d   0      -7.269 -14.770  -2.674  0.00  0.00    -0.013 A 
ATOM     19  C   UNK d   0      -9.317 -15.778  -5.508  0.00  0.00     0.067 A 
ATOM     20  N   UNK d   0     -10.397 -15.009  -5.349  0.00  0.00    -0.248 NA
ATOM     21  C   UNK d   0      -9.689 -16.858  -6.407  0.00  0.00    -0.011 A 
ATOM     22  C   UNK d   0     -11.449 -15.508  -6.077  0.00  0.00     0.066 A 
ATOM     23  C   UNK d   0     -12.629 -14.781  -6.032  0.00  0.00     0.062 C 
ATOM     24  C   UNK d   0     -10.939 -16.697  -6.733  0.00  0.00    -0.020 A 
ATOM     25  C   UNK d   0     -12.856 -13.546  -5.405  0.00  0.00     0.041 A 
ATOM     26  N   UNK d   0     -12.438 -13.056  -4.232  0.00  0.00    -0.355 N 
ATOM     27  C   UNK d   0     -13.643 -12.584  -6.075  0.00  0.00    -0.022 A 
ATOM     28  C   UNK d   0     -12.929 -11.811  -4.132  0.00  0.00     0.042 A 
ATOM     29  H   UNK d   0     -11.823 -13.594  -3.468  0.00  0.00     0.166 HD
ATOM     30  C   UNK d   0     -12.799 -10.846  -3.121  0.00  0.00     0.062 C 
ATOM     31  C   UNK d   0     -13.694 -11.483  -5.277  0.00  0.00    -0.013 A 
ATOM     32  C   UNK d   0     -11.673 -10.536  -2.375  0.00  0.00     0.066 A 
BRANCH   8  33
ATOM     33  C   UNK d   0      -9.353  -8.930  -0.018  0.00  0.00     0.151 C 
BRANCH  33  34
ATOM     34  C   UNK d   0      -7.901  -8.934  -0.273  0.00  0.00     0.143 C 
ATOM     35  O   UNK d   0      -7.426  -8.347  -1.255  0.00  0.00    -0.650 OA
BRANCH  34  36
ATOM     36  O   UNK d   0      -7.065  -9.602   0.592  0.00  0.00    -0.776 OA
ATOM     37  H   UNK d   0      -6.942 -10.622   0.536  0.00  0.00     0.167 HD
ENDBRANCH  34  36
ENDBRANCH  33  34
ENDBRANCH   8  33
BRANCH  31  38
ATOM     38  C   UNK d   0     -14.413 -10.190  -5.585  0.00  0.00     0.151 C 
BRANCH  38  39
ATOM     39  C   UNK d   0     -15.813 -10.226  -5.220  0.00  0.00     0.143 C 
ATOM     40  O   UNK d   0     -16.716 -10.383  -6.061  0.00  0.00    -0.650 OA
BRANCH  39  41
ATOM     41  O   UNK d   0     -16.177 -10.081  -3.882  0.00  0.00    -0.776 OA
ATOM     42  H   UNK d   0     -16.878 -10.735  -3.521  0.00  0.00     0.167 HD
ENDBRANCH  39  41
ENDBRANCH  38  39
ENDBRANCH  31  38
BRANCH  27  43
ATOM     43  C   UNK d   0     -14.333 -12.673  -7.413  0.00  0.00     0.052 C 
BRANCH  43  44
ATOM     44  C   UNK d   0     -15.571 -13.509  -7.384  0.00  0.00     0.115 C 
BRANCH  44  45
ATOM     45  C   UNK d   0     -15.283 -14.723  -8.192  0.00  0.00     0.139 C 
ATOM     46  O   UNK d   0     -14.420 -14.638  -9.100  0.00  0.00    -0.650 OA
BRANCH  45  47
ATOM     47  O   UNK d   0     -15.915 -15.929  -7.981  0.00  0.00    -0.776 OA
ATOM     48  H   UNK d   0     -15.665 -16.565  -7.207  0.00  0.00     0.167 HD
ENDBRANCH  45  47
ENDBRANCH  44  45
ENDBRANCH  43  44
ENDBRANCH  27  43
BRANCH  24  49
ATOM     49  C   UNK d   0     -11.713 -17.544  -7.656  0.00  0.00     0.052 C 
BRANCH  49  50
ATOM     50  C   UNK d   0     -12.552 -18.530  -6.885  0.00  0.00     0.115 C 
BRANCH  50  51
ATOM     51  C   UNK d   0     -13.988 -18.288  -6.839  0.00  0.00     0.139 C 
ATOM     52  O   UNK d   0     -14.766 -18.663  -7.748  0.00  0.00    -0.650 OA
BRANCH  51  53
ATOM     53  O   UNK d   0     -14.536 -17.616  -5.757  0.00  0.00    -0.776 OA
ATOM     54  H   UNK d   0     -15.408 -17.947  -5.385  0.00  0.00     0.167 HD
ENDBRANCH  51  53
ENDBRANCH  50  51
ENDBRANCH  49  50
ENDBRANCH  24  49
BRANCH  21  55
ATOM     55  C   UNK d   0      -8.756 -17.936  -6.850  0.00  0.00     0.151 C 
BRANCH  55  56
ATOM     56  C   UNK d   0      -7.814 -17.462  -7.875  0.00  0.00     0.143 C 
ATOM     57  O   UNK d   0      -6.580 -17.615  -7.780  0.00  0.00    -0.650 OA
BRANCH  56  58
ATOM     58  O   UNK d   0      -8.341 -16.818  -8.993  0.00  0.00    -0.776 OA
ATOM     59  H   UNK d   0      -7.637 -16.482  -9.675  0.00  0.00     0.167 HD
ENDBRANCH  56  58
ENDBRANCH  55  56
ENDBRANCH  21  55
BRANCH  18  60
ATOM     60  C   UNK d   0      -6.539 -16.048  -2.340  0.00  0.00     0.151 C 
BRANCH  60  61
ATOM     61  C   UNK d   0      -5.396 -16.112  -3.263  0.00  0.00     0.143 C 
ATOM     62  O   UNK d   0      -4.421 -15.361  -3.290  0.00  0.00    -0.650 OA
BRANCH  61  63
ATOM     63  O   UNK d   0      -5.447 -17.160  -4.214  0.00  0.00    -0.776 OA
ATOM     64  H   UNK d   0      -6.301 -17.386  -4.691  0.00  0.00     0.167 HD
ENDBRANCH  61  63
ENDBRANCH  60  61
ENDBRANCH  18  60
BRANCH  14  65
ATOM     65  C   UNK d   0      -6.511 -13.559  -0.604  0.00  0.00     0.052 C 
BRANCH  65  66
ATOM     66  C   UNK d   0      -5.157 -12.978  -0.805  0.00  0.00     0.115 C 
BRANCH  66  67
ATOM     67  C   UNK d   0      -4.983 -11.874  -1.707  0.00  0.00     0.139 C 
ATOM     68  O   UNK d   0      -4.666 -12.123  -2.928  0.00  0.00    -0.650 OA
BRANCH  67  69
ATOM     69  O   UNK d   0      -5.117 -10.515  -1.427  0.00  0.00    -0.776 OA
ATOM     70  H   UNK d   0      -4.767  -9.872  -2.152  0.00  0.00     0.167 HD
ENDBRANCH  67  69
ENDBRANCH  66  67
ENDBRANCH  65  66
ENDBRANCH  14  65
ENDBRANCH   6   7
ENDBRANCH   5   6
ENDBRANCH   2   5
TORSDOF 28
ENDMDL
MODEL 18
REMARK VINA RESULT:      -8.7     27.830     31.777
REMARK  28 active torsions:
REMARK  status: ('A' for Active; 'I' for Inactive)
REMARK    1  A    between atoms: C_2  and  O_3 
REMARK    2  A    between atoms: C_2  and  C_4 
REMARK    3  A    between atoms: C_4  and  C_5 
REMARK    4  A    between atoms: C_5  and  C_6 
REMARK    5  A    between atoms: C_7  and  C_8 
REMARK    6  A    between atoms: C_8  and  C_9 
REMARK    7  A    between atoms: C_9  and  O_11 
REMARK    8  A    between atoms: C_28  and  C_29 
REMARK    9  A    between atoms: C_29  and  C_30 
REMARK   10  A    between atoms: C_30  and  O_32 
REMARK   11  A    between atoms: C_33  and  C_34 
REMARK   12  A    between atoms: C_34  and  C_35 
REMARK   13  A    between atoms: C_35  and  C_36 
REMARK   14  A    between atoms: C_36  and  O_38 
REMARK   15  A    between atoms: C_39  and  C_40 
REMARK   16  A    between atoms: C_40  and  C_41 
REMARK   17  A    between atoms: C_41  and  C_42 
REMARK   18  A    between atoms: C_42  and  O_44 
REMARK   19  A    between atoms: C_45  and  C_46 
REMARK   20  A    between atoms: C_46  and  C_47 
REMARK   21  A    between atoms: C_47  and  O_49 
REMARK   22  A    between atoms: C_50  and  C_51 
REMARK   23  A    between atoms: C_51  and  C_52 
REMARK   24  A    between atoms: C_52  and  O_54 
REMARK   25  A    between atoms: C_55  and  C_56 
REMARK   26  A    between atoms: C_56  and  C_57 
REMARK   27  A    between atoms: C_57  and  C_58 
REMARK   28  A    between atoms: C_58  and  O_60 
ROOT
ATOM      1  O   UNK d   0     -29.262 -27.128  12.590  0.00  0.00    -0.650 OA
ATOM      2  C   UNK d   0     -29.448 -26.107  13.289  0.00  0.00     0.139 C 
ENDROOT
BRANCH   2   3
ATOM      3  O   UNK d   0     -29.259 -26.177  14.648  0.00  0.00    -0.776 OA
ATOM      4  H   UNK d   0     -29.741 -26.879  15.212  0.00  0.00     0.167 HD
ENDBRANCH   2   3
BRANCH   2   5
ATOM      5  C   UNK d   0     -29.872 -24.830  12.648  0.00  0.00     0.115 C 
BRANCH   5   6
ATOM      6  C   UNK d   0     -30.970 -24.187  13.450  0.00  0.00     0.052 C 
BRANCH   6   7
ATOM      7  C   UNK d   0     -32.216 -23.937  12.634  0.00  0.00    -0.020 A 
ATOM      8  C   UNK d   0     -32.827 -24.772  11.834  0.00  0.00    -0.011 A 
ATOM      9  C   UNK d   0     -33.973 -24.083  11.263  0.00  0.00     0.067 A 
ATOM     10  C   UNK d   0     -35.013 -24.410  10.379  0.00  0.00     0.062 C 
ATOM     11  N   UNK d   0     -33.979 -22.831  11.766  0.00  0.00    -0.248 NA
ATOM     12  C   UNK d   0     -36.194 -23.693  10.159  0.00  0.00     0.041 A 
ATOM     13  N   UNK d   0     -36.417 -22.372  10.021  0.00  0.00    -0.355 N 
ATOM     14  C   UNK d   0     -37.415 -24.391  10.115  0.00  0.00    -0.022 A 
ATOM     15  C   UNK d   0     -37.748 -22.213   9.898  0.00  0.00     0.042 A 
ATOM     16  H   UNK d   0     -35.647 -21.570   9.992  0.00  0.00     0.166 HD
ATOM     17  C   UNK d   0     -38.517 -21.044   9.727  0.00  0.00     0.062 C 
ATOM     18  C   UNK d   0     -38.408 -23.456   9.953  0.00  0.00    -0.013 A 
ATOM     19  C   UNK d   0     -38.415 -19.843  10.381  0.00  0.00     0.067 A 
ATOM     20  N   UNK d   0     -37.335 -19.658  11.144  0.00  0.00    -0.248 NA
ATOM     21  C   UNK d   0     -39.224 -18.640  10.487  0.00  0.00    -0.011 A 
ATOM     22  C   UNK d   0     -37.379 -18.423  11.743  0.00  0.00     0.066 A 
ATOM     23  C   UNK d   0     -36.294 -18.084  12.538  0.00  0.00     0.062 C 
ATOM     24  C   UNK d   0     -38.614 -17.815  11.289  0.00  0.00    -0.020 A 
ATOM     25  C   UNK d   0     -35.111 -18.813  12.735  0.00  0.00     0.041 A 
ATOM     26  N   UNK d   0     -34.891 -20.125  12.888  0.00  0.00    -0.355 N 
ATOM     27  C   UNK d   0     -33.886 -18.113  12.775  0.00  0.00    -0.022 A 
ATOM     28  C   UNK d   0     -33.565 -20.285  13.019  0.00  0.00     0.042 A 
ATOM     29  H   UNK d   0     -35.667 -20.928  12.928  0.00  0.00     0.166 HD
ATOM     30  C   UNK d   0     -32.788 -21.441  13.199  0.00  0.00     0.062 C 
ATOM     31  C   UNK d   0     -32.902 -19.037  12.954  0.00  0.00    -0.013 A 
ATOM     32  C   UNK d   0     -32.948 -22.680  12.598  0.00  0.00     0.066 A 
BRANCH   8  33
ATOM     33  C   UNK d   0     -32.439 -26.165  11.544  0.00  0.00     0.151 C 
BRANCH  33  34
ATOM     34  C   UNK d   0     -32.154 -26.392  10.116  0.00  0.00     0.143 C 
ATOM     35  O   UNK d   0     -31.191 -25.841   9.563  0.00  0.00    -0.650 OA
BRANCH  34  36
ATOM     36  O   UNK d   0     -32.970 -27.226   9.388  0.00  0.00    -0.776 OA
ATOM     37  H   UNK d   0     -32.642 -27.673   8.521  0.00  0.00     0.167 HD
ENDBRANCH  34  36
ENDBRANCH  33  34
ENDBRANCH   8  33
BRANCH  31  38
ATOM     38  C   UNK d   0     -31.420 -18.755  13.044  0.00  0.00     0.151 C 
BRANCH  38  39
ATOM     39  C   UNK d   0     -31.001 -18.375  14.377  0.00  0.00     0.143 C 
ATOM     40  O   UNK d   0     -30.621 -17.223  14.651  0.00  0.00    -0.650 OA
BRANCH  39  41
ATOM     41  O   UNK d   0     -31.020 -19.323  15.399  0.00  0.00    -0.776 OA
ATOM     42  H   UNK d   0     -31.691 -19.171  16.158  0.00  0.00     0.167 HD
ENDBRANCH  39  41
ENDBRANCH  38  39
ENDBRANCH  31  38
BRANCH  27  43
ATOM     43  C   UNK d   0     -33.624 -16.632  12.655  0.00  0.00     0.052 C 
BRANCH  43  44
ATOM     44  C   UNK d   0     -34.686 -15.904  11.897  0.00  0.00     0.115 C 
BRANCH  44  45
ATOM     45  C   UNK d   0     -34.091 -14.612  11.467  0.00  0.00     0.139 C 
ATOM     46  O   UNK d   0     -34.558 -13.554  11.955  0.00  0.00    -0.650 OA
BRANCH  45  47
ATOM     47  O   UNK d   0     -33.051 -14.532  10.566  0.00  0.00    -0.776 OA
ATOM     48  H   UNK d   0     -32.232 -15.160  10.597  0.00  0.00     0.167 HD
ENDBRANCH  45  47
ENDBRANCH  44  45
ENDBRANCH  43  44
ENDBRANCH  27  43
BRANCH  24  49
ATOM     49  C   UNK d   0     -39.065 -16.459  11.647  0.00  0.00     0.052 C 
BRANCH  49  50
ATOM     50  C   UNK d   0     -38.805 -15.503  10.512  0.00  0.00     0.115 C 
BRANCH  50  51
ATOM     51  C   UNK d   0     -39.967 -14.905   9.867  0.00  0.00     0.139 C 
ATOM     52  O   UNK d   0     -40.160 -14.966   8.630  0.00  0.00    -0.650 OA
BRANCH  51  53
ATOM     53  O   UNK d   0     -40.908 -14.234  10.634  0.00  0.00    -0.776 OA
ATOM     54  H   UNK d   0     -41.133 -14.604  11.541  0.00  0.00     0.167 HD
ENDBRANCH  51  53
ENDBRANCH  50  51
ENDBRANCH  49  50
ENDBRANCH  24  49
BRANCH  21  55
ATOM     55  C   UNK d   0     -40.519 -18.439   9.773  0.00  0.00     0.151 C 
BRANCH  55  56
ATOM     56  C   UNK d   0     -41.666 -18.896  10.573  0.00  0.00     0.143 C 
ATOM     57  O   UNK d   0     -41.817 -20.084  10.920  0.00  0.00    -0.650 OA
BRANCH  56  58
ATOM     58  O   UNK d   0     -42.615 -17.946  10.949  0.00  0.00    -0.776 OA
ATOM     59  H   UNK d   0     -43.363 -17.777  10.253  0.00  0.00     0.167 HD
ENDBRANCH  56  58
ENDBRANCH  55  56
ENDBRANCH  21  55
BRANCH  18  60
ATOM     60  C   UNK d   0     -39.881 -23.767   9.862  0.00  0.00     0.151 C 
BRANCH  60  61
ATOM     61  C   UNK d   0     -40.380 -23.767  11.246  0.00  0.00     0.143 C 
ATOM     62  O   UNK d   0     -40.453 -24.730  12.009  0.00  0.00    -0.650 OA
BRANCH  61  63
ATOM     63  O   UNK d   0     -40.815 -22.509  11.729  0.00  0.00    -0.776 OA
ATOM     64  H   UNK d   0     -40.493 -22.153  12.611  0.00  0.00     0.167 HD
ENDBRANCH  61  63
ENDBRANCH  60  61
ENDBRANCH  18  60
BRANCH  14  65
ATOM     65  C   UNK d   0     -37.703 -25.865  10.116  0.00  0.00     0.052 C 
BRANCH  65  66
ATOM     66  C   UNK d   0     -37.127 -26.570  11.292  0.00  0.00     0.115 C 
BRANCH  66  67
ATOM     67  C   UNK d   0     -36.371 -27.775  11.100  0.00  0.00     0.139 C 
ATOM     68  O   UNK d   0     -36.499 -28.409   9.988  0.00  0.00    -0.650 OA
BRANCH  67  69
ATOM     69  O   UNK d   0     -35.482 -28.376  11.990  0.00  0.00    -0.776 OA
ATOM     70  H   UNK d   0     -34.484 -28.178  11.829  0.00  0.00     0.167 HD
ENDBRANCH  67  69
ENDBRANCH  66  67
ENDBRANCH  65  66
ENDBRANCH  14  65
ENDBRANCH   6   7
ENDBRANCH   5   6
ENDBRANCH   2   5
TORSDOF 28
ENDMDL
MODEL 19
REMARK VINA RESULT:      -8.5      1.742      7.273
REMARK  28 active torsions:
REMARK  status: ('A' for Active; 'I' for Inactive)
REMARK    1  A    between atoms: C_2  and  O_3 
REMARK    2  A    between atoms: C_2  and  C_4 
REMARK    3  A    between atoms: C_4  and  C_5 
REMARK    4  A    between atoms: C_5  and  C_6 
REMARK    5  A    between atoms: C_7  and  C_8 
REMARK    6  A    between atoms: C_8  and  C_9 
REMARK    7  A    between atoms: C_9  and  O_11 
REMARK    8  A    between atoms: C_28  and  C_29 
REMARK    9  A    between atoms: C_29  and  C_30 
REMARK   10  A    between atoms: C_30  and  O_32 
REMARK   11  A    between atoms: C_33  and  C_34 
REMARK   12  A    between atoms: C_34  and  C_35 
REMARK   13  A    between atoms: C_35  and  C_36 
REMARK   14  A    between atoms: C_36  and  O_38 
REMARK   15  A    between atoms: C_39  and  C_40 
REMARK   16  A    between atoms: C_40  and  C_41 
REMARK   17  A    between atoms: C_41  and  C_42 
REMARK   18  A    between atoms: C_42  and  O_44 
REMARK   19  A    between atoms: C_45  and  C_46 
REMARK   20  A    between atoms: C_46  and  C_47 
REMARK   21  A    between atoms: C_47  and  O_49 
REMARK   22  A    between atoms: C_50  and  C_51 
REMARK   23  A    between atoms: C_51  and  C_52 
REMARK   24  A    between atoms: C_52  and  O_54 
REMARK   25  A    between atoms: C_55  and  C_56 
REMARK   26  A    between atoms: C_56  and  C_57 
REMARK   27  A    between atoms: C_57  and  C_58 
REMARK   28  A    between atoms: C_58  and  O_60 
ROOT
ATOM      1  O   UNK d   0     -15.886 -10.524  -4.941  0.00  0.00    -0.650 OA
ATOM      2  C   UNK d   0     -15.853 -10.326  -6.176  0.00  0.00     0.139 C 
ENDROOT
BRANCH   2   3
ATOM      3  O   UNK d   0     -16.759  -9.462  -6.744  0.00  0.00    -0.776 OA
ATOM      4  H   UNK d   0     -17.726  -9.422  -6.417  0.00  0.00     0.167 HD
ENDBRANCH   2   3
BRANCH   2   5
ATOM      5  C   UNK d   0     -14.839 -11.021  -7.019  0.00  0.00     0.115 C 
BRANCH   5   6
ATOM      6  C   UNK d   0     -15.060 -12.509  -6.971  0.00  0.00     0.052 C 
BRANCH   6   7
ATOM      7  C   UNK d   0     -13.862 -13.257  -6.437  0.00  0.00    -0.020 A 
ATOM      8  C   UNK d   0     -13.483 -14.474  -6.734  0.00  0.00    -0.011 A 
ATOM      9  C   UNK d   0     -12.282 -14.765  -5.968  0.00  0.00     0.067 A 
ATOM     10  C   UNK d   0     -11.397 -15.848  -5.846  0.00  0.00     0.062 C 
ATOM     11  N   UNK d   0     -12.004 -13.671  -5.228  0.00  0.00    -0.248 NA
ATOM     12  C   UNK d   0     -10.127 -15.841  -5.261  0.00  0.00     0.041 A 
ATOM     13  N   UNK d   0      -9.677 -15.274  -4.125  0.00  0.00    -0.355 N 
ATOM     14  C   UNK d   0      -9.063 -16.467  -5.935  0.00  0.00    -0.022 A 
ATOM     15  C   UNK d   0      -8.354 -15.518  -4.066  0.00  0.00     0.042 A 
ATOM     16  H   UNK d   0     -10.286 -14.729  -3.370  0.00  0.00     0.166 HD
ATOM     17  C   UNK d   0      -7.401 -15.154  -3.094  0.00  0.00     0.062 C 
ATOM     18  C   UNK d   0      -7.933 -16.263  -5.184  0.00  0.00    -0.013 A 
ATOM     19  C   UNK d   0      -7.225 -13.946  -2.469  0.00  0.00     0.067 A 
ATOM     20  N   UNK d   0      -8.185 -13.033  -2.635  0.00  0.00    -0.248 NA
ATOM     21  C   UNK d   0      -6.202 -13.343  -1.630  0.00  0.00    -0.011 A 
ATOM     22  C   UNK d   0      -7.865 -11.877  -1.967  0.00  0.00     0.066 A 
ATOM     23  C   UNK d   0      -8.799 -10.853  -2.024  0.00  0.00     0.062 C 
ATOM     24  C   UNK d   0      -6.581 -12.131  -1.343  0.00  0.00    -0.020 A 
ATOM     25  C   UNK d   0     -10.075 -10.884  -2.607  0.00  0.00     0.041 A 
ATOM     26  N   UNK d   0     -10.519 -11.435  -3.743  0.00  0.00    -0.355 N 
ATOM     27  C   UNK d   0     -11.143 -10.259  -1.926  0.00  0.00    -0.022 A 
ATOM     28  C   UNK d   0     -11.836 -11.185  -3.808  0.00  0.00     0.042 A 
ATOM     29  H   UNK d   0      -9.904 -11.973  -4.505  0.00  0.00     0.166 HD
ATOM     30  C   UNK d   0     -12.794 -11.533  -4.774  0.00  0.00     0.062 C 
ATOM     31  C   UNK d   0     -12.261 -10.445  -2.680  0.00  0.00    -0.013 A 
ATOM     32  C   UNK d   0     -12.916 -12.728  -5.465  0.00  0.00     0.066 A 
BRANCH   8  33
ATOM     33  C   UNK d   0     -14.144 -15.403  -7.668  0.00  0.00     0.151 C 
BRANCH  33  34
ATOM     34  C   UNK d   0     -15.140 -16.266  -7.007  0.00  0.00     0.143 C 
ATOM     35  O   UNK d   0     -16.242 -15.817  -6.663  0.00  0.00    -0.650 OA
BRANCH  34  36
ATOM     36  O   UNK d   0     -14.836 -17.587  -6.769  0.00  0.00    -0.776 OA
ATOM     37  H   UNK d   0     -14.623 -18.233  -7.540  0.00  0.00     0.167 HD
ENDBRANCH  34  36
ENDBRANCH  33  34
ENDBRANCH   8  33
BRANCH  31  38
ATOM     38  C   UNK d   0     -13.653  -9.963  -2.343  0.00  0.00     0.151 C 
BRANCH  38  39
ATOM     39  C   UNK d   0     -13.871  -8.579  -2.708  0.00  0.00     0.143 C 
ATOM     40  O   UNK d   0     -13.269  -7.642  -2.154  0.00  0.00    -0.650 OA
BRANCH  39  41
ATOM     41  O   UNK d   0     -14.785  -8.271  -3.715  0.00  0.00    -0.776 OA
ATOM     42  H   UNK d   0     -14.521  -7.524  -4.366  0.00  0.00     0.167 HD
ENDBRANCH  39  41
ENDBRANCH  38  39
ENDBRANCH  31  38
BRANCH  27  43
ATOM     43  C   UNK d   0     -11.137  -9.507  -0.619  0.00  0.00     0.052 C 
BRANCH  43  44
ATOM     44  C   UNK d   0      -9.824  -9.567   0.092  0.00  0.00     0.115 C 
BRANCH  44  45
ATOM     45  C   UNK d   0      -9.441  -8.164   0.395  0.00  0.00     0.139 C 
ATOM     46  O   UNK d   0     -10.353  -7.304   0.470  0.00  0.00    -0.650 OA
BRANCH  45  47
ATOM     47  O   UNK d   0      -8.135  -7.774   0.601  0.00  0.00    -0.776 OA
ATOM     48  H   UNK d   0      -7.881  -6.922   1.127  0.00  0.00     0.167 HD
ENDBRANCH  45  47
ENDBRANCH  44  45
ENDBRANCH  43  44
ENDBRANCH  27  43
BRANCH  24  49
ATOM     49  C   UNK d   0      -5.860 -11.176  -0.484  0.00  0.00     0.052 C 
BRANCH  49  50
ATOM     50  C   UNK d   0      -6.574 -11.013   0.833  0.00  0.00     0.115 C 
BRANCH  50  51
ATOM     51  C   UNK d   0      -6.127 -11.847   1.941  0.00  0.00     0.139 C 
ATOM     52  O   UNK d   0      -6.638 -11.785   3.084  0.00  0.00    -0.650 OA
BRANCH  51  53
ATOM     53  O   UNK d   0      -5.095 -12.752   1.745  0.00  0.00    -0.776 OA
ATOM     54  H   UNK d   0      -5.278 -13.569   1.189  0.00  0.00     0.167 HD
ENDBRANCH  51  53
ENDBRANCH  50  51
ENDBRANCH  49  50
ENDBRANCH  24  49
BRANCH  21  55
ATOM     55  C   UNK d   0      -4.956 -14.043  -1.199  0.00  0.00     0.151 C 
BRANCH  55  56
ATOM     56  C   UNK d   0      -5.244 -15.327  -0.543  0.00  0.00     0.143 C 
ATOM     57  O   UNK d   0      -4.689 -16.394  -0.874  0.00  0.00    -0.650 OA
BRANCH  56  58
ATOM     58  O   UNK d   0      -6.178 -15.333   0.492  0.00  0.00    -0.776 OA
ATOM     59  H   UNK d   0      -6.834 -16.135   0.483  0.00  0.00     0.167 HD
ENDBRANCH  56  58
ENDBRANCH  55  56
ENDBRANCH  21  55
BRANCH  18  60
ATOM     60  C   UNK d   0      -6.554 -16.760  -5.543  0.00  0.00     0.151 C 
BRANCH  60  61
ATOM     61  C   UNK d   0      -5.686 -15.573  -5.552  0.00  0.00     0.143 C 
ATOM     62  O   UNK d   0      -4.852 -15.257  -4.703  0.00  0.00    -0.650 OA
BRANCH  61  63
ATOM     63  O   UNK d   0      -5.848 -14.717  -6.668  0.00  0.00    -0.776 OA
ATOM     64  H   UNK d   0      -6.565 -14.014  -6.683  0.00  0.00     0.167 HD
ENDBRANCH  61  63
ENDBRANCH  60  61
ENDBRANCH  18  60
BRANCH  14  65
ATOM     65  C   UNK d   0      -9.052 -17.319  -7.173  0.00  0.00     0.052 C 
BRANCH  65  66
ATOM     66  C   UNK d   0      -7.788 -17.203  -7.948  0.00  0.00     0.115 C 
BRANCH  66  67
ATOM     67  C   UNK d   0      -7.723 -16.314  -9.074  0.00  0.00     0.139 C 
ATOM     68  O   UNK d   0      -6.604 -15.738  -9.337  0.00  0.00    -0.650 OA
BRANCH  67  69
ATOM     69  O   UNK d   0      -8.749 -15.976  -9.955  0.00  0.00    -0.776 OA
ATOM     70  H   UNK d   0      -8.963 -16.674 -10.682  0.00  0.00     0.167 HD
ENDBRANCH  67  69
ENDBRANCH  66  67
ENDBRANCH  65  66
ENDBRANCH  14  65
ENDBRANCH   6   7
ENDBRANCH   5   6
ENDBRANCH   2   5
TORSDOF 28
ENDMDL
MODEL 20
REMARK VINA RESULT:      -8.3      2.003      8.271
REMARK  28 active torsions:
REMARK  status: ('A' for Active; 'I' for Inactive)
REMARK    1  A    between atoms: C_2  and  O_3 
REMARK    2  A    between atoms: C_2  and  C_4 
REMARK    3  A    between atoms: C_4  and  C_5 
REMARK    4  A    between atoms: C_5  and  C_6 
REMARK    5  A    between atoms: C_7  and  C_8 
REMARK    6  A    between atoms: C_8  and  C_9 
REMARK    7  A    between atoms: C_9  and  O_11 
REMARK    8  A    between atoms: C_28  and  C_29 
REMARK    9  A    between atoms: C_29  and  C_30 
REMARK   10  A    between atoms: C_30  and  O_32 
REMARK   11  A    between atoms: C_33  and  C_34 
REMARK   12  A    between atoms: C_34  and  C_35 
REMARK   13  A    between atoms: C_35  and  C_36 
REMARK   14  A    between atoms: C_36  and  O_38 
REMARK   15  A    between atoms: C_39  and  C_40 
REMARK   16  A    between atoms: C_40  and  C_41 
REMARK   17  A    between atoms: C_41  and  C_42 
REMARK   18  A    between atoms: C_42  and  O_44 
REMARK   19  A    between atoms: C_45  and  C_46 
REMARK   20  A    between atoms: C_46  and  C_47 
REMARK   21  A    between atoms: C_47  and  O_49 
REMARK   22  A    between atoms: C_50  and  C_51 
REMARK   23  A    between atoms: C_51  and  C_52 
REMARK   24  A    between atoms: C_52  and  O_54 
REMARK   25  A    between atoms: C_55  and  C_56 
REMARK   26  A    between atoms: C_56  and  C_57 
REMARK   27  A    between atoms: C_57  and  C_58 
REMARK   28  A    between atoms: C_58  and  O_60 
ROOT
ATOM      1  O   UNK d   0      -5.601  -9.060   0.156  0.00  0.00    -0.650 OA
ATOM      2  C   UNK d   0      -6.450  -9.084  -0.762  0.00  0.00     0.139 C 
ENDROOT
BRANCH   2   3
ATOM      3  O   UNK d   0      -6.285  -8.265  -1.853  0.00  0.00    -0.776 OA
ATOM      4  H   UNK d   0      -5.913  -8.628  -2.734  0.00  0.00     0.167 HD
ENDBRANCH   2   3
BRANCH   2   5
ATOM      5  C   UNK d   0      -7.627  -9.994  -0.670  0.00  0.00     0.115 C 
BRANCH   5   6
ATOM      6  C   UNK d   0      -8.873  -9.274  -1.110  0.00  0.00     0.052 C 
BRANCH   6   7
ATOM      7  C   UNK d   0      -9.794 -10.151  -1.923  0.00  0.00    -0.020 A 
ATOM      8  C   UNK d   0     -11.060  -9.950  -2.188  0.00  0.00    -0.011 A 
ATOM      9  C   UNK d   0     -11.527 -11.064  -2.996  0.00  0.00     0.067 A 
ATOM     10  C   UNK d   0     -12.735 -11.434  -3.609  0.00  0.00     0.062 C 
ATOM     11  N   UNK d   0     -10.482 -11.900  -3.169  0.00  0.00    -0.248 NA
ATOM     12  C   UNK d   0     -12.922 -12.415  -4.588  0.00  0.00     0.041 A 
ATOM     13  N   UNK d   0     -12.419 -13.659  -4.704  0.00  0.00    -0.355 N 
ATOM     14  C   UNK d   0     -13.718 -12.116  -5.708  0.00  0.00    -0.022 A 
ATOM     15  C   UNK d   0     -12.868 -14.153  -5.873  0.00  0.00     0.042 A 
ATOM     16  H   UNK d   0     -11.774 -14.184  -3.965  0.00  0.00     0.166 HD
ATOM     17  C   UNK d   0     -12.647 -15.405  -6.481  0.00  0.00     0.062 C 
ATOM     18  C   UNK d   0     -13.686 -13.214  -6.531  0.00  0.00    -0.013 A 
ATOM     19  C   UNK d   0     -11.474 -16.103  -6.616  0.00  0.00     0.067 A 
ATOM     20  N   UNK d   0     -10.423 -15.659  -5.922  0.00  0.00    -0.248 NA
ATOM     21  C   UNK d   0     -11.030 -17.263  -7.370  0.00  0.00    -0.011 A 
ATOM     22  C   UNK d   0      -9.323 -16.444  -6.169  0.00  0.00     0.066 A 
ATOM     23  C   UNK d   0      -8.165 -16.116  -5.480  0.00  0.00     0.062 C 
ATOM     24  C   UNK d   0      -9.769 -17.455  -7.107  0.00  0.00    -0.020 A 
ATOM     25  C   UNK d   0      -8.001 -15.134  -4.491  0.00  0.00     0.041 A 
ATOM     26  N   UNK d   0      -8.489 -13.893  -4.382  0.00  0.00    -0.355 N 
ATOM     27  C   UNK d   0      -7.205 -15.438  -3.364  0.00  0.00    -0.022 A 
ATOM     28  C   UNK d   0      -8.035 -13.395  -3.221  0.00  0.00     0.042 A 
ATOM     29  H   UNK d   0      -9.128 -13.363  -5.131  0.00  0.00     0.166 HD
ATOM     30  C   UNK d   0      -8.240 -12.148  -2.609  0.00  0.00     0.062 C 
ATOM     31  C   UNK d   0      -7.222 -14.343  -2.556  0.00  0.00    -0.013 A 
ATOM     32  C   UNK d   0      -9.409 -11.407  -2.549  0.00  0.00     0.066 A 
BRANCH   8  33
ATOM     33  C   UNK d   0     -11.885  -8.808  -1.752  0.00  0.00     0.151 C 
BRANCH  33  34
ATOM     34  C   UNK d   0     -12.764  -8.299  -2.820  0.00  0.00     0.143 C 
ATOM     35  O   UNK d   0     -13.975  -8.560  -2.825  0.00  0.00    -0.650 OA
BRANCH  34  36
ATOM     36  O   UNK d   0     -12.229  -7.524  -3.823  0.00  0.00    -0.776 OA
ATOM     37  H   UNK d   0     -11.278  -7.139  -3.751  0.00  0.00     0.167 HD
ENDBRANCH  34  36
ENDBRANCH  33  34
ENDBRANCH   8  33
BRANCH  31  38
ATOM     38  C   UNK d   0      -6.521 -14.207  -1.224  0.00  0.00     0.151 C 
BRANCH  38  39
ATOM     39  C   UNK d   0      -6.885 -15.249  -0.289  0.00  0.00     0.143 C 
ATOM     40  O   UNK d   0      -6.060 -15.766   0.486  0.00  0.00    -0.650 OA
BRANCH  39  41
ATOM     41  O   UNK d   0      -8.204 -15.700  -0.242  0.00  0.00    -0.776 OA
ATOM     42  H   UNK d   0      -8.386 -16.634  -0.622  0.00  0.00     0.167 HD
ENDBRANCH  39  41
ENDBRANCH  38  39
ENDBRANCH  31  38
BRANCH  27  43
ATOM     43  C   UNK d   0      -6.447 -16.700  -3.038  0.00  0.00     0.052 C 
BRANCH  43  44
ATOM     44  C   UNK d   0      -5.061 -16.718  -3.599  0.00  0.00     0.115 C 
BRANCH  44  45
ATOM     45  C   UNK d   0      -4.160 -16.240  -2.518  0.00  0.00     0.139 C 
ATOM     46  O   UNK d   0      -3.587 -15.133  -2.671  0.00  0.00    -0.650 OA
BRANCH  45  47
ATOM     47  O   UNK d   0      -3.934 -16.957  -1.362  0.00  0.00    -0.776 OA
ATOM     48  H   UNK d   0      -3.228 -16.681  -0.661  0.00  0.00     0.167 HD
ENDBRANCH  45  47
ENDBRANCH  44  45
ENDBRANCH  43  44
ENDBRANCH  27  43
BRANCH  24  49
ATOM     49  C   UNK d   0      -8.930 -18.547  -7.629  0.00  0.00     0.052 C 
BRANCH  49  50
ATOM     50  C   UNK d   0      -9.308 -19.855  -6.981  0.00  0.00     0.115 C 
BRANCH  50  51
ATOM     51  C   UNK d   0      -9.962 -20.848  -7.822  0.00  0.00     0.139 C 
ATOM     52  O   UNK d   0      -9.544 -21.147  -8.965  0.00  0.00    -0.650 OA
BRANCH  51  53
ATOM     53  O   UNK d   0     -11.094 -21.500  -7.359  0.00  0.00    -0.776 OA
ATOM     54  H   UNK d   0     -11.651 -21.045  -6.657  0.00  0.00     0.167 HD
ENDBRANCH  51  53
ENDBRANCH  50  51
ENDBRANCH  49  50
ENDBRANCH  24  49
BRANCH  21  55
ATOM     55  C   UNK d   0     -11.913 -18.062  -8.271  0.00  0.00     0.151 C 
BRANCH  55  56
ATOM     56  C   UNK d   0     -13.098 -18.575  -7.568  0.00  0.00     0.143 C 
ATOM     57  O   UNK d   0     -14.257 -18.202  -7.838  0.00  0.00    -0.650 OA
BRANCH  56  58
ATOM     58  O   UNK d   0     -12.898 -19.518  -6.561  0.00  0.00    -0.776 OA
ATOM     59  H   UNK d   0     -12.999 -19.153  -5.596  0.00  0.00     0.167 HD
ENDBRANCH  56  58
ENDBRANCH  55  56
ENDBRANCH  21  55
BRANCH  18  60
ATOM     60  C   UNK d   0     -14.400 -13.323  -7.856  0.00  0.00     0.151 C 
BRANCH  60  61
ATOM     61  C   UNK d   0     -15.235 -14.531  -7.766  0.00  0.00     0.143 C 
ATOM     62  O   UNK d   0     -16.038 -14.814  -6.876  0.00  0.00    -0.650 OA
BRANCH  61  63
ATOM     63  O   UNK d   0     -15.079 -15.451  -8.831  0.00  0.00    -0.776 OA
ATOM     64  H   UNK d   0     -14.171 -15.792  -9.093  0.00  0.00     0.167 HD
ENDBRANCH  61  63
ENDBRANCH  60  61
ENDBRANCH  18  60
BRANCH  14  65
ATOM     65  C   UNK d   0     -14.577 -10.921  -6.010  0.00  0.00     0.052 C 
BRANCH  65  66
ATOM     66  C   UNK d   0     -15.865 -10.928  -5.265  0.00  0.00     0.115 C 
BRANCH  66  67
ATOM     67  C   UNK d   0     -16.711  -9.768  -5.297  0.00  0.00     0.139 C 
ATOM     68  O   UNK d   0     -16.535  -8.905  -6.234  0.00  0.00    -0.650 OA
BRANCH  67  69
ATOM     69  O   UNK d   0     -17.738  -9.437  -4.414  0.00  0.00    -0.776 OA
ATOM     70  H   UNK d   0     -18.058 -10.195  -3.794  0.00  0.00     0.167 HD
ENDBRANCH  67  69
ENDBRANCH  66  67
ENDBRANCH  65  66
ENDBRANCH  14  65
ENDBRANCH   6   7
ENDBRANCH   5   6
ENDBRANCH   2   5
TORSDOF 28
ENDMDL
