MODEL 1
REMARK VINA RESULT:      -9.7      0.000      0.000
REMARK  16 active torsions:
REMARK  status: ('A' for Active; 'I' for Inactive)
REMARK    1  A    between atoms: C_6  and  C_7 
REMARK    2  A    between atoms: C_7  and  C_8 
REMARK    3  A    between atoms: C_8  and  C_9 
REMARK    4  A    between atoms: C_9  and  O_11 
REMARK    5  A    between atoms: C_16  and  C_17 
REMARK    6  A    between atoms: C_17  and  C_18 
REMARK    7  A    between atoms: C_18  and  C_19 
REMARK    8  A    between atoms: C_19  and  O_21 
REMARK    9  A    between atoms: C_28  and  C_29 
REMARK   10  A    between atoms: C_29  and  C_30 
REMARK   11  A    between atoms: C_30  and  C_31 
REMARK   12  A    between atoms: C_31  and  O_33 
REMARK   13  A    between atoms: C_42  and  C_43 
REMARK   14  A    between atoms: C_43  and  C_44 
REMARK   15  A    between atoms: C_44  and  C_45 
REMARK   16  A    between atoms: C_45  and  O_47 
ROOT
HETATM    1  C   UNK     0     -20.977 -17.492 -14.791  0.00  0.00     0.051 C 
HETATM    2  C   UNK     0     -21.036 -15.978 -14.816  0.00  0.00    -0.031 A 
HETATM    3  C   UNK     0     -21.044 -15.081 -13.760  0.00  0.00     0.021 A 
HETATM    4  N   UNK     0     -21.137 -13.822 -14.252  0.00  0.00    -0.361 N 
HETATM    5  C   UNK     0     -21.180 -13.898 -15.598  0.00  0.00     0.022 A 
HETATM    6  C   UNK     0     -21.122 -15.233 -15.985  0.00  0.00    -0.027 A 
HETATM    7  C   UNK     0     -21.189 -12.799 -16.614  0.00  0.00     0.115 C 
HETATM    8  C   UNK     0     -20.250 -11.632 -16.364  0.00  0.00     0.021 A 
HETATM    9  N   UNK     0     -19.023 -11.648 -15.821  0.00  0.00    -0.361 N 
HETATM   10  C   UNK     0     -18.597 -10.372 -15.709  0.00  0.00     0.022 A 
HETATM   11  C   UNK     0     -19.573  -9.511 -16.202  0.00  0.00    -0.027 A 
HETATM   12  C   UNK     0     -20.617 -10.298 -16.616  0.00  0.00    -0.031 A 
HETATM   13  C   UNK     0     -21.903  -9.792 -17.230  0.00  0.00     0.051 C 
HETATM   14  C   UNK     0     -17.282  -9.912 -15.087  0.00  0.00     0.115 C 
HETATM   15  C   UNK     0     -17.129 -10.288 -13.622  0.00  0.00     0.021 A 
HETATM   16  N   UNK     0     -17.156 -11.522 -13.084  0.00  0.00    -0.361 N 
HETATM   17  C   UNK     0     -17.057 -11.424 -11.756  0.00  0.00     0.022 A 
HETATM   18  C   UNK     0     -16.950 -10.061 -11.413  0.00  0.00    -0.027 A 
HETATM   19  C   UNK     0     -16.995  -9.361 -12.591  0.00  0.00    -0.031 A 
HETATM   20  C   UNK     0     -16.875  -7.850 -12.680  0.00  0.00     0.051 C 
HETATM   21  C   UNK     0     -17.110 -12.499 -10.695  0.00  0.00     0.115 C 
HETATM   22  C   UNK     0     -18.007 -13.688 -10.951  0.00  0.00     0.022 A 
HETATM   23  N   UNK     0     -19.232 -13.701 -11.493  0.00  0.00    -0.361 N 
HETATM   24  C   UNK     0     -19.603 -14.986 -11.667  0.00  0.00     0.021 A 
HETATM   25  C   UNK     0     -18.598 -15.819 -11.216  0.00  0.00    -0.031 A 
HETATM   26  C   UNK     0     -18.566 -17.333 -11.165  0.00  0.00     0.051 C 
HETATM   27  C   UNK     0     -17.566 -15.011 -10.752  0.00  0.00    -0.027 A 
HETATM   28  C   UNK     0     -20.867 -15.506 -12.330  0.00  0.00     0.115 C 
HETATM   29  H   UNK     0     -21.212 -12.892 -13.643  0.00  0.00     0.165 HD
HETATM   30  H   UNK     0     -18.433 -12.562 -15.562  0.00  0.00     0.165 HD
HETATM   31  H   UNK     0     -17.199 -12.486 -13.655  0.00  0.00     0.165 HD
HETATM   32  H   UNK     0     -19.864 -12.804 -11.719  0.00  0.00     0.165 HD
ENDROOT
BRANCH   6  33
HETATM   33  C   UNK     0     -21.143 -15.846 -17.362  0.00  0.00     0.051 C 
BRANCH  33  34
HETATM   34  C   UNK     0     -19.740 -16.129 -17.844  0.00  0.00     0.114 C 
BRANCH  34  35
HETATM   35  C   UNK     0     -19.237 -14.892 -18.507  0.00  0.00     0.139 C 
HETATM   36  O   UNK     0     -19.710 -14.531 -19.624  0.00  0.00    -0.650 OA
BRANCH  35  37
HETATM   37  O   UNK     0     -18.250 -14.089 -17.948  0.00  0.00    -0.776 OA
HETATM   38  H   UNK     0     -17.853 -13.307 -18.443  0.00  0.00     0.167 HD
ENDBRANCH  35  37
ENDBRANCH  34  35
ENDBRANCH  33  34
ENDBRANCH   6  33
BRANCH  27  39
HETATM   39  C   UNK     0     -16.333 -15.555 -10.121  0.00  0.00     0.051 C 
BRANCH  39  40
HETATM   40  C   UNK     0     -16.332 -15.773  -8.674  0.00  0.00     0.114 C 
BRANCH  40  41
HETATM   41  C   UNK     0     -16.716 -14.739  -7.739  0.00  0.00     0.139 C 
HETATM   42  O   UNK     0     -16.055 -13.709  -7.550  0.00  0.00    -0.650 OA
BRANCH  41  43
HETATM   43  O   UNK     0     -17.914 -14.899  -6.987  0.00  0.00    -0.776 OA
HETATM   44  H   UNK     0     -18.650 -15.397  -7.471  0.00  0.00     0.167 HD
ENDBRANCH  41  43
ENDBRANCH  40  41
ENDBRANCH  39  40
ENDBRANCH  27  39
BRANCH  11  45
HETATM   45  C   UNK     0     -19.546  -8.009 -16.291  0.00  0.00     0.051 C 
BRANCH  45  46
HETATM   46  C   UNK     0     -19.777  -7.320 -14.996  0.00  0.00     0.114 C 
BRANCH  46  47
HETATM   47  C   UNK     0     -21.166  -6.778 -15.026  0.00  0.00     0.139 C 
HETATM   48  O   UNK     0     -22.089  -7.491 -14.606  0.00  0.00    -0.650 OA
BRANCH  47  49
HETATM   49  O   UNK     0     -21.419  -5.519 -15.508  0.00  0.00    -0.776 OA
HETATM   50  H   UNK     0     -22.342  -5.248 -15.866  0.00  0.00     0.167 HD
ENDBRANCH  47  49
ENDBRANCH  46  47
ENDBRANCH  45  46
ENDBRANCH  11  45
BRANCH  18  51
HETATM   51  C   UNK     0     -16.792  -9.461 -10.041  0.00  0.00     0.051 C 
BRANCH  51  52
HETATM   52  C   UNK     0     -15.327  -9.628  -9.668  0.00  0.00     0.114 C 
BRANCH  52  53
HETATM   53  C   UNK     0     -14.533  -8.431 -10.007  0.00  0.00     0.139 C 
HETATM   54  O   UNK     0     -14.970  -7.300  -9.741  0.00  0.00    -0.650 OA
BRANCH  53  55
HETATM   55  O   UNK     0     -13.313  -8.577 -10.621  0.00  0.00    -0.776 OA
HETATM   56  H   UNK     0     -12.704  -9.357 -10.534  0.00  0.00     0.167 HD
ENDBRANCH  53  55
ENDBRANCH  52  53
ENDBRANCH  51  52
ENDBRANCH  18  51
TORSDOF 16
ENDMDL
MODEL 2
REMARK VINA RESULT:      -9.1      2.521      6.985
REMARK  16 active torsions:
REMARK  status: ('A' for Active; 'I' for Inactive)
REMARK    1  A    between atoms: C_6  and  C_7 
REMARK    2  A    between atoms: C_7  and  C_8 
REMARK    3  A    between atoms: C_8  and  C_9 
REMARK    4  A    between atoms: C_9  and  O_11 
REMARK    5  A    between atoms: C_16  and  C_17 
REMARK    6  A    between atoms: C_17  and  C_18 
REMARK    7  A    between atoms: C_18  and  C_19 
REMARK    8  A    between atoms: C_19  and  O_21 
REMARK    9  A    between atoms: C_28  and  C_29 
REMARK   10  A    between atoms: C_29  and  C_30 
REMARK   11  A    between atoms: C_30  and  C_31 
REMARK   12  A    between atoms: C_31  and  O_33 
REMARK   13  A    between atoms: C_42  and  C_43 
REMARK   14  A    between atoms: C_43  and  C_44 
REMARK   15  A    between atoms: C_44  and  C_45 
REMARK   16  A    between atoms: C_45  and  O_47 
ROOT
HETATM    1  C   UNK     0     -15.926  -7.072 -16.411  0.00  0.00     0.051 C 
HETATM    2  C   UNK     0     -16.425  -8.480 -16.661  0.00  0.00    -0.031 A 
HETATM    3  C   UNK     0     -16.074  -9.663 -16.030  0.00  0.00     0.021 A 
HETATM    4  N   UNK     0     -16.751 -10.687 -16.603  0.00  0.00    -0.361 N 
HETATM    5  C   UNK     0     -17.533 -10.181 -17.579  0.00  0.00     0.022 A 
HETATM    6  C   UNK     0     -17.352  -8.803 -17.644  0.00  0.00    -0.027 A 
HETATM    7  C   UNK     0     -18.540 -10.870 -18.445  0.00  0.00     0.115 C 
HETATM    8  C   UNK     0     -19.448 -11.879 -17.764  0.00  0.00     0.021 A 
HETATM    9  N   UNK     0     -19.965 -11.837 -16.526  0.00  0.00    -0.361 N 
HETATM   10  C   UNK     0     -20.636 -12.988 -16.313  0.00  0.00     0.022 A 
HETATM   11  C   UNK     0     -20.557 -13.790 -17.447  0.00  0.00    -0.027 A 
HETATM   12  C   UNK     0     -19.810 -13.097 -18.366  0.00  0.00    -0.031 A 
HETATM   13  C   UNK     0     -19.466 -13.581 -19.756  0.00  0.00     0.051 C 
HETATM   14  C   UNK     0     -21.331 -13.400 -15.018  0.00  0.00     0.115 C 
HETATM   15  C   UNK     0     -20.395 -13.506 -13.824  0.00  0.00     0.021 A 
HETATM   16  N   UNK     0     -19.613 -12.542 -13.305  0.00  0.00    -0.361 N 
HETATM   17  C   UNK     0     -18.890 -13.053 -12.307  0.00  0.00     0.022 A 
HETATM   18  C   UNK     0     -19.224 -14.414 -12.161  0.00  0.00    -0.027 A 
HETATM   19  C   UNK     0     -20.169 -14.685 -13.117  0.00  0.00    -0.031 A 
HETATM   20  C   UNK     0     -20.832 -16.040 -13.287  0.00  0.00     0.051 C 
HETATM   21  C   UNK     0     -17.819 -12.411 -11.454  0.00  0.00     0.115 C 
HETATM   22  C   UNK     0     -16.936 -11.373 -12.107  0.00  0.00     0.022 A 
HETATM   23  N   UNK     0     -16.411 -11.387 -13.339  0.00  0.00    -0.361 N 
HETATM   24  C   UNK     0     -15.813 -10.198 -13.558  0.00  0.00     0.021 A 
HETATM   25  C   UNK     0     -15.948  -9.404 -12.436  0.00  0.00    -0.031 A 
HETATM   26  C   UNK     0     -15.414  -8.008 -12.186  0.00  0.00     0.051 C 
HETATM   27  C   UNK     0     -16.663 -10.134 -11.494  0.00  0.00    -0.027 A 
HETATM   28  C   UNK     0     -15.159  -9.708 -14.839  0.00  0.00     0.115 C 
HETATM   29  H   UNK     0     -16.642 -11.765 -16.340  0.00  0.00     0.165 HD
HETATM   30  H   UNK     0     -19.900 -10.974 -15.818  0.00  0.00     0.165 HD
HETATM   31  H   UNK     0     -19.604 -11.465 -13.619  0.00  0.00     0.165 HD
HETATM   32  H   UNK     0     -16.419 -12.253 -14.051  0.00  0.00     0.165 HD
ENDROOT
BRANCH   6  33
HETATM   33  C   UNK     0     -17.982  -7.784 -18.559  0.00  0.00     0.051 C 
BRANCH  33  34
HETATM   34  C   UNK     0     -17.238  -7.711 -19.871  0.00  0.00     0.114 C 
BRANCH  34  35
HETATM   35  C   UNK     0     -18.083  -6.932 -20.821  0.00  0.00     0.139 C 
HETATM   36  O   UNK     0     -18.542  -7.482 -21.864  0.00  0.00    -0.650 OA
BRANCH  35  37
HETATM   37  O   UNK     0     -18.405  -5.596 -20.615  0.00  0.00    -0.776 OA
HETATM   38  H   UNK     0     -19.231  -5.178 -21.012  0.00  0.00     0.167 HD
ENDBRANCH  35  37
ENDBRANCH  34  35
ENDBRANCH  33  34
ENDBRANCH   6  33
BRANCH  27  39
HETATM   39  C   UNK     0     -16.946  -9.630 -10.122  0.00  0.00     0.051 C 
BRANCH  39  40
HETATM   40  C   UNK     0     -15.996  -9.948  -9.056  0.00  0.00     0.114 C 
BRANCH  40  41
HETATM   41  C   UNK     0     -16.310 -10.883  -7.999  0.00  0.00     0.139 C 
HETATM   42  O   UNK     0     -17.341 -11.567  -7.975  0.00  0.00    -0.650 OA
BRANCH  41  43
HETATM   43  O   UNK     0     -15.394 -11.037  -6.919  0.00  0.00    -0.776 OA
HETATM   44  H   UNK     0     -15.749 -11.584  -6.144  0.00  0.00     0.167 HD
ENDBRANCH  41  43
ENDBRANCH  40  41
ENDBRANCH  39  40
ENDBRANCH  27  39
BRANCH  11  45
HETATM   45  C   UNK     0     -21.154 -15.152 -17.681  0.00  0.00     0.051 C 
BRANCH  45  46
HETATM   46  C   UNK     0     -20.298 -16.276 -17.220  0.00  0.00     0.114 C 
BRANCH  46  47
HETATM   47  C   UNK     0     -19.843 -17.012 -18.435  0.00  0.00     0.139 C 
HETATM   48  O   UNK     0     -20.342 -16.714 -19.529  0.00  0.00    -0.650 OA
BRANCH  47  49
HETATM   49  O   UNK     0     -18.894 -17.998 -18.344  0.00  0.00    -0.776 OA
HETATM   50  H   UNK     0     -18.266 -18.224 -19.125  0.00  0.00     0.167 HD
ENDBRANCH  47  49
ENDBRANCH  46  47
ENDBRANCH  45  46
ENDBRANCH  11  45
BRANCH  18  51
HETATM   51  C   UNK     0     -18.688 -15.397 -11.153  0.00  0.00     0.051 C 
BRANCH  51  52
HETATM   52  C   UNK     0     -19.461 -15.152  -9.866  0.00  0.00     0.114 C 
BRANCH  52  53
HETATM   53  C   UNK     0     -18.613 -15.331  -8.672  0.00  0.00     0.139 C 
HETATM   54  O   UNK     0     -18.210 -16.463  -8.360  0.00  0.00    -0.650 OA
BRANCH  53  55
HETATM   55  O   UNK     0     -18.276 -14.241  -7.908  0.00  0.00    -0.776 OA
HETATM   56  H   UNK     0     -17.847 -13.407  -8.236  0.00  0.00     0.167 HD
ENDBRANCH  53  55
ENDBRANCH  52  53
ENDBRANCH  51  52
ENDBRANCH  18  51
TORSDOF 16
ENDMDL
MODEL 3
REMARK VINA RESULT:      -8.9      1.978      2.236
REMARK  16 active torsions:
REMARK  status: ('A' for Active; 'I' for Inactive)
REMARK    1  A    between atoms: C_6  and  C_7 
REMARK    2  A    between atoms: C_7  and  C_8 
REMARK    3  A    between atoms: C_8  and  C_9 
REMARK    4  A    between atoms: C_9  and  O_11 
REMARK    5  A    between atoms: C_16  and  C_17 
REMARK    6  A    between atoms: C_17  and  C_18 
REMARK    7  A    between atoms: C_18  and  C_19 
REMARK    8  A    between atoms: C_19  and  O_21 
REMARK    9  A    between atoms: C_28  and  C_29 
REMARK   10  A    between atoms: C_29  and  C_30 
REMARK   11  A    between atoms: C_30  and  C_31 
REMARK   12  A    between atoms: C_31  and  O_33 
REMARK   13  A    between atoms: C_42  and  C_43 
REMARK   14  A    between atoms: C_43  and  C_44 
REMARK   15  A    between atoms: C_44  and  C_45 
REMARK   16  A    between atoms: C_45  and  O_47 
ROOT
HETATM    1  C   UNK     0     -21.203 -16.774 -14.846  0.00  0.00     0.051 C 
HETATM    2  C   UNK     0     -21.001 -15.308 -15.172  0.00  0.00    -0.031 A 
HETATM    3  C   UNK     0     -20.944 -14.217 -14.320  0.00  0.00     0.021 A 
HETATM    4  N   UNK     0     -20.781 -13.091 -15.055  0.00  0.00    -0.361 N 
HETATM    5  C   UNK     0     -20.725 -13.442 -16.356  0.00  0.00     0.022 A 
HETATM    6  C   UNK     0     -20.862 -14.822 -16.466  0.00  0.00    -0.027 A 
HETATM    7  C   UNK     0     -20.464 -12.593 -17.561  0.00  0.00     0.115 C 
HETATM    8  C   UNK     0     -19.364 -11.554 -17.437  0.00  0.00     0.021 A 
HETATM    9  N   UNK     0     -18.206 -11.638 -16.763  0.00  0.00    -0.361 N 
HETATM   10  C   UNK     0     -17.581 -10.445 -16.853  0.00  0.00     0.022 A 
HETATM   11  C   UNK     0     -18.352  -9.571 -17.614  0.00  0.00    -0.027 A 
HETATM   12  C   UNK     0     -19.477 -10.263 -17.985  0.00  0.00    -0.031 A 
HETATM   13  C   UNK     0     -20.603  -9.712 -18.830  0.00  0.00     0.051 C 
HETATM   14  C   UNK     0     -16.262 -10.065 -16.185  0.00  0.00     0.115 C 
HETATM   15  C   UNK     0     -16.297 -10.143 -14.667  0.00  0.00     0.021 A 
HETATM   16  N   UNK     0     -16.578 -11.217 -13.905  0.00  0.00    -0.361 N 
HETATM   17  C   UNK     0     -16.573 -10.856 -12.620  0.00  0.00     0.022 A 
HETATM   18  C   UNK     0     -16.265  -9.484 -12.540  0.00  0.00    -0.027 A 
HETATM   19  C   UNK     0     -16.093  -9.049 -13.828  0.00  0.00    -0.031 A 
HETATM   20  C   UNK     0     -15.711  -7.627 -14.195  0.00  0.00     0.051 C 
HETATM   21  C   UNK     0     -16.896 -11.664 -11.383  0.00  0.00     0.115 C 
HETATM   22  C   UNK     0     -17.957 -12.731 -11.504  0.00  0.00     0.022 A 
HETATM   23  N   UNK     0     -19.117 -12.676 -12.171  0.00  0.00    -0.361 N 
HETATM   24  C   UNK     0     -19.686 -13.898 -12.133  0.00  0.00     0.021 A 
HETATM   25  C   UNK     0     -18.878 -14.758 -11.415  0.00  0.00    -0.031 A 
HETATM   26  C   UNK     0     -19.107 -16.214 -11.067  0.00  0.00     0.051 C 
HETATM   27  C   UNK     0     -17.765 -14.034 -11.002  0.00  0.00    -0.027 A 
HETATM   28  C   UNK     0     -20.961 -14.352 -12.824  0.00  0.00     0.115 C 
HETATM   29  H   UNK     0     -20.747 -12.052 -14.652  0.00  0.00     0.165 HD
HETATM   30  H   UNK     0     -17.804 -12.553 -16.264  0.00  0.00     0.165 HD
HETATM   31  H   UNK     0     -16.736 -12.262 -14.279  0.00  0.00     0.165 HD
HETATM   32  H   UNK     0     -19.567 -11.762 -12.639  0.00  0.00     0.165 HD
ENDROOT
BRANCH   6  33
HETATM   33  C   UNK     0     -20.874 -15.701 -17.691  0.00  0.00     0.051 C 
BRANCH  33  34
HETATM   34  C   UNK     0     -19.474 -15.893 -18.224  0.00  0.00     0.114 C 
BRANCH  34  35
HETATM   35  C   UNK     0     -19.492 -15.521 -19.668  0.00  0.00     0.139 C 
HETATM   36  O   UNK     0     -20.012 -16.299 -20.520  0.00  0.00    -0.650 OA
BRANCH  35  37
HETATM   37  O   UNK     0     -18.955 -14.331 -20.142  0.00  0.00    -0.776 OA
HETATM   38  H   UNK     0     -18.209 -13.853 -19.663  0.00  0.00     0.167 HD
ENDBRANCH  35  37
ENDBRANCH  34  35
ENDBRANCH  33  34
ENDBRANCH   6  33
BRANCH  27  39
HETATM   39  C   UNK     0     -16.699 -14.610 -10.138  0.00  0.00     0.051 C 
BRANCH  39  40
HETATM   40  C   UNK     0     -16.828 -14.467  -8.688  0.00  0.00     0.114 C 
BRANCH  40  41
HETATM   41  C   UNK     0     -16.320 -15.460  -7.768  0.00  0.00     0.139 C 
HETATM   42  O   UNK     0     -16.086 -15.229  -6.574  0.00  0.00    -0.650 OA
BRANCH  41  43
HETATM   43  O   UNK     0     -16.071 -16.779  -8.243  0.00  0.00    -0.776 OA
HETATM   44  H   UNK     0     -16.207 -17.506  -7.551  0.00  0.00     0.167 HD
ENDBRANCH  41  43
ENDBRANCH  40  41
ENDBRANCH  39  40
ENDBRANCH  27  39
BRANCH  11  45
HETATM   45  C   UNK     0     -18.063  -8.143 -17.991  0.00  0.00     0.051 C 
BRANCH  45  46
HETATM   46  C   UNK     0     -17.214  -7.996 -19.201  0.00  0.00     0.114 C 
BRANCH  46  47
HETATM   47  C   UNK     0     -18.009  -7.234 -20.207  0.00  0.00     0.139 C 
HETATM   48  O   UNK     0     -18.613  -7.865 -21.086  0.00  0.00    -0.650 OA
BRANCH  47  49
HETATM   49  O   UNK     0     -18.070  -5.864 -20.163  0.00  0.00    -0.776 OA
HETATM   50  H   UNK     0     -18.949  -5.353 -20.300  0.00  0.00     0.167 HD
ENDBRANCH  47  49
ENDBRANCH  46  47
ENDBRANCH  45  46
ENDBRANCH  11  45
BRANCH  18  51
HETATM   51  C   UNK     0     -16.121  -8.638 -11.301  0.00  0.00     0.051 C 
BRANCH  51  52
HETATM   52  C   UNK     0     -14.714  -8.884 -10.778  0.00  0.00     0.114 C 
BRANCH  52  53
HETATM   53  C   UNK     0     -13.856  -7.692 -10.927  0.00  0.00     0.139 C 
HETATM   54  O   UNK     0     -14.273  -6.578 -10.575  0.00  0.00    -0.650 OA
BRANCH  53  55
HETATM   55  O   UNK     0     -12.597  -7.824 -11.461  0.00  0.00    -0.776 OA
HETATM   56  H   UNK     0     -11.964  -7.084 -11.654  0.00  0.00     0.167 HD
ENDBRANCH  53  55
ENDBRANCH  52  53
ENDBRANCH  51  52
ENDBRANCH  18  51
TORSDOF 16
ENDMDL
MODEL 4
REMARK VINA RESULT:      -8.5      4.029      8.987
REMARK  16 active torsions:
REMARK  status: ('A' for Active; 'I' for Inactive)
REMARK    1  A    between atoms: C_6  and  C_7 
REMARK    2  A    between atoms: C_7  and  C_8 
REMARK    3  A    between atoms: C_8  and  C_9 
REMARK    4  A    between atoms: C_9  and  O_11 
REMARK    5  A    between atoms: C_16  and  C_17 
REMARK    6  A    between atoms: C_17  and  C_18 
REMARK    7  A    between atoms: C_18  and  C_19 
REMARK    8  A    between atoms: C_19  and  O_21 
REMARK    9  A    between atoms: C_28  and  C_29 
REMARK   10  A    between atoms: C_29  and  C_30 
REMARK   11  A    between atoms: C_30  and  C_31 
REMARK   12  A    between atoms: C_31  and  O_33 
REMARK   13  A    between atoms: C_42  and  C_43 
REMARK   14  A    between atoms: C_43  and  C_44 
REMARK   15  A    between atoms: C_44  and  C_45 
REMARK   16  A    between atoms: C_45  and  O_47 
ROOT
HETATM    1  C   UNK     0     -15.937  -9.037  -5.849  0.00  0.00     0.051 C 
HETATM    2  C   UNK     0     -16.487  -9.198  -7.252  0.00  0.00    -0.031 A 
HETATM    3  C   UNK     0     -17.078  -8.256  -8.079  0.00  0.00     0.021 A 
HETATM    4  N   UNK     0     -17.448  -8.854  -9.236  0.00  0.00    -0.361 N 
HETATM    5  C   UNK     0     -17.099 -10.155  -9.168  0.00  0.00     0.022 A 
HETATM    6  C   UNK     0     -16.497 -10.405  -7.939  0.00  0.00    -0.027 A 
HETATM    7  C   UNK     0     -17.199 -11.224 -10.211  0.00  0.00     0.115 C 
HETATM    8  C   UNK     0     -16.806 -10.835 -11.625  0.00  0.00     0.021 A 
HETATM    9  N   UNK     0     -15.838  -9.994 -12.023  0.00  0.00    -0.361 N 
HETATM   10  C   UNK     0     -15.908  -9.879 -13.366  0.00  0.00     0.022 A 
HETATM   11  C   UNK     0     -16.944 -10.674 -13.847  0.00  0.00    -0.027 A 
HETATM   12  C   UNK     0     -17.513 -11.279 -12.756  0.00  0.00    -0.031 A 
HETATM   13  C   UNK     0     -18.678 -12.242 -12.800  0.00  0.00     0.051 C 
HETATM   14  C   UNK     0     -15.041  -8.977 -14.240  0.00  0.00     0.115 C 
HETATM   15  C   UNK     0     -15.173  -7.497 -13.919  0.00  0.00     0.021 A 
HETATM   16  N   UNK     0     -14.932  -6.887 -12.743  0.00  0.00    -0.361 N 
HETATM   17  C   UNK     0     -15.233  -5.591 -12.852  0.00  0.00     0.022 A 
HETATM   18  C   UNK     0     -15.682  -5.343 -14.164  0.00  0.00    -0.027 A 
HETATM   19  C   UNK     0     -15.638  -6.545 -14.822  0.00  0.00    -0.031 A 
HETATM   20  C   UNK     0     -16.008  -6.720 -16.284  0.00  0.00     0.051 C 
HETATM   21  C   UNK     0     -15.209  -4.497 -11.809  0.00  0.00     0.115 C 
HETATM   22  C   UNK     0     -15.556  -4.879 -10.389  0.00  0.00     0.022 A 
HETATM   23  N   UNK     0     -16.511  -5.716  -9.964  0.00  0.00    -0.361 N 
HETATM   24  C   UNK     0     -16.372  -5.876  -8.633  0.00  0.00     0.021 A 
HETATM   25  C   UNK     0     -15.308  -5.116  -8.187  0.00  0.00    -0.031 A 
HETATM   26  C   UNK     0     -14.789  -4.937  -6.776  0.00  0.00     0.051 C 
HETATM   27  C   UNK     0     -14.770  -4.468  -9.293  0.00  0.00    -0.027 A 
HETATM   28  C   UNK     0     -17.162  -6.799  -7.720  0.00  0.00     0.115 C 
HETATM   29  H   UNK     0     -17.990  -8.362 -10.076  0.00  0.00     0.165 HD
HETATM   30  H   UNK     0     -15.071  -9.519 -11.362  0.00  0.00     0.165 HD
HETATM   31  H   UNK     0     -14.495  -7.371 -11.831  0.00  0.00     0.165 HD
HETATM   32  H   UNK     0     -17.320  -6.169 -10.595  0.00  0.00     0.165 HD
ENDROOT
BRANCH   6  33
HETATM   33  C   UNK     0     -15.941 -11.688  -7.374  0.00  0.00     0.051 C 
BRANCH  33  34
HETATM   34  C   UNK     0     -17.041 -12.527  -6.767  0.00  0.00     0.114 C 
BRANCH  34  35
HETATM   35  C   UNK     0     -17.064 -13.827  -7.496  0.00  0.00     0.139 C 
HETATM   36  O   UNK     0     -15.981 -14.408  -7.797  0.00  0.00    -0.650 OA
BRANCH  35  37
HETATM   37  O   UNK     0     -18.245 -14.455  -7.871  0.00  0.00    -0.776 OA
HETATM   38  H   UNK     0     -18.382 -14.829  -8.796  0.00  0.00     0.167 HD
ENDBRANCH  35  37
ENDBRANCH  34  35
ENDBRANCH  33  34
ENDBRANCH   6  33
BRANCH  27  39
HETATM   39  C   UNK     0     -13.645  -3.498  -9.196  0.00  0.00     0.051 C 
BRANCH  39  40
HETATM   40  C   UNK     0     -12.293  -4.021  -8.999  0.00  0.00     0.114 C 
BRANCH  40  41
HETATM   41  C   UNK     0     -11.406  -3.499  -7.983  0.00  0.00     0.139 C 
HETATM   42  O   UNK     0     -11.762  -3.263  -6.821  0.00  0.00    -0.650 OA
BRANCH  41  43
HETATM   43  O   UNK     0     -10.048  -3.236  -8.321  0.00  0.00    -0.776 OA
HETATM   44  H   UNK     0      -9.485  -2.890  -7.553  0.00  0.00     0.167 HD
ENDBRANCH  41  43
ENDBRANCH  40  41
ENDBRANCH  39  40
ENDBRANCH  27  39
BRANCH  11  45
HETATM   45  C   UNK     0     -17.395 -10.874 -15.270  0.00  0.00     0.051 C 
BRANCH  45  46
HETATM   46  C   UNK     0     -16.732 -12.008 -15.962  0.00  0.00     0.114 C 
BRANCH  46  47
HETATM   47  C   UNK     0     -16.432 -11.562 -17.353  0.00  0.00     0.139 C 
HETATM   48  O   UNK     0     -16.253 -10.354 -17.562  0.00  0.00    -0.650 OA
BRANCH  47  49
HETATM   49  O   UNK     0     -16.356 -12.468 -18.380  0.00  0.00    -0.776 OA
HETATM   50  H   UNK     0     -16.160 -13.463 -18.216  0.00  0.00     0.167 HD
ENDBRANCH  47  49
ENDBRANCH  46  47
ENDBRANCH  45  46
ENDBRANCH  11  45
BRANCH  18  51
HETATM   51  C   UNK     0     -16.110  -4.029 -14.764  0.00  0.00     0.051 C 
BRANCH  51  52
HETATM   52  C   UNK     0     -14.831  -3.263 -15.067  0.00  0.00     0.114 C 
BRANCH  52  53
HETATM   53  C   UNK     0     -14.799  -1.954 -14.385  0.00  0.00     0.139 C 
HETATM   54  O   UNK     0     -13.743  -1.303 -14.339  0.00  0.00    -0.650 OA
BRANCH  53  55
HETATM   55  O   UNK     0     -15.942  -1.464 -13.801  0.00  0.00    -0.776 OA
HETATM   56  H   UNK     0     -16.014  -0.630 -13.269  0.00  0.00     0.167 HD
ENDBRANCH  53  55
ENDBRANCH  52  53
ENDBRANCH  51  52
ENDBRANCH  18  51
TORSDOF 16
ENDMDL
MODEL 5
REMARK VINA RESULT:      -8.4      2.742      7.460
REMARK  16 active torsions:
REMARK  status: ('A' for Active; 'I' for Inactive)
REMARK    1  A    between atoms: C_6  and  C_7 
REMARK    2  A    between atoms: C_7  and  C_8 
REMARK    3  A    between atoms: C_8  and  C_9 
REMARK    4  A    between atoms: C_9  and  O_11 
REMARK    5  A    between atoms: C_16  and  C_17 
REMARK    6  A    between atoms: C_17  and  C_18 
REMARK    7  A    between atoms: C_18  and  C_19 
REMARK    8  A    between atoms: C_19  and  O_21 
REMARK    9  A    between atoms: C_28  and  C_29 
REMARK   10  A    between atoms: C_29  and  C_30 
REMARK   11  A    between atoms: C_30  and  C_31 
REMARK   12  A    between atoms: C_31  and  O_33 
REMARK   13  A    between atoms: C_42  and  C_43 
REMARK   14  A    between atoms: C_43  and  C_44 
REMARK   15  A    between atoms: C_44  and  C_45 
REMARK   16  A    between atoms: C_45  and  O_47 
ROOT
HETATM    1  C   UNK     0     -15.160  -5.731 -15.229  0.00  0.00     0.051 C 
HETATM    2  C   UNK     0     -15.786  -7.042 -15.659  0.00  0.00    -0.031 A 
HETATM    3  C   UNK     0     -15.492  -8.333 -15.251  0.00  0.00     0.021 A 
HETATM    4  N   UNK     0     -16.284  -9.201 -15.924  0.00  0.00    -0.361 N 
HETATM    5  C   UNK     0     -17.083  -8.490 -16.746  0.00  0.00     0.022 A 
HETATM    6  C   UNK     0     -16.796  -7.136 -16.608  0.00  0.00    -0.027 A 
HETATM    7  C   UNK     0     -18.196  -8.957 -17.631  0.00  0.00     0.115 C 
HETATM    8  C   UNK     0     -19.137  -9.998 -17.050  0.00  0.00     0.021 A 
HETATM    9  N   UNK     0     -19.570 -10.122 -15.786  0.00  0.00    -0.361 N 
HETATM   10  C   UNK     0     -20.316 -11.243 -15.706  0.00  0.00     0.022 A 
HETATM   11  C   UNK     0     -20.375 -11.854 -16.955  0.00  0.00    -0.027 A 
HETATM   12  C   UNK     0     -19.634 -11.074 -17.807  0.00  0.00    -0.031 A 
HETATM   13  C   UNK     0     -19.419 -11.348 -19.278  0.00  0.00     0.051 C 
HETATM   14  C   UNK     0     -20.958 -11.811 -14.443  0.00  0.00     0.115 C 
HETATM   15  C   UNK     0     -19.960 -12.174 -13.355  0.00  0.00     0.021 A 
HETATM   16  N   UNK     0     -19.071 -11.363 -12.752  0.00  0.00    -0.361 N 
HETATM   17  C   UNK     0     -18.330 -12.079 -11.903  0.00  0.00     0.022 A 
HETATM   18  C   UNK     0     -18.763 -13.419 -11.949  0.00  0.00    -0.027 A 
HETATM   19  C   UNK     0     -19.785 -13.465 -12.861  0.00  0.00    -0.031 A 
HETATM   20  C   UNK     0     -20.565 -14.724 -13.191  0.00  0.00     0.051 C 
HETATM   21  C   UNK     0     -17.158 -11.660 -11.044  0.00  0.00     0.115 C 
HETATM   22  C   UNK     0     -16.238 -10.593 -11.591  0.00  0.00     0.022 A 
HETATM   23  N   UNK     0     -15.795 -10.443 -12.846  0.00  0.00    -0.361 N 
HETATM   24  C   UNK     0     -15.118  -9.280 -12.920  0.00  0.00     0.021 A 
HETATM   25  C   UNK     0     -15.117  -8.670 -11.680  0.00  0.00    -0.031 A 
HETATM   26  C   UNK     0     -14.457  -7.375 -11.255  0.00  0.00     0.051 C 
HETATM   27  C   UNK     0     -15.828  -9.492 -10.813  0.00  0.00    -0.027 A 
HETATM   28  C   UNK     0     -14.510  -8.635 -14.154  0.00  0.00     0.115 C 
HETATM   29  H   UNK     0     -16.246 -10.312 -15.843  0.00  0.00     0.165 HD
HETATM   30  H   UNK     0     -19.390  -9.392 -14.958  0.00  0.00     0.165 HD
HETATM   31  H   UNK     0     -18.996 -10.253 -12.892  0.00  0.00     0.165 HD
HETATM   32  H   UNK     0     -15.919 -11.180 -13.682  0.00  0.00     0.165 HD
ENDROOT
BRANCH   6  33
HETATM   33  C   UNK     0     -17.399  -5.940 -17.301  0.00  0.00     0.051 C 
BRANCH  33  34
HETATM   34  C   UNK     0     -16.720  -5.692 -18.627  0.00  0.00     0.114 C 
BRANCH  34  35
HETATM   35  C   UNK     0     -16.942  -4.261 -18.981  0.00  0.00     0.139 C 
HETATM   36  O   UNK     0     -16.004  -3.577 -19.487  0.00  0.00    -0.650 OA
BRANCH  35  37
HETATM   37  O   UNK     0     -18.158  -3.619 -18.782  0.00  0.00    -0.776 OA
HETATM   38  H   UNK     0     -18.997  -3.903 -19.262  0.00  0.00     0.167 HD
ENDBRANCH  35  37
ENDBRANCH  34  35
ENDBRANCH  33  34
ENDBRANCH   6  33
BRANCH  27  39
HETATM   39  C   UNK     0     -15.981  -9.200  -9.362  0.00  0.00     0.051 C 
BRANCH  39  40
HETATM   40  C   UNK     0     -16.956  -8.187  -8.957  0.00  0.00     0.114 C 
BRANCH  40  41
HETATM   41  C   UNK     0     -17.528  -8.155  -7.630  0.00  0.00     0.139 C 
HETATM   42  O   UNK     0     -17.076  -7.464  -6.707  0.00  0.00    -0.650 OA
BRANCH  41  43
HETATM   43  O   UNK     0     -18.673  -8.954  -7.352  0.00  0.00    -0.776 OA
HETATM   44  H   UNK     0     -19.528  -8.428  -7.212  0.00  0.00     0.167 HD
ENDBRANCH  41  43
ENDBRANCH  40  41
ENDBRANCH  39  40
ENDBRANCH  27  39
BRANCH  11  45
HETATM   45  C   UNK     0     -21.093 -13.115 -17.354  0.00  0.00     0.051 C 
BRANCH  45  46
HETATM   46  C   UNK     0     -20.397 -14.363 -16.948  0.00  0.00     0.114 C 
BRANCH  46  47
HETATM   47  C   UNK     0     -20.429 -15.287 -18.118  0.00  0.00     0.139 C 
HETATM   48  O   UNK     0     -20.663 -16.487 -17.918  0.00  0.00    -0.650 OA
BRANCH  47  49
HETATM   49  O   UNK     0     -20.203 -14.820 -19.388  0.00  0.00    -0.776 OA
HETATM   50  H   UNK     0     -20.615 -13.944 -19.729  0.00  0.00     0.167 HD
ENDBRANCH  47  49
ENDBRANCH  46  47
ENDBRANCH  45  46
ENDBRANCH  11  45
BRANCH  18  51
HETATM   51  C   UNK     0     -18.245 -14.587 -11.151  0.00  0.00     0.051 C 
BRANCH  51  52
HETATM   52  C   UNK     0     -18.966 -14.543  -9.812  0.00  0.00     0.114 C 
BRANCH  52  53
HETATM   53  C   UNK     0     -20.150 -15.424  -9.796  0.00  0.00     0.139 C 
HETATM   54  O   UNK     0     -20.014 -16.649  -9.947  0.00  0.00    -0.650 OA
BRANCH  53  55
HETATM   55  O   UNK     0     -21.399 -14.881  -9.617  0.00  0.00    -0.776 OA
HETATM   56  H   UNK     0     -22.008 -15.056  -8.853  0.00  0.00     0.167 HD
ENDBRANCH  53  55
ENDBRANCH  52  53
ENDBRANCH  51  52
ENDBRANCH  18  51
TORSDOF 16
ENDMDL
MODEL 6
REMARK VINA RESULT:      -8.4      1.831      2.186
REMARK  16 active torsions:
REMARK  status: ('A' for Active; 'I' for Inactive)
REMARK    1  A    between atoms: C_6  and  C_7 
REMARK    2  A    between atoms: C_7  and  C_8 
REMARK    3  A    between atoms: C_8  and  C_9 
REMARK    4  A    between atoms: C_9  and  O_11 
REMARK    5  A    between atoms: C_16  and  C_17 
REMARK    6  A    between atoms: C_17  and  C_18 
REMARK    7  A    between atoms: C_18  and  C_19 
REMARK    8  A    between atoms: C_19  and  O_21 
REMARK    9  A    between atoms: C_28  and  C_29 
REMARK   10  A    between atoms: C_29  and  C_30 
REMARK   11  A    between atoms: C_30  and  C_31 
REMARK   12  A    between atoms: C_31  and  O_33 
REMARK   13  A    between atoms: C_42  and  C_43 
REMARK   14  A    between atoms: C_43  and  C_44 
REMARK   15  A    between atoms: C_44  and  C_45 
REMARK   16  A    between atoms: C_45  and  O_47 
ROOT
HETATM    1  C   UNK     0     -21.161 -16.848 -14.594  0.00  0.00     0.051 C 
HETATM    2  C   UNK     0     -21.178 -15.365 -14.281  0.00  0.00    -0.031 A 
HETATM    3  C   UNK     0     -21.087 -14.724 -13.055  0.00  0.00     0.021 A 
HETATM    4  N   UNK     0     -21.177 -13.387 -13.249  0.00  0.00    -0.361 N 
HETATM    5  C   UNK     0     -21.314 -13.161 -14.572  0.00  0.00     0.022 A 
HETATM    6  C   UNK     0     -21.321 -14.378 -15.247  0.00  0.00    -0.027 A 
HETATM    7  C   UNK     0     -21.360 -11.864 -15.316  0.00  0.00     0.115 C 
HETATM    8  C   UNK     0     -20.372 -10.795 -14.885  0.00  0.00     0.021 A 
HETATM    9  N   UNK     0     -19.111 -10.948 -14.450  0.00  0.00    -0.361 N 
HETATM   10  C   UNK     0     -18.642  -9.734 -14.091  0.00  0.00     0.022 A 
HETATM   11  C   UNK     0     -19.624  -8.772 -14.308  0.00  0.00    -0.027 A 
HETATM   12  C   UNK     0     -20.716  -9.433 -14.809  0.00  0.00    -0.031 A 
HETATM   13  C   UNK     0     -22.026  -8.786 -15.200  0.00  0.00     0.051 C 
HETATM   14  C   UNK     0     -17.274  -9.442 -13.480  0.00  0.00     0.115 C 
HETATM   15  C   UNK     0     -17.032 -10.136 -12.150  0.00  0.00     0.021 A 
HETATM   16  N   UNK     0     -17.059 -11.458 -11.897  0.00  0.00    -0.361 N 
HETATM   17  C   UNK     0     -16.866 -11.658 -10.591  0.00  0.00     0.022 A 
HETATM   18  C   UNK     0     -16.696 -10.408  -9.965  0.00  0.00    -0.027 A 
HETATM   19  C   UNK     0     -16.801  -9.463 -10.952  0.00  0.00    -0.031 A 
HETATM   20  C   UNK     0     -16.643  -7.972 -10.714  0.00  0.00     0.051 C 
HETATM   21  C   UNK     0     -16.878 -12.942  -9.793  0.00  0.00     0.115 C 
HETATM   22  C   UNK     0     -17.825 -14.032 -10.238  0.00  0.00     0.022 A 
HETATM   23  N   UNK     0     -19.084 -13.908 -10.679  0.00  0.00    -0.361 N 
HETATM   24  C   UNK     0     -19.504 -15.117 -11.104  0.00  0.00     0.021 A 
HETATM   25  C   UNK     0     -18.495 -16.043 -10.923  0.00  0.00    -0.031 A 
HETATM   26  C   UNK     0     -18.504 -17.530 -11.209  0.00  0.00     0.051 C 
HETATM   27  C   UNK     0     -17.411 -15.372 -10.369  0.00  0.00    -0.027 A 
HETATM   28  C   UNK     0     -20.825 -15.460 -11.771  0.00  0.00     0.115 C 
HETATM   29  H   UNK     0     -21.182 -12.614 -12.446  0.00  0.00     0.165 HD
HETATM   30  H   UNK     0     -18.533 -11.904 -14.443  0.00  0.00     0.165 HD
HETATM   31  H   UNK     0     -17.169 -12.270 -12.662  0.00  0.00     0.165 HD
HETATM   32  H   UNK     0     -19.704 -12.974 -10.654  0.00  0.00     0.165 HD
ENDROOT
BRANCH   6  33
HETATM   33  C   UNK     0     -21.455 -14.669 -16.720  0.00  0.00     0.051 C 
BRANCH  33  34
HETATM   34  C   UNK     0     -20.100 -14.687 -17.387  0.00  0.00     0.114 C 
BRANCH  34  35
HETATM   35  C   UNK     0     -20.151 -15.705 -18.475  0.00  0.00     0.139 C 
HETATM   36  O   UNK     0     -20.390 -15.352 -19.667  0.00  0.00    -0.650 OA
BRANCH  35  37
HETATM   37  O   UNK     0     -19.943 -17.060 -18.245  0.00  0.00    -0.776 OA
HETATM   38  H   UNK     0     -20.459 -17.771 -18.737  0.00  0.00     0.167 HD
ENDBRANCH  35  37
ENDBRANCH  34  35
ENDBRANCH  33  34
ENDBRANCH   6  33
BRANCH  27  39
HETATM   39  C   UNK     0     -16.154 -16.059  -9.965  0.00  0.00     0.051 C 
BRANCH  39  40
HETATM   40  C   UNK     0     -15.980 -16.417  -8.558  0.00  0.00     0.114 C 
BRANCH  40  41
HETATM   41  C   UNK     0     -17.079 -16.878  -7.739  0.00  0.00     0.139 C 
HETATM   42  O   UNK     0     -17.649 -16.170  -6.898  0.00  0.00    -0.650 OA
BRANCH  41  43
HETATM   43  O   UNK     0     -17.543 -18.215  -7.894  0.00  0.00    -0.776 OA
HETATM   44  H   UNK     0     -16.864 -18.850  -8.297  0.00  0.00     0.167 HD
ENDBRANCH  41  43
ENDBRANCH  40  41
ENDBRANCH  39  40
ENDBRANCH  27  39
BRANCH  11  45
HETATM   45  C   UNK     0     -19.558  -7.288 -14.066  0.00  0.00     0.051 C 
BRANCH  45  46
HETATM   46  C   UNK     0     -19.725  -6.466 -15.292  0.00  0.00     0.114 C 
BRANCH  46  47
HETATM   47  C   UNK     0     -20.811  -5.481 -15.018  0.00  0.00     0.139 C 
HETATM   48  O   UNK     0     -20.943  -4.517 -15.785  0.00  0.00    -0.650 OA
BRANCH  47  49
HETATM   49  O   UNK     0     -21.645  -5.636 -13.940  0.00  0.00    -0.776 OA
HETATM   50  H   UNK     0     -22.424  -4.993 -13.756  0.00  0.00     0.167 HD
ENDBRANCH  47  49
ENDBRANCH  46  47
ENDBRANCH  45  46
ENDBRANCH  11  45
BRANCH  18  51
HETATM   51  C   UNK     0     -16.427 -10.130  -8.509  0.00  0.00     0.051 C 
BRANCH  51  52
HETATM   52  C   UNK     0     -17.441  -9.078  -8.081  0.00  0.00     0.114 C 
BRANCH  52  53
HETATM   53  C   UNK     0     -17.988  -9.356  -6.739  0.00  0.00     0.139 C 
HETATM   54  O   UNK     0     -18.543 -10.442  -6.507  0.00  0.00    -0.650 OA
BRANCH  53  55
HETATM   55  O   UNK     0     -17.883  -8.407  -5.752  0.00  0.00    -0.776 OA
HETATM   56  H   UNK     0     -17.461  -8.533  -4.863  0.00  0.00     0.167 HD
ENDBRANCH  53  55
ENDBRANCH  52  53
ENDBRANCH  51  52
ENDBRANCH  18  51
TORSDOF 16
ENDMDL
MODEL 7
REMARK VINA RESULT:      -8.4      2.236      3.168
REMARK  16 active torsions:
REMARK  status: ('A' for Active; 'I' for Inactive)
REMARK    1  A    between atoms: C_6  and  C_7 
REMARK    2  A    between atoms: C_7  and  C_8 
REMARK    3  A    between atoms: C_8  and  C_9 
REMARK    4  A    between atoms: C_9  and  O_11 
REMARK    5  A    between atoms: C_16  and  C_17 
REMARK    6  A    between atoms: C_17  and  C_18 
REMARK    7  A    between atoms: C_18  and  C_19 
REMARK    8  A    between atoms: C_19  and  O_21 
REMARK    9  A    between atoms: C_28  and  C_29 
REMARK   10  A    between atoms: C_29  and  C_30 
REMARK   11  A    between atoms: C_30  and  C_31 
REMARK   12  A    between atoms: C_31  and  O_33 
REMARK   13  A    between atoms: C_42  and  C_43 
REMARK   14  A    between atoms: C_43  and  C_44 
REMARK   15  A    between atoms: C_44  and  C_45 
REMARK   16  A    between atoms: C_45  and  O_47 
ROOT
HETATM    1  C   UNK     0     -21.021 -15.044 -16.836  0.00  0.00     0.051 C 
HETATM    2  C   UNK     0     -20.671 -13.682 -16.272  0.00  0.00    -0.031 A 
HETATM    3  C   UNK     0     -20.841 -13.191 -14.988  0.00  0.00     0.021 A 
HETATM    4  N   UNK     0     -20.412 -11.908 -14.945  0.00  0.00    -0.361 N 
HETATM    5  C   UNK     0     -19.964 -11.573 -16.172  0.00  0.00     0.022 A 
HETATM    6  C   UNK     0     -20.113 -12.659 -17.028  0.00  0.00    -0.027 A 
HETATM    7  C   UNK     0     -19.304 -10.311 -16.633  0.00  0.00     0.115 C 
HETATM    8  C   UNK     0     -18.259  -9.711 -15.709  0.00  0.00     0.021 A 
HETATM    9  N   UNK     0     -17.376 -10.345 -14.922  0.00  0.00    -0.361 N 
HETATM   10  C   UNK     0     -16.707  -9.416 -14.207  0.00  0.00     0.022 A 
HETATM   11  C   UNK     0     -17.166  -8.147 -14.550  0.00  0.00    -0.027 A 
HETATM   12  C   UNK     0     -18.143  -8.326 -15.496  0.00  0.00    -0.031 A 
HETATM   13  C   UNK     0     -18.925  -7.218 -16.165  0.00  0.00     0.051 C 
HETATM   14  C   UNK     0     -15.652  -9.687 -13.139  0.00  0.00     0.115 C 
HETATM   15  C   UNK     0     -16.165 -10.496 -11.959  0.00  0.00     0.021 A 
HETATM   16  N   UNK     0     -16.712 -11.725 -11.981  0.00  0.00    -0.361 N 
HETATM   17  C   UNK     0     -17.098 -12.057 -10.747  0.00  0.00     0.022 A 
HETATM   18  C   UNK     0     -16.777 -10.996  -9.876  0.00  0.00    -0.027 A 
HETATM   19  C   UNK     0     -16.192 -10.025 -10.647  0.00  0.00    -0.031 A 
HETATM   20  C   UNK     0     -15.658  -8.716 -10.095  0.00  0.00     0.051 C 
HETATM   21  C   UNK     0     -17.823 -13.288 -10.253  0.00  0.00     0.115 C 
HETATM   22  C   UNK     0     -18.834 -13.920 -11.180  0.00  0.00     0.022 A 
HETATM   23  N   UNK     0     -19.723 -13.313 -11.977  0.00  0.00    -0.361 N 
HETATM   24  C   UNK     0     -20.322 -14.253 -12.736  0.00  0.00     0.021 A 
HETATM   25  C   UNK     0     -19.814 -15.497 -12.412  0.00  0.00    -0.031 A 
HETATM   26  C   UNK     0     -20.199 -16.856 -12.959  0.00  0.00     0.051 C 
HETATM   27  C   UNK     0     -18.861 -15.309 -11.418  0.00  0.00    -0.027 A 
HETATM   28  C   UNK     0     -21.332 -14.043 -13.851  0.00  0.00     0.115 C 
HETATM   29  H   UNK     0     -20.465 -11.235 -14.058  0.00  0.00     0.165 HD
HETATM   30  H   UNK     0     -17.186 -11.447 -14.906  0.00  0.00     0.165 HD
HETATM   31  H   UNK     0     -16.786 -12.394 -12.878  0.00  0.00     0.165 HD
HETATM   32  H   UNK     0     -19.967 -12.219 -11.982  0.00  0.00     0.165 HD
ENDROOT
BRANCH   6  33
HETATM   33  C   UNK     0     -19.774 -12.796 -18.491  0.00  0.00     0.051 C 
BRANCH  33  34
HETATM   34  C   UNK     0     -18.433 -13.468 -18.669  0.00  0.00     0.114 C 
BRANCH  34  35
HETATM   35  C   UNK     0     -17.534 -12.496 -19.356  0.00  0.00     0.139 C 
HETATM   36  O   UNK     0     -17.527 -12.419 -20.619  0.00  0.00    -0.650 OA
BRANCH  35  37
HETATM   37  O   UNK     0     -16.682 -11.645 -18.663  0.00  0.00    -0.776 OA
HETATM   38  H   UNK     0     -16.706 -11.564 -17.660  0.00  0.00     0.167 HD
ENDBRANCH  35  37
ENDBRANCH  34  35
ENDBRANCH  33  34
ENDBRANCH   6  33
BRANCH  27  39
HETATM   39  C   UNK     0     -18.143 -16.435 -10.761  0.00  0.00     0.051 C 
BRANCH  39  40
HETATM   40  C   UNK     0     -18.759 -17.063  -9.592  0.00  0.00     0.114 C 
BRANCH  40  41
HETATM   41  C   UNK     0     -18.161 -16.998  -8.278  0.00  0.00     0.139 C 
HETATM   42  O   UNK     0     -17.509 -17.925  -7.777  0.00  0.00    -0.650 OA
BRANCH  41  43
HETATM   43  O   UNK     0     -18.320 -15.814  -7.503  0.00  0.00    -0.776 OA
HETATM   44  H   UNK     0     -18.948 -15.910  -6.715  0.00  0.00     0.167 HD
ENDBRANCH  41  43
ENDBRANCH  40  41
ENDBRANCH  39  40
ENDBRANCH  27  39
BRANCH  11  45
HETATM   45  C   UNK     0     -16.717  -6.810 -14.025  0.00  0.00     0.051 C 
BRANCH  45  46
HETATM   46  C   UNK     0     -15.384  -6.380 -14.521  0.00  0.00     0.114 C 
BRANCH  46  47
HETATM   47  C   UNK     0     -15.444  -4.905 -14.727  0.00  0.00     0.139 C 
HETATM   48  O   UNK     0     -15.514  -4.170 -13.732  0.00  0.00    -0.650 OA
BRANCH  47  49
HETATM   49  O   UNK     0     -15.424  -4.370 -15.991  0.00  0.00    -0.776 OA
HETATM   50  H   UNK     0     -16.260  -4.351 -16.588  0.00  0.00     0.167 HD
ENDBRANCH  47  49
ENDBRANCH  46  47
ENDBRANCH  45  46
ENDBRANCH  11  45
BRANCH  18  51
HETATM   51  C   UNK     0     -16.996 -10.921  -8.388  0.00  0.00     0.051 C 
BRANCH  51  52
HETATM   52  C   UNK     0     -15.614 -10.946  -7.751  0.00  0.00     0.114 C 
BRANCH  52  53
HETATM   53  C   UNK     0     -15.463  -9.897  -6.724  0.00  0.00     0.139 C 
HETATM   54  O   UNK     0     -16.371  -9.698  -5.901  0.00  0.00    -0.650 OA
BRANCH  53  55
HETATM   55  O   UNK     0     -14.317  -9.142  -6.688  0.00  0.00    -0.776 OA
HETATM   56  H   UNK     0     -13.449  -9.377  -7.109  0.00  0.00     0.167 HD
ENDBRANCH  53  55
ENDBRANCH  52  53
ENDBRANCH  51  52
ENDBRANCH  18  51
TORSDOF 16
ENDMDL
MODEL 8
REMARK VINA RESULT:      -8.2     25.869     29.475
REMARK  16 active torsions:
REMARK  status: ('A' for Active; 'I' for Inactive)
REMARK    1  A    between atoms: C_6  and  C_7 
REMARK    2  A    between atoms: C_7  and  C_8 
REMARK    3  A    between atoms: C_8  and  C_9 
REMARK    4  A    between atoms: C_9  and  O_11 
REMARK    5  A    between atoms: C_16  and  C_17 
REMARK    6  A    between atoms: C_17  and  C_18 
REMARK    7  A    between atoms: C_18  and  C_19 
REMARK    8  A    between atoms: C_19  and  O_21 
REMARK    9  A    between atoms: C_28  and  C_29 
REMARK   10  A    between atoms: C_29  and  C_30 
REMARK   11  A    between atoms: C_30  and  C_31 
REMARK   12  A    between atoms: C_31  and  O_33 
REMARK   13  A    between atoms: C_42  and  C_43 
REMARK   14  A    between atoms: C_43  and  C_44 
REMARK   15  A    between atoms: C_44  and  C_45 
REMARK   16  A    between atoms: C_45  and  O_47 
ROOT
HETATM    1  C   UNK     0       1.436 -27.486 -14.262  0.00  0.00     0.051 C 
HETATM    2  C   UNK     0       2.614 -27.548 -13.311  0.00  0.00    -0.031 A 
HETATM    3  C   UNK     0       3.969 -27.623 -13.593  0.00  0.00     0.021 A 
HETATM    4  N   UNK     0       4.658 -27.689 -12.429  0.00  0.00    -0.361 N 
HETATM    5  C   UNK     0       3.773 -27.649 -11.412  0.00  0.00     0.022 A 
HETATM    6  C   UNK     0       2.484 -27.563 -11.928  0.00  0.00    -0.027 A 
HETATM    7  C   UNK     0       4.019 -27.599  -9.936  0.00  0.00     0.115 C 
HETATM    8  C   UNK     0       5.131 -26.680  -9.462  0.00  0.00     0.021 A 
HETATM    9  N   UNK     0       5.499 -25.488  -9.958  0.00  0.00    -0.361 N 
HETATM   10  C   UNK     0       6.593 -25.074  -9.283  0.00  0.00     0.022 A 
HETATM   11  C   UNK     0       6.933 -26.020  -8.321  0.00  0.00    -0.027 A 
HETATM   12  C   UNK     0       6.016 -27.034  -8.428  0.00  0.00    -0.031 A 
HETATM   13  C   UNK     0       5.988 -28.281  -7.573  0.00  0.00     0.051 C 
HETATM   14  C   UNK     0       7.390 -23.800  -9.554  0.00  0.00     0.115 C 
HETATM   15  C   UNK     0       7.995 -23.737 -10.947  0.00  0.00     0.021 A 
HETATM   16  N   UNK     0       7.349 -23.794 -12.126  0.00  0.00    -0.361 N 
HETATM   17  C   UNK     0       8.243 -23.777 -13.117  0.00  0.00     0.022 A 
HETATM   18  C   UNK     0       9.533 -23.695 -12.557  0.00  0.00    -0.027 A 
HETATM   19  C   UNK     0       9.364 -23.669 -11.197  0.00  0.00    -0.031 A 
HETATM   20  C   UNK     0      10.507 -23.547 -10.206  0.00  0.00     0.051 C 
HETATM   21  C   UNK     0       8.040 -23.892 -14.611  0.00  0.00     0.115 C 
HETATM   22  C   UNK     0       6.910 -24.769 -15.096  0.00  0.00     0.022 A 
HETATM   23  N   UNK     0       6.518 -25.958 -14.619  0.00  0.00    -0.361 N 
HETATM   24  C   UNK     0       5.382 -26.314 -15.252  0.00  0.00     0.021 A 
HETATM   25  C   UNK     0       5.040 -25.336 -16.166  0.00  0.00    -0.031 A 
HETATM   26  C   UNK     0       3.877 -25.303 -17.137  0.00  0.00     0.051 C 
HETATM   27  C   UNK     0       6.003 -24.337 -16.085  0.00  0.00    -0.027 A 
HETATM   28  C   UNK     0       4.515 -27.533 -14.989  0.00  0.00     0.115 C 
HETATM   29  H   UNK     0       5.763 -27.804 -12.335  0.00  0.00     0.165 HD
HETATM   30  H   UNK     0       4.960 -24.913 -10.750  0.00  0.00     0.165 HD
HETATM   31  H   UNK     0       6.236 -23.799 -12.265  0.00  0.00     0.165 HD
HETATM   32  H   UNK     0       7.064 -26.577 -13.861  0.00  0.00     0.165 HD
ENDROOT
BRANCH   6  33
HETATM   33  C   UNK     0       1.156 -27.498 -11.217  0.00  0.00     0.051 C 
BRANCH  33  34
HETATM   34  C   UNK     0       0.610 -28.886 -10.977  0.00  0.00     0.114 C 
BRANCH  34  35
HETATM   35  C   UNK     0       0.557 -29.095  -9.501  0.00  0.00     0.139 C 
HETATM   36  O   UNK     0       0.360 -30.253  -9.029  0.00  0.00    -0.650 OA
BRANCH  35  37
HETATM   37  O   UNK     0       0.720 -28.058  -8.591  0.00  0.00    -0.776 OA
HETATM   38  H   UNK     0       0.137 -27.968  -7.774  0.00  0.00     0.167 HD
ENDBRANCH  35  37
ENDBRANCH  34  35
ENDBRANCH  33  34
ENDBRANCH   6  33
BRANCH  27  39
HETATM   39  C   UNK     0       6.010 -23.144 -16.974  0.00  0.00     0.051 C 
BRANCH  39  40
HETATM   40  C   UNK     0       5.993 -23.356 -18.421  0.00  0.00     0.114 C 
BRANCH  40  41
HETATM   41  C   UNK     0       7.202 -23.587 -19.180  0.00  0.00     0.139 C 
HETATM   42  O   UNK     0       7.591 -22.841 -20.089  0.00  0.00    -0.650 OA
BRANCH  41  43
HETATM   43  O   UNK     0       8.000 -24.727 -18.880  0.00  0.00    -0.776 OA
HETATM   44  H   UNK     0       8.558 -24.638 -18.039  0.00  0.00     0.167 HD
ENDBRANCH  41  43
ENDBRANCH  40  41
ENDBRANCH  39  40
ENDBRANCH  27  39
BRANCH  11  45
HETATM   45  C   UNK     0       8.066 -25.991  -7.330  0.00  0.00     0.051 C 
BRANCH  45  46
HETATM   46  C   UNK     0       9.412 -26.104  -7.946  0.00  0.00     0.114 C 
BRANCH  46  47
HETATM   47  C   UNK     0       9.645 -27.549  -8.235  0.00  0.00     0.139 C 
HETATM   48  O   UNK     0       9.634 -28.351  -7.291  0.00  0.00    -0.650 OA
BRANCH  47  49
HETATM   49  O   UNK     0       9.869 -27.981  -9.518  0.00  0.00    -0.776 OA
HETATM   50  H   UNK     0      10.039 -28.970  -9.738  0.00  0.00     0.167 HD
ENDBRANCH  47  49
ENDBRANCH  46  47
ENDBRANCH  45  46
ENDBRANCH  11  45
BRANCH  18  51
HETATM   51  C   UNK     0      10.854 -23.623 -13.279  0.00  0.00     0.051 C 
BRANCH  51  52
HETATM   52  C   UNK     0      11.029 -22.173 -13.703  0.00  0.00     0.114 C 
BRANCH  52  53
HETATM   53  C   UNK     0      12.058 -21.486 -12.899  0.00  0.00     0.139 C 
HETATM   54  O   UNK     0      12.117 -20.246 -12.893  0.00  0.00    -0.650 OA
BRANCH  53  55
HETATM   55  O   UNK     0      12.951 -22.225 -12.162  0.00  0.00    -0.776 OA
HETATM   56  H   UNK     0      13.594 -22.892 -12.521  0.00  0.00     0.167 HD
ENDBRANCH  53  55
ENDBRANCH  52  53
ENDBRANCH  51  52
ENDBRANCH  18  51
TORSDOF 16
ENDMDL
MODEL 9
REMARK VINA RESULT:      -7.9     28.187     33.383
REMARK  16 active torsions:
REMARK  status: ('A' for Active; 'I' for Inactive)
REMARK    1  A    between atoms: C_6  and  C_7 
REMARK    2  A    between atoms: C_7  and  C_8 
REMARK    3  A    between atoms: C_8  and  C_9 
REMARK    4  A    between atoms: C_9  and  O_11 
REMARK    5  A    between atoms: C_16  and  C_17 
REMARK    6  A    between atoms: C_17  and  C_18 
REMARK    7  A    between atoms: C_18  and  C_19 
REMARK    8  A    between atoms: C_19  and  O_21 
REMARK    9  A    between atoms: C_28  and  C_29 
REMARK   10  A    between atoms: C_29  and  C_30 
REMARK   11  A    between atoms: C_30  and  C_31 
REMARK   12  A    between atoms: C_31  and  O_33 
REMARK   13  A    between atoms: C_42  and  C_43 
REMARK   14  A    between atoms: C_43  and  C_44 
REMARK   15  A    between atoms: C_44  and  C_45 
REMARK   16  A    between atoms: C_45  and  O_47 
ROOT
HETATM    1  C   UNK     0       5.517   9.063  -3.817  0.00  0.00     0.051 C 
HETATM    2  C   UNK     0       6.153   8.737  -5.153  0.00  0.00    -0.031 A 
HETATM    3  C   UNK     0       5.636   8.025  -6.223  0.00  0.00     0.021 A 
HETATM    4  N   UNK     0       6.571   7.955  -7.200  0.00  0.00    -0.361 N 
HETATM    5  C   UNK     0       7.670   8.615  -6.779  0.00  0.00     0.022 A 
HETATM    6  C   UNK     0       7.444   9.114  -5.501  0.00  0.00    -0.027 A 
HETATM    7  C   UNK     0       8.941   8.911  -7.512  0.00  0.00     0.115 C 
HETATM    8  C   UNK     0       8.807   9.352  -8.958  0.00  0.00     0.021 A 
HETATM    9  N   UNK     0       7.852  10.113  -9.516  0.00  0.00    -0.361 N 
HETATM   10  C   UNK     0       8.084  10.171 -10.844  0.00  0.00     0.022 A 
HETATM   11  C   UNK     0       9.225   9.435 -11.150  0.00  0.00    -0.027 A 
HETATM   12  C   UNK     0       9.686   8.917  -9.966  0.00  0.00    -0.031 A 
HETATM   13  C   UNK     0      10.915   8.048  -9.812  0.00  0.00     0.051 C 
HETATM   14  C   UNK     0       7.214  10.874 -11.881  0.00  0.00     0.115 C 
HETATM   15  C   UNK     0       5.795  10.334 -11.964  0.00  0.00     0.021 A 
HETATM   16  N   UNK     0       4.881  10.274 -10.978  0.00  0.00    -0.361 N 
HETATM   17  C   UNK     0       3.783   9.667 -11.434  0.00  0.00     0.022 A 
HETATM   18  C   UNK     0       3.989   9.324 -12.785  0.00  0.00    -0.027 A 
HETATM   19  C   UNK     0       5.252   9.748 -13.105  0.00  0.00    -0.031 A 
HETATM   20  C   UNK     0       5.866   9.606 -14.486  0.00  0.00     0.051 C 
HETATM   21  C   UNK     0       2.509   9.291 -10.712  0.00  0.00     0.115 C 
HETATM   22  C   UNK     0       2.622   8.892  -9.260  0.00  0.00     0.022 A 
HETATM   23  N   UNK     0       3.564   8.139  -8.677  0.00  0.00    -0.361 N 
HETATM   24  C   UNK     0       3.358   8.160  -7.344  0.00  0.00     0.021 A 
HETATM   25  C   UNK     0       2.250   8.937  -7.064  0.00  0.00    -0.031 A 
HETATM   26  C   UNK     0       1.603   9.227  -5.725  0.00  0.00     0.051 C 
HETATM   27  C   UNK     0       1.762   9.416  -8.274  0.00  0.00    -0.027 A 
HETATM   28  C   UNK     0       4.217   7.532  -6.261  0.00  0.00     0.115 C 
HETATM   29  H   UNK     0       6.462   7.406  -8.164  0.00  0.00     0.165 HD
HETATM   30  H   UNK     0       7.042  10.652  -8.967  0.00  0.00     0.165 HD
HETATM   31  H   UNK     0       4.994  10.711  -9.951  0.00  0.00     0.165 HD
HETATM   32  H   UNK     0       4.358   7.550  -9.204  0.00  0.00     0.165 HD
ENDROOT
BRANCH   6  33
HETATM   33  C   UNK     0       8.350   9.910  -4.596  0.00  0.00     0.051 C 
BRANCH  33  34
HETATM   34  C   UNK     0       8.971   9.021  -3.545  0.00  0.00     0.114 C 
BRANCH  34  35
HETATM   35  C   UNK     0      10.271   8.530  -4.086  0.00  0.00     0.139 C 
HETATM   36  O   UNK     0      11.315   9.235  -3.972  0.00  0.00    -0.650 OA
BRANCH  35  37
HETATM   37  O   UNK     0      10.401   7.302  -4.724  0.00  0.00    -0.776 OA
HETATM   38  H   UNK     0      10.521   6.444  -4.211  0.00  0.00     0.167 HD
ENDBRANCH  35  37
ENDBRANCH  34  35
ENDBRANCH  33  34
ENDBRANCH   6  33
BRANCH  27  39
HETATM   39  C   UNK     0       0.525  10.237  -8.380  0.00  0.00     0.051 C 
BRANCH  39  40
HETATM   40  C   UNK     0      -0.697   9.593  -8.861  0.00  0.00     0.114 C 
BRANCH  40  41
HETATM   41  C   UNK     0      -1.677   9.030  -7.960  0.00  0.00     0.139 C 
HETATM   42  O   UNK     0      -1.802   9.382  -6.779  0.00  0.00    -0.650 OA
BRANCH  41  43
HETATM   43  O   UNK     0      -2.553   8.014  -8.438  0.00  0.00    -0.776 OA
HETATM   44  H   UNK     0      -3.530   8.280  -8.461  0.00  0.00     0.167 HD
ENDBRANCH  41  43
ENDBRANCH  40  41
ENDBRANCH  39  40
ENDBRANCH  27  39
BRANCH  11  45
HETATM   45  C   UNK     0       9.874   9.217 -12.490  0.00  0.00     0.051 C 
BRANCH  45  46
HETATM   46  C   UNK     0       9.346   8.046 -13.236  0.00  0.00     0.114 C 
BRANCH  46  47
HETATM   47  C   UNK     0      10.460   7.518 -14.075  0.00  0.00     0.139 C 
HETATM   48  O   UNK     0      11.133   8.319 -14.738  0.00  0.00    -0.650 OA
BRANCH  47  49
HETATM   49  O   UNK     0      10.734   6.174 -14.115  0.00  0.00    -0.776 OA
HETATM   50  H   UNK     0      10.055   5.490 -14.470  0.00  0.00     0.167 HD
ENDBRANCH  47  49
ENDBRANCH  46  47
ENDBRANCH  45  46
ENDBRANCH  11  45
BRANCH  18  51
HETATM   51  C   UNK     0       3.025   8.648 -13.726  0.00  0.00     0.051 C 
BRANCH  51  52
HETATM   52  C   UNK     0       3.449   7.188 -13.793  0.00  0.00     0.114 C 
BRANCH  52  53
HETATM   53  C   UNK     0       2.714   6.357 -12.819  0.00  0.00     0.139 C 
HETATM   54  O   UNK     0       1.601   6.721 -12.407  0.00  0.00    -0.650 OA
BRANCH  53  55
HETATM   55  O   UNK     0       3.269   5.184 -12.370  0.00  0.00    -0.776 OA
HETATM   56  H   UNK     0       4.128   4.790 -12.675  0.00  0.00     0.167 HD
ENDBRANCH  53  55
ENDBRANCH  52  53
ENDBRANCH  51  52
ENDBRANCH  18  51
TORSDOF 16
ENDMDL
MODEL 10
REMARK VINA RESULT:      -7.8     25.015     28.215
REMARK  16 active torsions:
REMARK  status: ('A' for Active; 'I' for Inactive)
REMARK    1  A    between atoms: C_6  and  C_7 
REMARK    2  A    between atoms: C_7  and  C_8 
REMARK    3  A    between atoms: C_8  and  C_9 
REMARK    4  A    between atoms: C_9  and  O_11 
REMARK    5  A    between atoms: C_16  and  C_17 
REMARK    6  A    between atoms: C_17  and  C_18 
REMARK    7  A    between atoms: C_18  and  C_19 
REMARK    8  A    between atoms: C_19  and  O_21 
REMARK    9  A    between atoms: C_28  and  C_29 
REMARK   10  A    between atoms: C_29  and  C_30 
REMARK   11  A    between atoms: C_30  and  C_31 
REMARK   12  A    between atoms: C_31  and  O_33 
REMARK   13  A    between atoms: C_42  and  C_43 
REMARK   14  A    between atoms: C_43  and  C_44 
REMARK   15  A    between atoms: C_44  and  C_45 
REMARK   16  A    between atoms: C_45  and  O_47 
ROOT
HETATM    1  C   UNK     0       2.753 -27.390  -8.040  0.00  0.00     0.051 C 
HETATM    2  C   UNK     0       2.802 -26.630  -9.350  0.00  0.00    -0.031 A 
HETATM    3  C   UNK     0       3.381 -25.403  -9.634  0.00  0.00     0.021 A 
HETATM    4  N   UNK     0       3.153 -25.098 -10.933  0.00  0.00    -0.361 N 
HETATM    5  C   UNK     0       2.449 -26.107 -11.486  0.00  0.00     0.022 A 
HETATM    6  C   UNK     0       2.210 -27.081 -10.522  0.00  0.00    -0.027 A 
HETATM    7  C   UNK     0       2.024 -26.305 -12.907  0.00  0.00     0.115 C 
HETATM    8  C   UNK     0       3.049 -25.974 -13.977  0.00  0.00     0.021 A 
HETATM    9  N   UNK     0       4.380 -26.146 -13.942  0.00  0.00    -0.361 N 
HETATM   10  C   UNK     0       4.900 -25.626 -15.074  0.00  0.00     0.022 A 
HETATM   11  C   UNK     0       3.875 -25.113 -15.864  0.00  0.00    -0.027 A 
HETATM   12  C   UNK     0       2.707 -25.329 -15.179  0.00  0.00    -0.031 A 
HETATM   13  C   UNK     0       1.327 -24.938 -15.659  0.00  0.00     0.051 C 
HETATM   14  C   UNK     0       6.381 -25.544 -15.431  0.00  0.00     0.115 C 
HETATM   15  C   UNK     0       7.206 -24.723 -14.453  0.00  0.00     0.021 A 
HETATM   16  N   UNK     0       7.354 -24.926 -13.130  0.00  0.00    -0.361 N 
HETATM   17  C   UNK     0       8.100 -23.945 -12.616  0.00  0.00     0.022 A 
HETATM   18  C   UNK     0       8.463 -23.066 -13.656  0.00  0.00    -0.027 A 
HETATM   19  C   UNK     0       7.898 -23.565 -14.801  0.00  0.00    -0.031 A 
HETATM   20  C   UNK     0       8.072 -22.936 -16.171  0.00  0.00     0.051 C 
HETATM   21  C   UNK     0       8.494 -23.674 -11.183  0.00  0.00     0.115 C 
HETATM   22  C   UNK     0       7.501 -24.039 -10.104  0.00  0.00     0.022 A 
HETATM   23  N   UNK     0       6.171 -23.882 -10.114  0.00  0.00    -0.361 N 
HETATM   24  C   UNK     0       5.667 -24.477  -9.014  0.00  0.00     0.021 A 
HETATM   25  C   UNK     0       6.699 -25.021  -8.273  0.00  0.00    -0.031 A 
HETATM   26  C   UNK     0       6.639 -25.749  -6.946  0.00  0.00     0.051 C 
HETATM   27  C   UNK     0       7.882 -24.753  -8.951  0.00  0.00    -0.027 A 
HETATM   28  C   UNK     0       4.206 -24.643  -8.634  0.00  0.00     0.115 C 
HETATM   29  H   UNK     0       3.457 -24.153 -11.441  0.00  0.00     0.165 HD
HETATM   30  H   UNK     0       4.950 -26.680 -13.143  0.00  0.00     0.165 HD
HETATM   31  H   UNK     0       6.964 -25.805 -12.554  0.00  0.00     0.165 HD
HETATM   32  H   UNK     0       5.579 -23.312 -10.876  0.00  0.00     0.165 HD
ENDROOT
BRANCH   6  33
HETATM   33  C   UNK     0       1.468 -28.390 -10.629  0.00  0.00     0.051 C 
BRANCH  33  34
HETATM   34  C   UNK     0       0.012 -28.210 -10.271  0.00  0.00     0.114 C 
BRANCH  34  35
HETATM   35  C   UNK     0      -0.295 -29.158  -9.161  0.00  0.00     0.139 C 
HETATM   36  O   UNK     0       0.262 -30.293  -9.121  0.00  0.00    -0.650 OA
BRANCH  35  37
HETATM   37  O   UNK     0      -1.185 -28.851  -8.139  0.00  0.00    -0.776 OA
HETATM   38  H   UNK     0      -2.171 -28.736  -8.305  0.00  0.00     0.167 HD
ENDBRANCH  35  37
ENDBRANCH  34  35
ENDBRANCH  33  34
ENDBRANCH   6  33
BRANCH  27  39
HETATM   39  C   UNK     0       9.222 -25.124  -8.420  0.00  0.00     0.051 C 
BRANCH  39  40
HETATM   40  C   UNK     0       9.918 -26.261  -9.024  0.00  0.00     0.114 C 
BRANCH  40  41
HETATM   41  C   UNK     0       9.829 -27.597  -8.479  0.00  0.00     0.139 C 
HETATM   42  O   UNK     0      10.198 -27.894  -7.334  0.00  0.00    -0.650 OA
BRANCH  41  43
HETATM   43  O   UNK     0       9.293 -28.639  -9.287  0.00  0.00    -0.776 OA
HETATM   44  H   UNK     0       8.850 -29.387  -8.767  0.00  0.00     0.167 HD
ENDBRANCH  41  43
ENDBRANCH  40  41
ENDBRANCH  39  40
ENDBRANCH  27  39
BRANCH  11  45
HETATM   45  C   UNK     0       3.968 -24.446 -17.210  0.00  0.00     0.051 C 
BRANCH  45  46
HETATM   46  C   UNK     0       4.253 -25.378 -18.330  0.00  0.00     0.114 C 
BRANCH  46  47
HETATM   47  C   UNK     0       5.503 -24.906 -18.991  0.00  0.00     0.139 C 
HETATM   48  O   UNK     0       5.490 -23.810 -19.569  0.00  0.00    -0.650 OA
BRANCH  47  49
HETATM   49  O   UNK     0       6.644 -25.667 -18.963  0.00  0.00    -0.776 OA
HETATM   50  H   UNK     0       7.009 -26.134 -19.802  0.00  0.00     0.167 HD
ENDBRANCH  47  49
ENDBRANCH  46  47
ENDBRANCH  45  46
ENDBRANCH  11  45
BRANCH  18  51
HETATM   51  C   UNK     0       9.319 -21.829 -13.566  0.00  0.00     0.051 C 
BRANCH  51  52
HETATM   52  C   UNK     0      10.760 -22.314 -13.486  0.00  0.00     0.114 C 
BRANCH  52  53
HETATM   53  C   UNK     0      11.560 -21.504 -12.548  0.00  0.00     0.139 C 
HETATM   54  O   UNK     0      11.167 -21.331 -11.383  0.00  0.00    -0.650 OA
BRANCH  53  55
HETATM   55  O   UNK     0      12.740 -20.941 -12.971  0.00  0.00    -0.776 OA
HETATM   56  H   UNK     0      13.368 -20.412 -12.414  0.00  0.00     0.167 HD
ENDBRANCH  53  55
ENDBRANCH  52  53
ENDBRANCH  51  52
ENDBRANCH  18  51
TORSDOF 16
ENDMDL
MODEL 11
REMARK VINA RESULT:      -7.7     24.918     28.582
REMARK  16 active torsions:
REMARK  status: ('A' for Active; 'I' for Inactive)
REMARK    1  A    between atoms: C_6  and  C_7 
REMARK    2  A    between atoms: C_7  and  C_8 
REMARK    3  A    between atoms: C_8  and  C_9 
REMARK    4  A    between atoms: C_9  and  O_11 
REMARK    5  A    between atoms: C_16  and  C_17 
REMARK    6  A    between atoms: C_17  and  C_18 
REMARK    7  A    between atoms: C_18  and  C_19 
REMARK    8  A    between atoms: C_19  and  O_21 
REMARK    9  A    between atoms: C_28  and  C_29 
REMARK   10  A    between atoms: C_29  and  C_30 
REMARK   11  A    between atoms: C_30  and  C_31 
REMARK   12  A    between atoms: C_31  and  O_33 
REMARK   13  A    between atoms: C_42  and  C_43 
REMARK   14  A    between atoms: C_43  and  C_44 
REMARK   15  A    between atoms: C_44  and  C_45 
REMARK   16  A    between atoms: C_45  and  O_47 
ROOT
HETATM    1  C   UNK     0      11.149 -23.442 -11.075  0.00  0.00     0.051 C 
HETATM    2  C   UNK     0      10.097 -24.130 -11.920  0.00  0.00    -0.031 A 
HETATM    3  C   UNK     0       9.444 -25.334 -11.704  0.00  0.00     0.021 A 
HETATM    4  N   UNK     0       8.604 -25.572 -12.739  0.00  0.00    -0.361 N 
HETATM    5  C   UNK     0       8.700 -24.542 -13.606  0.00  0.00     0.022 A 
HETATM    6  C   UNK     0       9.628 -23.624 -13.125  0.00  0.00    -0.027 A 
HETATM    7  C   UNK     0       7.922 -24.274 -14.855  0.00  0.00     0.115 C 
HETATM    8  C   UNK     0       6.427 -24.536 -14.797  0.00  0.00     0.021 A 
HETATM    9  N   UNK     0       5.585 -24.350 -13.768  0.00  0.00    -0.361 N 
HETATM   10  C   UNK     0       4.368 -24.804 -14.135  0.00  0.00     0.022 A 
HETATM   11  C   UNK     0       4.425 -25.286 -15.440  0.00  0.00    -0.027 A 
HETATM   12  C   UNK     0       5.719 -25.120 -15.863  0.00  0.00    -0.031 A 
HETATM   13  C   UNK     0       6.249 -25.499 -17.227  0.00  0.00     0.051 C 
HETATM   14  C   UNK     0       3.121 -24.850 -13.257  0.00  0.00     0.115 C 
HETATM   15  C   UNK     0       3.274 -25.713 -12.015  0.00  0.00     0.021 A 
HETATM   16  N   UNK     0       4.179 -25.579 -11.028  0.00  0.00    -0.361 N 
HETATM   17  C   UNK     0       4.027 -26.578 -10.155  0.00  0.00     0.022 A 
HETATM   18  C   UNK     0       2.966 -27.396 -10.589  0.00  0.00    -0.027 A 
HETATM   19  C   UNK     0       2.501 -26.843 -11.754  0.00  0.00    -0.031 A 
HETATM   20  C   UNK     0       1.328 -27.396 -12.542  0.00  0.00     0.051 C 
HETATM   21  C   UNK     0       4.831 -26.921  -8.922  0.00  0.00     0.115 C 
HETATM   22  C   UNK     0       6.313 -26.625  -8.950  0.00  0.00     0.022 A 
HETATM   23  N   UNK     0       7.174 -26.795  -9.961  0.00  0.00    -0.361 N 
HETATM   24  C   UNK     0       8.360 -26.266  -9.601  0.00  0.00     0.021 A 
HETATM   25  C   UNK     0       8.263 -25.751  -8.323  0.00  0.00    -0.031 A 
HETATM   26  C   UNK     0       9.334 -25.095  -7.475  0.00  0.00     0.051 C 
HETATM   27  C   UNK     0       6.962 -25.969  -7.885  0.00  0.00    -0.027 A 
HETATM   28  C   UNK     0       9.616 -26.137 -10.446  0.00  0.00     0.115 C 
HETATM   29  H   UNK     0       7.977 -26.485 -12.870  0.00  0.00     0.165 HD
HETATM   30  H   UNK     0       5.836 -23.854 -12.799  0.00  0.00     0.165 HD
HETATM   31  H   UNK     0       4.910 -24.736 -10.919  0.00  0.00     0.165 HD
HETATM   32  H   UNK     0       6.964 -27.331 -10.924  0.00  0.00     0.165 HD
ENDROOT
BRANCH   6  33
HETATM   33  C   UNK     0      10.098 -22.320 -13.718  0.00  0.00     0.051 C 
BRANCH  33  34
HETATM   34  C   UNK     0       9.252 -21.171 -13.223  0.00  0.00     0.114 C 
BRANCH  34  35
HETATM   35  C   UNK     0      10.177 -20.057 -12.866  0.00  0.00     0.139 C 
HETATM   36  O   UNK     0      11.392 -20.296 -12.604  0.00  0.00    -0.650 OA
BRANCH  35  37
HETATM   37  O   UNK     0       9.766 -18.731 -12.808  0.00  0.00    -0.776 OA
HETATM   38  H   UNK     0       8.865 -18.435 -13.147  0.00  0.00     0.167 HD
ENDBRANCH  35  37
ENDBRANCH  34  35
ENDBRANCH  33  34
ENDBRANCH   6  33
BRANCH  27  39
HETATM   39  C   UNK     0       6.496 -25.612  -6.517  0.00  0.00     0.051 C 
BRANCH  39  40
HETATM   40  C   UNK     0       6.434 -26.668  -5.507  0.00  0.00     0.114 C 
BRANCH  40  41
HETATM   41  C   UNK     0       5.225 -27.418  -5.251  0.00  0.00     0.139 C 
HETATM   42  O   UNK     0       5.006 -28.542  -5.721  0.00  0.00    -0.650 OA
BRANCH  41  43
HETATM   43  O   UNK     0       4.223 -26.849  -4.415  0.00  0.00    -0.776 OA
HETATM   44  H   UNK     0       4.086 -25.854  -4.543  0.00  0.00     0.167 HD
ENDBRANCH  41  43
ENDBRANCH  40  41
ENDBRANCH  39  40
ENDBRANCH  27  39
BRANCH  11  45
HETATM   45  C   UNK     0       3.321 -25.879 -16.274  0.00  0.00     0.051 C 
BRANCH  45  46
HETATM   46  C   UNK     0       2.465 -24.872 -16.951  0.00  0.00     0.114 C 
BRANCH  46  47
HETATM   47  C   UNK     0       1.175 -24.815 -16.205  0.00  0.00     0.139 C 
HETATM   48  O   UNK     0       0.691 -25.873 -15.778  0.00  0.00    -0.650 OA
BRANCH  47  49
HETATM   49  O   UNK     0       0.536 -23.619 -15.995  0.00  0.00    -0.776 OA
HETATM   50  H   UNK     0       0.602 -22.842 -16.663  0.00  0.00     0.167 HD
ENDBRANCH  47  49
ENDBRANCH  46  47
ENDBRANCH  45  46
ENDBRANCH  11  45
BRANCH  18  51
HETATM   51  C   UNK     0       2.410 -28.626  -9.919  0.00  0.00     0.051 C 
BRANCH  51  52
HETATM   52  C   UNK     0       1.236 -28.156  -9.073  0.00  0.00     0.114 C 
BRANCH  52  53
HETATM   53  C   UNK     0       0.087 -29.077  -9.169  0.00  0.00     0.139 C 
HETATM   54  O   UNK     0       0.038 -29.918 -10.081  0.00  0.00    -0.650 OA
BRANCH  53  55
HETATM   55  O   UNK     0      -0.928 -28.996  -8.246  0.00  0.00    -0.776 OA
HETATM   56  H   UNK     0      -1.789 -29.490  -8.280  0.00  0.00     0.167 HD
ENDBRANCH  53  55
ENDBRANCH  52  53
ENDBRANCH  51  52
ENDBRANCH  18  51
TORSDOF 16
ENDMDL
MODEL 12
REMARK VINA RESULT:      -7.7     24.633     28.298
REMARK  16 active torsions:
REMARK  status: ('A' for Active; 'I' for Inactive)
REMARK    1  A    between atoms: C_6  and  C_7 
REMARK    2  A    between atoms: C_7  and  C_8 
REMARK    3  A    between atoms: C_8  and  C_9 
REMARK    4  A    between atoms: C_9  and  O_11 
REMARK    5  A    between atoms: C_16  and  C_17 
REMARK    6  A    between atoms: C_17  and  C_18 
REMARK    7  A    between atoms: C_18  and  C_19 
REMARK    8  A    between atoms: C_19  and  O_21 
REMARK    9  A    between atoms: C_28  and  C_29 
REMARK   10  A    between atoms: C_29  and  C_30 
REMARK   11  A    between atoms: C_30  and  C_31 
REMARK   12  A    between atoms: C_31  and  O_33 
REMARK   13  A    between atoms: C_42  and  C_43 
REMARK   14  A    between atoms: C_43  and  C_44 
REMARK   15  A    between atoms: C_44  and  C_45 
REMARK   16  A    between atoms: C_45  and  O_47 
ROOT
HETATM    1  C   UNK     0       3.523 -24.754 -17.322  0.00  0.00     0.051 C 
HETATM    2  C   UNK     0       3.584 -25.446 -15.975  0.00  0.00    -0.031 A 
HETATM    3  C   UNK     0       4.675 -25.986 -15.312  0.00  0.00     0.021 A 
HETATM    4  N   UNK     0       4.256 -26.533 -14.147  0.00  0.00    -0.361 N 
HETATM    5  C   UNK     0       2.924 -26.347 -14.049  0.00  0.00     0.022 A 
HETATM    6  C   UNK     0       2.470 -25.673 -15.177  0.00  0.00    -0.027 A 
HETATM    7  C   UNK     0       1.997 -26.677 -12.920  0.00  0.00     0.115 C 
HETATM    8  C   UNK     0       2.493 -26.368 -11.519  0.00  0.00     0.021 A 
HETATM    9  N   UNK     0       3.253 -25.342 -11.108  0.00  0.00    -0.361 N 
HETATM   10  C   UNK     0       3.525 -25.520  -9.798  0.00  0.00     0.022 A 
HETATM   11  C   UNK     0       2.915 -26.687  -9.350  0.00  0.00    -0.027 A 
HETATM   12  C   UNK     0       2.262 -27.227 -10.429  0.00  0.00    -0.031 A 
HETATM   13  C   UNK     0       1.453 -28.504 -10.412  0.00  0.00     0.051 C 
HETATM   14  C   UNK     0       4.411 -24.628  -8.932  0.00  0.00     0.115 C 
HETATM   15  C   UNK     0       5.851 -24.541  -9.410  0.00  0.00     0.021 A 
HETATM   16  N   UNK     0       6.294 -24.118 -10.609  0.00  0.00    -0.361 N 
HETATM   17  C   UNK     0       7.621 -24.261 -10.661  0.00  0.00     0.022 A 
HETATM   18  C   UNK     0       8.064 -24.793  -9.434  0.00  0.00    -0.027 A 
HETATM   19  C   UNK     0       6.946 -24.962  -8.659  0.00  0.00    -0.031 A 
HETATM   20  C   UNK     0       6.979 -25.483  -7.234  0.00  0.00     0.051 C 
HETATM   21  C   UNK     0       8.582 -24.003 -11.799  0.00  0.00     0.115 C 
HETATM   22  C   UNK     0       8.087 -24.264 -13.203  0.00  0.00     0.022 A 
HETATM   23  N   UNK     0       7.325 -25.275 -13.639  0.00  0.00    -0.361 N 
HETATM   24  C   UNK     0       7.003 -25.037 -14.927  0.00  0.00     0.021 A 
HETATM   25  C   UNK     0       7.579 -23.849 -15.332  0.00  0.00    -0.031 A 
HETATM   26  C   UNK     0       7.539 -23.184 -16.692  0.00  0.00     0.051 C 
HETATM   27  C   UNK     0       8.279 -23.335 -14.246  0.00  0.00    -0.027 A 
HETATM   28  C   UNK     0       6.083 -25.851 -15.820  0.00  0.00     0.115 C 
HETATM   29  H   UNK     0       4.899 -27.083 -13.420  0.00  0.00     0.165 HD
HETATM   30  H   UNK     0       3.559 -24.464 -11.728  0.00  0.00     0.165 HD
HETATM   31  H   UNK     0       5.665 -23.665 -11.418  0.00  0.00     0.165 HD
HETATM   32  H   UNK     0       7.043 -26.190 -13.055  0.00  0.00     0.165 HD
ENDROOT
BRANCH   6  33
HETATM   33  C   UNK     0       1.077 -25.235 -15.551  0.00  0.00     0.051 C 
BRANCH  33  34
HETATM   34  C   UNK     0       0.592 -24.145 -14.624  0.00  0.00     0.114 C 
BRANCH  34  35
HETATM   35  C   UNK     0      -0.492 -23.405 -15.333  0.00  0.00     0.139 C 
HETATM   36  O   UNK     0      -0.337 -22.186 -15.636  0.00  0.00    -0.650 OA
BRANCH  35  37
HETATM   37  O   UNK     0      -1.695 -24.000 -15.691  0.00  0.00    -0.776 OA
HETATM   38  H   UNK     0      -1.803 -25.000 -15.740  0.00  0.00     0.167 HD
ENDBRANCH  35  37
ENDBRANCH  34  35
ENDBRANCH  33  34
ENDBRANCH   6  33
BRANCH  27  39
HETATM   39  C   UNK     0       9.094 -22.093 -14.321  0.00  0.00     0.051 C 
BRANCH  39  40
HETATM   40  C   UNK     0       9.193 -21.255 -13.126  0.00  0.00     0.114 C 
BRANCH  40  41
HETATM   41  C   UNK     0      10.185 -20.211 -12.997  0.00  0.00     0.139 C 
HETATM   42  O   UNK     0      11.405 -20.415 -13.060  0.00  0.00    -0.650 OA
BRANCH  41  43
HETATM   43  O   UNK     0       9.754 -18.870 -12.786  0.00  0.00    -0.776 OA
HETATM   44  H   UNK     0       8.767 -18.775 -12.577  0.00  0.00     0.167 HD
ENDBRANCH  41  43
ENDBRANCH  40  41
ENDBRANCH  39  40
ENDBRANCH  27  39
BRANCH  11  45
HETATM   45  C   UNK     0       2.928 -27.288  -7.970  0.00  0.00     0.051 C 
BRANCH  45  46
HETATM   46  C   UNK     0       4.214 -27.936  -7.603  0.00  0.00     0.114 C 
BRANCH  46  47
HETATM   47  C   UNK     0       4.424 -27.706  -6.145  0.00  0.00     0.139 C 
HETATM   48  O   UNK     0       3.764 -26.821  -5.584  0.00  0.00    -0.650 OA
BRANCH  47  49
HETATM   49  O   UNK     0       5.331 -28.457  -5.440  0.00  0.00    -0.776 OA
HETATM   50  H   UNK     0       5.056 -29.018  -4.624  0.00  0.00     0.167 HD
ENDBRANCH  47  49
ENDBRANCH  46  47
ENDBRANCH  45  46
ENDBRANCH  11  45
BRANCH  18  51
HETATM   51  C   UNK     0       9.478 -25.103  -9.015  0.00  0.00     0.051 C 
BRANCH  51  52
HETATM   52  C   UNK     0       9.864 -26.386  -9.736  0.00  0.00     0.114 C 
BRANCH  52  53
HETATM   53  C   UNK     0       9.743 -27.567  -8.858  0.00  0.00     0.139 C 
HETATM   54  O   UNK     0      10.135 -27.509  -7.682  0.00  0.00    -0.650 OA
BRANCH  53  55
HETATM   55  O   UNK     0       9.198 -28.727  -9.351  0.00  0.00    -0.776 OA
HETATM   56  H   UNK     0       9.635 -29.355  -9.983  0.00  0.00     0.167 HD
ENDBRANCH  53  55
ENDBRANCH  52  53
ENDBRANCH  51  52
ENDBRANCH  18  51
TORSDOF 16
ENDMDL
MODEL 13
REMARK VINA RESULT:      -7.7      2.814      7.624
REMARK  16 active torsions:
REMARK  status: ('A' for Active; 'I' for Inactive)
REMARK    1  A    between atoms: C_6  and  C_7 
REMARK    2  A    between atoms: C_7  and  C_8 
REMARK    3  A    between atoms: C_8  and  C_9 
REMARK    4  A    between atoms: C_9  and  O_11 
REMARK    5  A    between atoms: C_16  and  C_17 
REMARK    6  A    between atoms: C_17  and  C_18 
REMARK    7  A    between atoms: C_18  and  C_19 
REMARK    8  A    between atoms: C_19  and  O_21 
REMARK    9  A    between atoms: C_28  and  C_29 
REMARK   10  A    between atoms: C_29  and  C_30 
REMARK   11  A    between atoms: C_30  and  C_31 
REMARK   12  A    between atoms: C_31  and  O_33 
REMARK   13  A    between atoms: C_42  and  C_43 
REMARK   14  A    between atoms: C_43  and  C_44 
REMARK   15  A    between atoms: C_44  and  C_45 
REMARK   16  A    between atoms: C_45  and  O_47 
ROOT
HETATM    1  C   UNK     0     -14.964  -5.298 -12.657  0.00  0.00     0.051 C 
HETATM    2  C   UNK     0     -15.509  -6.388 -13.556  0.00  0.00    -0.031 A 
HETATM    3  C   UNK     0     -15.300  -7.757 -13.505  0.00  0.00     0.021 A 
HETATM    4  N   UNK     0     -15.963  -8.343 -14.530  0.00  0.00    -0.361 N 
HETATM    5  C   UNK     0     -16.597  -7.379 -15.228  0.00  0.00     0.022 A 
HETATM    6  C   UNK     0     -16.333  -6.143 -14.648  0.00  0.00    -0.027 A 
HETATM    7  C   UNK     0     -17.535  -7.503 -16.388  0.00  0.00     0.115 C 
HETATM    8  C   UNK     0     -18.571  -8.611 -16.312  0.00  0.00     0.021 A 
HETATM    9  N   UNK     0     -19.224  -9.072 -15.234  0.00  0.00    -0.361 N 
HETATM   10  C   UNK     0     -19.979 -10.123 -15.618  0.00  0.00     0.022 A 
HETATM   11  C   UNK     0     -19.815 -10.339 -16.983  0.00  0.00    -0.027 A 
HETATM   12  C   UNK     0     -18.929  -9.390 -17.426  0.00  0.00    -0.031 A 
HETATM   13  C   UNK     0     -18.454  -9.237 -18.854  0.00  0.00     0.051 C 
HETATM   14  C   UNK     0     -20.840 -10.995 -14.709  0.00  0.00     0.115 C 
HETATM   15  C   UNK     0     -20.056 -11.716 -13.625  0.00  0.00     0.021 A 
HETATM   16  N   UNK     0     -19.286 -11.169 -12.666  0.00  0.00    -0.361 N 
HETATM   17  C   UNK     0     -18.713 -12.142 -11.955  0.00  0.00     0.022 A 
HETATM   18  C   UNK     0     -19.138 -13.384 -12.469  0.00  0.00    -0.027 A 
HETATM   19  C   UNK     0     -19.979 -13.103 -13.513  0.00  0.00    -0.031 A 
HETATM   20  C   UNK     0     -20.694 -14.164 -14.330  0.00  0.00     0.051 C 
HETATM   21  C   UNK     0     -17.713 -12.060 -10.823  0.00  0.00     0.115 C 
HETATM   22  C   UNK     0     -16.705 -10.936 -10.864  0.00  0.00     0.022 A 
HETATM   23  N   UNK     0     -16.042 -10.454 -11.924  0.00  0.00    -0.361 N 
HETATM   24  C   UNK     0     -15.357  -9.360 -11.533  0.00  0.00     0.021 A 
HETATM   25  C   UNK     0     -15.576  -9.139 -10.186  0.00  0.00    -0.031 A 
HETATM   26  C   UNK     0     -14.997  -8.064  -9.291  0.00  0.00     0.051 C 
HETATM   27  C   UNK     0     -16.435 -10.135  -9.736  0.00  0.00    -0.027 A 
HETATM   28  C   UNK     0     -14.533  -8.421 -12.397  0.00  0.00     0.115 C 
HETATM   29  H   UNK     0     -15.946  -9.430 -14.777  0.00  0.00     0.165 HD
HETATM   30  H   UNK     0     -19.193  -8.626 -14.209  0.00  0.00     0.165 HD
HETATM   31  H   UNK     0     -19.181 -10.073 -12.455  0.00  0.00     0.165 HD
HETATM   32  H   UNK     0     -16.017 -10.907 -12.949  0.00  0.00     0.165 HD
ENDROOT
BRANCH   6  33
HETATM   33  C   UNK     0     -16.795  -4.764 -15.048  0.00  0.00     0.051 C 
BRANCH  33  34
HETATM   34  C   UNK     0     -15.617  -3.838 -15.232  0.00  0.00     0.114 C 
BRANCH  34  35
HETATM   35  C   UNK     0     -15.997  -2.513 -14.662  0.00  0.00     0.139 C 
HETATM   36  O   UNK     0     -16.354  -1.570 -15.426  0.00  0.00    -0.650 OA
BRANCH  35  37
HETATM   37  O   UNK     0     -15.983  -2.253 -13.297  0.00  0.00    -0.776 OA
HETATM   38  H   UNK     0     -15.154  -2.376 -12.738  0.00  0.00     0.167 HD
ENDBRANCH  35  37
ENDBRANCH  34  35
ENDBRANCH  33  34
ENDBRANCH   6  33
BRANCH  27  39
HETATM   39  C   UNK     0     -16.846 -10.269  -8.312  0.00  0.00     0.051 C 
BRANCH  39  40
HETATM   40  C   UNK     0     -16.214 -11.310  -7.503  0.00  0.00     0.114 C 
BRANCH  40  41
HETATM   41  C   UNK     0     -16.841 -12.592  -7.270  0.00  0.00     0.139 C 
HETATM   42  O   UNK     0     -17.922 -12.727  -6.681  0.00  0.00    -0.650 OA
BRANCH  41  43
HETATM   43  O   UNK     0     -16.195 -13.772  -7.736  0.00  0.00    -0.776 OA
HETATM   44  H   UNK     0     -16.072 -13.813  -8.741  0.00  0.00     0.167 HD
ENDBRANCH  41  43
ENDBRANCH  40  41
ENDBRANCH  39  40
ENDBRANCH  27  39
BRANCH  11  45
HETATM   45  C   UNK     0     -20.455 -11.386 -17.855  0.00  0.00     0.051 C 
BRANCH  45  46
HETATM   46  C   UNK     0     -19.662 -12.635 -17.985  0.00  0.00     0.114 C 
BRANCH  46  47
HETATM   47  C   UNK     0     -19.594 -12.965 -19.437  0.00  0.00     0.139 C 
HETATM   48  O   UNK     0     -19.474 -12.038 -20.251  0.00  0.00    -0.650 OA
BRANCH  47  49
HETATM   49  O   UNK     0     -19.665 -14.267 -19.866  0.00  0.00    -0.776 OA
HETATM   50  H   UNK     0     -18.948 -14.680 -20.474  0.00  0.00     0.167 HD
ENDBRANCH  47  49
ENDBRANCH  46  47
ENDBRANCH  45  46
ENDBRANCH  11  45
BRANCH  18  51
HETATM   51  C   UNK     0     -18.778 -14.762 -11.977  0.00  0.00     0.051 C 
BRANCH  51  52
HETATM   52  C   UNK     0     -19.318 -14.863 -10.559  0.00  0.00     0.114 C 
BRANCH  52  53
HETATM   53  C   UNK     0     -20.726 -15.305 -10.537  0.00  0.00     0.139 C 
HETATM   54  O   UNK     0     -21.142 -16.096 -11.399  0.00  0.00    -0.650 OA
BRANCH  53  55
HETATM   55  O   UNK     0     -21.571 -14.835  -9.562  0.00  0.00    -0.776 OA
HETATM   56  H   UNK     0     -22.524 -14.584  -9.686  0.00  0.00     0.167 HD
ENDBRANCH  53  55
ENDBRANCH  52  53
ENDBRANCH  51  52
ENDBRANCH  18  51
TORSDOF 16
ENDMDL
MODEL 14
REMARK VINA RESULT:      -7.6     28.202     33.040
REMARK  16 active torsions:
REMARK  status: ('A' for Active; 'I' for Inactive)
REMARK    1  A    between atoms: C_6  and  C_7 
REMARK    2  A    between atoms: C_7  and  C_8 
REMARK    3  A    between atoms: C_8  and  C_9 
REMARK    4  A    between atoms: C_9  and  O_11 
REMARK    5  A    between atoms: C_16  and  C_17 
REMARK    6  A    between atoms: C_17  and  C_18 
REMARK    7  A    between atoms: C_18  and  C_19 
REMARK    8  A    between atoms: C_19  and  O_21 
REMARK    9  A    between atoms: C_28  and  C_29 
REMARK   10  A    between atoms: C_29  and  C_30 
REMARK   11  A    between atoms: C_30  and  C_31 
REMARK   12  A    between atoms: C_31  and  O_33 
REMARK   13  A    between atoms: C_42  and  C_43 
REMARK   14  A    between atoms: C_43  and  C_44 
REMARK   15  A    between atoms: C_44  and  C_45 
REMARK   16  A    between atoms: C_45  and  O_47 
ROOT
HETATM    1  C   UNK     0       0.708   8.943 -12.663  0.00  0.00     0.051 C 
HETATM    2  C   UNK     0       1.476   8.671 -11.386  0.00  0.00    -0.031 A 
HETATM    3  C   UNK     0       2.626   7.921 -11.194  0.00  0.00     0.021 A 
HETATM    4  N   UNK     0       2.942   7.928  -9.877  0.00  0.00    -0.361 N 
HETATM    5  C   UNK     0       2.024   8.674  -9.228  0.00  0.00     0.022 A 
HETATM    6  C   UNK     0       1.091   9.152 -10.141  0.00  0.00    -0.027 A 
HETATM    7  C   UNK     0       1.969   9.073  -7.786  0.00  0.00     0.115 C 
HETATM    8  C   UNK     0       3.278   9.504  -7.148  0.00  0.00     0.021 A 
HETATM    9  N   UNK     0       4.293  10.186  -7.700  0.00  0.00    -0.361 N 
HETATM   10  C   UNK     0       5.289  10.264  -6.793  0.00  0.00     0.022 A 
HETATM   11  C   UNK     0       4.901   9.623  -5.620  0.00  0.00    -0.027 A 
HETATM   12  C   UNK     0       3.635   9.142  -5.836  0.00  0.00    -0.031 A 
HETATM   13  C   UNK     0       2.807   8.376  -4.830  0.00  0.00     0.051 C 
HETATM   14  C   UNK     0       6.661  10.896  -7.011  0.00  0.00     0.115 C 
HETATM   15  C   UNK     0       7.470  10.243  -8.120  0.00  0.00     0.021 A 
HETATM   16  N   UNK     0       7.130  10.108  -9.415  0.00  0.00    -0.361 N 
HETATM   17  C   UNK     0       8.079   9.415 -10.048  0.00  0.00     0.022 A 
HETATM   18  C   UNK     0       9.091   9.091  -9.123  0.00  0.00    -0.027 A 
HETATM   19  C   UNK     0       8.699   9.617  -7.919  0.00  0.00    -0.031 A 
HETATM   20  C   UNK     0       9.525   9.527  -6.649  0.00  0.00     0.051 C 
HETATM   21  C   UNK     0       8.141   8.936 -11.481  0.00  0.00     0.115 C 
HETATM   22  C   UNK     0       6.841   8.546 -12.143  0.00  0.00     0.022 A 
HETATM   23  N   UNK     0       5.811   7.871 -11.616  0.00  0.00    -0.361 N 
HETATM   24  C   UNK     0       4.801   7.873 -12.509  0.00  0.00     0.021 A 
HETATM   25  C   UNK     0       5.194   8.557 -13.644  0.00  0.00    -0.031 A 
HETATM   26  C   UNK     0       4.427   8.792 -14.928  0.00  0.00     0.051 C 
HETATM   27  C   UNK     0       6.496   8.997 -13.433  0.00  0.00    -0.027 A 
HETATM   28  C   UNK     0       3.400   7.314 -12.330  0.00  0.00     0.115 C 
HETATM   29  H   UNK     0       3.789   7.374  -9.410  0.00  0.00     0.165 HD
HETATM   30  H   UNK     0       4.291  10.657  -8.714  0.00  0.00     0.165 HD
HETATM   31  H   UNK     0       6.224  10.552  -9.905  0.00  0.00     0.165 HD
HETATM   32  H   UNK     0       5.803   7.349 -10.624  0.00  0.00     0.165 HD
ENDROOT
BRANCH   6  33
HETATM   33  C   UNK     0      -0.125  10.017  -9.924  0.00  0.00     0.051 C 
BRANCH  33  34
HETATM   34  C   UNK     0      -1.353   9.167  -9.702  0.00  0.00     0.114 C 
BRANCH  34  35
HETATM   35  C   UNK     0      -1.726   9.289  -8.263  0.00  0.00     0.139 C 
HETATM   36  O   UNK     0      -1.348  10.291  -7.590  0.00  0.00    -0.650 OA
BRANCH  35  37
HETATM   37  O   UNK     0      -2.491   8.334  -7.604  0.00  0.00    -0.776 OA
HETATM   38  H   UNK     0      -3.013   8.550  -6.770  0.00  0.00     0.167 HD
ENDBRANCH  35  37
ENDBRANCH  34  35
ENDBRANCH  33  34
ENDBRANCH   6  33
BRANCH  27  39
HETATM   39  C   UNK     0       7.286   9.716 -14.469  0.00  0.00     0.051 C 
BRANCH  39  40
HETATM   40  C   UNK     0       7.951   8.927 -15.506  0.00  0.00     0.114 C 
BRANCH  40  41
HETATM   41  C   UNK     0       9.138   8.148 -15.239  0.00  0.00     0.139 C 
HETATM   42  O   UNK     0       9.973   8.448 -14.374  0.00  0.00    -0.650 OA
BRANCH  41  43
HETATM   43  O   UNK     0       9.377   6.969 -16.001  0.00  0.00    -0.776 OA
HETATM   44  H   UNK     0      10.297   6.565 -15.871  0.00  0.00     0.167 HD
ENDBRANCH  41  43
ENDBRANCH  40  41
ENDBRANCH  39  40
ENDBRANCH  27  39
BRANCH  11  45
HETATM   45  C   UNK     0       5.671   9.460  -4.337  0.00  0.00     0.051 C 
BRANCH  45  46
HETATM   46  C   UNK     0       5.436  10.542  -3.347  0.00  0.00     0.114 C 
BRANCH  46  47
HETATM   47  C   UNK     0       6.611  10.565  -2.430  0.00  0.00     0.139 C 
HETATM   48  O   UNK     0       7.748  10.540  -2.923  0.00  0.00    -0.650 OA
BRANCH  47  49
HETATM   49  O   UNK     0       6.441  10.612  -1.070  0.00  0.00    -0.776 OA
HETATM   50  H   UNK     0       6.366  11.501  -0.560  0.00  0.00     0.167 HD
ENDBRANCH  47  49
ENDBRANCH  46  47
ENDBRANCH  45  46
ENDBRANCH  11  45
BRANCH  18  51
HETATM   51  C   UNK     0      10.373   8.341  -9.377  0.00  0.00     0.051 C 
BRANCH  51  52
HETATM   52  C   UNK     0      10.444   7.249  -8.319  0.00  0.00     0.114 C 
BRANCH  52  53
HETATM   53  C   UNK     0       9.455   6.182  -8.564  0.00  0.00     0.139 C 
HETATM   54  O   UNK     0       8.892   5.625  -7.608  0.00  0.00    -0.650 OA
BRANCH  53  55
HETATM   55  O   UNK     0       9.165   5.807  -9.854  0.00  0.00    -0.776 OA
HETATM   56  H   UNK     0       9.644   6.105 -10.670  0.00  0.00     0.167 HD
ENDBRANCH  53  55
ENDBRANCH  52  53
ENDBRANCH  51  52
ENDBRANCH  18  51
TORSDOF 16
ENDMDL
MODEL 15
REMARK VINA RESULT:      -7.5     28.710     32.451
REMARK  16 active torsions:
REMARK  status: ('A' for Active; 'I' for Inactive)
REMARK    1  A    between atoms: C_6  and  C_7 
REMARK    2  A    between atoms: C_7  and  C_8 
REMARK    3  A    between atoms: C_8  and  C_9 
REMARK    4  A    between atoms: C_9  and  O_11 
REMARK    5  A    between atoms: C_16  and  C_17 
REMARK    6  A    between atoms: C_17  and  C_18 
REMARK    7  A    between atoms: C_18  and  C_19 
REMARK    8  A    between atoms: C_19  and  O_21 
REMARK    9  A    between atoms: C_28  and  C_29 
REMARK   10  A    between atoms: C_29  and  C_30 
REMARK   11  A    between atoms: C_30  and  C_31 
REMARK   12  A    between atoms: C_31  and  O_33 
REMARK   13  A    between atoms: C_42  and  C_43 
REMARK   14  A    between atoms: C_43  and  C_44 
REMARK   15  A    between atoms: C_44  and  C_45 
REMARK   16  A    between atoms: C_45  and  O_47 
ROOT
HETATM    1  C   UNK     0       8.560   8.844 -13.700  0.00  0.00     0.051 C 
HETATM    2  C   UNK     0       7.170   8.715 -13.111  0.00  0.00    -0.031 A 
HETATM    3  C   UNK     0       6.770   8.128 -11.921  0.00  0.00     0.021 A 
HETATM    4  N   UNK     0       5.423   8.217 -11.815  0.00  0.00    -0.361 N 
HETATM    5  C   UNK     0       4.957   8.856 -12.908  0.00  0.00     0.022 A 
HETATM    6  C   UNK     0       6.023   9.179 -13.741  0.00  0.00    -0.027 A 
HETATM    7  C   UNK     0       3.562   9.289 -13.235  0.00  0.00     0.115 C 
HETATM    8  C   UNK     0       2.757   9.907 -12.104  0.00  0.00     0.021 A 
HETATM    9  N   UNK     0       3.186  10.698 -11.109  0.00  0.00    -0.361 N 
HETATM   10  C   UNK     0       2.145  10.934 -10.283  0.00  0.00     0.022 A 
HETATM   11  C   UNK     0       1.012  10.284 -10.765  0.00  0.00    -0.027 A 
HETATM   12  C   UNK     0       1.391   9.636 -11.912  0.00  0.00    -0.031 A 
HETATM   13  C   UNK     0       0.482   8.799 -12.785  0.00  0.00     0.051 C 
HETATM   14  C   UNK     0       2.188  11.733  -8.984  0.00  0.00     0.115 C 
HETATM   15  C   UNK     0       3.128  11.157  -7.937  0.00  0.00     0.021 A 
HETATM   16  N   UNK     0       4.451  10.939  -8.054  0.00  0.00    -0.361 N 
HETATM   17  C   UNK     0       4.899  10.357  -6.939  0.00  0.00     0.022 A 
HETATM   18  C   UNK     0       3.818  10.197  -6.050  0.00  0.00    -0.027 A 
HETATM   19  C   UNK     0       2.715  10.704  -6.687  0.00  0.00    -0.031 A 
HETATM   20  C   UNK     0       1.333  10.762  -6.062  0.00  0.00     0.051 C 
HETATM   21  C   UNK     0       6.281   9.846  -6.597  0.00  0.00     0.115 C 
HETATM   22  C   UNK     0       7.109   9.269  -7.721  0.00  0.00     0.022 A 
HETATM   23  N   UNK     0       6.708   8.482  -8.727  0.00  0.00    -0.361 N 
HETATM   24  C   UNK     0       7.742   8.324  -9.579  0.00  0.00     0.021 A 
HETATM   25  C   UNK     0       8.838   9.018  -9.104  0.00  0.00    -0.031 A 
HETATM   26  C   UNK     0      10.233   9.111  -9.686  0.00  0.00     0.051 C 
HETATM   27  C   UNK     0       8.457   9.631  -7.915  0.00  0.00    -0.027 A 
HETATM   28  C   UNK     0       7.746   7.593 -10.910  0.00  0.00     0.115 C 
HETATM   29  H   UNK     0       4.807   7.793 -10.989  0.00  0.00     0.165 HD
HETATM   30  H   UNK     0       4.211  11.133 -11.013  0.00  0.00     0.165 HD
HETATM   31  H   UNK     0       5.093  11.245  -8.921  0.00  0.00     0.165 HD
HETATM   32  H   UNK     0       5.703   7.994  -8.824  0.00  0.00     0.165 HD
ENDROOT
BRANCH   6  33
HETATM   33  C   UNK     0       6.034   9.885 -15.074  0.00  0.00     0.051 C 
BRANCH  33  34
HETATM   34  C   UNK     0       5.296   9.075 -16.113  0.00  0.00     0.114 C 
BRANCH  34  35
HETATM   35  C   UNK     0       4.457  10.020 -16.904  0.00  0.00     0.139 C 
HETATM   36  O   UNK     0       3.212  10.098 -16.691  0.00  0.00    -0.650 OA
BRANCH  35  37
HETATM   37  O   UNK     0       4.985  10.848 -17.888  0.00  0.00    -0.776 OA
HETATM   38  H   UNK     0       5.492  11.688 -17.664  0.00  0.00     0.167 HD
ENDBRANCH  35  37
ENDBRANCH  34  35
ENDBRANCH  33  34
ENDBRANCH   6  33
BRANCH  27  39
HETATM   39  C   UNK     0       9.399  10.415  -7.070  0.00  0.00     0.051 C 
BRANCH  39  40
HETATM   40  C   UNK     0       9.984   9.765  -5.897  0.00  0.00     0.114 C 
BRANCH  40  41
HETATM   41  C   UNK     0       9.530   8.477  -5.423  0.00  0.00     0.139 C 
HETATM   42  O   UNK     0       8.658   8.336  -4.555  0.00  0.00    -0.650 OA
BRANCH  41  43
HETATM   43  O   UNK     0      10.106   7.296  -5.973  0.00  0.00    -0.776 OA
HETATM   44  H   UNK     0      10.524   6.676  -5.290  0.00  0.00     0.167 HD
ENDBRANCH  41  43
ENDBRANCH  40  41
ENDBRANCH  39  40
ENDBRANCH  27  39
BRANCH  11  45
HETATM   45  C   UNK     0      -0.378  10.263 -10.189  0.00  0.00     0.051 C 
BRANCH  45  46
HETATM   46  C   UNK     0      -0.651   9.099  -9.307  0.00  0.00     0.114 C 
BRANCH  46  47
HETATM   47  C   UNK     0      -1.570   9.567  -8.230  0.00  0.00     0.139 C 
HETATM   48  O   UNK     0      -1.652  10.783  -8.008  0.00  0.00    -0.650 OA
BRANCH  47  49
HETATM   49  O   UNK     0      -2.308   8.672  -7.497  0.00  0.00    -0.776 OA
HETATM   50  H   UNK     0      -1.906   8.151  -6.709  0.00  0.00     0.167 HD
ENDBRANCH  47  49
ENDBRANCH  46  47
ENDBRANCH  45  46
ENDBRANCH  11  45
BRANCH  18  51
HETATM   51  C   UNK     0       3.839   9.613  -4.661  0.00  0.00     0.051 C 
BRANCH  51  52
HETATM   52  C   UNK     0       3.479   8.142  -4.812  0.00  0.00     0.114 C 
BRANCH  52  53
HETATM   53  C   UNK     0       4.680   7.292  -4.925  0.00  0.00     0.139 C 
HETATM   54  O   UNK     0       4.703   6.356  -5.740  0.00  0.00    -0.650 OA
BRANCH  53  55
HETATM   55  O   UNK     0       5.766   7.539  -4.122  0.00  0.00    -0.776 OA
HETATM   56  H   UNK     0       5.972   7.088  -3.262  0.00  0.00     0.167 HD
ENDBRANCH  53  55
ENDBRANCH  52  53
ENDBRANCH  51  52
ENDBRANCH  18  51
TORSDOF 16
ENDMDL
MODEL 16
REMARK VINA RESULT:      -7.5     25.319     28.448
REMARK  16 active torsions:
REMARK  status: ('A' for Active; 'I' for Inactive)
REMARK    1  A    between atoms: C_6  and  C_7 
REMARK    2  A    between atoms: C_7  and  C_8 
REMARK    3  A    between atoms: C_8  and  C_9 
REMARK    4  A    between atoms: C_9  and  O_11 
REMARK    5  A    between atoms: C_16  and  C_17 
REMARK    6  A    between atoms: C_17  and  C_18 
REMARK    7  A    between atoms: C_18  and  C_19 
REMARK    8  A    between atoms: C_19  and  O_21 
REMARK    9  A    between atoms: C_28  and  C_29 
REMARK   10  A    between atoms: C_29  and  C_30 
REMARK   11  A    between atoms: C_30  and  C_31 
REMARK   12  A    between atoms: C_31  and  O_33 
REMARK   13  A    between atoms: C_42  and  C_43 
REMARK   14  A    between atoms: C_43  and  C_44 
REMARK   15  A    between atoms: C_44  and  C_45 
REMARK   16  A    between atoms: C_45  and  O_47 
ROOT
HETATM    1  C   UNK     0       2.603 -26.523 -16.672  0.00  0.00     0.051 C 
HETATM    2  C   UNK     0       3.590 -25.704 -15.866  0.00  0.00    -0.031 A 
HETATM    3  C   UNK     0       3.428 -25.095 -14.631  0.00  0.00     0.021 A 
HETATM    4  N   UNK     0       4.568 -24.440 -14.309  0.00  0.00    -0.361 N 
HETATM    5  C   UNK     0       5.457 -24.625 -15.307  0.00  0.00     0.022 A 
HETATM    6  C   UNK     0       4.877 -25.409 -16.299  0.00  0.00    -0.027 A 
HETATM    7  C   UNK     0       6.887 -24.194 -15.401  0.00  0.00     0.115 C 
HETATM    8  C   UNK     0       7.733 -24.362 -14.151  0.00  0.00     0.021 A 
HETATM    9  N   UNK     0       7.682 -25.339 -13.232  0.00  0.00    -0.361 N 
HETATM   10  C   UNK     0       8.553 -25.034 -12.247  0.00  0.00     0.022 A 
HETATM   11  C   UNK     0       9.189 -23.832 -12.544  0.00  0.00    -0.027 A 
HETATM   12  C   UNK     0       8.677 -23.404 -13.742  0.00  0.00    -0.031 A 
HETATM   13  C   UNK     0       9.081 -22.137 -14.462  0.00  0.00     0.051 C 
HETATM   14  C   UNK     0       8.780 -25.831 -10.966  0.00  0.00     0.115 C 
HETATM   15  C   UNK     0       7.544 -25.955 -10.089  0.00  0.00     0.021 A 
HETATM   16  N   UNK     0       6.353 -26.489 -10.420  0.00  0.00    -0.361 N 
HETATM   17  C   UNK     0       5.508 -26.343  -9.397  0.00  0.00     0.022 A 
HETATM   18  C   UNK     0       6.184 -25.692  -8.346  0.00  0.00    -0.027 A 
HETATM   19  C   UNK     0       7.458 -25.456  -8.792  0.00  0.00    -0.031 A 
HETATM   20  C   UNK     0       8.538 -24.799  -7.951  0.00  0.00     0.051 C 
HETATM   21  C   UNK     0       4.044 -26.703  -9.286  0.00  0.00     0.115 C 
HETATM   22  C   UNK     0       3.200 -26.582 -10.533  0.00  0.00     0.022 A 
HETATM   23  N   UNK     0       3.232 -25.623 -11.468  0.00  0.00    -0.361 N 
HETATM   24  C   UNK     0       2.415 -25.987 -12.476  0.00  0.00     0.021 A 
HETATM   25  C   UNK     0       1.834 -27.205 -12.180  0.00  0.00    -0.031 A 
HETATM   26  C   UNK     0       0.821 -27.998 -12.979  0.00  0.00     0.051 C 
HETATM   27  C   UNK     0       2.321 -27.606 -10.941  0.00  0.00    -0.027 A 
HETATM   28  C   UNK     0       2.191 -25.269 -13.796  0.00  0.00     0.115 C 
HETATM   29  H   UNK     0       4.724 -23.819 -13.397  0.00  0.00     0.165 HD
HETATM   30  H   UNK     0       7.068 -26.271 -13.300  0.00  0.00     0.165 HD
HETATM   31  H   UNK     0       6.117 -27.022 -11.377  0.00  0.00     0.165 HD
HETATM   32  H   UNK     0       3.800 -24.659 -11.404  0.00  0.00     0.165 HD
ENDROOT
BRANCH   6  33
HETATM   33  C   UNK     0       5.443 -25.890 -17.611  0.00  0.00     0.051 C 
BRANCH  33  34
HETATM   34  C   UNK     0       5.409 -24.789 -18.644  0.00  0.00     0.114 C 
BRANCH  34  35
HETATM   35  C   UNK     0       6.819 -24.503 -19.038  0.00  0.00     0.139 C 
HETATM   36  O   UNK     0       7.655 -25.447 -19.144  0.00  0.00    -0.650 OA
BRANCH  35  37
HETATM   37  O   UNK     0       7.276 -23.218 -19.304  0.00  0.00    -0.776 OA
HETATM   38  H   UNK     0       8.198 -22.912 -19.037  0.00  0.00     0.167 HD
ENDBRANCH  35  37
ENDBRANCH  34  35
ENDBRANCH  33  34
ENDBRANCH   6  33
BRANCH  27  39
HETATM   39  C   UNK     0       1.865 -28.845 -10.253  0.00  0.00     0.051 C 
BRANCH  39  40
HETATM   40  C   UNK     0       0.847 -28.725  -9.210  0.00  0.00     0.114 C 
BRANCH  40  41
HETATM   41  C   UNK     0      -0.318 -29.580  -9.168  0.00  0.00     0.139 C 
HETATM   42  O   UNK     0      -1.206 -29.483  -8.311  0.00  0.00    -0.650 OA
BRANCH  41  43
HETATM   43  O   UNK     0      -0.467 -30.593 -10.158  0.00  0.00    -0.776 OA
HETATM   44  H   UNK     0       0.375 -30.793 -10.683  0.00  0.00     0.167 HD
ENDBRANCH  41  43
ENDBRANCH  40  41
ENDBRANCH  39  40
ENDBRANCH  27  39
BRANCH  11  45
HETATM   45  C   UNK     0      10.238 -23.101 -11.750  0.00  0.00     0.051 C 
BRANCH  45  46
HETATM   46  C   UNK     0      11.633 -23.448 -12.125  0.00  0.00     0.114 C 
BRANCH  46  47
HETATM   47  C   UNK     0      12.204 -22.270 -12.839  0.00  0.00     0.139 C 
HETATM   48  O   UNK     0      12.267 -21.187 -12.240  0.00  0.00    -0.650 OA
BRANCH  47  49
HETATM   49  O   UNK     0      12.650 -22.380 -14.132  0.00  0.00    -0.776 OA
HETATM   50  H   UNK     0      13.564 -22.787 -14.361  0.00  0.00     0.167 HD
ENDBRANCH  47  49
ENDBRANCH  46  47
ENDBRANCH  45  46
ENDBRANCH  11  45
BRANCH  18  51
HETATM   51  C   UNK     0       5.650 -25.333  -6.983  0.00  0.00     0.051 C 
BRANCH  51  52
HETATM   52  C   UNK     0       6.140 -26.418  -6.035  0.00  0.00     0.114 C 
BRANCH  52  53
HETATM   53  C   UNK     0       5.086 -27.408  -5.741  0.00  0.00     0.139 C 
HETATM   54  O   UNK     0       4.283 -27.205  -4.817  0.00  0.00    -0.650 OA
BRANCH  53  55
HETATM   55  O   UNK     0       5.002 -28.554  -6.494  0.00  0.00    -0.776 OA
HETATM   56  H   UNK     0       4.555 -29.399  -6.224  0.00  0.00     0.167 HD
ENDBRANCH  53  55
ENDBRANCH  52  53
ENDBRANCH  51  52
ENDBRANCH  18  51
TORSDOF 16
ENDMDL
MODEL 17
REMARK VINA RESULT:      -7.4     13.524     17.278
REMARK  16 active torsions:
REMARK  status: ('A' for Active; 'I' for Inactive)
REMARK    1  A    between atoms: C_6  and  C_7 
REMARK    2  A    between atoms: C_7  and  C_8 
REMARK    3  A    between atoms: C_8  and  C_9 
REMARK    4  A    between atoms: C_9  and  O_11 
REMARK    5  A    between atoms: C_16  and  C_17 
REMARK    6  A    between atoms: C_17  and  C_18 
REMARK    7  A    between atoms: C_18  and  C_19 
REMARK    8  A    between atoms: C_19  and  O_21 
REMARK    9  A    between atoms: C_28  and  C_29 
REMARK   10  A    between atoms: C_29  and  C_30 
REMARK   11  A    between atoms: C_30  and  C_31 
REMARK   12  A    between atoms: C_31  and  O_33 
REMARK   13  A    between atoms: C_42  and  C_43 
REMARK   14  A    between atoms: C_43  and  C_44 
REMARK   15  A    between atoms: C_44  and  C_45 
REMARK   16  A    between atoms: C_45  and  O_47 
ROOT
HETATM    1  C   UNK     0      -7.421 -18.978 -11.977  0.00  0.00     0.051 C 
HETATM    2  C   UNK     0      -6.538 -19.464 -13.109  0.00  0.00    -0.031 A 
HETATM    3  C   UNK     0      -6.797 -20.420 -14.078  0.00  0.00     0.021 A 
HETATM    4  N   UNK     0      -5.706 -20.553 -14.869  0.00  0.00    -0.361 N 
HETATM    5  C   UNK     0      -4.761 -19.697 -14.430  0.00  0.00     0.022 A 
HETATM    6  C   UNK     0      -5.247 -19.002 -13.328  0.00  0.00    -0.027 A 
HETATM    7  C   UNK     0      -3.415 -19.387 -15.008  0.00  0.00     0.115 C 
HETATM    8  C   UNK     0      -3.339 -19.240 -16.517  0.00  0.00     0.021 A 
HETATM    9  N   UNK     0      -4.249 -18.719 -17.354  0.00  0.00    -0.361 N 
HETATM   10  C   UNK     0      -3.799 -18.879 -18.616  0.00  0.00     0.022 A 
HETATM   11  C   UNK     0      -2.560 -19.513 -18.592  0.00  0.00    -0.027 A 
HETATM   12  C   UNK     0      -2.264 -19.743 -17.272  0.00  0.00    -0.031 A 
HETATM   13  C   UNK     0      -1.006 -20.409 -16.762  0.00  0.00     0.051 C 
HETATM   14  C   UNK     0      -4.540 -18.492 -19.893  0.00  0.00     0.115 C 
HETATM   15  C   UNK     0      -5.868 -19.209 -20.077  0.00  0.00     0.021 A 
HETATM   16  N   UNK     0      -6.928 -19.198 -19.248  0.00  0.00    -0.361 N 
HETATM   17  C   UNK     0      -7.871 -20.009 -19.732  0.00  0.00     0.022 A 
HETATM   18  C   UNK     0      -7.407 -20.568 -20.939  0.00  0.00    -0.027 A 
HETATM   19  C   UNK     0      -6.151 -20.058 -21.144  0.00  0.00    -0.031 A 
HETATM   20  C   UNK     0      -5.299 -20.376 -22.360  0.00  0.00     0.051 C 
HETATM   21  C   UNK     0      -9.211 -20.400 -19.149  0.00  0.00     0.115 C 
HETATM   22  C   UNK     0      -9.312 -20.506 -17.645  0.00  0.00     0.022 A 
HETATM   23  N   UNK     0      -8.420 -21.017 -16.787  0.00  0.00    -0.361 N 
HETATM   24  C   UNK     0      -8.852 -20.776 -15.533  0.00  0.00     0.021 A 
HETATM   25  C   UNK     0     -10.058 -20.103 -15.585  0.00  0.00    -0.031 A 
HETATM   26  C   UNK     0     -10.948 -19.653 -14.445  0.00  0.00     0.051 C 
HETATM   27  C   UNK     0     -10.373 -19.920 -16.926  0.00  0.00    -0.027 A 
HETATM   28  C   UNK     0      -8.137 -21.083 -14.228  0.00  0.00     0.115 C 
HETATM   29  H   UNK     0      -5.597 -21.280 -15.707  0.00  0.00     0.165 HD
HETATM   30  H   UNK     0      -5.188 -18.192 -17.054  0.00  0.00     0.165 HD
HETATM   31  H   UNK     0      -7.034 -18.568 -18.326  0.00  0.00     0.165 HD
HETATM   32  H   UNK     0      -7.496 -21.591 -17.059  0.00  0.00     0.165 HD
ENDROOT
BRANCH   6  33
HETATM   33  C   UNK     0      -4.586 -17.947 -12.477  0.00  0.00     0.051 C 
BRANCH  33  34
HETATM   34  C   UNK     0      -3.778 -18.581 -11.370  0.00  0.00     0.114 C 
BRANCH  34  35
HETATM   35  C   UNK     0      -2.557 -17.748 -11.174  0.00  0.00     0.139 C 
HETATM   36  O   UNK     0      -1.438 -18.297 -10.957  0.00  0.00    -0.650 OA
BRANCH  35  37
HETATM   37  O   UNK     0      -2.583 -16.359 -11.221  0.00  0.00    -0.776 OA
HETATM   38  H   UNK     0      -2.871 -15.857 -12.045  0.00  0.00     0.167 HD
ENDBRANCH  35  37
ENDBRANCH  34  35
ENDBRANCH  33  34
ENDBRANCH   6  33
BRANCH  27  39
HETATM   39  C   UNK     0     -11.643 -19.291 -17.382  0.00  0.00     0.051 C 
BRANCH  39  40
HETATM   40  C   UNK     0     -12.732 -20.164 -17.820  0.00  0.00     0.114 C 
BRANCH  40  41
HETATM   41  C   UNK     0     -14.050 -20.108 -17.229  0.00  0.00     0.139 C 
HETATM   42  O   UNK     0     -14.320 -20.576 -16.115  0.00  0.00    -0.650 OA
BRANCH  41  43
HETATM   43  O   UNK     0     -15.106 -19.484 -17.953  0.00  0.00    -0.776 OA
HETATM   44  H   UNK     0     -14.939 -19.402 -18.949  0.00  0.00     0.167 HD
ENDBRANCH  41  43
ENDBRANCH  40  41
ENDBRANCH  39  40
ENDBRANCH  27  39
BRANCH  11  45
HETATM   45  C   UNK     0      -1.674 -19.893 -19.747  0.00  0.00     0.051 C 
BRANCH  45  46
HETATM   46  C   UNK     0      -0.645 -18.876 -20.081  0.00  0.00     0.114 C 
BRANCH  46  47
HETATM   47  C   UNK     0       0.687 -19.530 -19.934  0.00  0.00     0.139 C 
HETATM   48  O   UNK     0       1.029 -20.374 -20.775  0.00  0.00    -0.650 OA
BRANCH  47  49
HETATM   49  O   UNK     0       1.517 -19.207 -18.890  0.00  0.00    -0.776 OA
HETATM   50  H   UNK     0       2.271 -18.517 -18.987  0.00  0.00     0.167 HD
ENDBRANCH  47  49
ENDBRANCH  46  47
ENDBRANCH  45  46
ENDBRANCH  11  45
BRANCH  18  51
HETATM   51  C   UNK     0      -8.128 -21.520 -21.857  0.00  0.00     0.051 C 
BRANCH  51  52
HETATM   52  C   UNK     0      -8.721 -20.670 -22.971  0.00  0.00     0.114 C 
BRANCH  52  53
HETATM   53  C   UNK     0     -10.081 -20.202 -22.641  0.00  0.00     0.139 C 
HETATM   54  O   UNK     0     -10.995 -21.023 -22.464  0.00  0.00    -0.650 OA
BRANCH  53  55
HETATM   55  O   UNK     0     -10.329 -18.855 -22.533  0.00  0.00    -0.776 OA
HETATM   56  H   UNK     0     -11.152 -18.387 -22.831  0.00  0.00     0.167 HD
ENDBRANCH  53  55
ENDBRANCH  52  53
ENDBRANCH  51  52
ENDBRANCH  18  51
TORSDOF 16
ENDMDL
MODEL 18
REMARK VINA RESULT:      -7.3     28.368     33.204
REMARK  16 active torsions:
REMARK  status: ('A' for Active; 'I' for Inactive)
REMARK    1  A    between atoms: C_6  and  C_7 
REMARK    2  A    between atoms: C_7  and  C_8 
REMARK    3  A    between atoms: C_8  and  C_9 
REMARK    4  A    between atoms: C_9  and  O_11 
REMARK    5  A    between atoms: C_16  and  C_17 
REMARK    6  A    between atoms: C_17  and  C_18 
REMARK    7  A    between atoms: C_18  and  C_19 
REMARK    8  A    between atoms: C_19  and  O_21 
REMARK    9  A    between atoms: C_28  and  C_29 
REMARK   10  A    between atoms: C_29  and  C_30 
REMARK   11  A    between atoms: C_30  and  C_31 
REMARK   12  A    between atoms: C_31  and  O_33 
REMARK   13  A    between atoms: C_42  and  C_43 
REMARK   14  A    between atoms: C_43  and  C_44 
REMARK   15  A    between atoms: C_44  and  C_45 
REMARK   16  A    between atoms: C_45  and  O_47 
ROOT
HETATM    1  C   UNK     0       0.217   9.389 -12.430  0.00  0.00     0.051 C 
HETATM    2  C   UNK     0       1.141   8.931 -11.319  0.00  0.00    -0.031 A 
HETATM    3  C   UNK     0       2.227   8.072 -11.376  0.00  0.00     0.021 A 
HETATM    4  N   UNK     0       2.738   7.924 -10.130  0.00  0.00    -0.361 N 
HETATM    5  C   UNK     0       2.008   8.678  -9.283  0.00  0.00     0.022 A 
HETATM    6  C   UNK     0       0.998   9.319  -9.993  0.00  0.00    -0.027 A 
HETATM    7  C   UNK     0       2.212   8.938  -7.823  0.00  0.00     0.115 C 
HETATM    8  C   UNK     0       3.638   9.194  -7.369  0.00  0.00     0.021 A 
HETATM    9  N   UNK     0       4.619   9.838  -8.019  0.00  0.00    -0.361 N 
HETATM   10  C   UNK     0       5.745   9.744  -7.279  0.00  0.00     0.022 A 
HETATM   11  C   UNK     0       5.478   9.027  -6.116  0.00  0.00    -0.027 A 
HETATM   12  C   UNK     0       4.153   8.677  -6.167  0.00  0.00    -0.031 A 
HETATM   13  C   UNK     0       3.416   7.889  -5.107  0.00  0.00     0.051 C 
HETATM   14  C   UNK     0       7.122  10.277  -7.661  0.00  0.00     0.115 C 
HETATM   15  C   UNK     0       7.686   9.669  -8.936  0.00  0.00     0.021 A 
HETATM   16  N   UNK     0       7.141   9.689 -10.166  0.00  0.00    -0.361 N 
HETATM   17  C   UNK     0       7.911   8.984 -10.998  0.00  0.00     0.022 A 
HETATM   18  C   UNK     0       9.015   8.488 -10.277  0.00  0.00    -0.027 A 
HETATM   19  C   UNK     0       8.863   8.925  -8.987  0.00  0.00    -0.031 A 
HETATM   20  C   UNK     0       9.860   8.643  -7.877  0.00  0.00     0.051 C 
HETATM   21  C   UNK     0       7.707   8.643 -12.457  0.00  0.00     0.115 C 
HETATM   22  C   UNK     0       6.289   8.429 -12.932  0.00  0.00     0.022 A 
HETATM   23  N   UNK     0       5.290   7.795 -12.305  0.00  0.00    -0.361 N 
HETATM   24  C   UNK     0       4.162   7.969 -13.022  0.00  0.00     0.021 A 
HETATM   25  C   UNK     0       4.443   8.724 -14.144  0.00  0.00    -0.031 A 
HETATM   26  C   UNK     0       3.517   9.147 -15.265  0.00  0.00     0.051 C 
HETATM   27  C   UNK     0       5.798   9.031 -14.109  0.00  0.00    -0.027 A 
HETATM   28  C   UNK     0       2.756   7.515 -12.667  0.00  0.00     0.115 C 
HETATM   29  H   UNK     0       3.588   7.258  -9.853  0.00  0.00     0.165 HD
HETATM   30  H   UNK     0       4.509  10.404  -8.976  0.00  0.00     0.165 HD
HETATM   31  H   UNK     0       6.220  10.253 -10.466  0.00  0.00     0.165 HD
HETATM   32  H   UNK     0       5.381   7.182 -11.371  0.00  0.00     0.165 HD
ENDROOT
BRANCH   6  33
HETATM   33  C   UNK     0      -0.080  10.258  -9.513  0.00  0.00     0.051 C 
BRANCH  33  34
HETATM   34  C   UNK     0      -1.393   9.529  -9.353  0.00  0.00     0.114 C 
BRANCH  34  35
HETATM   35  C   UNK     0      -1.605   9.305  -7.894  0.00  0.00     0.139 C 
HETATM   36  O   UNK     0      -0.866   9.886  -7.047  0.00  0.00    -0.650 OA
BRANCH  35  37
HETATM   37  O   UNK     0      -2.601   8.472  -7.401  0.00  0.00    -0.776 OA
HETATM   38  H   UNK     0      -3.545   8.500  -7.753  0.00  0.00     0.167 HD
ENDBRANCH  35  37
ENDBRANCH  34  35
ENDBRANCH  33  34
ENDBRANCH   6  33
BRANCH  27  39
HETATM   39  C   UNK     0       6.489   9.778 -15.195  0.00  0.00     0.051 C 
BRANCH  39  40
HETATM   40  C   UNK     0       6.148  11.187 -15.393  0.00  0.00     0.114 C 
BRANCH  40  41
HETATM   41  C   UNK     0       5.850  11.731 -16.699  0.00  0.00     0.139 C 
HETATM   42  O   UNK     0       5.839  12.944 -16.948  0.00  0.00    -0.650 OA
BRANCH  41  43
HETATM   43  O   UNK     0       5.550  10.838 -17.767  0.00  0.00    -0.776 OA
HETATM   44  H   UNK     0       6.362  10.477 -18.252  0.00  0.00     0.167 HD
ENDBRANCH  41  43
ENDBRANCH  40  41
ENDBRANCH  39  40
ENDBRANCH  27  39
BRANCH  11  45
HETATM   45  C   UNK     0       6.414   8.676  -4.991  0.00  0.00     0.051 C 
BRANCH  45  46
HETATM   46  C   UNK     0       6.808   9.833  -4.147  0.00  0.00     0.114 C 
BRANCH  46  47
HETATM   47  C   UNK     0       8.012   9.423  -3.369  0.00  0.00     0.139 C 
HETATM   48  O   UNK     0       8.408  10.161  -2.457  0.00  0.00    -0.650 OA
BRANCH  47  49
HETATM   49  O   UNK     0       8.670   8.253  -3.657  0.00  0.00    -0.776 OA
HETATM   50  H   UNK     0       9.172   8.114  -4.542  0.00  0.00     0.167 HD
ENDBRANCH  47  49
ENDBRANCH  46  47
ENDBRANCH  45  46
ENDBRANCH  11  45
BRANCH  18  51
HETATM   51  C   UNK     0      10.163   7.660 -10.794  0.00  0.00     0.051 C 
BRANCH  51  52
HETATM   52  C   UNK     0      11.090   8.624 -11.519  0.00  0.00     0.114 C 
BRANCH  52  53
HETATM   53  C   UNK     0      11.636   8.036 -12.757  0.00  0.00     0.139 C 
HETATM   54  O   UNK     0      10.902   7.878 -13.746  0.00  0.00    -0.650 OA
BRANCH  53  55
HETATM   55  O   UNK     0      12.956   7.660 -12.807  0.00  0.00    -0.776 OA
HETATM   56  H   UNK     0      13.737   8.246 -12.623  0.00  0.00     0.167 HD
ENDBRANCH  53  55
ENDBRANCH  52  53
ENDBRANCH  51  52
ENDBRANCH  18  51
TORSDOF 16
ENDMDL
MODEL 19
REMARK VINA RESULT:      -7.3     13.576     16.990
REMARK  16 active torsions:
REMARK  status: ('A' for Active; 'I' for Inactive)
REMARK    1  A    between atoms: C_6  and  C_7 
REMARK    2  A    between atoms: C_7  and  C_8 
REMARK    3  A    between atoms: C_8  and  C_9 
REMARK    4  A    between atoms: C_9  and  O_11 
REMARK    5  A    between atoms: C_16  and  C_17 
REMARK    6  A    between atoms: C_17  and  C_18 
REMARK    7  A    between atoms: C_18  and  C_19 
REMARK    8  A    between atoms: C_19  and  O_21 
REMARK    9  A    between atoms: C_28  and  C_29 
REMARK   10  A    between atoms: C_29  and  C_30 
REMARK   11  A    between atoms: C_30  and  C_31 
REMARK   12  A    between atoms: C_31  and  O_33 
REMARK   13  A    between atoms: C_42  and  C_43 
REMARK   14  A    between atoms: C_43  and  C_44 
REMARK   15  A    between atoms: C_44  and  C_45 
REMARK   16  A    between atoms: C_45  and  O_47 
ROOT
HETATM    1  C   UNK     0     -11.249 -19.512 -16.979  0.00  0.00     0.051 C 
HETATM    2  C   UNK     0     -10.051 -19.928 -16.150  0.00  0.00    -0.031 A 
HETATM    3  C   UNK     0      -8.966 -20.714 -16.506  0.00  0.00     0.021 A 
HETATM    4  N   UNK     0      -8.150 -20.850 -15.434  0.00  0.00    -0.361 N 
HETATM    5  C   UNK     0      -8.687 -20.161 -14.406  0.00  0.00     0.022 A 
HETATM    6  C   UNK     0      -9.878 -19.574 -14.818  0.00  0.00    -0.027 A 
HETATM    7  C   UNK     0      -8.137 -19.914 -13.035  0.00  0.00     0.115 C 
HETATM    8  C   UNK     0      -6.660 -19.574 -12.944  0.00  0.00     0.021 A 
HETATM    9  N   UNK     0      -5.913 -18.856 -13.796  0.00  0.00    -0.361 N 
HETATM   10  C   UNK     0      -4.635 -18.890 -13.365  0.00  0.00     0.022 A 
HETATM   11  C   UNK     0      -4.557 -19.643 -12.197  0.00  0.00    -0.027 A 
HETATM   12  C   UNK     0      -5.830 -20.077 -11.926  0.00  0.00    -0.031 A 
HETATM   13  C   UNK     0      -6.229 -20.930 -10.743  0.00  0.00     0.051 C 
HETATM   14  C   UNK     0      -3.431 -18.261 -14.061  0.00  0.00     0.115 C 
HETATM   15  C   UNK     0      -3.172 -18.808 -15.456  0.00  0.00     0.021 A 
HETATM   16  N   UNK     0      -4.009 -18.802 -16.510  0.00  0.00    -0.361 N 
HETATM   17  C   UNK     0      -3.433 -19.440 -17.531  0.00  0.00     0.022 A 
HETATM   18  C   UNK     0      -2.156 -19.876 -17.126  0.00  0.00    -0.027 A 
HETATM   19  C   UNK     0      -2.004 -19.473 -15.824  0.00  0.00    -0.031 A 
HETATM   20  C   UNK     0      -0.745 -19.709 -15.010  0.00  0.00     0.051 C 
HETATM   21  C   UNK     0      -3.977 -19.768 -18.903  0.00  0.00     0.115 C 
HETATM   22  C   UNK     0      -5.454 -20.065 -19.016  0.00  0.00     0.022 A 
HETATM   23  N   UNK     0      -6.224 -20.774 -18.180  0.00  0.00    -0.361 N 
HETATM   24  C   UNK     0      -7.505 -20.661 -18.586  0.00  0.00     0.021 A 
HETATM   25  C   UNK     0      -7.560 -19.869 -19.716  0.00  0.00    -0.031 A 
HETATM   26  C   UNK     0      -8.761 -19.488 -20.556  0.00  0.00     0.051 C 
HETATM   27  C   UNK     0      -6.259 -19.475 -20.011  0.00  0.00    -0.027 A 
HETATM   28  C   UNK     0      -8.747 -21.211 -17.906  0.00  0.00     0.115 C 
HETATM   29  H   UNK     0      -7.220 -21.464 -15.400  0.00  0.00     0.165 HD
HETATM   30  H   UNK     0      -6.294 -18.281 -14.676  0.00  0.00     0.165 HD
HETATM   31  H   UNK     0      -5.007 -18.294 -16.550  0.00  0.00     0.165 HD
HETATM   32  H   UNK     0      -5.865 -21.396 -17.320  0.00  0.00     0.165 HD
ENDROOT
BRANCH   6  33
HETATM   33  C   UNK     0     -10.853 -18.716 -14.053  0.00  0.00     0.051 C 
BRANCH  33  34
HETATM   34  C   UNK     0     -11.903 -19.569 -13.380  0.00  0.00     0.114 C 
BRANCH  34  35
HETATM   35  C   UNK     0     -12.313 -18.868 -12.130  0.00  0.00     0.139 C 
HETATM   36  O   UNK     0     -13.389 -19.186 -11.545  0.00  0.00    -0.650 OA
BRANCH  35  37
HETATM   37  O   UNK     0     -11.555 -17.856 -11.554  0.00  0.00    -0.776 OA
HETATM   38  H   UNK     0     -11.909 -17.281 -10.807  0.00  0.00     0.167 HD
ENDBRANCH  35  37
ENDBRANCH  34  35
ENDBRANCH  33  34
ENDBRANCH   6  33
BRANCH  27  39
HETATM   39  C   UNK     0      -5.909 -18.665 -21.210  0.00  0.00     0.051 C 
BRANCH  39  40
HETATM   40  C   UNK     0      -5.731 -17.223 -21.045  0.00  0.00     0.114 C 
BRANCH  40  41
HETATM   41  C   UNK     0      -6.531 -16.260 -21.766  0.00  0.00     0.139 C 
HETATM   42  O   UNK     0      -7.754 -16.137 -21.615  0.00  0.00    -0.650 OA
BRANCH  41  43
HETATM   43  O   UNK     0      -5.896 -15.398 -22.705  0.00  0.00    -0.776 OA
HETATM   44  H   UNK     0      -5.533 -15.868 -23.526  0.00  0.00     0.167 HD
ENDBRANCH  41  43
ENDBRANCH  40  41
ENDBRANCH  39  40
ENDBRANCH  27  39
BRANCH  11  45
HETATM   45  C   UNK     0      -3.350 -19.953 -11.354  0.00  0.00     0.051 C 
BRANCH  45  46
HETATM   46  C   UNK     0      -3.123 -18.992 -10.244  0.00  0.00     0.114 C 
BRANCH  46  47
HETATM   47  C   UNK     0      -2.039 -18.064 -10.678  0.00  0.00     0.139 C 
HETATM   48  O   UNK     0      -0.938 -18.543 -10.985  0.00  0.00    -0.650 OA
BRANCH  47  49
HETATM   49  O   UNK     0      -2.253 -16.710 -10.735  0.00  0.00    -0.776 OA
HETATM   50  H   UNK     0      -2.567 -16.244 -11.594  0.00  0.00     0.167 HD
ENDBRANCH  47  49
ENDBRANCH  46  47
ENDBRANCH  45  46
ENDBRANCH  11  45
BRANCH  18  51
HETATM   51  C   UNK     0      -1.128 -20.618 -17.941  0.00  0.00     0.051 C 
BRANCH  51  52
HETATM   52  C   UNK     0      -0.553 -19.607 -18.922  0.00  0.00     0.114 C 
BRANCH  52  53
HETATM   53  C   UNK     0       0.864 -19.882 -19.226  0.00  0.00     0.139 C 
HETATM   54  O   UNK     0       1.743 -19.079 -18.874  0.00  0.00    -0.650 OA
BRANCH  53  55
HETATM   55  O   UNK     0       1.204 -21.028 -19.904  0.00  0.00    -0.776 OA
HETATM   56  H   UNK     0       1.073 -21.958 -19.581  0.00  0.00     0.167 HD
ENDBRANCH  53  55
ENDBRANCH  52  53
ENDBRANCH  51  52
ENDBRANCH  18  51
TORSDOF 16
ENDMDL
MODEL 20
REMARK VINA RESULT:      -7.3     25.266     28.294
REMARK  16 active torsions:
REMARK  status: ('A' for Active; 'I' for Inactive)
REMARK    1  A    between atoms: C_6  and  C_7 
REMARK    2  A    between atoms: C_7  and  C_8 
REMARK    3  A    between atoms: C_8  and  C_9 
REMARK    4  A    between atoms: C_9  and  O_11 
REMARK    5  A    between atoms: C_16  and  C_17 
REMARK    6  A    between atoms: C_17  and  C_18 
REMARK    7  A    between atoms: C_18  and  C_19 
REMARK    8  A    between atoms: C_19  and  O_21 
REMARK    9  A    between atoms: C_28  and  C_29 
REMARK   10  A    between atoms: C_29  and  C_30 
REMARK   11  A    between atoms: C_30  and  C_31 
REMARK   12  A    between atoms: C_31  and  O_33 
REMARK   13  A    between atoms: C_42  and  C_43 
REMARK   14  A    between atoms: C_43  and  C_44 
REMARK   15  A    between atoms: C_44  and  C_45 
REMARK   16  A    between atoms: C_45  and  O_47 
ROOT
HETATM    1  C   UNK     0       9.853 -22.868 -10.699  0.00  0.00     0.051 C 
HETATM    2  C   UNK     0       9.237 -23.534 -11.912  0.00  0.00    -0.031 A 
HETATM    3  C   UNK     0       8.687 -24.800 -12.036  0.00  0.00     0.021 A 
HETATM    4  N   UNK     0       8.283 -24.983 -13.316  0.00  0.00    -0.361 N 
HETATM    5  C   UNK     0       8.556 -23.858 -14.008  0.00  0.00     0.022 A 
HETATM    6  C   UNK     0       9.156 -22.932 -13.161  0.00  0.00    -0.027 A 
HETATM    7  C   UNK     0       8.228 -23.509 -15.426  0.00  0.00     0.115 C 
HETATM    8  C   UNK     0       6.842 -23.888 -15.918  0.00  0.00     0.021 A 
HETATM    9  N   UNK     0       5.684 -23.885 -15.239  0.00  0.00    -0.361 N 
HETATM   10  C   UNK     0       4.724 -24.385 -16.046  0.00  0.00     0.022 A 
HETATM   11  C   UNK     0       5.277 -24.711 -17.281  0.00  0.00    -0.027 A 
HETATM   12  C   UNK     0       6.611 -24.400 -17.207  0.00  0.00    -0.031 A 
HETATM   13  C   UNK     0       7.614 -24.581 -18.324  0.00  0.00     0.051 C 
HETATM   14  C   UNK     0       3.265 -24.625 -15.669  0.00  0.00     0.115 C 
HETATM   15  C   UNK     0       3.078 -25.610 -14.526  0.00  0.00     0.021 A 
HETATM   16  N   UNK     0       3.570 -25.520 -13.276  0.00  0.00    -0.361 N 
HETATM   17  C   UNK     0       3.240 -26.619 -12.595  0.00  0.00     0.022 A 
HETATM   18  C   UNK     0       2.489 -27.462 -13.438  0.00  0.00    -0.027 A 
HETATM   19  C   UNK     0       2.393 -26.817 -14.644  0.00  0.00    -0.031 A 
HETATM   20  C   UNK     0       1.629 -27.365 -15.836  0.00  0.00     0.051 C 
HETATM   21  C   UNK     0       3.606 -27.038 -11.189  0.00  0.00     0.115 C 
HETATM   22  C   UNK     0       4.965 -26.629 -10.671  0.00  0.00     0.022 A 
HETATM   23  N   UNK     0       6.134 -26.618 -11.325  0.00  0.00    -0.361 N 
HETATM   24  C   UNK     0       7.059 -26.044 -10.529  0.00  0.00     0.021 A 
HETATM   25  C   UNK     0       6.474 -25.686  -9.330  0.00  0.00    -0.031 A 
HETATM   26  C   UNK     0       7.110 -25.051  -8.111  0.00  0.00     0.051 C 
HETATM   27  C   UNK     0       5.134 -26.051  -9.397  0.00  0.00    -0.027 A 
HETATM   28  C   UNK     0       8.506 -25.726 -10.866  0.00  0.00     0.115 C 
HETATM   29  H   UNK     0       7.845 -25.920 -13.730  0.00  0.00     0.165 HD
HETATM   30  H   UNK     0       5.531 -23.484 -14.208  0.00  0.00     0.165 HD
HETATM   31  H   UNK     0       4.121 -24.641 -12.850  0.00  0.00     0.165 HD
HETATM   32  H   UNK     0       6.327 -27.055 -12.339  0.00  0.00     0.165 HD
ENDROOT
BRANCH   6  33
HETATM   33  C   UNK     0       9.653 -21.537 -13.444  0.00  0.00     0.051 C 
BRANCH  33  34
HETATM   34  C   UNK     0      11.162 -21.486 -13.394  0.00  0.00     0.114 C 
BRANCH  34  35
HETATM   35  C   UNK     0      11.557 -20.052 -13.290  0.00  0.00     0.139 C 
HETATM   36  O   UNK     0      10.674 -19.145 -13.305  0.00  0.00    -0.650 OA
BRANCH  35  37
HETATM   37  O   UNK     0      12.881 -19.646 -13.173  0.00  0.00    -0.776 OA
HETATM   38  H   UNK     0      13.640 -20.181 -13.562  0.00  0.00     0.167 HD
ENDBRANCH  35  37
ENDBRANCH  34  35
ENDBRANCH  33  34
ENDBRANCH   6  33
BRANCH  27  39
HETATM   39  C   UNK     0       4.192 -25.887  -8.256  0.00  0.00     0.051 C 
BRANCH  39  40
HETATM   40  C   UNK     0       3.197 -24.816  -8.326  0.00  0.00     0.114 C 
BRANCH  40  41
HETATM   41  C   UNK     0       3.554 -23.454  -8.651  0.00  0.00     0.139 C 
HETATM   42  O   UNK     0       3.085 -22.837  -9.618  0.00  0.00    -0.650 OA
BRANCH  41  43
HETATM   43  O   UNK     0       4.492 -22.769  -7.828  0.00  0.00    -0.776 OA
HETATM   44  H   UNK     0       5.373 -23.254  -7.705  0.00  0.00     0.167 HD
ENDBRANCH  41  43
ENDBRANCH  40  41
ENDBRANCH  39  40
ENDBRANCH  27  39
BRANCH  11  45
HETATM   45  C   UNK     0       4.599 -25.288 -18.494  0.00  0.00     0.051 C 
BRANCH  45  46
HETATM   46  C   UNK     0       3.595 -24.385 -19.114  0.00  0.00     0.114 C 
BRANCH  46  47
HETATM   47  C   UNK     0       4.342 -23.256 -19.738  0.00  0.00     0.139 C 
HETATM   48  O   UNK     0       4.153 -22.110 -19.306  0.00  0.00    -0.650 OA
BRANCH  47  49
HETATM   49  O   UNK     0       5.221 -23.478 -20.768  0.00  0.00    -0.776 OA
HETATM   50  H   UNK     0       6.044 -24.083 -20.662  0.00  0.00     0.167 HD
ENDBRANCH  47  49
ENDBRANCH  46  47
ENDBRANCH  45  46
ENDBRANCH  11  45
BRANCH  18  51
HETATM   51  C   UNK     0       1.877 -28.798 -13.106  0.00  0.00     0.051 C 
BRANCH  51  52
HETATM   52  C   UNK     0       0.543 -28.501 -12.438  0.00  0.00     0.114 C 
BRANCH  52  53
HETATM   53  C   UNK     0       0.305 -29.377 -11.274  0.00  0.00     0.139 C 
HETATM   54  O   UNK     0      -0.529 -30.293 -11.346  0.00  0.00    -0.650 OA
BRANCH  53  55
HETATM   55  O   UNK     0       1.008 -29.169 -10.112  0.00  0.00    -0.776 OA
HETATM   56  H   UNK     0       1.564 -28.374  -9.900  0.00  0.00     0.167 HD
ENDBRANCH  53  55
ENDBRANCH  52  53
ENDBRANCH  51  52
ENDBRANCH  18  51
TORSDOF 16
ENDMDL
