MODEL 1
REMARK VINA RESULT:      -9.7      0.000      0.000
REMARK  28 active torsions:
REMARK  status: ('A' for Active; 'I' for Inactive)
REMARK    1  A    between atoms: C_2  and  O_3 
REMARK    2  A    between atoms: C_2  and  C_4 
REMARK    3  A    between atoms: C_4  and  C_5 
REMARK    4  A    between atoms: C_5  and  C_6 
REMARK    5  A    between atoms: C_7  and  C_8 
REMARK    6  A    between atoms: C_8  and  C_9 
REMARK    7  A    between atoms: C_9  and  O_11 
REMARK    8  A    between atoms: C_28  and  C_29 
REMARK    9  A    between atoms: C_29  and  C_30 
REMARK   10  A    between atoms: C_30  and  O_32 
REMARK   11  A    between atoms: C_33  and  C_34 
REMARK   12  A    between atoms: C_34  and  C_35 
REMARK   13  A    between atoms: C_35  and  C_36 
REMARK   14  A    between atoms: C_36  and  O_38 
REMARK   15  A    between atoms: C_39  and  C_40 
REMARK   16  A    between atoms: C_40  and  C_41 
REMARK   17  A    between atoms: C_41  and  C_42 
REMARK   18  A    between atoms: C_42  and  O_44 
REMARK   19  A    between atoms: C_45  and  C_46 
REMARK   20  A    between atoms: C_46  and  C_47 
REMARK   21  A    between atoms: C_47  and  O_49 
REMARK   22  A    between atoms: C_50  and  C_51 
REMARK   23  A    between atoms: C_51  and  C_52 
REMARK   24  A    between atoms: C_52  and  O_54 
REMARK   25  A    between atoms: C_55  and  C_56 
REMARK   26  A    between atoms: C_56  and  C_57 
REMARK   27  A    between atoms: C_57  and  C_58 
REMARK   28  A    between atoms: C_58  and  O_60 
ROOT
ATOM      1  O   UNK d   0      10.245 -12.482   3.918  0.00  0.00    -0.650 OA
ATOM      2  C   UNK d   0      10.749 -12.210   2.806  0.00  0.00     0.139 C 
ENDROOT
BRANCH   2   3
ATOM      3  O   UNK d   0      12.054 -11.782   2.744  0.00  0.00    -0.776 OA
ATOM      4  H   UNK d   0      12.828 -12.449   2.731  0.00  0.00     0.167 HD
ENDBRANCH   2   3
BRANCH   2   5
ATOM      5  C   UNK d   0       9.939 -12.349   1.563  0.00  0.00     0.115 C 
BRANCH   5   6
ATOM      6  C   UNK d   0       9.913 -13.787   1.120  0.00  0.00     0.052 C 
BRANCH   6   7
ATOM      7  C   UNK d   0       9.911 -13.932  -0.383  0.00  0.00    -0.020 A 
ATOM      8  C   UNK d   0       9.571 -14.984  -1.083  0.00  0.00    -0.011 A 
ATOM      9  C   UNK d   0       9.738 -14.656  -2.489  0.00  0.00     0.067 A 
ATOM     10  C   UNK d   0       9.534 -15.312  -3.713  0.00  0.00     0.062 C 
ATOM     11  N   UNK d   0      10.189 -13.385  -2.553  0.00  0.00    -0.248 NA
ATOM     12  C   UNK d   0       9.488 -14.734  -4.987  0.00  0.00     0.041 A 
ATOM     13  N   UNK d   0      10.255 -13.787  -5.559  0.00  0.00    -0.355 N 
ATOM     14  C   UNK d   0       8.459 -15.112  -5.868  0.00  0.00    -0.022 A 
ATOM     15  C   UNK d   0       9.735 -13.549  -6.778  0.00  0.00     0.042 A 
ATOM     16  H   UNK d   0      11.158 -13.310  -5.118  0.00  0.00     0.166 HD
ATOM     17  C   UNK d   0      10.147 -12.657  -7.789  0.00  0.00     0.062 C 
ATOM     18  C   UNK d   0       8.607 -14.361  -7.008  0.00  0.00    -0.013 A 
ATOM     19  C   UNK d   0      10.533 -11.346  -7.677  0.00  0.00     0.067 A 
ATOM     20  N   UNK d   0      10.744 -10.881  -6.444  0.00  0.00    -0.248 NA
ATOM     21  C   UNK d   0      10.777 -10.247  -8.597  0.00  0.00    -0.011 A 
ATOM     22  C   UNK d   0      11.108  -9.557  -6.489  0.00  0.00     0.066 A 
ATOM     23  C   UNK d   0      11.396  -8.955  -5.274  0.00  0.00     0.062 C 
ATOM     24  C   UNK d   0      11.109  -9.202  -7.895  0.00  0.00    -0.020 A 
ATOM     25  C   UNK d   0      11.450  -9.556  -4.007  0.00  0.00     0.041 A 
ATOM     26  N   UNK d   0      10.678 -10.486  -3.432  0.00  0.00    -0.355 N 
ATOM     27  C   UNK d   0      12.485  -9.179  -3.124  0.00  0.00    -0.022 A 
ATOM     28  C   UNK d   0      11.189 -10.719  -2.213  0.00  0.00     0.042 A 
ATOM     29  H   UNK d   0       9.764 -10.956  -3.873  0.00  0.00     0.166 HD
ATOM     30  C   UNK d   0      10.784 -11.596  -1.194  0.00  0.00     0.062 C 
ATOM     31  C   UNK d   0      12.329  -9.911  -1.987  0.00  0.00    -0.013 A 
ATOM     32  C   UNK d   0      10.314 -12.893  -1.320  0.00  0.00     0.066 A 
BRANCH   8  33
ATOM     33  C   UNK d   0       9.105 -16.281  -0.561  0.00  0.00     0.151 C 
BRANCH  33  34
ATOM     34  C   UNK d   0       9.726 -17.429  -1.246  0.00  0.00     0.143 C 
ATOM     35  O   UNK d   0      10.952 -17.480  -1.418  0.00  0.00    -0.650 OA
BRANCH  34  36
ATOM     36  O   UNK d   0       8.931 -18.455  -1.701  0.00  0.00    -0.776 OA
ATOM     37  H   UNK d   0       8.338 -18.997  -1.057  0.00  0.00     0.167 HD
ENDBRANCH  34  36
ENDBRANCH  33  34
ENDBRANCH   8  33
BRANCH  31  38
ATOM     38  C   UNK d   0      13.213  -9.857  -0.764  0.00  0.00     0.151 C 
BRANCH  38  39
ATOM     39  C   UNK d   0      14.529 -10.414  -0.997  0.00  0.00     0.143 C 
ATOM     40  O   UNK d   0      14.715 -11.394  -1.740  0.00  0.00    -0.650 OA
BRANCH  39  41
ATOM     41  O   UNK d   0      15.637  -9.839  -0.375  0.00  0.00    -0.776 OA
ATOM     42  H   UNK d   0      16.535 -10.317  -0.500  0.00  0.00     0.167 HD
ENDBRANCH  39  41
ENDBRANCH  38  39
ENDBRANCH  31  38
BRANCH  27  43
ATOM     43  C   UNK d   0      13.590  -8.171  -3.318  0.00  0.00     0.052 C 
BRANCH  43  44
ATOM     44  C   UNK d   0      13.115  -6.755  -3.262  0.00  0.00     0.115 C 
BRANCH  44  45
ATOM     45  C   UNK d   0      14.153  -5.988  -2.525  0.00  0.00     0.139 C 
ATOM     46  O   UNK d   0      15.182  -6.599  -2.145  0.00  0.00    -0.650 OA
BRANCH  45  47
ATOM     47  O   UNK d   0      14.034  -4.643  -2.250  0.00  0.00    -0.776 OA
ATOM     48  H   UNK d   0      14.277  -4.234  -1.334  0.00  0.00     0.167 HD
ENDBRANCH  45  47
ENDBRANCH  44  45
ENDBRANCH  43  44
ENDBRANCH  27  43
BRANCH  24  49
ATOM     49  C   UNK d   0      11.479  -7.880  -8.428  0.00  0.00     0.052 C 
BRANCH  49  50
ATOM     50  C   UNK d   0      11.840  -6.943  -7.304  0.00  0.00     0.115 C 
BRANCH  50  51
ATOM     51  C   UNK d   0      11.550  -5.529  -7.498  0.00  0.00     0.139 C 
ATOM     52  O   UNK d   0      10.728  -4.904  -6.787  0.00  0.00    -0.650 OA
BRANCH  51  53
ATOM     53  O   UNK d   0      12.197  -4.827  -8.503  0.00  0.00    -0.776 OA
ATOM     54  H   UNK d   0      12.565  -3.918  -8.287  0.00  0.00     0.167 HD
ENDBRANCH  51  53
ENDBRANCH  50  51
ENDBRANCH  49  50
ENDBRANCH  24  49
BRANCH  21  55
ATOM     55  C   UNK d   0      10.657 -10.358 -10.081  0.00  0.00     0.151 C 
BRANCH  55  56
ATOM     56  C   UNK d   0      11.871 -10.921 -10.691  0.00  0.00     0.143 C 
ATOM     57  O   UNK d   0      12.035 -12.145 -10.863  0.00  0.00    -0.650 OA
BRANCH  56  58
ATOM     58  O   UNK d   0      12.869 -10.033 -11.089  0.00  0.00    -0.776 OA
ATOM     59  H   UNK d   0      13.174 -10.131 -12.074  0.00  0.00     0.167 HD
ENDBRANCH  56  58
ENDBRANCH  55  56
ENDBRANCH  21  55
BRANCH  18  60
ATOM     60  C   UNK d   0       7.709 -14.437  -8.217  0.00  0.00     0.151 C 
BRANCH  60  61
ATOM     61  C   UNK d   0       8.358 -15.378  -9.143  0.00  0.00     0.143 C 
ATOM     62  O   UNK d   0       8.788 -16.501  -8.879  0.00  0.00    -0.650 OA
BRANCH  61  63
ATOM     63  O   UNK d   0       8.489 -14.918 -10.475  0.00  0.00    -0.776 OA
ATOM     64  H   UNK d   0       7.691 -14.851 -11.081  0.00  0.00     0.167 HD
ENDBRANCH  61  63
ENDBRANCH  60  61
ENDBRANCH  18  60
BRANCH  14  65
ATOM     65  C   UNK d   0       7.416 -16.188  -5.756  0.00  0.00     0.052 C 
BRANCH  65  66
ATOM     66  C   UNK d   0       7.954 -17.549  -6.023  0.00  0.00     0.115 C 
BRANCH  66  67
ATOM     67  C   UNK d   0       8.189 -18.449  -4.929  0.00  0.00     0.139 C 
ATOM     68  O   UNK d   0       9.404 -18.716  -4.605  0.00  0.00    -0.650 OA
BRANCH  67  69
ATOM     69  O   UNK d   0       7.240 -19.099  -4.141  0.00  0.00    -0.776 OA
ATOM     70  H   UNK d   0       6.861 -18.552  -3.354  0.00  0.00     0.167 HD
ENDBRANCH  67  69
ENDBRANCH  66  67
ENDBRANCH  65  66
ENDBRANCH  14  65
ENDBRANCH   6   7
ENDBRANCH   5   6
ENDBRANCH   2   5
TORSDOF 28
ENDMDL
MODEL 2
REMARK VINA RESULT:      -9.7      1.629      9.726
REMARK  28 active torsions:
REMARK  status: ('A' for Active; 'I' for Inactive)
REMARK    1  A    between atoms: C_2  and  O_3 
REMARK    2  A    between atoms: C_2  and  C_4 
REMARK    3  A    between atoms: C_4  and  C_5 
REMARK    4  A    between atoms: C_5  and  C_6 
REMARK    5  A    between atoms: C_7  and  C_8 
REMARK    6  A    between atoms: C_8  and  C_9 
REMARK    7  A    between atoms: C_9  and  O_11 
REMARK    8  A    between atoms: C_28  and  C_29 
REMARK    9  A    between atoms: C_29  and  C_30 
REMARK   10  A    between atoms: C_30  and  O_32 
REMARK   11  A    between atoms: C_33  and  C_34 
REMARK   12  A    between atoms: C_34  and  C_35 
REMARK   13  A    between atoms: C_35  and  C_36 
REMARK   14  A    between atoms: C_36  and  O_38 
REMARK   15  A    between atoms: C_39  and  C_40 
REMARK   16  A    between atoms: C_40  and  C_41 
REMARK   17  A    between atoms: C_41  and  C_42 
REMARK   18  A    between atoms: C_42  and  O_44 
REMARK   19  A    between atoms: C_45  and  C_46 
REMARK   20  A    between atoms: C_46  and  C_47 
REMARK   21  A    between atoms: C_47  and  O_49 
REMARK   22  A    between atoms: C_50  and  C_51 
REMARK   23  A    between atoms: C_51  and  C_52 
REMARK   24  A    between atoms: C_52  and  O_54 
REMARK   25  A    between atoms: C_55  and  C_56 
REMARK   26  A    between atoms: C_56  and  C_57 
REMARK   27  A    between atoms: C_57  and  C_58 
REMARK   28  A    between atoms: C_58  and  O_60 
ROOT
ATOM      1  O   UNK d   0       6.067 -17.022  -8.988  0.00  0.00    -0.650 OA
ATOM      2  C   UNK d   0       7.293 -17.274  -9.011  0.00  0.00     0.139 C 
ENDROOT
BRANCH   2   3
ATOM      3  O   UNK d   0       7.733 -18.425  -9.619  0.00  0.00    -0.776 OA
ATOM      4  H   UNK d   0       8.655 -18.813  -9.409  0.00  0.00     0.167 HD
ENDBRANCH   2   3
BRANCH   2   5
ATOM      5  C   UNK d   0       8.262 -16.332  -8.382  0.00  0.00     0.115 C 
BRANCH   5   6
ATOM      6  C   UNK d   0       8.056 -14.942  -8.921  0.00  0.00     0.052 C 
BRANCH   6   7
ATOM      7  C   UNK d   0       8.922 -13.917  -8.228  0.00  0.00    -0.020 A 
ATOM      8  C   UNK d   0       9.500 -12.870  -8.760  0.00  0.00    -0.011 A 
ATOM      9  C   UNK d   0      10.234 -12.185  -7.709  0.00  0.00     0.067 A 
ATOM     10  C   UNK d   0      11.022 -11.028  -7.613  0.00  0.00     0.062 C 
ATOM     11  N   UNK d   0      10.052 -12.887  -6.571  0.00  0.00    -0.248 NA
ATOM     12  C   UNK d   0      11.422 -10.370  -6.445  0.00  0.00     0.041 A 
ATOM     13  N   UNK d   0      11.882 -10.846  -5.273  0.00  0.00    -0.355 N 
ATOM     14  C   UNK d   0      11.308  -8.969  -6.380  0.00  0.00    -0.022 A 
ATOM     15  C   UNK d   0      12.054  -9.785  -4.462  0.00  0.00     0.042 A 
ATOM     16  H   UNK d   0      12.099 -11.909  -5.029  0.00  0.00     0.166 HD
ATOM     17  C   UNK d   0      12.513  -9.716  -3.132  0.00  0.00     0.062 C 
ATOM     18  C   UNK d   0      11.704  -8.590  -5.121  0.00  0.00    -0.013 A 
ATOM     19  C   UNK d   0      12.173 -10.502  -2.060  0.00  0.00     0.067 A 
ATOM     20  N   UNK d   0      11.467 -11.605  -2.320  0.00  0.00    -0.248 NA
ATOM     21  C   UNK d   0      12.372 -10.450  -0.622  0.00  0.00    -0.011 A 
ATOM     22  C   UNK d   0      11.189 -12.278  -1.155  0.00  0.00     0.066 A 
ATOM     23  C   UNK d   0      10.489 -13.469  -1.283  0.00  0.00     0.062 C 
ATOM     24  C   UNK d   0      11.790 -11.490  -0.097  0.00  0.00    -0.020 A 
ATOM     25  C   UNK d   0      10.107 -14.120  -2.467  0.00  0.00     0.041 A 
ATOM     26  N   UNK d   0       9.637 -13.648  -3.627  0.00  0.00    -0.355 N 
ATOM     27  C   UNK d   0      10.227 -15.525  -2.533  0.00  0.00    -0.022 A 
ATOM     28  C   UNK d   0       9.456 -14.705  -4.434  0.00  0.00     0.042 A 
ATOM     29  H   UNK d   0       9.409 -12.580  -3.867  0.00  0.00     0.166 HD
ATOM     30  C   UNK d   0       8.991 -14.788  -5.756  0.00  0.00     0.062 C 
ATOM     31  C   UNK d   0       9.818 -15.904  -3.775  0.00  0.00    -0.013 A 
ATOM     32  C   UNK d   0       9.272 -13.941  -6.816  0.00  0.00     0.066 A 
BRANCH   8  33
ATOM     33  C   UNK d   0       9.437 -12.445 -10.171  0.00  0.00     0.151 C 
BRANCH  33  34
ATOM     34  C   UNK d   0      10.550 -11.557 -10.550  0.00  0.00     0.143 C 
ATOM     35  O   UNK d   0      11.694 -12.006 -10.716  0.00  0.00    -0.650 OA
BRANCH  34  36
ATOM     36  O   UNK d   0      10.315 -10.213 -10.719  0.00  0.00    -0.776 OA
ATOM     37  H   UNK d   0       9.441  -9.873 -11.144  0.00  0.00     0.167 HD
ENDBRANCH  34  36
ENDBRANCH  33  34
ENDBRANCH   8  33
BRANCH  31  38
ATOM     38  C   UNK d   0       9.784 -17.316  -4.310  0.00  0.00     0.151 C 
BRANCH  38  39
ATOM     39  C   UNK d   0       8.538 -17.996  -4.023  0.00  0.00     0.143 C 
ATOM     40  O   UNK d   0       7.530 -17.868  -4.738  0.00  0.00    -0.650 OA
BRANCH  39  41
ATOM     41  O   UNK d   0       8.452 -18.828  -2.907  0.00  0.00    -0.776 OA
ATOM     42  H   UNK d   0       8.329 -18.370  -1.998  0.00  0.00     0.167 HD
ENDBRANCH  39  41
ENDBRANCH  38  39
ENDBRANCH  31  38
BRANCH  27  43
ATOM     43  C   UNK d   0      10.704 -16.497  -1.483  0.00  0.00     0.052 C 
BRANCH  43  44
ATOM     44  C   UNK d   0      12.002 -17.152  -1.829  0.00  0.00     0.115 C 
BRANCH  44  45
ATOM     45  C   UNK d   0      13.062 -16.399  -1.109  0.00  0.00     0.139 C 
ATOM     46  O   UNK d   0      13.472 -15.325  -1.615  0.00  0.00    -0.650 OA
BRANCH  45  47
ATOM     47  O   UNK d   0      13.603 -16.826   0.084  0.00  0.00    -0.776 OA
ATOM     48  H   UNK d   0      13.909 -16.175   0.825  0.00  0.00     0.167 HD
ENDBRANCH  45  47
ENDBRANCH  44  45
ENDBRANCH  43  44
ENDBRANCH  27  43
BRANCH  24  49
ATOM     49  C   UNK d   0      11.779 -11.851   1.331  0.00  0.00     0.052 C 
BRANCH  49  50
ATOM     50  C   UNK d   0      10.407 -12.319   1.742  0.00  0.00     0.115 C 
BRANCH  50  51
ATOM     51  C   UNK d   0      10.291 -12.989   3.031  0.00  0.00     0.139 C 
ATOM     52  O   UNK d   0       9.250 -12.940   3.727  0.00  0.00    -0.650 OA
BRANCH  51  53
ATOM     53  O   UNK d   0      11.365 -13.712   3.527  0.00  0.00    -0.776 OA
ATOM     54  H   UNK d   0      11.338 -14.005   4.488  0.00  0.00     0.167 HD
ENDBRANCH  51  53
ENDBRANCH  50  51
ENDBRANCH  49  50
ENDBRANCH  24  49
BRANCH  21  55
ATOM     55  C   UNK d   0      13.127  -9.369   0.078  0.00  0.00     0.151 C 
BRANCH  55  56
ATOM     56  C   UNK d   0      14.505  -9.247  -0.420  0.00  0.00     0.143 C 
ATOM     57  O   UNK d   0      15.409 -10.047  -0.108  0.00  0.00    -0.650 OA
BRANCH  56  58
ATOM     58  O   UNK d   0      14.794  -8.187  -1.277  0.00  0.00    -0.776 OA
ATOM     59  H   UNK d   0      14.703  -7.246  -0.853  0.00  0.00     0.167 HD
ENDBRANCH  56  58
ENDBRANCH  55  56
ENDBRANCH  21  55
BRANCH  18  60
ATOM     60  C   UNK d   0      11.731  -7.170  -4.614  0.00  0.00     0.151 C 
BRANCH  60  61
ATOM     61  C   UNK d   0      10.360  -6.873  -4.171  0.00  0.00     0.143 C 
ATOM     62  O   UNK d   0       9.568  -7.651  -3.638  0.00  0.00    -0.650 OA
BRANCH  61  63
ATOM     63  O   UNK d   0       9.930  -5.543  -4.391  0.00  0.00    -0.776 OA
ATOM     64  H   UNK d   0       8.954  -5.304  -4.375  0.00  0.00     0.167 HD
ENDBRANCH  61  63
ENDBRANCH  60  61
ENDBRANCH  18  60
BRANCH  14  65
ATOM     65  C   UNK d   0      10.949  -7.964  -7.437  0.00  0.00     0.052 C 
BRANCH  65  66
ATOM     66  C   UNK d   0      12.040  -6.989  -7.706  0.00  0.00     0.115 C 
BRANCH  66  67
ATOM     67  C   UNK d   0      11.721  -5.606  -7.923  0.00  0.00     0.139 C 
ATOM     68  O   UNK d   0      10.914  -5.027  -7.106  0.00  0.00    -0.650 OA
BRANCH  67  69
ATOM     69  O   UNK d   0      12.186  -4.772  -8.939  0.00  0.00    -0.776 OA
ATOM     70  H   UNK d   0      13.057  -5.071  -9.401  0.00  0.00     0.167 HD
ENDBRANCH  67  69
ENDBRANCH  66  67
ENDBRANCH  65  66
ENDBRANCH  14  65
ENDBRANCH   6   7
ENDBRANCH   5   6
ENDBRANCH   2   5
TORSDOF 28
ENDMDL
MODEL 3
REMARK VINA RESULT:      -9.4      1.650      8.551
REMARK  28 active torsions:
REMARK  status: ('A' for Active; 'I' for Inactive)
REMARK    1  A    between atoms: C_2  and  O_3 
REMARK    2  A    between atoms: C_2  and  C_4 
REMARK    3  A    between atoms: C_4  and  C_5 
REMARK    4  A    between atoms: C_5  and  C_6 
REMARK    5  A    between atoms: C_7  and  C_8 
REMARK    6  A    between atoms: C_8  and  C_9 
REMARK    7  A    between atoms: C_9  and  O_11 
REMARK    8  A    between atoms: C_28  and  C_29 
REMARK    9  A    between atoms: C_29  and  C_30 
REMARK   10  A    between atoms: C_30  and  O_32 
REMARK   11  A    between atoms: C_33  and  C_34 
REMARK   12  A    between atoms: C_34  and  C_35 
REMARK   13  A    between atoms: C_35  and  C_36 
REMARK   14  A    between atoms: C_36  and  O_38 
REMARK   15  A    between atoms: C_39  and  C_40 
REMARK   16  A    between atoms: C_40  and  C_41 
REMARK   17  A    between atoms: C_41  and  C_42 
REMARK   18  A    between atoms: C_42  and  O_44 
REMARK   19  A    between atoms: C_45  and  C_46 
REMARK   20  A    between atoms: C_46  and  C_47 
REMARK   21  A    between atoms: C_47  and  O_49 
REMARK   22  A    between atoms: C_50  and  C_51 
REMARK   23  A    between atoms: C_51  and  C_52 
REMARK   24  A    between atoms: C_52  and  O_54 
REMARK   25  A    between atoms: C_55  and  C_56 
REMARK   26  A    between atoms: C_56  and  C_57 
REMARK   27  A    between atoms: C_57  and  C_58 
REMARK   28  A    between atoms: C_58  and  O_60 
ROOT
ATOM      1  O   UNK d   0      11.022  -5.494  -6.279  0.00  0.00    -0.650 OA
ATOM      2  C   UNK d   0      11.159  -6.261  -5.301  0.00  0.00     0.139 C 
ENDROOT
BRANCH   2   3
ATOM      3  O   UNK d   0      10.192  -6.286  -4.324  0.00  0.00    -0.776 OA
ATOM      4  H   UNK d   0      10.249  -5.671  -3.510  0.00  0.00     0.167 HD
ENDBRANCH   2   3
BRANCH   2   5
ATOM      5  C   UNK d   0      12.360  -7.137  -5.199  0.00  0.00     0.115 C 
BRANCH   5   6
ATOM      6  C   UNK d   0      12.574  -7.559  -3.770  0.00  0.00     0.052 C 
BRANCH   6   7
ATOM      7  C   UNK d   0      12.310  -9.029  -3.552  0.00  0.00    -0.020 A 
ATOM      8  C   UNK d   0      12.533  -9.728  -2.469  0.00  0.00    -0.011 A 
ATOM      9  C   UNK d   0      12.131 -11.100  -2.733  0.00  0.00     0.067 A 
ATOM     10  C   UNK d   0      12.093 -12.301  -2.009  0.00  0.00     0.062 C 
ATOM     11  N   UNK d   0      11.681 -11.147  -4.005  0.00  0.00    -0.248 NA
ATOM     12  C   UNK d   0      11.407 -13.473  -2.348  0.00  0.00     0.041 A 
ATOM     13  N   UNK d   0      11.276 -14.114  -3.525  0.00  0.00    -0.355 N 
ATOM     14  C   UNK d   0      10.655 -14.132  -1.358  0.00  0.00    -0.022 A 
ATOM     15  C   UNK d   0      10.452 -15.158  -3.309  0.00  0.00     0.042 A 
ATOM     16  H   UNK d   0      11.770 -13.846  -4.484  0.00  0.00     0.166 HD
ATOM     17  C   UNK d   0       9.984 -16.149  -4.194  0.00  0.00     0.062 C 
ATOM     18  C   UNK d   0      10.042 -15.201  -1.963  0.00  0.00    -0.013 A 
ATOM     19  C   UNK d   0       9.500 -16.008  -5.470  0.00  0.00     0.067 A 
ATOM     20  N   UNK d   0       9.663 -14.816  -6.050  0.00  0.00    -0.248 NA
ATOM     21  C   UNK d   0       8.798 -16.854  -6.421  0.00  0.00    -0.011 A 
ATOM     22  C   UNK d   0       9.118 -14.821  -7.310  0.00  0.00     0.066 A 
ATOM     23  C   UNK d   0       9.251 -13.651  -8.044  0.00  0.00     0.062 C 
ATOM     24  C   UNK d   0       8.574 -16.152  -7.494  0.00  0.00    -0.020 A 
ATOM     25  C   UNK d   0       9.954 -12.489  -7.690  0.00  0.00     0.041 A 
ATOM     26  N   UNK d   0      10.073 -11.843  -6.524  0.00  0.00    -0.355 N 
ATOM     27  C   UNK d   0      10.713 -11.831  -8.683  0.00  0.00    -0.022 A 
ATOM     28  C   UNK d   0      10.887 -10.797  -6.738  0.00  0.00     0.042 A 
ATOM     29  H   UNK d   0       9.567 -12.108  -5.563  0.00  0.00     0.166 HD
ATOM     30  C   UNK d   0      11.354  -9.798  -5.870  0.00  0.00     0.062 C 
ATOM     31  C   UNK d   0      11.307 -10.760  -8.089  0.00  0.00    -0.013 A 
ATOM     32  C   UNK d   0      11.762  -9.933  -4.552  0.00  0.00     0.066 A 
BRANCH   8  33
ATOM     33  C   UNK d   0      13.096  -9.236  -1.198  0.00  0.00     0.151 C 
BRANCH  33  34
ATOM     34  C   UNK d   0      14.570  -9.231  -1.190  0.00  0.00     0.143 C 
ATOM     35  O   UNK d   0      15.203  -8.168  -1.246  0.00  0.00    -0.650 OA
BRANCH  34  36
ATOM     36  O   UNK d   0      15.248 -10.426  -1.120  0.00  0.00    -0.776 OA
ATOM     37  H   UNK d   0      14.755 -11.310  -0.933  0.00  0.00     0.167 HD
ENDBRANCH  34  36
ENDBRANCH  33  34
ENDBRANCH   8  33
BRANCH  31  38
ATOM     38  C   UNK d   0      12.229  -9.767  -8.758  0.00  0.00     0.151 C 
BRANCH  38  39
ATOM     39  C   UNK d   0      11.522  -8.639  -9.326  0.00  0.00     0.143 C 
ATOM     40  O   UNK d   0      11.032  -8.667 -10.468  0.00  0.00    -0.650 OA
BRANCH  39  41
ATOM     41  O   UNK d   0      11.377  -7.472  -8.576  0.00  0.00    -0.776 OA
ATOM     42  H   UNK d   0      11.113  -7.586  -7.592  0.00  0.00     0.167 HD
ENDBRANCH  39  41
ENDBRANCH  38  39
ENDBRANCH  31  38
BRANCH  27  43
ATOM     43  C   UNK d   0      10.887 -12.175 -10.141  0.00  0.00     0.052 C 
BRANCH  43  44
ATOM     44  C   UNK d   0       9.738 -11.743 -10.992  0.00  0.00     0.115 C 
BRANCH  44  45
ATOM     45  C   UNK d   0       8.946 -12.965 -11.288  0.00  0.00     0.139 C 
ATOM     46  O   UNK d   0       7.714 -12.946 -11.045  0.00  0.00    -0.650 OA
BRANCH  45  47
ATOM     47  O   UNK d   0       9.505 -14.107 -11.821  0.00  0.00    -0.776 OA
ATOM     48  H   UNK d   0       9.869 -14.877 -11.237  0.00  0.00     0.167 HD
ENDBRANCH  45  47
ENDBRANCH  44  45
ENDBRANCH  43  44
ENDBRANCH  27  43
BRANCH  24  49
ATOM     49  C   UNK d   0       7.922 -16.631  -8.725  0.00  0.00     0.052 C 
BRANCH  49  50
ATOM     50  C   UNK d   0       6.598 -15.938  -8.920  0.00  0.00     0.115 C 
BRANCH  50  51
ATOM     51  C   UNK d   0       5.498 -16.351  -8.059  0.00  0.00     0.139 C 
ATOM     52  O   UNK d   0       4.638 -17.191  -8.416  0.00  0.00    -0.650 OA
BRANCH  51  53
ATOM     53  O   UNK d   0       5.376 -15.803  -6.791  0.00  0.00    -0.776 OA
ATOM     54  H   UNK d   0       4.914 -14.916  -6.699  0.00  0.00     0.167 HD
ENDBRANCH  51  53
ENDBRANCH  50  51
ENDBRANCH  49  50
ENDBRANCH  24  49
BRANCH  21  55
ATOM     55  C   UNK d   0       8.430 -18.276  -6.159  0.00  0.00     0.151 C 
BRANCH  55  56
ATOM     56  C   UNK d   0       7.439 -18.400  -5.079  0.00  0.00     0.143 C 
ATOM     57  O   UNK d   0       6.263 -18.003  -5.193  0.00  0.00    -0.650 OA
BRANCH  56  58
ATOM     58  O   UNK d   0       7.852 -18.988  -3.884  0.00  0.00    -0.776 OA
ATOM     59  H   UNK d   0       8.148 -19.977  -3.965  0.00  0.00     0.167 HD
ENDBRANCH  56  58
ENDBRANCH  55  56
ENDBRANCH  21  55
BRANCH  18  60
ATOM     60  C   UNK d   0       9.128 -16.180  -1.268  0.00  0.00     0.151 C 
BRANCH  60  61
ATOM     61  C   UNK d   0       9.831 -17.471  -1.284  0.00  0.00     0.143 C 
ATOM     62  O   UNK d   0      11.049 -17.654  -1.278  0.00  0.00    -0.650 OA
BRANCH  61  63
ATOM     63  O   UNK d   0       8.994 -18.613  -1.310  0.00  0.00    -0.776 OA
ATOM     64  H   UNK d   0       8.009 -18.529  -1.488  0.00  0.00     0.167 HD
ENDBRANCH  61  63
ENDBRANCH  60  61
ENDBRANCH  18  60
BRANCH  14  65
ATOM     65  C   UNK d   0      10.551 -13.887   0.120  0.00  0.00     0.052 C 
BRANCH  65  66
ATOM     66  C   UNK d   0       9.714 -12.703   0.456  0.00  0.00     0.115 C 
BRANCH  66  67
ATOM     67  C   UNK d   0      10.010 -11.932   1.631  0.00  0.00     0.139 C 
ATOM     68  O   UNK d   0       9.031 -11.497   2.341  0.00  0.00    -0.650 OA
BRANCH  67  69
ATOM     69  O   UNK d   0      11.265 -11.578   2.125  0.00  0.00    -0.776 OA
ATOM     70  H   UNK d   0      12.070 -12.025   1.664  0.00  0.00     0.167 HD
ENDBRANCH  67  69
ENDBRANCH  66  67
ENDBRANCH  65  66
ENDBRANCH  14  65
ENDBRANCH   6   7
ENDBRANCH   5   6
ENDBRANCH   2   5
TORSDOF 28
ENDMDL
MODEL 4
REMARK VINA RESULT:      -9.2      3.349      7.047
REMARK  28 active torsions:
REMARK  status: ('A' for Active; 'I' for Inactive)
REMARK    1  A    between atoms: C_2  and  O_3 
REMARK    2  A    between atoms: C_2  and  C_4 
REMARK    3  A    between atoms: C_4  and  C_5 
REMARK    4  A    between atoms: C_5  and  C_6 
REMARK    5  A    between atoms: C_7  and  C_8 
REMARK    6  A    between atoms: C_8  and  C_9 
REMARK    7  A    between atoms: C_9  and  O_11 
REMARK    8  A    between atoms: C_28  and  C_29 
REMARK    9  A    between atoms: C_29  and  C_30 
REMARK   10  A    between atoms: C_30  and  O_32 
REMARK   11  A    between atoms: C_33  and  C_34 
REMARK   12  A    between atoms: C_34  and  C_35 
REMARK   13  A    between atoms: C_35  and  C_36 
REMARK   14  A    between atoms: C_36  and  O_38 
REMARK   15  A    between atoms: C_39  and  C_40 
REMARK   16  A    between atoms: C_40  and  C_41 
REMARK   17  A    between atoms: C_41  and  C_42 
REMARK   18  A    between atoms: C_42  and  O_44 
REMARK   19  A    between atoms: C_45  and  C_46 
REMARK   20  A    between atoms: C_46  and  C_47 
REMARK   21  A    between atoms: C_47  and  O_49 
REMARK   22  A    between atoms: C_50  and  C_51 
REMARK   23  A    between atoms: C_51  and  C_52 
REMARK   24  A    between atoms: C_52  and  O_54 
REMARK   25  A    between atoms: C_55  and  C_56 
REMARK   26  A    between atoms: C_56  and  C_57 
REMARK   27  A    between atoms: C_57  and  C_58 
REMARK   28  A    between atoms: C_58  and  O_60 
ROOT
ATOM      1  O   UNK d   0       5.032 -21.454  -2.538  0.00  0.00    -0.650 OA
ATOM      2  C   UNK d   0       4.499 -20.335  -2.708  0.00  0.00     0.139 C 
ENDROOT
BRANCH   2   3
ATOM      3  O   UNK d   0       3.794 -19.761  -1.678  0.00  0.00    -0.776 OA
ATOM      4  H   UNK d   0       3.471 -18.793  -1.734  0.00  0.00     0.167 HD
ENDBRANCH   2   3
BRANCH   2   5
ATOM      5  C   UNK d   0       4.630 -19.634  -4.017  0.00  0.00     0.115 C 
BRANCH   5   6
ATOM      6  C   UNK d   0       5.843 -20.136  -4.754  0.00  0.00     0.052 C 
BRANCH   6   7
ATOM      7  C   UNK d   0       6.198 -19.276  -5.942  0.00  0.00    -0.020 A 
ATOM      8  C   UNK d   0       5.789 -19.412  -7.177  0.00  0.00    -0.011 A 
ATOM      9  C   UNK d   0       6.401 -18.357  -7.968  0.00  0.00     0.067 A 
ATOM     10  C   UNK d   0       6.361 -17.944  -9.309  0.00  0.00     0.062 C 
ATOM     11  N   UNK d   0       7.173 -17.628  -7.135  0.00  0.00    -0.248 NA
ATOM     12  C   UNK d   0       6.806 -16.725  -9.833  0.00  0.00     0.041 A 
ATOM     13  N   UNK d   0       7.919 -16.009  -9.588  0.00  0.00    -0.355 N 
ATOM     14  C   UNK d   0       5.984 -16.034 -10.742  0.00  0.00    -0.022 A 
ATOM     15  C   UNK d   0       7.821 -14.877 -10.311  0.00  0.00     0.042 A 
ATOM     16  H   UNK d   0       8.767 -16.306  -8.932  0.00  0.00     0.166 HD
ATOM     17  C   UNK d   0       8.705 -13.786 -10.425  0.00  0.00     0.062 C 
ATOM     18  C   UNK d   0       6.621 -14.857 -11.047  0.00  0.00    -0.013 A 
ATOM     19  C   UNK d   0       9.381 -13.117  -9.437  0.00  0.00     0.067 A 
ATOM     20  N   UNK d   0       9.376 -13.668  -8.220  0.00  0.00    -0.248 NA
ATOM     21  C   UNK d   0      10.141 -11.881  -9.343  0.00  0.00    -0.011 A 
ATOM     22  C   UNK d   0      10.075 -12.882  -7.338  0.00  0.00     0.066 A 
ATOM     23  C   UNK d   0      10.181 -13.358  -6.039  0.00  0.00     0.062 C 
ATOM     24  C   UNK d   0      10.540 -11.748  -8.111  0.00  0.00    -0.020 A 
ATOM     25  C   UNK d   0       9.738 -14.591  -5.536  0.00  0.00     0.041 A 
ATOM     26  N   UNK d   0       8.625 -15.296  -5.768  0.00  0.00    -0.355 N 
ATOM     27  C   UNK d   0      10.566 -15.286  -4.627  0.00  0.00    -0.022 A 
ATOM     28  C   UNK d   0       8.716 -16.421  -5.041  0.00  0.00     0.042 A 
ATOM     29  H   UNK d   0       7.769 -14.992  -6.419  0.00  0.00     0.166 HD
ATOM     30  C   UNK d   0       7.840 -17.510  -4.911  0.00  0.00     0.062 C 
ATOM     31  C   UNK d   0       9.928 -16.445  -4.310  0.00  0.00    -0.013 A 
ATOM     32  C   UNK d   0       7.093 -18.129  -5.901  0.00  0.00     0.066 A 
BRANCH   8  33
ATOM     33  C   UNK d   0       4.875 -20.446  -7.698  0.00  0.00     0.151 C 
BRANCH  33  34
ATOM     34  C   UNK d   0       3.456 -20.061  -7.588  0.00  0.00     0.143 C 
ATOM     35  O   UNK d   0       3.128 -18.974  -7.092  0.00  0.00    -0.650 OA
BRANCH  34  36
ATOM     36  O   UNK d   0       2.486 -20.924  -8.041  0.00  0.00    -0.776 OA
ATOM     37  H   UNK d   0       1.570 -20.989  -7.577  0.00  0.00     0.167 HD
ENDBRANCH  34  36
ENDBRANCH  33  34
ENDBRANCH   8  33
BRANCH  31  38
ATOM     38  C   UNK d   0      10.440 -17.519  -3.379  0.00  0.00     0.151 C 
BRANCH  38  39
ATOM     39  C   UNK d   0      11.433 -18.372  -3.997  0.00  0.00     0.143 C 
ATOM     40  O   UNK d   0      11.140 -19.212  -4.866  0.00  0.00    -0.650 OA
BRANCH  39  41
ATOM     41  O   UNK d   0      12.770 -18.257  -3.616  0.00  0.00    -0.776 OA
ATOM     42  H   UNK d   0      13.292 -19.130  -3.495  0.00  0.00     0.167 HD
ENDBRANCH  39  41
ENDBRANCH  38  39
ENDBRANCH  31  38
BRANCH  27  43
ATOM     43  C   UNK d   0      11.909 -14.895  -4.063  0.00  0.00     0.052 C 
BRANCH  43  44
ATOM     44  C   UNK d   0      11.813 -13.942  -2.916  0.00  0.00     0.115 C 
BRANCH  44  45
ATOM     45  C   UNK d   0      12.138 -14.718  -1.691  0.00  0.00     0.139 C 
ATOM     46  O   UNK d   0      11.476 -14.484  -0.649  0.00  0.00    -0.650 OA
BRANCH  45  47
ATOM     47  O   UNK d   0      13.125 -15.679  -1.655  0.00  0.00    -0.776 OA
ATOM     48  H   UNK d   0      13.997 -15.608  -2.204  0.00  0.00     0.167 HD
ENDBRANCH  45  47
ENDBRANCH  44  45
ENDBRANCH  43  44
ENDBRANCH  27  43
BRANCH  24  49
ATOM     49  C   UNK d   0      11.374 -10.655  -7.582  0.00  0.00     0.052 C 
BRANCH  49  50
ATOM     50  C   UNK d   0      10.589  -9.369  -7.541  0.00  0.00     0.115 C 
BRANCH  50  51
ATOM     51  C   UNK d   0      11.093  -8.310  -6.677  0.00  0.00     0.139 C 
ATOM     52  O   UNK d   0      12.310  -8.180  -6.405  0.00  0.00    -0.650 OA
BRANCH  51  53
ATOM     53  O   UNK d   0      10.208  -7.399  -6.120  0.00  0.00    -0.776 OA
ATOM     54  H   UNK d   0      10.157  -7.337  -5.118  0.00  0.00     0.167 HD
ENDBRANCH  51  53
ENDBRANCH  50  51
ENDBRANCH  49  50
ENDBRANCH  24  49
BRANCH  21  55
ATOM     55  C   UNK d   0      10.391 -10.966 -10.495  0.00  0.00     0.151 C 
BRANCH  55  56
ATOM     56  C   UNK d   0      11.820 -10.891 -10.839  0.00  0.00     0.143 C 
ATOM     57  O   UNK d   0      12.430  -9.810 -10.958  0.00  0.00    -0.650 OA
BRANCH  56  58
ATOM     58  O   UNK d   0      12.503 -12.090 -11.037  0.00  0.00    -0.776 OA
ATOM     59  H   UNK d   0      12.707 -12.317 -12.027  0.00  0.00     0.167 HD
ENDBRANCH  56  58
ENDBRANCH  55  56
ENDBRANCH  21  55
BRANCH  18  60
ATOM     60  C   UNK d   0       6.086 -13.803 -11.985  0.00  0.00     0.151 C 
BRANCH  60  61
ATOM     61  C   UNK d   0       6.314 -14.317 -13.343  0.00  0.00     0.143 C 
ATOM     62  O   UNK d   0       5.509 -14.336 -14.275  0.00  0.00    -0.650 OA
BRANCH  61  63
ATOM     63  O   UNK d   0       7.607 -14.842 -13.580  0.00  0.00    -0.776 OA
ATOM     64  H   UNK d   0       7.734 -15.791 -13.884  0.00  0.00     0.167 HD
ENDBRANCH  61  63
ENDBRANCH  60  61
ENDBRANCH  18  60
BRANCH  14  65
ATOM     65  C   UNK d   0       4.702 -16.442 -11.411  0.00  0.00     0.052 C 
BRANCH  65  66
ATOM     66  C   UNK d   0       3.522 -16.356 -10.510  0.00  0.00     0.115 C 
BRANCH  66  67
ATOM     67  C   UNK d   0       2.739 -17.531 -10.248  0.00  0.00     0.139 C 
ATOM     68  O   UNK d   0       1.705 -17.423  -9.492  0.00  0.00    -0.650 OA
BRANCH  67  69
ATOM     69  O   UNK d   0       2.957 -18.824 -10.721  0.00  0.00    -0.776 OA
ATOM     70  H   UNK d   0       2.353 -19.124 -11.500  0.00  0.00     0.167 HD
ENDBRANCH  67  69
ENDBRANCH  66  67
ENDBRANCH  65  66
ENDBRANCH  14  65
ENDBRANCH   6   7
ENDBRANCH   5   6
ENDBRANCH   2   5
TORSDOF 28
ENDMDL
MODEL 5
REMARK VINA RESULT:      -9.2      4.279      7.669
REMARK  28 active torsions:
REMARK  status: ('A' for Active; 'I' for Inactive)
REMARK    1  A    between atoms: C_2  and  O_3 
REMARK    2  A    between atoms: C_2  and  C_4 
REMARK    3  A    between atoms: C_4  and  C_5 
REMARK    4  A    between atoms: C_5  and  C_6 
REMARK    5  A    between atoms: C_7  and  C_8 
REMARK    6  A    between atoms: C_8  and  C_9 
REMARK    7  A    between atoms: C_9  and  O_11 
REMARK    8  A    between atoms: C_28  and  C_29 
REMARK    9  A    between atoms: C_29  and  C_30 
REMARK   10  A    between atoms: C_30  and  O_32 
REMARK   11  A    between atoms: C_33  and  C_34 
REMARK   12  A    between atoms: C_34  and  C_35 
REMARK   13  A    between atoms: C_35  and  C_36 
REMARK   14  A    between atoms: C_36  and  O_38 
REMARK   15  A    between atoms: C_39  and  C_40 
REMARK   16  A    between atoms: C_40  and  C_41 
REMARK   17  A    between atoms: C_41  and  C_42 
REMARK   18  A    between atoms: C_42  and  O_44 
REMARK   19  A    between atoms: C_45  and  C_46 
REMARK   20  A    between atoms: C_46  and  C_47 
REMARK   21  A    between atoms: C_47  and  O_49 
REMARK   22  A    between atoms: C_50  and  C_51 
REMARK   23  A    between atoms: C_51  and  C_52 
REMARK   24  A    between atoms: C_52  and  O_54 
REMARK   25  A    between atoms: C_55  and  C_56 
REMARK   26  A    between atoms: C_56  and  C_57 
REMARK   27  A    between atoms: C_57  and  C_58 
REMARK   28  A    between atoms: C_58  and  O_60 
ROOT
ATOM      1  O   UNK d   0      12.520 -17.104  -1.161  0.00  0.00    -0.650 OA
ATOM      2  C   UNK d   0      12.300 -16.989  -2.387  0.00  0.00     0.139 C 
ENDROOT
BRANCH   2   3
ATOM      3  O   UNK d   0      12.760 -17.958  -3.247  0.00  0.00    -0.776 OA
ATOM      4  H   UNK d   0      13.108 -18.853  -2.896  0.00  0.00     0.167 HD
ENDBRANCH   2   3
BRANCH   2   5
ATOM      5  C   UNK d   0      11.548 -15.812  -2.906  0.00  0.00     0.115 C 
BRANCH   5   6
ATOM      6  C   UNK d   0      10.071 -16.009  -2.696  0.00  0.00     0.052 C 
BRANCH   6   7
ATOM      7  C   UNK d   0       9.412 -16.736  -3.844  0.00  0.00    -0.020 A 
ATOM      8  C   UNK d   0       9.054 -17.993  -3.892  0.00  0.00    -0.011 A 
ATOM      9  C   UNK d   0       8.470 -18.240  -5.199  0.00  0.00     0.067 A 
ATOM     10  C   UNK d   0       7.890 -19.335  -5.860  0.00  0.00     0.062 C 
ATOM     11  N   UNK d   0       8.518 -17.079  -5.885  0.00  0.00    -0.248 NA
ATOM     12  C   UNK d   0       7.124 -19.310  -7.030  0.00  0.00     0.041 A 
ATOM     13  N   UNK d   0       7.287 -18.631  -8.182  0.00  0.00    -0.355 N 
ATOM     14  C   UNK d   0       5.931 -20.054  -7.078  0.00  0.00    -0.022 A 
ATOM     15  C   UNK d   0       6.224 -18.919  -8.956  0.00  0.00     0.042 A 
ATOM     16  H   UNK d   0       8.146 -17.977  -8.449  0.00  0.00     0.166 HD
ATOM     17  C   UNK d   0       5.895 -18.481 -10.255  0.00  0.00     0.062 C 
ATOM     18  C   UNK d   0       5.352 -19.807  -8.298  0.00  0.00    -0.013 A 
ATOM     19  C   UNK d   0       5.958 -17.216 -10.780  0.00  0.00     0.067 A 
ATOM     20  N   UNK d   0       6.595 -16.291 -10.056  0.00  0.00    -0.248 NA
ATOM     21  C   UNK d   0       5.478 -16.559 -11.984  0.00  0.00    -0.011 A 
ATOM     22  C   UNK d   0       6.563 -15.078 -10.699  0.00  0.00     0.066 A 
ATOM     23  C   UNK d   0       7.224 -14.031 -10.072  0.00  0.00     0.062 C 
ATOM     24  C   UNK d   0       5.831 -15.308 -11.929  0.00  0.00    -0.020 A 
ATOM     25  C   UNK d   0       7.998 -14.080  -8.902  0.00  0.00     0.041 A 
ATOM     26  N   UNK d   0       7.829 -14.743  -7.752  0.00  0.00    -0.355 N 
ATOM     27  C   UNK d   0       9.198 -13.337  -8.856  0.00  0.00    -0.022 A 
ATOM     28  C   UNK d   0       8.884 -14.451  -6.975  0.00  0.00     0.042 A 
ATOM     29  H   UNK d   0       6.960 -15.391  -7.481  0.00  0.00     0.166 HD
ATOM     30  C   UNK d   0       9.219 -14.872  -5.678  0.00  0.00     0.062 C 
ATOM     31  C   UNK d   0       9.765 -13.566  -7.640  0.00  0.00    -0.013 A 
ATOM     32  C   UNK d   0       9.073 -16.134  -5.125  0.00  0.00     0.066 A 
BRANCH   8  33
ATOM     33  C   UNK d   0       9.210 -18.999  -2.825  0.00  0.00     0.151 C 
BRANCH  33  34
ATOM     34  C   UNK d   0       8.087 -18.998  -1.870  0.00  0.00     0.143 C 
ATOM     35  O   UNK d   0       8.183 -18.423  -0.776  0.00  0.00    -0.650 OA
BRANCH  34  36
ATOM     36  O   UNK d   0       6.919 -19.645  -2.200  0.00  0.00    -0.776 OA
ATOM     37  H   UNK d   0       6.860 -20.673  -2.200  0.00  0.00     0.167 HD
ENDBRANCH  34  36
ENDBRANCH  33  34
ENDBRANCH   8  33
BRANCH  31  38
ATOM     38  C   UNK d   0      11.071 -12.992  -7.143  0.00  0.00     0.151 C 
BRANCH  38  39
ATOM     39  C   UNK d   0      10.889 -11.826  -6.305  0.00  0.00     0.143 C 
ATOM     40  O   UNK d   0      10.299 -11.878  -5.212  0.00  0.00    -0.650 OA
BRANCH  39  41
ATOM     41  O   UNK d   0      11.390 -10.594  -6.726  0.00  0.00    -0.776 OA
ATOM     42  H   UNK d   0      11.092 -10.267  -7.650  0.00  0.00     0.167 HD
ENDBRANCH  39  41
ENDBRANCH  38  39
ENDBRANCH  31  38
BRANCH  27  43
ATOM     43  C   UNK d   0       9.809 -12.437  -9.901  0.00  0.00     0.052 C 
BRANCH  43  44
ATOM     44  C   UNK d   0       9.649 -10.983  -9.595  0.00  0.00     0.115 C 
BRANCH  44  45
ATOM     45  C   UNK d   0      10.875 -10.307 -10.093  0.00  0.00     0.139 C 
ATOM     46  O   UNK d   0      11.988 -10.728  -9.690  0.00  0.00    -0.650 OA
BRANCH  45  47
ATOM     47  O   UNK d   0      10.840  -9.250 -10.977  0.00  0.00    -0.776 OA
ATOM     48  H   UNK d   0      11.651  -8.973 -11.552  0.00  0.00     0.167 HD
ENDBRANCH  45  47
ENDBRANCH  44  45
ENDBRANCH  43  44
ENDBRANCH  27  43
BRANCH  24  49
ATOM     49  C   UNK d   0       5.582 -14.288 -12.962  0.00  0.00     0.052 C 
BRANCH  49  50
ATOM     50  C   UNK d   0       6.583 -14.420 -14.081  0.00  0.00     0.115 C 
BRANCH  50  51
ATOM     51  C   UNK d   0       6.057 -14.489 -15.438  0.00  0.00     0.139 C 
ATOM     52  O   UNK d   0       5.187 -13.694 -15.868  0.00  0.00    -0.650 OA
BRANCH  51  53
ATOM     53  O   UNK d   0       6.522 -15.466 -16.305  0.00  0.00    -0.776 OA
ATOM     54  H   UNK d   0       7.503 -15.683 -16.295  0.00  0.00     0.167 HD
ENDBRANCH  51  53
ENDBRANCH  50  51
ENDBRANCH  49  50
ENDBRANCH  24  49
BRANCH  21  55
ATOM     55  C   UNK d   0       4.719 -17.252 -13.067  0.00  0.00     0.151 C 
BRANCH  55  56
ATOM     56  C   UNK d   0       5.557 -18.214 -13.800  0.00  0.00     0.143 C 
ATOM     57  O   UNK d   0       6.380 -17.866 -14.669  0.00  0.00    -0.650 OA
BRANCH  56  58
ATOM     58  O   UNK d   0       5.412 -19.566 -13.495  0.00  0.00    -0.776 OA
ATOM     59  H   UNK d   0       6.199 -20.168 -13.796  0.00  0.00     0.167 HD
ENDBRANCH  56  58
ENDBRANCH  55  56
ENDBRANCH  21  55
BRANCH  18  60
ATOM     60  C   UNK d   0       4.046 -20.398  -8.770  0.00  0.00     0.151 C 
BRANCH  60  61
ATOM     61  C   UNK d   0       2.992 -19.510  -8.256  0.00  0.00     0.143 C 
ATOM     62  O   UNK d   0       2.893 -18.295  -8.434  0.00  0.00    -0.650 OA
BRANCH  61  63
ATOM     63  O   UNK d   0       1.996 -20.145  -7.476  0.00  0.00    -0.776 OA
ATOM     64  H   UNK d   0       1.181 -20.548  -7.904  0.00  0.00     0.167 HD
ENDBRANCH  61  63
ENDBRANCH  60  61
ENDBRANCH  18  60
BRANCH  14  65
ATOM     65  C   UNK d   0       5.353 -21.045  -6.109  0.00  0.00     0.052 C 
BRANCH  65  66
ATOM     66  C   UNK d   0       4.888 -20.418  -4.843  0.00  0.00     0.115 C 
BRANCH  66  67
ATOM     67  C   UNK d   0       3.796 -19.485  -4.870  0.00  0.00     0.139 C 
ATOM     68  O   UNK d   0       4.037 -18.268  -5.205  0.00  0.00    -0.650 OA
BRANCH  67  69
ATOM     69  O   UNK d   0       2.457 -19.731  -4.569  0.00  0.00    -0.776 OA
ATOM     70  H   UNK d   0       1.796 -18.984  -4.825  0.00  0.00     0.167 HD
ENDBRANCH  67  69
ENDBRANCH  66  67
ENDBRANCH  65  66
ENDBRANCH  14  65
ENDBRANCH   6   7
ENDBRANCH   5   6
ENDBRANCH   2   5
TORSDOF 28
ENDMDL
MODEL 6
REMARK VINA RESULT:      -9.2      4.030      7.507
REMARK  28 active torsions:
REMARK  status: ('A' for Active; 'I' for Inactive)
REMARK    1  A    between atoms: C_2  and  O_3 
REMARK    2  A    between atoms: C_2  and  C_4 
REMARK    3  A    between atoms: C_4  and  C_5 
REMARK    4  A    between atoms: C_5  and  C_6 
REMARK    5  A    between atoms: C_7  and  C_8 
REMARK    6  A    between atoms: C_8  and  C_9 
REMARK    7  A    between atoms: C_9  and  O_11 
REMARK    8  A    between atoms: C_28  and  C_29 
REMARK    9  A    between atoms: C_29  and  C_30 
REMARK   10  A    between atoms: C_30  and  O_32 
REMARK   11  A    between atoms: C_33  and  C_34 
REMARK   12  A    between atoms: C_34  and  C_35 
REMARK   13  A    between atoms: C_35  and  C_36 
REMARK   14  A    between atoms: C_36  and  O_38 
REMARK   15  A    between atoms: C_39  and  C_40 
REMARK   16  A    between atoms: C_40  and  C_41 
REMARK   17  A    between atoms: C_41  and  C_42 
REMARK   18  A    between atoms: C_42  and  O_44 
REMARK   19  A    between atoms: C_45  and  C_46 
REMARK   20  A    between atoms: C_46  and  C_47 
REMARK   21  A    between atoms: C_47  and  O_49 
REMARK   22  A    between atoms: C_50  and  C_51 
REMARK   23  A    between atoms: C_51  and  C_52 
REMARK   24  A    between atoms: C_52  and  O_54 
REMARK   25  A    between atoms: C_55  and  C_56 
REMARK   26  A    between atoms: C_56  and  C_57 
REMARK   27  A    between atoms: C_57  and  C_58 
REMARK   28  A    between atoms: C_58  and  O_60 
ROOT
ATOM      1  O   UNK d   0      13.722 -14.686  -2.231  0.00  0.00    -0.650 OA
ATOM      2  C   UNK d   0      12.538 -14.755  -2.628  0.00  0.00     0.139 C 
ENDROOT
BRANCH   2   3
ATOM      3  O   UNK d   0      12.026 -13.739  -3.399  0.00  0.00    -0.776 OA
ATOM      4  H   UNK d   0      12.298 -13.631  -4.378  0.00  0.00     0.167 HD
ENDBRANCH   2   3
BRANCH   2   5
ATOM      5  C   UNK d   0      11.695 -15.929  -2.266  0.00  0.00     0.115 C 
BRANCH   5   6
ATOM      6  C   UNK d   0      10.237 -15.580  -2.401  0.00  0.00     0.052 C 
BRANCH   6   7
ATOM      7  C   UNK d   0       9.543 -16.387  -3.472  0.00  0.00    -0.020 A 
ATOM      8  C   UNK d   0       9.172 -17.641  -3.413  0.00  0.00    -0.011 A 
ATOM      9  C   UNK d   0       8.553 -17.982  -4.683  0.00  0.00     0.067 A 
ATOM     10  C   UNK d   0       7.948 -19.119  -5.241  0.00  0.00     0.062 C 
ATOM     11  N   UNK d   0       8.595 -16.878  -5.458  0.00  0.00    -0.248 NA
ATOM     12  C   UNK d   0       7.153 -19.177  -6.391  0.00  0.00     0.041 A 
ATOM     13  N   UNK d   0       7.293 -18.591  -7.596  0.00  0.00    -0.355 N 
ATOM     14  C   UNK d   0       5.952 -19.908  -6.352  0.00  0.00    -0.022 A 
ATOM     15  C   UNK d   0       6.208 -18.927  -8.319  0.00  0.00     0.042 A 
ATOM     16  H   UNK d   0       8.151 -17.970  -7.934  0.00  0.00     0.166 HD
ATOM     17  C   UNK d   0       5.850 -18.588  -9.639  0.00  0.00     0.062 C 
ATOM     18  C   UNK d   0       5.344 -19.752  -7.573  0.00  0.00    -0.013 A 
ATOM     19  C   UNK d   0       5.912 -17.368 -10.263  0.00  0.00     0.067 A 
ATOM     20  N   UNK d   0       6.574 -16.397  -9.629  0.00  0.00    -0.248 NA
ATOM     21  C   UNK d   0       5.407 -16.802 -11.503  0.00  0.00    -0.011 A 
ATOM     22  C   UNK d   0       6.538 -15.237 -10.364  0.00  0.00     0.066 A 
ATOM     23  C   UNK d   0       7.223 -14.152  -9.837  0.00  0.00     0.062 C 
ATOM     24  C   UNK d   0       5.773 -15.554 -11.554  0.00  0.00    -0.020 A 
ATOM     25  C   UNK d   0       8.027 -14.118  -8.687  0.00  0.00     0.041 A 
ATOM     26  N   UNK d   0       7.880 -14.688  -7.484  0.00  0.00    -0.355 N 
ATOM     27  C   UNK d   0       9.234 -13.387  -8.728  0.00  0.00    -0.022 A 
ATOM     28  C   UNK d   0       8.957 -14.348  -6.758  0.00  0.00     0.042 A 
ATOM     29  H   UNK d   0       7.013 -15.303  -7.142  0.00  0.00     0.166 HD
ATOM     30  C   UNK d   0       9.321 -14.670  -5.441  0.00  0.00     0.062 C 
ATOM     31  C   UNK d   0       9.829 -13.528  -7.512  0.00  0.00    -0.013 A 
ATOM     32  C   UNK d   0       9.178 -15.884  -4.787  0.00  0.00     0.066 A 
BRANCH   8  33
ATOM     33  C   UNK d   0       9.346 -18.562  -2.275  0.00  0.00     0.151 C 
BRANCH  33  34
ATOM     34  C   UNK d   0       8.174 -18.594  -1.382  0.00  0.00     0.143 C 
ATOM     35  O   UNK d   0       8.174 -17.974  -0.309  0.00  0.00    -0.650 OA
BRANCH  34  36
ATOM     36  O   UNK d   0       7.067 -19.324  -1.747  0.00  0.00    -0.776 OA
ATOM     37  H   UNK d   0       7.157 -20.206  -2.270  0.00  0.00     0.167 HD
ENDBRANCH  34  36
ENDBRANCH  33  34
ENDBRANCH   8  33
BRANCH  31  38
ATOM     38  C   UNK d   0      11.153 -12.931  -7.093  0.00  0.00     0.151 C 
BRANCH  38  39
ATOM     39  C   UNK d   0      11.004 -11.687  -6.368  0.00  0.00     0.143 C 
ATOM     40  O   UNK d   0      11.314 -10.588  -6.861  0.00  0.00    -0.650 OA
BRANCH  39  41
ATOM     41  O   UNK d   0      10.494 -11.706  -5.070  0.00  0.00    -0.776 OA
ATOM     42  H   UNK d   0       9.475 -11.663  -4.974  0.00  0.00     0.167 HD
ENDBRANCH  39  41
ENDBRANCH  38  39
ENDBRANCH  31  38
BRANCH  27  43
ATOM     43  C   UNK d   0       9.826 -12.578  -9.855  0.00  0.00     0.052 C 
BRANCH  43  44
ATOM     44  C   UNK d   0       9.591 -11.109  -9.715  0.00  0.00     0.115 C 
BRANCH  44  45
ATOM     45  C   UNK d   0      10.775 -10.431 -10.303  0.00  0.00     0.139 C 
ATOM     46  O   UNK d   0      11.850 -11.076 -10.377  0.00  0.00    -0.650 OA
BRANCH  45  47
ATOM     47  O   UNK d   0      10.738  -9.136 -10.772  0.00  0.00    -0.776 OA
ATOM     48  H   UNK d   0      11.481  -8.447 -10.574  0.00  0.00     0.167 HD
ENDBRANCH  45  47
ENDBRANCH  44  45
ENDBRANCH  43  44
ENDBRANCH  27  43
BRANCH  24  49
ATOM     49  C   UNK d   0       5.507 -14.615 -12.657  0.00  0.00     0.052 C 
BRANCH  49  50
ATOM     50  C   UNK d   0       6.744 -14.432 -13.500  0.00  0.00     0.115 C 
BRANCH  50  51
ATOM     51  C   UNK d   0       6.633 -14.741 -14.919  0.00  0.00     0.139 C 
ATOM     52  O   UNK d   0       5.903 -14.085 -15.699  0.00  0.00    -0.650 OA
BRANCH  51  53
ATOM     53  O   UNK d   0       7.352 -15.802 -15.449  0.00  0.00    -0.776 OA
ATOM     54  H   UNK d   0       7.902 -15.639 -16.273  0.00  0.00     0.167 HD
ENDBRANCH  51  53
ENDBRANCH  50  51
ENDBRANCH  49  50
ENDBRANCH  24  49
BRANCH  21  55
ATOM     55  C   UNK d   0       4.615 -17.569 -12.510  0.00  0.00     0.151 C 
BRANCH  55  56
ATOM     56  C   UNK d   0       5.468 -18.144 -13.561  0.00  0.00     0.143 C 
ATOM     57  O   UNK d   0       5.299 -17.905 -14.773  0.00  0.00    -0.650 OA
BRANCH  56  58
ATOM     58  O   UNK d   0       6.505 -18.988 -13.166  0.00  0.00    -0.776 OA
ATOM     59  H   UNK d   0       7.414 -18.807 -13.627  0.00  0.00     0.167 HD
ENDBRANCH  56  58
ENDBRANCH  55  56
ENDBRANCH  21  55
BRANCH  18  60
ATOM     60  C   UNK d   0       4.022 -20.363  -7.965  0.00  0.00     0.151 C 
BRANCH  60  61
ATOM     61  C   UNK d   0       3.005 -19.336  -7.690  0.00  0.00     0.143 C 
ATOM     62  O   UNK d   0       2.589 -18.476  -8.467  0.00  0.00    -0.650 OA
BRANCH  61  63
ATOM     63  O   UNK d   0       2.462 -19.361  -6.383  0.00  0.00    -0.776 OA
ATOM     64  H   UNK d   0       2.593 -18.591  -5.752  0.00  0.00     0.167 HD
ENDBRANCH  61  63
ENDBRANCH  60  61
ENDBRANCH  18  60
BRANCH  14  65
ATOM     65  C   UNK d   0       5.390 -20.815  -5.294  0.00  0.00     0.052 C 
BRANCH  65  66
ATOM     66  C   UNK d   0       4.685 -20.078  -4.211  0.00  0.00     0.115 C 
BRANCH  66  67
ATOM     67  C   UNK d   0       4.661 -20.619  -2.881  0.00  0.00     0.139 C 
ATOM     68  O   UNK d   0       4.052 -19.959  -1.961  0.00  0.00    -0.650 OA
BRANCH  67  69
ATOM     69  O   UNK d   0       5.232 -21.811  -2.434  0.00  0.00    -0.776 OA
ATOM     70  H   UNK d   0       6.252 -21.890  -2.551  0.00  0.00     0.167 HD
ENDBRANCH  67  69
ENDBRANCH  66  67
ENDBRANCH  65  66
ENDBRANCH  14  65
ENDBRANCH   6   7
ENDBRANCH   5   6
ENDBRANCH   2   5
TORSDOF 28
ENDMDL
MODEL 7
REMARK VINA RESULT:      -8.8      3.502      7.453
REMARK  28 active torsions:
REMARK  status: ('A' for Active; 'I' for Inactive)
REMARK    1  A    between atoms: C_2  and  O_3 
REMARK    2  A    between atoms: C_2  and  C_4 
REMARK    3  A    between atoms: C_4  and  C_5 
REMARK    4  A    between atoms: C_5  and  C_6 
REMARK    5  A    between atoms: C_7  and  C_8 
REMARK    6  A    between atoms: C_8  and  C_9 
REMARK    7  A    between atoms: C_9  and  O_11 
REMARK    8  A    between atoms: C_28  and  C_29 
REMARK    9  A    between atoms: C_29  and  C_30 
REMARK   10  A    between atoms: C_30  and  O_32 
REMARK   11  A    between atoms: C_33  and  C_34 
REMARK   12  A    between atoms: C_34  and  C_35 
REMARK   13  A    between atoms: C_35  and  C_36 
REMARK   14  A    between atoms: C_36  and  O_38 
REMARK   15  A    between atoms: C_39  and  C_40 
REMARK   16  A    between atoms: C_40  and  C_41 
REMARK   17  A    between atoms: C_41  and  C_42 
REMARK   18  A    between atoms: C_42  and  O_44 
REMARK   19  A    between atoms: C_45  and  C_46 
REMARK   20  A    between atoms: C_46  and  C_47 
REMARK   21  A    between atoms: C_47  and  O_49 
REMARK   22  A    between atoms: C_50  and  C_51 
REMARK   23  A    between atoms: C_51  and  C_52 
REMARK   24  A    between atoms: C_52  and  O_54 
REMARK   25  A    between atoms: C_55  and  C_56 
REMARK   26  A    between atoms: C_56  and  C_57 
REMARK   27  A    between atoms: C_57  and  C_58 
REMARK   28  A    between atoms: C_58  and  O_60 
ROOT
ATOM      1  O   UNK d   0      14.261 -12.361  -3.765  0.00  0.00    -0.650 OA
ATOM      2  C   UNK d   0      13.168 -12.483  -3.168  0.00  0.00     0.139 C 
ENDROOT
BRANCH   2   3
ATOM      3  O   UNK d   0      12.346 -11.389  -3.037  0.00  0.00    -0.776 OA
ATOM      4  H   UNK d   0      11.634 -11.177  -3.739  0.00  0.00     0.167 HD
ENDBRANCH   2   3
BRANCH   2   5
ATOM      5  C   UNK d   0      12.766 -13.803  -2.604  0.00  0.00     0.115 C 
BRANCH   5   6
ATOM      6  C   UNK d   0      11.282 -13.830  -2.358  0.00  0.00     0.052 C 
BRANCH   6   7
ATOM      7  C   UNK d   0      10.585 -14.926  -3.129  0.00  0.00    -0.020 A 
ATOM      8  C   UNK d   0      10.400 -16.168  -2.760  0.00  0.00    -0.011 A 
ATOM      9  C   UNK d   0       9.690 -16.849  -3.829  0.00  0.00     0.067 A 
ATOM     10  C   UNK d   0       9.186 -18.140  -4.048  0.00  0.00     0.062 C 
ATOM     11  N   UNK d   0       9.487 -15.947  -4.813  0.00  0.00    -0.248 NA
ATOM     12  C   UNK d   0       8.277 -18.539  -5.034  0.00  0.00     0.041 A 
ATOM     13  N   UNK d   0       8.193 -18.225  -6.341  0.00  0.00    -0.355 N 
ATOM     14  C   UNK d   0       7.202 -19.371  -4.672  0.00  0.00    -0.022 A 
ATOM     15  C   UNK d   0       7.087 -18.830  -6.816  0.00  0.00     0.042 A 
ATOM     16  H   UNK d   0       8.911 -17.605  -6.921  0.00  0.00     0.166 HD
ATOM     17  C   UNK d   0       6.534 -18.834  -8.112  0.00  0.00     0.062 C 
ATOM     18  C   UNK d   0       6.439 -19.557  -5.799  0.00  0.00    -0.013 A 
ATOM     19  C   UNK d   0       6.353 -17.785  -8.976  0.00  0.00     0.067 A 
ATOM     20  N   UNK d   0       6.945 -16.631  -8.658  0.00  0.00    -0.248 NA
ATOM     21  C   UNK d   0       5.633 -17.568 -10.220  0.00  0.00    -0.011 A 
ATOM     22  C   UNK d   0       6.663 -15.675  -9.603  0.00  0.00     0.066 A 
ATOM     23  C   UNK d   0       7.249 -14.431  -9.415  0.00  0.00     0.062 C 
ATOM     24  C   UNK d   0       5.815 -16.330 -10.579  0.00  0.00    -0.020 A 
ATOM     25  C   UNK d   0       8.169 -14.054  -8.425  0.00  0.00     0.041 A 
ATOM     26  N   UNK d   0       8.245 -14.354  -7.123  0.00  0.00    -0.355 N 
ATOM     27  C   UNK d   0       9.251 -13.223  -8.790  0.00  0.00    -0.022 A 
ATOM     28  C   UNK d   0       9.342 -13.745  -6.645  0.00  0.00     0.042 A 
ATOM     29  H   UNK d   0       7.517 -14.969  -6.539  0.00  0.00     0.166 HD
ATOM     30  C   UNK d   0       9.899 -13.725  -5.356  0.00  0.00     0.062 C 
ATOM     31  C   UNK d   0       9.998 -13.023  -7.670  0.00  0.00    -0.013 A 
ATOM     32  C   UNK d   0      10.002 -14.771  -4.453  0.00  0.00     0.066 A 
BRANCH   8  33
ATOM     33  C   UNK d   0      10.832 -16.788  -1.493  0.00  0.00     0.151 C 
BRANCH  33  34
ATOM     34  C   UNK d   0      12.273 -17.096  -1.471  0.00  0.00     0.143 C 
ATOM     35  O   UNK d   0      12.986 -16.740  -0.522  0.00  0.00    -0.650 OA
BRANCH  34  36
ATOM     36  O   UNK d   0      12.832 -17.788  -2.521  0.00  0.00    -0.776 OA
ATOM     37  H   UNK d   0      12.525 -17.628  -3.490  0.00  0.00     0.167 HD
ENDBRANCH  34  36
ENDBRANCH  33  34
ENDBRANCH   8  33
BRANCH  31  38
ATOM     38  C   UNK d   0      11.266 -12.207  -7.578  0.00  0.00     0.151 C 
BRANCH  38  39
ATOM     39  C   UNK d   0      11.091 -10.978  -6.834  0.00  0.00     0.143 C 
ATOM     40  O   UNK d   0      11.281 -10.910  -5.607  0.00  0.00    -0.650 OA
BRANCH  39  41
ATOM     41  O   UNK d   0      10.695  -9.821  -7.504  0.00  0.00    -0.776 OA
ATOM     42  H   UNK d   0      11.438  -9.254  -7.925  0.00  0.00     0.167 HD
ENDBRANCH  39  41
ENDBRANCH  38  39
ENDBRANCH  31  38
BRANCH  27  43
ATOM     43  C   UNK d   0       9.590 -12.625 -10.132  0.00  0.00     0.052 C 
BRANCH  43  44
ATOM     44  C   UNK d   0       9.592 -11.131 -10.130  0.00  0.00     0.115 C 
BRANCH  44  45
ATOM     45  C   UNK d   0      10.874 -10.708 -10.751  0.00  0.00     0.139 C 
ATOM     46  O   UNK d   0      11.832 -11.520 -10.744  0.00  0.00    -0.650 OA
BRANCH  45  47
ATOM     47  O   UNK d   0      11.049  -9.472 -11.335  0.00  0.00    -0.776 OA
ATOM     48  H   UNK d   0      11.949  -8.965 -11.315  0.00  0.00     0.167 HD
ENDBRANCH  45  47
ENDBRANCH  44  45
ENDBRANCH  43  44
ENDBRANCH  27  43
BRANCH  24  49
ATOM     49  C   UNK d   0       5.295 -15.695 -11.802  0.00  0.00     0.052 C 
BRANCH  49  50
ATOM     50  C   UNK d   0       6.148 -14.512 -12.182  0.00  0.00     0.115 C 
BRANCH  50  51
ATOM     51  C   UNK d   0       7.066 -14.686 -13.300  0.00  0.00     0.139 C 
ATOM     52  O   UNK d   0       6.680 -15.011 -14.448  0.00  0.00    -0.650 OA
BRANCH  51  53
ATOM     53  O   UNK d   0       8.425 -14.494 -13.108  0.00  0.00    -0.776 OA
ATOM     54  H   UNK d   0       8.965 -14.121 -13.870  0.00  0.00     0.167 HD
ENDBRANCH  51  53
ENDBRANCH  50  51
ENDBRANCH  49  50
ENDBRANCH  24  49
BRANCH  21  55
ATOM     55  C   UNK d   0       4.842 -18.622 -10.921  0.00  0.00     0.151 C 
BRANCH  55  56
ATOM     56  C   UNK d   0       3.572 -18.906 -10.236  0.00  0.00     0.143 C 
ATOM     57  O   UNK d   0       3.218 -20.060  -9.923  0.00  0.00    -0.650 OA
BRANCH  56  58
ATOM     58  O   UNK d   0       2.743 -17.828  -9.931  0.00  0.00    -0.776 OA
ATOM     59  H   UNK d   0       3.017 -17.293  -9.087  0.00  0.00     0.167 HD
ENDBRANCH  56  58
ENDBRANCH  55  56
ENDBRANCH  21  55
BRANCH  18  60
ATOM     60  C   UNK d   0       5.177 -20.381  -5.862  0.00  0.00     0.151 C 
BRANCH  60  61
ATOM     61  C   UNK d   0       4.072 -19.418  -5.987  0.00  0.00     0.143 C 
ATOM     62  O   UNK d   0       3.944 -18.353  -5.384  0.00  0.00    -0.650 OA
BRANCH  61  63
ATOM     63  O   UNK d   0       3.060 -19.780  -6.909  0.00  0.00    -0.776 OA
ATOM     64  H   UNK d   0       2.676 -19.106  -7.547  0.00  0.00     0.167 HD
ENDBRANCH  61  63
ENDBRANCH  60  61
ENDBRANCH  18  60
BRANCH  14  65
ATOM     65  C   UNK d   0       6.898 -20.075  -3.381  0.00  0.00     0.052 C 
BRANCH  65  66
ATOM     66  C   UNK d   0       5.821 -19.413  -2.596  0.00  0.00     0.115 C 
BRANCH  66  67
ATOM     67  C   UNK d   0       4.567 -20.085  -2.401  0.00  0.00     0.139 C 
ATOM     68  O   UNK d   0       4.581 -21.318  -2.036  0.00  0.00    -0.650 OA
BRANCH  67  69
ATOM     69  O   UNK d   0       3.285 -19.561  -2.561  0.00  0.00    -0.776 OA
ATOM     70  H   UNK d   0       2.725 -19.477  -1.700  0.00  0.00     0.167 HD
ENDBRANCH  67  69
ENDBRANCH  66  67
ENDBRANCH  65  66
ENDBRANCH  14  65
ENDBRANCH   6   7
ENDBRANCH   5   6
ENDBRANCH   2   5
TORSDOF 28
ENDMDL
MODEL 8
REMARK VINA RESULT:      -8.8      1.978      9.676
REMARK  28 active torsions:
REMARK  status: ('A' for Active; 'I' for Inactive)
REMARK    1  A    between atoms: C_2  and  O_3 
REMARK    2  A    between atoms: C_2  and  C_4 
REMARK    3  A    between atoms: C_4  and  C_5 
REMARK    4  A    between atoms: C_5  and  C_6 
REMARK    5  A    between atoms: C_7  and  C_8 
REMARK    6  A    between atoms: C_8  and  C_9 
REMARK    7  A    between atoms: C_9  and  O_11 
REMARK    8  A    between atoms: C_28  and  C_29 
REMARK    9  A    between atoms: C_29  and  C_30 
REMARK   10  A    between atoms: C_30  and  O_32 
REMARK   11  A    between atoms: C_33  and  C_34 
REMARK   12  A    between atoms: C_34  and  C_35 
REMARK   13  A    between atoms: C_35  and  C_36 
REMARK   14  A    between atoms: C_36  and  O_38 
REMARK   15  A    between atoms: C_39  and  C_40 
REMARK   16  A    between atoms: C_40  and  C_41 
REMARK   17  A    between atoms: C_41  and  C_42 
REMARK   18  A    between atoms: C_42  and  O_44 
REMARK   19  A    between atoms: C_45  and  C_46 
REMARK   20  A    between atoms: C_46  and  C_47 
REMARK   21  A    between atoms: C_47  and  O_49 
REMARK   22  A    between atoms: C_50  and  C_51 
REMARK   23  A    between atoms: C_51  and  C_52 
REMARK   24  A    between atoms: C_52  and  O_54 
REMARK   25  A    between atoms: C_55  and  C_56 
REMARK   26  A    between atoms: C_56  and  C_57 
REMARK   27  A    between atoms: C_57  and  C_58 
REMARK   28  A    between atoms: C_58  and  O_60 
ROOT
ATOM      1  O   UNK d   0       5.835 -17.534  -9.413  0.00  0.00    -0.650 OA
ATOM      2  C   UNK d   0       7.060 -17.789  -9.416  0.00  0.00     0.139 C 
ENDROOT
BRANCH   2   3
ATOM      3  O   UNK d   0       7.506 -18.940 -10.020  0.00  0.00    -0.776 OA
ATOM      4  H   UNK d   0       6.890 -19.746 -10.141  0.00  0.00     0.167 HD
ENDBRANCH   2   3
BRANCH   2   5
ATOM      5  C   UNK d   0       8.021 -16.853  -8.769  0.00  0.00     0.115 C 
BRANCH   5   6
ATOM      6  C   UNK d   0       7.547 -15.433  -8.927  0.00  0.00     0.052 C 
BRANCH   6   7
ATOM      7  C   UNK d   0       8.475 -14.435  -8.278  0.00  0.00    -0.020 A 
ATOM      8  C   UNK d   0       9.085 -13.426  -8.845  0.00  0.00    -0.011 A 
ATOM      9  C   UNK d   0       9.877 -12.755  -7.827  0.00  0.00     0.067 A 
ATOM     10  C   UNK d   0      10.718 -11.632  -7.775  0.00  0.00     0.062 C 
ATOM     11  N   UNK d   0       9.694 -13.426  -6.671  0.00  0.00    -0.248 NA
ATOM     12  C   UNK d   0      11.177 -10.970  -6.631  0.00  0.00     0.041 A 
ATOM     13  N   UNK d   0      11.645 -11.444  -5.461  0.00  0.00    -0.355 N 
ATOM     14  C   UNK d   0      11.127  -9.565  -6.592  0.00  0.00    -0.022 A 
ATOM     15  C   UNK d   0      11.886 -10.376  -4.677  0.00  0.00     0.042 A 
ATOM     16  H   UNK d   0      11.821 -12.512  -5.201  0.00  0.00     0.166 HD
ATOM     17  C   UNK d   0      12.382 -10.303  -3.360  0.00  0.00     0.062 C 
ATOM     18  C   UNK d   0      11.572  -9.180  -5.351  0.00  0.00    -0.013 A 
ATOM     19  C   UNK d   0      12.035 -11.052  -2.265  0.00  0.00     0.067 A 
ATOM     20  N   UNK d   0      11.274 -12.127  -2.484  0.00  0.00    -0.248 NA
ATOM     21  C   UNK d   0      12.274 -10.981  -0.833  0.00  0.00    -0.011 A 
ATOM     22  C   UNK d   0      10.996 -12.764  -1.299  0.00  0.00     0.066 A 
ATOM     23  C   UNK d   0      10.241 -13.924  -1.385  0.00  0.00     0.062 C 
ATOM     24  C   UNK d   0      11.660 -11.984  -0.273  0.00  0.00    -0.020 A 
ATOM     25  C   UNK d   0       9.800 -14.580  -2.545  0.00  0.00     0.041 A 
ATOM     26  N   UNK d   0       9.321 -14.109  -3.703  0.00  0.00    -0.355 N 
ATOM     27  C   UNK d   0       9.855 -15.990  -2.586  0.00  0.00    -0.022 A 
ATOM     28  C   UNK d   0       9.072 -15.173  -4.483  0.00  0.00     0.042 A 
ATOM     29  H   UNK d   0       9.135 -13.037  -3.958  0.00  0.00     0.166 HD
ATOM     30  C   UNK d   0       8.570 -15.261  -5.791  0.00  0.00     0.062 C 
ATOM     31  C   UNK d   0       9.397 -16.374  -3.808  0.00  0.00    -0.013 A 
ATOM     32  C   UNK d   0       8.861 -14.447  -6.875  0.00  0.00     0.066 A 
BRANCH   8  33
ATOM     33  C   UNK d   0       9.004 -13.026 -10.262  0.00  0.00     0.151 C 
BRANCH  33  34
ATOM     34  C   UNK d   0      10.130 -12.171 -10.679  0.00  0.00     0.143 C 
ATOM     35  O   UNK d   0      11.241 -12.659 -10.932  0.00  0.00    -0.650 OA
BRANCH  34  36
ATOM     36  O   UNK d   0       9.943 -10.812 -10.786  0.00  0.00    -0.776 OA
ATOM     37  H   UNK d   0       9.380 -10.409 -11.548  0.00  0.00     0.167 HD
ENDBRANCH  34  36
ENDBRANCH  33  34
ENDBRANCH   8  33
BRANCH  31  38
ATOM     38  C   UNK d   0       9.286 -17.793  -4.314  0.00  0.00     0.151 C 
BRANCH  38  39
ATOM     39  C   UNK d   0      10.450 -18.215  -5.065  0.00  0.00     0.143 C 
ATOM     40  O   UNK d   0      10.387 -18.536  -6.264  0.00  0.00    -0.650 OA
BRANCH  39  41
ATOM     41  O   UNK d   0      11.692 -18.266  -4.434  0.00  0.00    -0.776 OA
ATOM     42  H   UNK d   0      12.502 -18.479  -5.025  0.00  0.00     0.167 HD
ENDBRANCH  39  41
ENDBRANCH  38  39
ENDBRANCH  31  38
BRANCH  27  43
ATOM     43  C   UNK d   0      10.315 -16.962  -1.528  0.00  0.00     0.052 C 
BRANCH  43  44
ATOM     44  C   UNK d   0       9.376 -18.107  -1.329  0.00  0.00     0.115 C 
BRANCH  44  45
ATOM     45  C   UNK d   0       8.269 -17.605  -0.473  0.00  0.00     0.139 C 
ATOM     46  O   UNK d   0       7.270 -18.347  -0.303  0.00  0.00    -0.650 OA
BRANCH  45  47
ATOM     47  O   UNK d   0       8.300 -16.371   0.140  0.00  0.00    -0.776 OA
ATOM     48  H   UNK d   0       7.855 -16.189   1.054  0.00  0.00     0.167 HD
ENDBRANCH  45  47
ENDBRANCH  44  45
ENDBRANCH  43  44
ENDBRANCH  27  43
BRANCH  24  49
ATOM     49  C   UNK d   0      11.670 -12.316   1.162  0.00  0.00     0.052 C 
BRANCH  49  50
ATOM     50  C   UNK d   0      10.944 -11.256   1.951  0.00  0.00     0.115 C 
BRANCH  50  51
ATOM     51  C   UNK d   0      11.700 -10.563   2.985  0.00  0.00     0.139 C 
ATOM     52  O   UNK d   0      11.197  -9.671   3.708  0.00  0.00    -0.650 OA
BRANCH  51  53
ATOM     53  O   UNK d   0      13.032 -10.887   3.195  0.00  0.00    -0.776 OA
ATOM     54  H   UNK d   0      13.428 -10.708   4.101  0.00  0.00     0.167 HD
ENDBRANCH  51  53
ENDBRANCH  50  51
ENDBRANCH  49  50
ENDBRANCH  24  49
BRANCH  21  55
ATOM     55  C   UNK d   0      13.094  -9.922  -0.174  0.00  0.00     0.151 C 
BRANCH  55  56
ATOM     56  C   UNK d   0      14.524 -10.266  -0.152  0.00  0.00     0.143 C 
ATOM     57  O   UNK d   0      15.079 -10.902  -1.069  0.00  0.00    -0.650 OA
BRANCH  56  58
ATOM     58  O   UNK d   0      15.274  -9.855   0.949  0.00  0.00    -0.776 OA
ATOM     59  H   UNK d   0      14.732  -9.726   1.822  0.00  0.00     0.167 HD
ENDBRANCH  56  58
ENDBRANCH  55  56
ENDBRANCH  21  55
BRANCH  18  60
ATOM     60  C   UNK d   0      11.676  -7.753  -4.874  0.00  0.00     0.151 C 
BRANCH  60  61
ATOM     61  C   UNK d   0      10.361  -7.422  -4.303  0.00  0.00     0.143 C 
ATOM     62  O   UNK d   0       9.749  -6.360  -4.418  0.00  0.00    -0.650 OA
BRANCH  61  63
ATOM     63  O   UNK d   0       9.757  -8.453  -3.545  0.00  0.00    -0.776 OA
ATOM     64  H   UNK d   0       9.529  -8.319  -2.576  0.00  0.00     0.167 HD
ENDBRANCH  61  63
ENDBRANCH  60  61
ENDBRANCH  18  60
BRANCH  14  65
ATOM     65  C   UNK d   0      10.787  -8.565  -7.660  0.00  0.00     0.052 C 
BRANCH  65  66
ATOM     66  C   UNK d   0      11.676  -8.659  -8.849  0.00  0.00     0.115 C 
BRANCH  66  67
ATOM     67  C   UNK d   0      11.419  -7.835  -9.996  0.00  0.00     0.139 C 
ATOM     68  O   UNK d   0      11.343  -8.398 -11.150  0.00  0.00    -0.650 OA
BRANCH  67  69
ATOM     69  O   UNK d   0      11.233  -6.454 -10.031  0.00  0.00    -0.776 OA
ATOM     70  H   UNK d   0      10.461  -6.091  -9.453  0.00  0.00     0.167 HD
ENDBRANCH  67  69
ENDBRANCH  66  67
ENDBRANCH  65  66
ENDBRANCH  14  65
ENDBRANCH   6   7
ENDBRANCH   5   6
ENDBRANCH   2   5
TORSDOF 28
ENDMDL
MODEL 9
REMARK VINA RESULT:      -8.7      2.077      9.409
REMARK  28 active torsions:
REMARK  status: ('A' for Active; 'I' for Inactive)
REMARK    1  A    between atoms: C_2  and  O_3 
REMARK    2  A    between atoms: C_2  and  C_4 
REMARK    3  A    between atoms: C_4  and  C_5 
REMARK    4  A    between atoms: C_5  and  C_6 
REMARK    5  A    between atoms: C_7  and  C_8 
REMARK    6  A    between atoms: C_8  and  C_9 
REMARK    7  A    between atoms: C_9  and  O_11 
REMARK    8  A    between atoms: C_28  and  C_29 
REMARK    9  A    between atoms: C_29  and  C_30 
REMARK   10  A    between atoms: C_30  and  O_32 
REMARK   11  A    between atoms: C_33  and  C_34 
REMARK   12  A    between atoms: C_34  and  C_35 
REMARK   13  A    between atoms: C_35  and  C_36 
REMARK   14  A    between atoms: C_36  and  O_38 
REMARK   15  A    between atoms: C_39  and  C_40 
REMARK   16  A    between atoms: C_40  and  C_41 
REMARK   17  A    between atoms: C_41  and  C_42 
REMARK   18  A    between atoms: C_42  and  O_44 
REMARK   19  A    between atoms: C_45  and  C_46 
REMARK   20  A    between atoms: C_46  and  C_47 
REMARK   21  A    between atoms: C_47  and  O_49 
REMARK   22  A    between atoms: C_50  and  C_51 
REMARK   23  A    between atoms: C_51  and  C_52 
REMARK   24  A    between atoms: C_52  and  O_54 
REMARK   25  A    between atoms: C_55  and  C_56 
REMARK   26  A    between atoms: C_56  and  C_57 
REMARK   27  A    between atoms: C_57  and  C_58 
REMARK   28  A    between atoms: C_58  and  O_60 
ROOT
ATOM      1  O   UNK d   0      10.331  -4.586  -6.554  0.00  0.00    -0.650 OA
ATOM      2  C   UNK d   0      11.143  -5.500  -6.822  0.00  0.00     0.139 C 
ENDROOT
BRANCH   2   3
ATOM      3  O   UNK d   0      12.130  -5.273  -7.751  0.00  0.00    -0.776 OA
ATOM      4  H   UNK d   0      13.083  -5.043  -7.462  0.00  0.00     0.167 HD
ENDBRANCH   2   3
BRANCH   2   5
ATOM      5  C   UNK d   0      11.036  -6.820  -6.139  0.00  0.00     0.115 C 
BRANCH   5   6
ATOM      6  C   UNK d   0      11.992  -7.802  -6.758  0.00  0.00     0.052 C 
BRANCH   6   7
ATOM      7  C   UNK d   0      11.865  -9.187  -6.169  0.00  0.00    -0.020 A 
ATOM      8  C   UNK d   0      12.356  -9.621  -5.037  0.00  0.00    -0.011 A 
ATOM      9  C   UNK d   0      11.984 -11.019  -4.897  0.00  0.00     0.067 A 
ATOM     10  C   UNK d   0      12.170 -12.025  -3.937  0.00  0.00     0.062 C 
ATOM     11  N   UNK d   0      11.273 -11.356  -5.994  0.00  0.00    -0.248 NA
ATOM     12  C   UNK d   0      11.495 -13.248  -3.848  0.00  0.00     0.041 A 
ATOM     13  N   UNK d   0      11.148 -14.139  -4.796  0.00  0.00    -0.355 N 
ATOM     14  C   UNK d   0      11.012 -13.669  -2.596  0.00  0.00    -0.022 A 
ATOM     15  C   UNK d   0      10.451 -15.112  -4.178  0.00  0.00     0.042 A 
ATOM     16  H   UNK d   0      11.407 -14.092  -5.876  0.00  0.00     0.166 HD
ATOM     17  C   UNK d   0       9.858 -16.281  -4.696  0.00  0.00     0.062 C 
ATOM     18  C   UNK d   0      10.345 -14.851  -2.798  0.00  0.00    -0.013 A 
ATOM     19  C   UNK d   0       9.103 -16.435  -5.830  0.00  0.00     0.067 A 
ATOM     20  N   UNK d   0       9.070 -15.404  -6.679  0.00  0.00    -0.248 NA
ATOM     21  C   UNK d   0       8.261 -17.478  -6.391  0.00  0.00    -0.011 A 
ATOM     22  C   UNK d   0       8.266 -15.698  -7.754  0.00  0.00     0.066 A 
ATOM     23  C   UNK d   0       8.172 -14.724  -8.737  0.00  0.00     0.062 C 
ATOM     24  C   UNK d   0       7.771 -17.039  -7.515  0.00  0.00    -0.020 A 
ATOM     25  C   UNK d   0       8.869 -13.508  -8.814  0.00  0.00     0.041 A 
ATOM     26  N   UNK d   0       9.200 -12.614  -7.874  0.00  0.00    -0.355 N 
ATOM     27  C   UNK d   0       9.357 -13.088 -10.070  0.00  0.00    -0.022 A 
ATOM     28  C   UNK d   0       9.888 -11.639  -8.489  0.00  0.00     0.042 A 
ATOM     29  H   UNK d   0       8.930 -12.658  -6.791  0.00  0.00     0.166 HD
ATOM     30  C   UNK d   0      10.475 -10.467  -7.988  0.00  0.00     0.062 C 
ATOM     31  C   UNK d   0      10.004 -11.907  -9.874  0.00  0.00    -0.013 A 
ATOM     32  C   UNK d   0      11.165 -10.297  -6.798  0.00  0.00     0.066 A 
BRANCH   8  33
ATOM     33  C   UNK d   0      13.151  -8.850  -4.063  0.00  0.00     0.151 C 
BRANCH  33  34
ATOM     34  C   UNK d   0      12.414  -8.570  -2.818  0.00  0.00     0.143 C 
ATOM     35  O   UNK d   0      11.395  -7.864  -2.827  0.00  0.00    -0.650 OA
BRANCH  34  36
ATOM     36  O   UNK d   0      12.866  -9.099  -1.632  0.00  0.00    -0.776 OA
ATOM     37  H   UNK d   0      13.587  -9.833  -1.615  0.00  0.00     0.167 HD
ENDBRANCH  34  36
ENDBRANCH  33  34
ENDBRANCH   8  33
BRANCH  31  38
ATOM     38  C   UNK d   0      10.702 -11.086 -10.933  0.00  0.00     0.151 C 
BRANCH  38  39
ATOM     39  C   UNK d   0      12.143 -11.113 -10.805  0.00  0.00     0.143 C 
ATOM     40  O   UNK d   0      12.800 -10.113 -10.464  0.00  0.00    -0.650 OA
BRANCH  39  41
ATOM     41  O   UNK d   0      12.834 -12.296 -11.069  0.00  0.00    -0.776 OA
ATOM     42  H   UNK d   0      12.774 -13.033 -10.360  0.00  0.00     0.167 HD
ENDBRANCH  39  41
ENDBRANCH  38  39
ENDBRANCH  31  38
BRANCH  27  43
ATOM     43  C   UNK d   0       9.231 -13.753 -11.418  0.00  0.00     0.052 C 
BRANCH  43  44
ATOM     44  C   UNK d   0       8.056 -13.271 -12.207  0.00  0.00     0.115 C 
BRANCH  44  45
ATOM     45  C   UNK d   0       7.218 -14.465 -12.492  0.00  0.00     0.139 C 
ATOM     46  O   UNK d   0       6.353 -14.796 -11.644  0.00  0.00    -0.650 OA
BRANCH  45  47
ATOM     47  O   UNK d   0       7.348 -15.212 -13.642  0.00  0.00    -0.776 OA
ATOM     48  H   UNK d   0       8.101 -15.907 -13.777  0.00  0.00     0.167 HD
ENDBRANCH  45  47
ENDBRANCH  44  45
ENDBRANCH  43  44
ENDBRANCH  27  43
BRANCH  24  49
ATOM     49  C   UNK d   0       6.896 -17.789  -8.432  0.00  0.00     0.052 C 
BRANCH  49  50
ATOM     50  C   UNK d   0       5.470 -17.319  -8.298  0.00  0.00     0.115 C 
BRANCH  50  51
ATOM     51  C   UNK d   0       4.662 -17.294  -9.510  0.00  0.00     0.139 C 
ATOM     52  O   UNK d   0       3.415 -17.170  -9.488  0.00  0.00    -0.650 OA
BRANCH  51  53
ATOM     53  O   UNK d   0       5.276 -17.413 -10.747  0.00  0.00    -0.776 OA
ATOM     54  H   UNK d   0       4.737 -17.779 -11.512  0.00  0.00     0.167 HD
ENDBRANCH  51  53
ENDBRANCH  50  51
ENDBRANCH  49  50
ENDBRANCH  24  49
BRANCH  21  55
ATOM     55  C   UNK d   0       8.038 -18.807  -5.748  0.00  0.00     0.151 C 
BRANCH  55  56
ATOM     56  C   UNK d   0       7.070 -18.729  -4.643  0.00  0.00     0.143 C 
ATOM     57  O   UNK d   0       7.380 -18.958  -3.457  0.00  0.00    -0.650 OA
BRANCH  56  58
ATOM     58  O   UNK d   0       5.756 -18.383  -4.954  0.00  0.00    -0.776 OA
ATOM     59  H   UNK d   0       5.274 -17.813  -4.236  0.00  0.00     0.167 HD
ENDBRANCH  56  58
ENDBRANCH  55  56
ENDBRANCH  21  55
BRANCH  18  60
ATOM     60  C   UNK d   0       9.658 -15.652  -1.719  0.00  0.00     0.151 C 
BRANCH  60  61
ATOM     61  C   UNK d   0      10.396 -16.922  -1.628  0.00  0.00     0.143 C 
ATOM     62  O   UNK d   0      11.617 -17.068  -1.563  0.00  0.00    -0.650 OA
BRANCH  61  63
ATOM     63  O   UNK d   0       9.591 -18.086  -1.614  0.00  0.00    -0.776 OA
ATOM     64  H   UNK d   0       8.599 -18.033  -1.765  0.00  0.00     0.167 HD
ENDBRANCH  61  63
ENDBRANCH  60  61
ENDBRANCH  18  60
BRANCH  14  65
ATOM     65  C   UNK d   0      11.216 -13.096  -1.222  0.00  0.00     0.052 C 
BRANCH  65  66
ATOM     66  C   UNK d   0      10.055 -12.297  -0.747  0.00  0.00     0.115 C 
BRANCH  66  67
ATOM     67  C   UNK d   0       9.623 -12.411   0.618  0.00  0.00     0.139 C 
ATOM     68  O   UNK d   0      10.039 -13.411   1.311  0.00  0.00    -0.650 OA
BRANCH  67  69
ATOM     69  O   UNK d   0       8.780 -11.551   1.321  0.00  0.00    -0.776 OA
ATOM     70  H   UNK d   0       7.801 -11.525   1.002  0.00  0.00     0.167 HD
ENDBRANCH  67  69
ENDBRANCH  66  67
ENDBRANCH  65  66
ENDBRANCH  14  65
ENDBRANCH   6   7
ENDBRANCH   5   6
ENDBRANCH   2   5
TORSDOF 28
ENDMDL
MODEL 10
REMARK VINA RESULT:      -8.6      1.939      8.459
REMARK  28 active torsions:
REMARK  status: ('A' for Active; 'I' for Inactive)
REMARK    1  A    between atoms: C_2  and  O_3 
REMARK    2  A    between atoms: C_2  and  C_4 
REMARK    3  A    between atoms: C_4  and  C_5 
REMARK    4  A    between atoms: C_5  and  C_6 
REMARK    5  A    between atoms: C_7  and  C_8 
REMARK    6  A    between atoms: C_8  and  C_9 
REMARK    7  A    between atoms: C_9  and  O_11 
REMARK    8  A    between atoms: C_28  and  C_29 
REMARK    9  A    between atoms: C_29  and  C_30 
REMARK   10  A    between atoms: C_30  and  O_32 
REMARK   11  A    between atoms: C_33  and  C_34 
REMARK   12  A    between atoms: C_34  and  C_35 
REMARK   13  A    between atoms: C_35  and  C_36 
REMARK   14  A    between atoms: C_36  and  O_38 
REMARK   15  A    between atoms: C_39  and  C_40 
REMARK   16  A    between atoms: C_40  and  C_41 
REMARK   17  A    between atoms: C_41  and  C_42 
REMARK   18  A    between atoms: C_42  and  O_44 
REMARK   19  A    between atoms: C_45  and  C_46 
REMARK   20  A    between atoms: C_46  and  C_47 
REMARK   21  A    between atoms: C_47  and  O_49 
REMARK   22  A    between atoms: C_50  and  C_51 
REMARK   23  A    between atoms: C_51  and  C_52 
REMARK   24  A    between atoms: C_52  and  O_54 
REMARK   25  A    between atoms: C_55  and  C_56 
REMARK   26  A    between atoms: C_56  and  C_57 
REMARK   27  A    between atoms: C_57  and  C_58 
REMARK   28  A    between atoms: C_58  and  O_60 
ROOT
ATOM      1  O   UNK d   0      14.310  -8.271  -0.201  0.00  0.00    -0.650 OA
ATOM      2  C   UNK d   0      14.135  -9.369  -0.774  0.00  0.00     0.139 C 
ENDROOT
BRANCH   2   3
ATOM      3  O   UNK d   0      14.973 -10.420  -0.485  0.00  0.00    -0.776 OA
ATOM      4  H   UNK d   0      15.983 -10.283  -0.406  0.00  0.00     0.167 HD
ENDBRANCH   2   3
BRANCH   2   5
ATOM      5  C   UNK d   0      13.028  -9.532  -1.758  0.00  0.00     0.115 C 
BRANCH   5   6
ATOM      6  C   UNK d   0      13.529  -9.256  -3.150  0.00  0.00     0.052 C 
BRANCH   6   7
ATOM      7  C   UNK d   0      12.631  -9.836  -4.216  0.00  0.00    -0.020 A 
ATOM      8  C   UNK d   0      12.217  -9.257  -5.314  0.00  0.00    -0.011 A 
ATOM      9  C   UNK d   0      11.367 -10.199  -6.022  0.00  0.00     0.067 A 
ATOM     10  C   UNK d   0      10.652 -10.208  -7.230  0.00  0.00     0.062 C 
ATOM     11  N   UNK d   0      11.314 -11.326  -5.281  0.00  0.00    -0.248 NA
ATOM     12  C   UNK d   0      10.110 -11.319  -7.885  0.00  0.00     0.041 A 
ATOM     13  N   UNK d   0       9.434 -12.384  -7.413  0.00  0.00    -0.355 N 
ATOM     14  C   UNK d   0      10.304 -11.453  -9.272  0.00  0.00    -0.022 A 
ATOM     15  C   UNK d   0       9.202 -13.194  -8.463  0.00  0.00     0.042 A 
ATOM     16  H   UNK d   0       9.111 -12.551  -6.362  0.00  0.00     0.166 HD
ATOM     17  C   UNK d   0       8.536 -14.435  -8.530  0.00  0.00     0.062 C 
ATOM     18  C   UNK d   0       9.732 -12.644  -9.646  0.00  0.00    -0.013 A 
ATOM     19  C   UNK d   0       8.645 -15.518  -7.696  0.00  0.00     0.067 A 
ATOM     20  N   UNK d   0       9.310 -15.336  -6.552  0.00  0.00    -0.248 NA
ATOM     21  C   UNK d   0       8.216 -16.906  -7.726  0.00  0.00    -0.011 A 
ATOM     22  C   UNK d   0       9.349 -16.505  -5.833  0.00  0.00     0.066 A 
ATOM     23  C   UNK d   0       9.980 -16.449  -4.599  0.00  0.00     0.062 C 
ATOM     24  C   UNK d   0       8.635 -17.480  -6.634  0.00  0.00    -0.020 A 
ATOM     25  C   UNK d   0      10.507 -15.320  -3.953  0.00  0.00     0.041 A 
ATOM     26  N   UNK d   0      11.192 -14.268  -4.420  0.00  0.00    -0.355 N 
ATOM     27  C   UNK d   0      10.308 -15.184  -2.562  0.00  0.00    -0.022 A 
ATOM     28  C   UNK d   0      11.433 -13.464  -3.373  0.00  0.00     0.042 A 
ATOM     29  H   UNK d   0      11.525 -14.108  -5.475  0.00  0.00     0.166 HD
ATOM     30  C   UNK d   0      12.101 -12.232  -3.290  0.00  0.00     0.062 C 
ATOM     31  C   UNK d   0      10.890 -14.012  -2.186  0.00  0.00    -0.013 A 
ATOM     32  C   UNK d   0      12.053 -11.172  -4.182  0.00  0.00     0.066 A 
BRANCH   8  33
ATOM     33  C   UNK d   0      12.538  -7.891  -5.768  0.00  0.00     0.151 C 
BRANCH  33  34
ATOM     34  C   UNK d   0      11.534  -6.898  -5.345  0.00  0.00     0.143 C 
ATOM     35  O   UNK d   0      10.748  -6.399  -6.163  0.00  0.00    -0.650 OA
BRANCH  34  36
ATOM     36  O   UNK d   0      11.472  -6.521  -4.024  0.00  0.00    -0.776 OA
ATOM     37  H   UNK d   0      11.866  -5.626  -3.705  0.00  0.00     0.167 HD
ENDBRANCH  34  36
ENDBRANCH  33  34
ENDBRANCH   8  33
BRANCH  31  38
ATOM     38  C   UNK d   0      10.919 -13.439  -0.789  0.00  0.00     0.151 C 
BRANCH  38  39
ATOM     39  C   UNK d   0       9.712 -12.712  -0.455  0.00  0.00     0.143 C 
ATOM     40  O   UNK d   0       8.685 -12.772  -1.153  0.00  0.00    -0.650 OA
BRANCH  39  41
ATOM     41  O   UNK d   0       9.686 -11.913   0.687  0.00  0.00    -0.776 OA
ATOM     42  H   UNK d   0       9.057 -11.104   0.671  0.00  0.00     0.167 HD
ENDBRANCH  39  41
ENDBRANCH  38  39
ENDBRANCH  31  38
BRANCH  27  43
ATOM     43  C   UNK d   0       9.604 -16.108  -1.600  0.00  0.00     0.052 C 
BRANCH  43  44
ATOM     44  C   UNK d   0      10.100 -17.516  -1.662  0.00  0.00     0.115 C 
BRANCH  44  45
ATOM     45  C   UNK d   0       8.904 -18.392  -1.561  0.00  0.00     0.139 C 
ATOM     46  O   UNK d   0       8.739 -19.272  -2.442  0.00  0.00    -0.650 OA
BRANCH  45  47
ATOM     47  O   UNK d   0       7.980 -18.281  -0.545  0.00  0.00    -0.776 OA
ATOM     48  H   UNK d   0       8.010 -18.866   0.306  0.00  0.00     0.167 HD
ENDBRANCH  45  47
ENDBRANCH  44  45
ENDBRANCH  43  44
ENDBRANCH  27  43
BRANCH  24  49
ATOM     49  C   UNK d   0       8.389 -18.877  -6.238  0.00  0.00     0.052 C 
BRANCH  49  50
ATOM     50  C   UNK d   0       7.111 -18.980  -5.445  0.00  0.00     0.115 C 
BRANCH  50  51
ATOM     51  C   UNK d   0       5.973 -19.610  -6.099  0.00  0.00     0.139 C 
ATOM     52  O   UNK d   0       5.906 -20.846  -6.298  0.00  0.00    -0.650 OA
BRANCH  51  53
ATOM     53  O   UNK d   0       4.910 -18.831  -6.528  0.00  0.00    -0.776 OA
ATOM     54  H   UNK d   0       4.962 -18.418  -7.443  0.00  0.00     0.167 HD
ENDBRANCH  51  53
ENDBRANCH  50  51
ENDBRANCH  49  50
ENDBRANCH  24  49
BRANCH  21  55
ATOM     55  C   UNK d   0       7.430 -17.514  -8.839  0.00  0.00     0.151 C 
BRANCH  55  56
ATOM     56  C   UNK d   0       6.229 -16.727  -9.159  0.00  0.00     0.143 C 
ATOM     57  O   UNK d   0       5.293 -16.564  -8.351  0.00  0.00    -0.650 OA
BRANCH  56  58
ATOM     58  O   UNK d   0       6.151 -16.147 -10.424  0.00  0.00    -0.776 OA
ATOM     59  H   UNK d   0       5.743 -16.753 -11.158  0.00  0.00     0.167 HD
ENDBRANCH  56  58
ENDBRANCH  55  56
ENDBRANCH  21  55
BRANCH  18  60
ATOM     60  C   UNK d   0       9.716 -13.191 -11.052  0.00  0.00     0.151 C 
BRANCH  60  61
ATOM     61  C   UNK d   0       8.299 -13.403 -11.386  0.00  0.00     0.143 C 
ATOM     62  O   UNK d   0       7.343 -12.710 -11.038  0.00  0.00    -0.650 OA
BRANCH  61  63
ATOM     63  O   UNK d   0       8.035 -14.532 -12.198  0.00  0.00    -0.776 OA
ATOM     64  H   UNK d   0       7.276 -14.531 -12.857  0.00  0.00     0.167 HD
ENDBRANCH  61  63
ENDBRANCH  60  61
ENDBRANCH  18  60
BRANCH  14  65
ATOM     65  C   UNK d   0      10.895 -10.505 -10.276  0.00  0.00     0.052 C 
BRANCH  65  66
ATOM     66  C   UNK d   0      12.376 -10.404 -10.178  0.00  0.00     0.115 C 
BRANCH  66  67
ATOM     67  C   UNK d   0      13.201 -11.123 -11.108  0.00  0.00     0.139 C 
ATOM     68  O   UNK d   0      14.127 -10.483 -11.729  0.00  0.00    -0.650 OA
BRANCH  67  69
ATOM     69  O   UNK d   0      13.131 -12.475 -11.441  0.00  0.00    -0.776 OA
ATOM     70  H   UNK d   0      13.597 -12.745 -12.319  0.00  0.00     0.167 HD
ENDBRANCH  67  69
ENDBRANCH  66  67
ENDBRANCH  65  66
ENDBRANCH  14  65
ENDBRANCH   6   7
ENDBRANCH   5   6
ENDBRANCH   2   5
TORSDOF 28
ENDMDL
MODEL 11
REMARK VINA RESULT:      -8.5      1.878      9.776
REMARK  28 active torsions:
REMARK  status: ('A' for Active; 'I' for Inactive)
REMARK    1  A    between atoms: C_2  and  O_3 
REMARK    2  A    between atoms: C_2  and  C_4 
REMARK    3  A    between atoms: C_4  and  C_5 
REMARK    4  A    between atoms: C_5  and  C_6 
REMARK    5  A    between atoms: C_7  and  C_8 
REMARK    6  A    between atoms: C_8  and  C_9 
REMARK    7  A    between atoms: C_9  and  O_11 
REMARK    8  A    between atoms: C_28  and  C_29 
REMARK    9  A    between atoms: C_29  and  C_30 
REMARK   10  A    between atoms: C_30  and  O_32 
REMARK   11  A    between atoms: C_33  and  C_34 
REMARK   12  A    between atoms: C_34  and  C_35 
REMARK   13  A    between atoms: C_35  and  C_36 
REMARK   14  A    between atoms: C_36  and  O_38 
REMARK   15  A    between atoms: C_39  and  C_40 
REMARK   16  A    between atoms: C_40  and  C_41 
REMARK   17  A    between atoms: C_41  and  C_42 
REMARK   18  A    between atoms: C_42  and  O_44 
REMARK   19  A    between atoms: C_45  and  C_46 
REMARK   20  A    between atoms: C_46  and  C_47 
REMARK   21  A    between atoms: C_47  and  O_49 
REMARK   22  A    between atoms: C_50  and  C_51 
REMARK   23  A    between atoms: C_51  and  C_52 
REMARK   24  A    between atoms: C_52  and  O_54 
REMARK   25  A    between atoms: C_55  and  C_56 
REMARK   26  A    between atoms: C_56  and  C_57 
REMARK   27  A    between atoms: C_57  and  C_58 
REMARK   28  A    between atoms: C_58  and  O_60 
ROOT
ATOM      1  O   UNK d   0      10.874  -5.253 -10.568  0.00  0.00    -0.650 OA
ATOM      2  C   UNK d   0      11.575  -5.410  -9.543  0.00  0.00     0.139 C 
ENDROOT
BRANCH   2   3
ATOM      3  O   UNK d   0      12.477  -4.436  -9.190  0.00  0.00    -0.776 OA
ATOM      4  H   UNK d   0      13.267  -4.203  -9.796  0.00  0.00     0.167 HD
ENDBRANCH   2   3
BRANCH   2   5
ATOM      5  C   UNK d   0      11.428  -6.642  -8.718  0.00  0.00     0.115 C 
BRANCH   5   6
ATOM      6  C   UNK d   0      11.844  -6.366  -7.298  0.00  0.00     0.052 C 
BRANCH   6   7
ATOM      7  C   UNK d   0      11.981  -7.626  -6.477  0.00  0.00    -0.020 A 
ATOM      8  C   UNK d   0      12.619  -7.775  -5.345  0.00  0.00    -0.011 A 
ATOM      9  C   UNK d   0      12.482  -9.164  -4.937  0.00  0.00     0.067 A 
ATOM     10  C   UNK d   0      12.896  -9.944  -3.846  0.00  0.00     0.062 C 
ATOM     11  N   UNK d   0      11.750  -9.789  -5.883  0.00  0.00    -0.248 NA
ATOM     12  C   UNK d   0      12.429 -11.213  -3.487  0.00  0.00     0.041 A 
ATOM     13  N   UNK d   0      12.154 -12.301  -4.232  0.00  0.00    -0.355 N 
ATOM     14  C   UNK d   0      12.115 -11.466  -2.139  0.00  0.00    -0.022 A 
ATOM     15  C   UNK d   0      11.667 -13.234  -3.393  0.00  0.00     0.042 A 
ATOM     16  H   UNK d   0      12.320 -12.413  -5.326  0.00  0.00     0.166 HD
ATOM     17  C   UNK d   0      11.227 -14.549  -3.645  0.00  0.00     0.062 C 
ATOM     18  C   UNK d   0      11.627 -12.747  -2.072  0.00  0.00    -0.013 A 
ATOM     19  C   UNK d   0      10.420 -15.009  -4.655  0.00  0.00     0.067 A 
ATOM     20  N   UNK d   0      10.162 -14.164  -5.655  0.00  0.00    -0.248 NA
ATOM     21  C   UNK d   0       9.712 -16.245  -4.944  0.00  0.00    -0.011 A 
ATOM     22  C   UNK d   0       9.334 -14.756  -6.578  0.00  0.00     0.066 A 
ATOM     23  C   UNK d   0       9.013 -13.998  -7.694  0.00  0.00     0.062 C 
ATOM     24  C   UNK d   0       9.075 -16.088  -6.069  0.00  0.00    -0.020 A 
ATOM     25  C   UNK d   0       9.504 -12.730  -8.043  0.00  0.00     0.041 A 
ATOM     26  N   UNK d   0       9.762 -11.644  -7.305  0.00  0.00    -0.355 N 
ATOM     27  C   UNK d   0       9.822 -12.479  -9.396  0.00  0.00    -0.022 A 
ATOM     28  C   UNK d   0      10.240 -10.709  -8.141  0.00  0.00     0.042 A 
ATOM     29  H   UNK d   0       9.586 -11.529  -6.207  0.00  0.00     0.166 HD
ATOM     30  C   UNK d   0      10.673  -9.395  -7.905  0.00  0.00     0.062 C 
ATOM     31  C   UNK d   0      10.290 -11.202  -9.466  0.00  0.00    -0.013 A 
ATOM     32  C   UNK d   0      11.417  -8.918  -6.837  0.00  0.00     0.066 A 
BRANCH   8  33
ATOM     33  C   UNK d   0      13.356  -6.738  -4.600  0.00  0.00     0.151 C 
BRANCH  33  34
ATOM     34  C   UNK d   0      13.042  -6.737  -3.160  0.00  0.00     0.143 C 
ATOM     35  O   UNK d   0      13.904  -6.440  -2.321  0.00  0.00    -0.650 OA
BRANCH  34  36
ATOM     36  O   UNK d   0      11.774  -7.073  -2.745  0.00  0.00    -0.776 OA
ATOM     37  H   UNK d   0      11.611  -7.517  -1.830  0.00  0.00     0.167 HD
ENDBRANCH  34  36
ENDBRANCH  33  34
ENDBRANCH   8  33
BRANCH  31  38
ATOM     38  C   UNK d   0      10.768 -10.496 -10.713  0.00  0.00     0.151 C 
BRANCH  38  39
ATOM     39  C   UNK d   0      12.192 -10.639 -10.929  0.00  0.00     0.143 C 
ATOM     40  O   UNK d   0      12.949  -9.659 -11.044  0.00  0.00    -0.650 OA
BRANCH  39  41
ATOM     41  O   UNK d   0      12.748 -11.915 -11.012  0.00  0.00    -0.776 OA
ATOM     42  H   UNK d   0      12.096 -12.705 -10.985  0.00  0.00     0.167 HD
ENDBRANCH  39  41
ENDBRANCH  38  39
ENDBRANCH  31  38
BRANCH  27  43
ATOM     43  C   UNK d   0       9.699 -13.386 -10.594  0.00  0.00     0.052 C 
BRANCH  43  44
ATOM     44  C   UNK d   0       8.462 -13.142 -11.395  0.00  0.00     0.115 C 
BRANCH  44  45
ATOM     45  C   UNK d   0       7.560 -14.297 -11.147  0.00  0.00     0.139 C 
ATOM     46  O   UNK d   0       6.447 -14.314 -11.728  0.00  0.00    -0.650 OA
BRANCH  45  47
ATOM     47  O   UNK d   0       7.897 -15.342 -10.315  0.00  0.00    -0.776 OA
ATOM     48  H   UNK d   0       7.677 -15.349  -9.306  0.00  0.00     0.167 HD
ENDBRANCH  45  47
ENDBRANCH  44  45
ENDBRANCH  43  44
ENDBRANCH  27  43
BRANCH  24  49
ATOM     49  C   UNK d   0       8.260 -17.106  -6.754  0.00  0.00     0.052 C 
BRANCH  49  50
ATOM     50  C   UNK d   0       6.881 -17.169  -6.149  0.00  0.00     0.115 C 
BRANCH  50  51
ATOM     51  C   UNK d   0       5.814 -16.470  -6.851  0.00  0.00     0.139 C 
ATOM     52  O   UNK d   0       5.785 -15.222  -6.967  0.00  0.00    -0.650 OA
BRANCH  51  53
ATOM     53  O   UNK d   0       4.778 -17.194  -7.421  0.00  0.00    -0.776 OA
ATOM     54  H   UNK d   0       3.891 -16.737  -7.546  0.00  0.00     0.167 HD
ENDBRANCH  51  53
ENDBRANCH  50  51
ENDBRANCH  49  50
ENDBRANCH  24  49
BRANCH  21  55
ATOM     55  C   UNK d   0       9.749 -17.454  -4.070  0.00  0.00     0.151 C 
BRANCH  55  56
ATOM     56  C   UNK d   0      10.911 -18.309  -4.359  0.00  0.00     0.143 C 
ATOM     57  O   UNK d   0      12.027 -18.130  -3.835  0.00  0.00    -0.650 OA
BRANCH  56  58
ATOM     58  O   UNK d   0      10.736 -19.357  -5.261  0.00  0.00    -0.776 OA
ATOM     59  H   UNK d   0      11.287 -20.209  -5.051  0.00  0.00     0.167 HD
ENDBRANCH  56  58
ENDBRANCH  55  56
ENDBRANCH  21  55
BRANCH  18  60
ATOM     60  C   UNK d   0      11.160 -13.429  -0.810  0.00  0.00     0.151 C 
BRANCH  60  61
ATOM     61  C   UNK d   0       9.848 -12.841  -0.496  0.00  0.00     0.143 C 
ATOM     62  O   UNK d   0       9.528 -12.252   0.537  0.00  0.00    -0.650 OA
BRANCH  61  63
ATOM     63  O   UNK d   0       8.867 -12.982  -1.507  0.00  0.00    -0.776 OA
ATOM     64  H   UNK d   0       8.086 -12.352  -1.561  0.00  0.00     0.167 HD
ENDBRANCH  61  63
ENDBRANCH  60  61
ENDBRANCH  18  60
BRANCH  14  65
ATOM     65  C   UNK d   0      12.332 -10.632  -0.908  0.00  0.00     0.052 C 
BRANCH  65  66
ATOM     66  C   UNK d   0      13.541  -9.769  -0.996  0.00  0.00     0.115 C 
BRANCH  66  67
ATOM     67  C   UNK d   0      14.735 -10.145  -0.293  0.00  0.00     0.139 C 
ATOM     68  O   UNK d   0      15.563 -10.941  -0.871  0.00  0.00    -0.650 OA
BRANCH  67  69
ATOM     69  O   UNK d   0      15.135  -9.748   0.983  0.00  0.00    -0.776 OA
ATOM     70  H   UNK d   0      15.334  -8.744   1.097  0.00  0.00     0.167 HD
ENDBRANCH  67  69
ENDBRANCH  66  67
ENDBRANCH  65  66
ENDBRANCH  14  65
ENDBRANCH   6   7
ENDBRANCH   5   6
ENDBRANCH   2   5
TORSDOF 28
ENDMDL
MODEL 12
REMARK VINA RESULT:      -8.5      3.634      7.634
REMARK  28 active torsions:
REMARK  status: ('A' for Active; 'I' for Inactive)
REMARK    1  A    between atoms: C_2  and  O_3 
REMARK    2  A    between atoms: C_2  and  C_4 
REMARK    3  A    between atoms: C_4  and  C_5 
REMARK    4  A    between atoms: C_5  and  C_6 
REMARK    5  A    between atoms: C_7  and  C_8 
REMARK    6  A    between atoms: C_8  and  C_9 
REMARK    7  A    between atoms: C_9  and  O_11 
REMARK    8  A    between atoms: C_28  and  C_29 
REMARK    9  A    between atoms: C_29  and  C_30 
REMARK   10  A    between atoms: C_30  and  O_32 
REMARK   11  A    between atoms: C_33  and  C_34 
REMARK   12  A    between atoms: C_34  and  C_35 
REMARK   13  A    between atoms: C_35  and  C_36 
REMARK   14  A    between atoms: C_36  and  O_38 
REMARK   15  A    between atoms: C_39  and  C_40 
REMARK   16  A    between atoms: C_40  and  C_41 
REMARK   17  A    between atoms: C_41  and  C_42 
REMARK   18  A    between atoms: C_42  and  O_44 
REMARK   19  A    between atoms: C_45  and  C_46 
REMARK   20  A    between atoms: C_46  and  C_47 
REMARK   21  A    between atoms: C_47  and  O_49 
REMARK   22  A    between atoms: C_50  and  C_51 
REMARK   23  A    between atoms: C_51  and  C_52 
REMARK   24  A    between atoms: C_52  and  O_54 
REMARK   25  A    between atoms: C_55  and  C_56 
REMARK   26  A    between atoms: C_56  and  C_57 
REMARK   27  A    between atoms: C_57  and  C_58 
REMARK   28  A    between atoms: C_58  and  O_60 
ROOT
ATOM      1  O   UNK d   0       3.910 -19.748  -2.602  0.00  0.00    -0.650 OA
ATOM      2  C   UNK d   0       4.767 -20.491  -3.129  0.00  0.00     0.139 C 
ENDROOT
BRANCH   2   3
ATOM      3  O   UNK d   0       5.152 -21.641  -2.482  0.00  0.00    -0.776 OA
ATOM      4  H   UNK d   0       4.486 -22.397  -2.310  0.00  0.00     0.167 HD
ENDBRANCH   2   3
BRANCH   2   5
ATOM      5  C   UNK d   0       5.364 -20.129  -4.446  0.00  0.00     0.115 C 
BRANCH   5   6
ATOM      6  C   UNK d   0       4.284 -19.704  -5.404  0.00  0.00     0.052 C 
BRANCH   6   7
ATOM      7  C   UNK d   0       4.821 -18.913  -6.572  0.00  0.00    -0.020 A 
ATOM      8  C   UNK d   0       4.465 -19.003  -7.828  0.00  0.00    -0.011 A 
ATOM      9  C   UNK d   0       5.262 -18.052  -8.586  0.00  0.00     0.067 A 
ATOM     10  C   UNK d   0       5.354 -17.650  -9.927  0.00  0.00     0.062 C 
ATOM     11  N   UNK d   0       6.082 -17.430  -7.712  0.00  0.00    -0.248 NA
ATOM     12  C   UNK d   0       5.994 -16.511 -10.428  0.00  0.00     0.041 A 
ATOM     13  N   UNK d   0       7.182 -15.955 -10.122  0.00  0.00    -0.355 N 
ATOM     14  C   UNK d   0       5.328 -15.720 -11.382  0.00  0.00    -0.022 A 
ATOM     15  C   UNK d   0       7.283 -14.828 -10.852  0.00  0.00     0.042 A 
ATOM     16  H   UNK d   0       7.942 -16.361  -9.420  0.00  0.00     0.166 HD
ATOM     17  C   UNK d   0       8.317 -13.873 -10.919  0.00  0.00     0.062 C 
ATOM     18  C   UNK d   0       6.140 -14.647 -11.654  0.00  0.00    -0.013 A 
ATOM     19  C   UNK d   0       9.025 -13.295  -9.895  0.00  0.00     0.067 A 
ATOM     20  N   UNK d   0       8.875 -13.829  -8.680  0.00  0.00    -0.248 NA
ATOM     21  C   UNK d   0       9.944 -12.178  -9.762  0.00  0.00    -0.011 A 
ATOM     22  C   UNK d   0       9.629 -13.140  -7.761  0.00  0.00     0.066 A 
ATOM     23  C   UNK d   0       9.596 -13.614  -6.458  0.00  0.00     0.062 C 
ATOM     24  C   UNK d   0      10.291 -12.090  -8.510  0.00  0.00    -0.020 A 
ATOM     25  C   UNK d   0       8.957 -14.767  -5.978  0.00  0.00     0.041 A 
ATOM     26  N   UNK d   0       7.770 -15.312  -6.270  0.00  0.00    -0.355 N 
ATOM     27  C   UNK d   0       9.628 -15.563  -5.023  0.00  0.00    -0.022 A 
ATOM     28  C   UNK d   0       7.662 -16.431  -5.537  0.00  0.00     0.042 A 
ATOM     29  H   UNK d   0       7.002 -14.896  -6.969  0.00  0.00     0.166 HD
ATOM     30  C   UNK d   0       6.636 -17.385  -5.455  0.00  0.00     0.062 C 
ATOM     31  C   UNK d   0       8.816 -16.618  -4.740  0.00  0.00    -0.013 A 
ATOM     32  C   UNK d   0       5.865 -17.903  -6.483  0.00  0.00     0.066 A 
BRANCH   8  33
ATOM     33  C   UNK d   0       3.445 -19.903  -8.397  0.00  0.00     0.151 C 
BRANCH  33  34
ATOM     34  C   UNK d   0       2.403 -19.182  -9.149  0.00  0.00     0.143 C 
ATOM     35  O   UNK d   0       2.179 -19.446 -10.339  0.00  0.00    -0.650 OA
BRANCH  34  36
ATOM     36  O   UNK d   0       1.672 -18.202  -8.519  0.00  0.00    -0.776 OA
ATOM     37  H   UNK d   0       0.711 -18.377  -8.196  0.00  0.00     0.167 HD
ENDBRANCH  34  36
ENDBRANCH  33  34
ENDBRANCH   8  33
BRANCH  31  38
ATOM     38  C   UNK d   0       9.121 -17.744  -3.780  0.00  0.00     0.151 C 
BRANCH  38  39
ATOM     39  C   UNK d   0       9.967 -18.764  -4.361  0.00  0.00     0.143 C 
ATOM     40  O   UNK d   0      10.987 -19.189  -3.790  0.00  0.00    -0.650 OA
BRANCH  39  41
ATOM     41  O   UNK d   0       9.638 -19.301  -5.606  0.00  0.00    -0.776 OA
ATOM     42  H   UNK d   0       9.253 -20.250  -5.612  0.00  0.00     0.167 HD
ENDBRANCH  39  41
ENDBRANCH  38  39
ENDBRANCH  31  38
BRANCH  27  43
ATOM     43  C   UNK d   0      10.979 -15.359  -4.386  0.00  0.00     0.052 C 
BRANCH  43  44
ATOM     44  C   UNK d   0      10.957 -14.384  -3.254  0.00  0.00     0.115 C 
BRANCH  44  45
ATOM     45  C   UNK d   0      12.100 -13.459  -3.468  0.00  0.00     0.139 C 
ATOM     46  O   UNK d   0      12.559 -12.845  -2.473  0.00  0.00    -0.650 OA
BRANCH  45  47
ATOM     47  O   UNK d   0      12.674 -13.254  -4.704  0.00  0.00    -0.776 OA
ATOM     48  H   UNK d   0      13.260 -12.431  -4.920  0.00  0.00     0.167 HD
ENDBRANCH  45  47
ENDBRANCH  44  45
ENDBRANCH  43  44
ENDBRANCH  27  43
BRANCH  24  49
ATOM     49  C   UNK d   0      11.239 -11.119  -7.937  0.00  0.00     0.052 C 
BRANCH  49  50
ATOM     50  C   UNK d   0      10.630  -9.741  -7.914  0.00  0.00     0.115 C 
BRANCH  50  51
ATOM     51  C   UNK d   0      11.487  -8.628  -8.300  0.00  0.00     0.139 C 
ATOM     52  O   UNK d   0      11.412  -8.074  -9.422  0.00  0.00    -0.650 OA
BRANCH  51  53
ATOM     53  O   UNK d   0      12.433  -8.149  -7.406  0.00  0.00    -0.776 OA
ATOM     54  H   UNK d   0      12.439  -7.164  -7.204  0.00  0.00     0.167 HD
ENDBRANCH  51  53
ENDBRANCH  50  51
ENDBRANCH  49  50
ENDBRANCH  24  49
BRANCH  21  55
ATOM     55  C   UNK d   0      10.384 -11.317 -10.899  0.00  0.00     0.151 C 
BRANCH  55  56
ATOM     56  C   UNK d   0      11.849 -11.286 -11.033  0.00  0.00     0.143 C 
ATOM     57  O   UNK d   0      12.544 -12.320 -11.088  0.00  0.00    -0.650 OA
BRANCH  56  58
ATOM     58  O   UNK d   0      12.468 -10.039 -11.101  0.00  0.00    -0.776 OA
ATOM     59  H   UNK d   0      12.889  -9.713 -10.212  0.00  0.00     0.167 HD
ENDBRANCH  56  58
ENDBRANCH  55  56
ENDBRANCH  21  55
BRANCH  18  60
ATOM     60  C   UNK d   0       5.811 -13.537 -12.622  0.00  0.00     0.151 C 
BRANCH  60  61
ATOM     61  C   UNK d   0       6.227 -14.020 -13.947  0.00  0.00     0.143 C 
ATOM     62  O   UNK d   0       7.318 -14.503 -14.251  0.00  0.00    -0.650 OA
BRANCH  61  63
ATOM     63  O   UNK d   0       5.250 -13.906 -14.965  0.00  0.00    -0.776 OA
ATOM     64  H   UNK d   0       4.317 -13.596 -14.755  0.00  0.00     0.167 HD
ENDBRANCH  61  63
ENDBRANCH  60  61
ENDBRANCH  18  60
BRANCH  14  65
ATOM     65  C   UNK d   0       4.041 -15.951 -12.121  0.00  0.00     0.052 C 
BRANCH  65  66
ATOM     66  C   UNK d   0       4.206 -16.813 -13.323  0.00  0.00     0.115 C 
BRANCH  66  67
ATOM     67  C   UNK d   0       5.387 -17.618 -13.464  0.00  0.00     0.139 C 
ATOM     68  O   UNK d   0       5.378 -18.810 -12.981  0.00  0.00    -0.650 OA
BRANCH  67  69
ATOM     69  O   UNK d   0       6.589 -17.269 -14.077  0.00  0.00    -0.776 OA
ATOM     70  H   UNK d   0       7.407 -17.203 -13.454  0.00  0.00     0.167 HD
ENDBRANCH  67  69
ENDBRANCH  66  67
ENDBRANCH  65  66
ENDBRANCH  14  65
ENDBRANCH   6   7
ENDBRANCH   5   6
ENDBRANCH   2   5
TORSDOF 28
ENDMDL
MODEL 13
REMARK VINA RESULT:      -8.5      1.646      8.342
REMARK  28 active torsions:
REMARK  status: ('A' for Active; 'I' for Inactive)
REMARK    1  A    between atoms: C_2  and  O_3 
REMARK    2  A    between atoms: C_2  and  C_4 
REMARK    3  A    between atoms: C_4  and  C_5 
REMARK    4  A    between atoms: C_5  and  C_6 
REMARK    5  A    between atoms: C_7  and  C_8 
REMARK    6  A    between atoms: C_8  and  C_9 
REMARK    7  A    between atoms: C_9  and  O_11 
REMARK    8  A    between atoms: C_28  and  C_29 
REMARK    9  A    between atoms: C_29  and  C_30 
REMARK   10  A    between atoms: C_30  and  O_32 
REMARK   11  A    between atoms: C_33  and  C_34 
REMARK   12  A    between atoms: C_34  and  C_35 
REMARK   13  A    between atoms: C_35  and  C_36 
REMARK   14  A    between atoms: C_36  and  O_38 
REMARK   15  A    between atoms: C_39  and  C_40 
REMARK   16  A    between atoms: C_40  and  C_41 
REMARK   17  A    between atoms: C_41  and  C_42 
REMARK   18  A    between atoms: C_42  and  O_44 
REMARK   19  A    between atoms: C_45  and  C_46 
REMARK   20  A    between atoms: C_46  and  C_47 
REMARK   21  A    between atoms: C_47  and  O_49 
REMARK   22  A    between atoms: C_50  and  C_51 
REMARK   23  A    between atoms: C_51  and  C_52 
REMARK   24  A    between atoms: C_52  and  O_54 
REMARK   25  A    between atoms: C_55  and  C_56 
REMARK   26  A    between atoms: C_56  and  C_57 
REMARK   27  A    between atoms: C_57  and  C_58 
REMARK   28  A    between atoms: C_58  and  O_60 
ROOT
ATOM      1  O   UNK d   0      15.686 -11.139  -1.597  0.00  0.00    -0.650 OA
ATOM      2  C   UNK d   0      15.402 -10.129  -0.915  0.00  0.00     0.139 C 
ENDROOT
BRANCH   2   3
ATOM      3  O   UNK d   0      15.907  -8.905  -1.281  0.00  0.00    -0.776 OA
ATOM      4  H   UNK d   0      15.287  -8.125  -1.510  0.00  0.00     0.167 HD
ENDBRANCH   2   3
BRANCH   2   5
ATOM      5  C   UNK d   0      14.524 -10.258   0.282  0.00  0.00     0.115 C 
BRANCH   5   6
ATOM      6  C   UNK d   0      13.228  -9.527   0.055  0.00  0.00     0.052 C 
BRANCH   6   7
ATOM      7  C   UNK d   0      12.602  -9.856  -1.279  0.00  0.00    -0.020 A 
ATOM      8  C   UNK d   0      12.471  -9.068  -2.315  0.00  0.00    -0.011 A 
ATOM      9  C   UNK d   0      11.800  -9.819  -3.364  0.00  0.00     0.067 A 
ATOM     10  C   UNK d   0      11.393  -9.572  -4.684  0.00  0.00     0.062 C 
ATOM     11  N   UNK d   0      11.554 -11.053  -2.877  0.00  0.00    -0.248 NA
ATOM     12  C   UNK d   0      11.006 -10.516  -5.642  0.00  0.00     0.041 A 
ATOM     13  N   UNK d   0      10.221 -11.606  -5.545  0.00  0.00    -0.355 N 
ATOM     14  C   UNK d   0      11.523 -10.413  -6.946  0.00  0.00    -0.022 A 
ATOM     15  C   UNK d   0      10.234 -12.202  -6.753  0.00  0.00     0.042 A 
ATOM     16  H   UNK d   0       9.655 -11.936  -4.647  0.00  0.00     0.166 HD
ATOM     17  C   UNK d   0       9.585 -13.369  -7.201  0.00  0.00     0.062 C 
ATOM     18  C   UNK d   0      11.039 -11.483  -7.657  0.00  0.00    -0.013 A 
ATOM     19  C   UNK d   0       9.475 -14.588  -6.581  0.00  0.00     0.067 A 
ATOM     20  N   UNK d   0       9.850 -14.650  -5.301  0.00  0.00    -0.248 NA
ATOM     21  C   UNK d   0       9.044 -15.921  -6.966  0.00  0.00    -0.011 A 
ATOM     22  C   UNK d   0       9.699 -15.929  -4.822  0.00  0.00     0.066 A 
ATOM     23  C   UNK d   0      10.019 -16.129  -3.487  0.00  0.00     0.062 C 
ATOM     24  C   UNK d   0       9.182 -16.702  -5.934  0.00  0.00    -0.020 A 
ATOM     25  C   UNK d   0      10.394 -15.165  -2.538  0.00  0.00     0.041 A 
ATOM     26  N   UNK d   0      11.185 -14.090  -2.630  0.00  0.00    -0.355 N 
ATOM     27  C   UNK d   0       9.871 -15.266  -1.231  0.00  0.00    -0.022 A 
ATOM     28  C   UNK d   0      11.182 -13.498  -1.425  0.00  0.00     0.042 A 
ATOM     29  H   UNK d   0      11.763 -13.765  -3.530  0.00  0.00     0.166 HD
ATOM     30  C   UNK d   0      11.830 -12.342  -0.962  0.00  0.00     0.062 C 
ATOM     31  C   UNK d   0      10.364 -14.215  -0.520  0.00  0.00    -0.013 A 
ATOM     32  C   UNK d   0      12.013 -11.140  -1.628  0.00  0.00     0.066 A 
BRANCH   8  33
ATOM     33  C   UNK d   0      12.912  -7.665  -2.421  0.00  0.00     0.151 C 
BRANCH  33  34
ATOM     34  C   UNK d   0      12.467  -7.020  -3.670  0.00  0.00     0.143 C 
ATOM     35  O   UNK d   0      13.254  -6.846  -4.612  0.00  0.00    -0.650 OA
BRANCH  34  36
ATOM     36  O   UNK d   0      11.161  -6.605  -3.788  0.00  0.00    -0.776 OA
ATOM     37  H   UNK d   0      10.458  -7.183  -4.268  0.00  0.00     0.167 HD
ENDBRANCH  34  36
ENDBRANCH  33  34
ENDBRANCH   8  33
BRANCH  31  38
ATOM     38  C   UNK d   0      10.067 -13.900   0.928  0.00  0.00     0.151 C 
BRANCH  38  39
ATOM     39  C   UNK d   0       9.511 -12.577   1.112  0.00  0.00     0.143 C 
ATOM     40  O   UNK d   0       8.696 -12.080   0.315  0.00  0.00    -0.650 OA
BRANCH  39  41
ATOM     41  O   UNK d   0       9.893 -11.820   2.220  0.00  0.00    -0.776 OA
ATOM     42  H   UNK d   0       9.307 -11.899   3.057  0.00  0.00     0.167 HD
ENDBRANCH  39  41
ENDBRANCH  38  39
ENDBRANCH  31  38
BRANCH  27  43
ATOM     43  C   UNK d   0       8.943 -16.302  -0.647  0.00  0.00     0.052 C 
BRANCH  43  44
ATOM     44  C   UNK d   0       9.312 -17.701  -1.018  0.00  0.00     0.115 C 
BRANCH  44  45
ATOM     45  C   UNK d   0       8.037 -18.450  -1.171  0.00  0.00     0.139 C 
ATOM     46  O   UNK d   0       7.217 -18.421  -0.221  0.00  0.00    -0.650 OA
BRANCH  45  47
ATOM     47  O   UNK d   0       7.721 -19.163  -2.307  0.00  0.00    -0.776 OA
ATOM     48  H   UNK d   0       6.944 -18.902  -2.935  0.00  0.00     0.167 HD
ENDBRANCH  45  47
ENDBRANCH  44  45
ENDBRANCH  43  44
ENDBRANCH  27  43
BRANCH  24  49
ATOM     49  C   UNK d   0       8.827 -18.130  -5.872  0.00  0.00     0.052 C 
BRANCH  49  50
ATOM     50  C   UNK d   0       9.810 -18.950  -6.668  0.00  0.00     0.115 C 
BRANCH  50  51
ATOM     51  C   UNK d   0      11.044 -19.341  -6.000  0.00  0.00     0.139 C 
ATOM     52  O   UNK d   0      12.065 -19.712  -6.628  0.00  0.00    -0.650 OA
BRANCH  51  53
ATOM     53  O   UNK d   0      11.115 -19.312  -4.616  0.00  0.00    -0.776 OA
ATOM     54  H   UNK d   0      10.581 -18.615  -4.127  0.00  0.00     0.167 HD
ENDBRANCH  51  53
ENDBRANCH  50  51
ENDBRANCH  49  50
ENDBRANCH  24  49
BRANCH  21  55
ATOM     55  C   UNK d   0       8.537 -16.275  -8.325  0.00  0.00     0.151 C 
BRANCH  55  56
ATOM     56  C   UNK d   0       7.320 -15.525  -8.671  0.00  0.00     0.143 C 
ATOM     57  O   UNK d   0       6.272 -15.590  -7.998  0.00  0.00    -0.650 OA
BRANCH  56  58
ATOM     58  O   UNK d   0       7.358 -14.713  -9.803  0.00  0.00    -0.776 OA
ATOM     59  H   UNK d   0       8.195 -14.107  -9.878  0.00  0.00     0.167 HD
ENDBRANCH  56  58
ENDBRANCH  55  56
ENDBRANCH  21  55
BRANCH  18  60
ATOM     60  C   UNK d   0      11.351 -11.771  -9.105  0.00  0.00     0.151 C 
BRANCH  60  61
ATOM     61  C   UNK d   0      10.055 -12.024  -9.754  0.00  0.00     0.143 C 
ATOM     62  O   UNK d   0       9.706 -13.049 -10.340  0.00  0.00    -0.650 OA
BRANCH  61  63
ATOM     63  O   UNK d   0       9.127 -10.957  -9.682  0.00  0.00    -0.776 OA
ATOM     64  H   UNK d   0       8.338 -10.914 -10.302  0.00  0.00     0.167 HD
ENDBRANCH  61  63
ENDBRANCH  60  61
ENDBRANCH  18  60
BRANCH  14  65
ATOM     65  C   UNK d   0      12.351  -9.339  -7.591  0.00  0.00     0.052 C 
BRANCH  65  66
ATOM     66  C   UNK d   0      11.545  -8.168  -8.030  0.00  0.00     0.115 C 
BRANCH  66  67
ATOM     67  C   UNK d   0      11.621  -6.936  -7.296  0.00  0.00     0.139 C 
ATOM     68  O   UNK d   0      10.581  -6.542  -6.650  0.00  0.00    -0.650 OA
BRANCH  67  69
ATOM     69  O   UNK d   0      12.712  -6.075  -7.184  0.00  0.00    -0.776 OA
ATOM     70  H   UNK d   0      12.792  -5.567  -6.292  0.00  0.00     0.167 HD
ENDBRANCH  67  69
ENDBRANCH  66  67
ENDBRANCH  65  66
ENDBRANCH  14  65
ENDBRANCH   6   7
ENDBRANCH   5   6
ENDBRANCH   2   5
TORSDOF 28
ENDMDL
MODEL 14
REMARK VINA RESULT:      -8.5      1.911      7.883
REMARK  28 active torsions:
REMARK  status: ('A' for Active; 'I' for Inactive)
REMARK    1  A    between atoms: C_2  and  O_3 
REMARK    2  A    between atoms: C_2  and  C_4 
REMARK    3  A    between atoms: C_4  and  C_5 
REMARK    4  A    between atoms: C_5  and  C_6 
REMARK    5  A    between atoms: C_7  and  C_8 
REMARK    6  A    between atoms: C_8  and  C_9 
REMARK    7  A    between atoms: C_9  and  O_11 
REMARK    8  A    between atoms: C_28  and  C_29 
REMARK    9  A    between atoms: C_29  and  C_30 
REMARK   10  A    between atoms: C_30  and  O_32 
REMARK   11  A    between atoms: C_33  and  C_34 
REMARK   12  A    between atoms: C_34  and  C_35 
REMARK   13  A    between atoms: C_35  and  C_36 
REMARK   14  A    between atoms: C_36  and  O_38 
REMARK   15  A    between atoms: C_39  and  C_40 
REMARK   16  A    between atoms: C_40  and  C_41 
REMARK   17  A    between atoms: C_41  and  C_42 
REMARK   18  A    between atoms: C_42  and  O_44 
REMARK   19  A    between atoms: C_45  and  C_46 
REMARK   20  A    between atoms: C_46  and  C_47 
REMARK   21  A    between atoms: C_47  and  O_49 
REMARK   22  A    between atoms: C_50  and  C_51 
REMARK   23  A    between atoms: C_51  and  C_52 
REMARK   24  A    between atoms: C_52  and  O_54 
REMARK   25  A    between atoms: C_55  and  C_56 
REMARK   26  A    between atoms: C_56  and  C_57 
REMARK   27  A    between atoms: C_57  and  C_58 
REMARK   28  A    between atoms: C_58  and  O_60 
ROOT
ATOM      1  O   UNK d   0       7.499 -14.459 -13.933  0.00  0.00    -0.650 OA
ATOM      2  C   UNK d   0       6.917 -14.592 -12.834  0.00  0.00     0.139 C 
ENDROOT
BRANCH   2   3
ATOM      3  O   UNK d   0       5.937 -15.545 -12.701  0.00  0.00    -0.776 OA
ATOM      4  H   UNK d   0       5.261 -15.715 -13.449  0.00  0.00     0.167 HD
ENDBRANCH   2   3
BRANCH   2   5
ATOM      5  C   UNK d   0       7.286 -13.721 -11.682  0.00  0.00     0.115 C 
BRANCH   5   6
ATOM      6  C   UNK d   0       8.644 -14.103 -11.158  0.00  0.00     0.052 C 
BRANCH   6   7
ATOM      7  C   UNK d   0       8.653 -14.308  -9.662  0.00  0.00    -0.020 A 
ATOM      8  C   UNK d   0       8.047 -15.246  -8.981  0.00  0.00    -0.011 A 
ATOM      9  C   UNK d   0       8.338 -15.033  -7.573  0.00  0.00     0.067 A 
ATOM     10  C   UNK d   0       8.022 -15.674  -6.365  0.00  0.00     0.062 C 
ATOM     11  N   UNK d   0       9.123 -13.938  -7.488  0.00  0.00    -0.248 NA
ATOM     12  C   UNK d   0       8.628 -15.480  -5.119  0.00  0.00     0.041 A 
ATOM     13  N   UNK d   0       9.011 -14.355  -4.486  0.00  0.00    -0.355 N 
ATOM     14  C   UNK d   0       8.981 -16.604  -4.351  0.00  0.00    -0.022 A 
ATOM     15  C   UNK d   0       9.605 -14.737  -3.340  0.00  0.00     0.042 A 
ATOM     16  H   UNK d   0       8.847 -13.311  -4.833  0.00  0.00     0.166 HD
ATOM     17  C   UNK d   0      10.183 -13.968  -2.310  0.00  0.00     0.062 C 
ATOM     18  C   UNK d   0       9.606 -16.140  -3.220  0.00  0.00    -0.013 A 
ATOM     19  C   UNK d   0      11.024 -12.889  -2.407  0.00  0.00     0.067 A 
ATOM     20  N   UNK d   0      11.179 -12.351  -3.619  0.00  0.00    -0.248 NA
ATOM     21  C   UNK d   0      11.859 -12.130  -1.492  0.00  0.00    -0.011 A 
ATOM     22  C   UNK d   0      12.057 -11.296  -3.563  0.00  0.00     0.066 A 
ATOM     23  C   UNK d   0      12.282 -10.618  -4.752  0.00  0.00     0.062 C 
ATOM     24  C   UNK d   0      12.464 -11.201  -2.175  0.00  0.00    -0.020 A 
ATOM     25  C   UNK d   0      11.653 -10.820  -5.991  0.00  0.00     0.041 A 
ATOM     26  N   UNK d   0      11.286 -11.939  -6.627  0.00  0.00    -0.355 N 
ATOM     27  C   UNK d   0      11.295  -9.691  -6.759  0.00  0.00    -0.022 A 
ATOM     28  C   UNK d   0      10.701 -11.561  -7.775  0.00  0.00     0.042 A 
ATOM     29  H   UNK d   0      11.461 -12.988  -6.282  0.00  0.00     0.166 HD
ATOM     30  C   UNK d   0      10.131 -12.315  -8.812  0.00  0.00     0.062 C 
ATOM     31  C   UNK d   0      10.692 -10.150  -7.889  0.00  0.00    -0.013 A 
ATOM     32  C   UNK d   0       9.350 -13.456  -8.710  0.00  0.00     0.066 A 
BRANCH   8  33
ATOM     33  C   UNK d   0       7.210 -16.333  -9.523  0.00  0.00     0.151 C 
BRANCH  33  34
ATOM     34  C   UNK d   0       7.719 -17.672  -9.177  0.00  0.00     0.143 C 
ATOM     35  O   UNK d   0       6.945 -18.581  -8.844  0.00  0.00    -0.650 OA
BRANCH  34  36
ATOM     36  O   UNK d   0       9.073 -17.913  -9.225  0.00  0.00    -0.776 OA
ATOM     37  H   UNK d   0       9.534 -18.511  -8.525  0.00  0.00     0.167 HD
ENDBRANCH  34  36
ENDBRANCH  33  34
ENDBRANCH   8  33
BRANCH  31  38
ATOM     38  C   UNK d   0      10.127  -9.303  -9.005  0.00  0.00     0.151 C 
BRANCH  38  39
ATOM     39  C   UNK d   0      11.139  -8.858  -9.939  0.00  0.00     0.143 C 
ATOM     40  O   UNK d   0      12.058  -9.600 -10.328  0.00  0.00    -0.650 OA
BRANCH  39  41
ATOM     41  O   UNK d   0      11.094  -7.554 -10.431  0.00  0.00    -0.776 OA
ATOM     42  H   UNK d   0      10.566  -6.871  -9.878  0.00  0.00     0.167 HD
ENDBRANCH  39  41
ENDBRANCH  38  39
ENDBRANCH  31  38
BRANCH  27  43
ATOM     43  C   UNK d   0      11.504  -8.226  -6.464  0.00  0.00     0.052 C 
BRANCH  43  44
ATOM     44  C   UNK d   0      10.599  -7.704  -5.397  0.00  0.00     0.115 C 
BRANCH  44  45
ATOM     45  C   UNK d   0      11.131  -6.373  -5.003  0.00  0.00     0.139 C 
ATOM     46  O   UNK d   0      12.377  -6.227  -4.947  0.00  0.00    -0.650 OA
BRANCH  45  47
ATOM     47  O   UNK d   0      10.317  -5.301  -4.705  0.00  0.00    -0.776 OA
ATOM     48  H   UNK d   0       9.507  -5.372  -4.068  0.00  0.00     0.167 HD
ENDBRANCH  45  47
ENDBRANCH  44  45
ENDBRANCH  43  44
ENDBRANCH  27  43
BRANCH  24  49
ATOM     49  C   UNK d   0      13.377 -10.180  -1.634  0.00  0.00     0.052 C 
BRANCH  49  50
ATOM     50  C   UNK d   0      12.993  -8.813  -2.139  0.00  0.00     0.115 C 
BRANCH  50  51
ATOM     51  C   UNK d   0      13.806  -7.688  -1.697  0.00  0.00     0.139 C 
ATOM     52  O   UNK d   0      14.783  -7.823  -0.922  0.00  0.00    -0.650 OA
BRANCH  51  53
ATOM     53  O   UNK d   0      13.504  -6.408  -2.135  0.00  0.00    -0.776 OA
ATOM     54  H   UNK d   0      12.678  -5.965  -1.773  0.00  0.00     0.167 HD
ENDBRANCH  51  53
ENDBRANCH  50  51
ENDBRANCH  49  50
ENDBRANCH  24  49
BRANCH  21  55
ATOM     55  C   UNK d   0      11.962 -12.408  -0.029  0.00  0.00     0.151 C 
BRANCH  55  56
ATOM     56  C   UNK d   0      10.642 -12.450   0.619  0.00  0.00     0.143 C 
ATOM     57  O   UNK d   0       9.736 -11.635   0.358  0.00  0.00    -0.650 OA
BRANCH  56  58
ATOM     58  O   UNK d   0      10.413 -13.451   1.562  0.00  0.00    -0.776 OA
ATOM     59  H   UNK d   0      10.690 -13.209   2.531  0.00  0.00     0.167 HD
ENDBRANCH  56  58
ENDBRANCH  55  56
ENDBRANCH  21  55
BRANCH  18  60
ATOM     60  C   UNK d   0      10.158 -17.011  -2.119  0.00  0.00     0.151 C 
BRANCH  60  61
ATOM     61  C   UNK d   0       9.070 -17.164  -1.141  0.00  0.00     0.143 C 
ATOM     62  O   UNK d   0       8.673 -16.322  -0.335  0.00  0.00    -0.650 OA
BRANCH  61  63
ATOM     63  O   UNK d   0       8.425 -18.424  -1.149  0.00  0.00    -0.776 OA
ATOM     64  H   UNK d   0       7.433 -18.498  -1.293  0.00  0.00     0.167 HD
ENDBRANCH  61  63
ENDBRANCH  60  61
ENDBRANCH  18  60
BRANCH  14  65
ATOM     65  C   UNK d   0       8.688 -18.063  -4.557  0.00  0.00     0.052 C 
BRANCH  65  66
ATOM     66  C   UNK d   0       9.831 -18.808  -5.151  0.00  0.00     0.115 C 
BRANCH  66  67
ATOM     67  C   UNK d   0       9.690 -19.413  -6.445  0.00  0.00     0.139 C 
ATOM     68  O   UNK d   0      10.683 -19.355  -7.261  0.00  0.00    -0.650 OA
BRANCH  67  69
ATOM     69  O   UNK d   0       8.578 -20.080  -6.959  0.00  0.00    -0.776 OA
ATOM     70  H   UNK d   0       8.282 -20.920  -6.443  0.00  0.00     0.167 HD
ENDBRANCH  67  69
ENDBRANCH  66  67
ENDBRANCH  65  66
ENDBRANCH  14  65
ENDBRANCH   6   7
ENDBRANCH   5   6
ENDBRANCH   2   5
TORSDOF 28
ENDMDL
MODEL 15
REMARK VINA RESULT:      -8.2      4.019      9.176
REMARK  28 active torsions:
REMARK  status: ('A' for Active; 'I' for Inactive)
REMARK    1  A    between atoms: C_2  and  O_3 
REMARK    2  A    between atoms: C_2  and  C_4 
REMARK    3  A    between atoms: C_4  and  C_5 
REMARK    4  A    between atoms: C_5  and  C_6 
REMARK    5  A    between atoms: C_7  and  C_8 
REMARK    6  A    between atoms: C_8  and  C_9 
REMARK    7  A    between atoms: C_9  and  O_11 
REMARK    8  A    between atoms: C_28  and  C_29 
REMARK    9  A    between atoms: C_29  and  C_30 
REMARK   10  A    between atoms: C_30  and  O_32 
REMARK   11  A    between atoms: C_33  and  C_34 
REMARK   12  A    between atoms: C_34  and  C_35 
REMARK   13  A    between atoms: C_35  and  C_36 
REMARK   14  A    between atoms: C_36  and  O_38 
REMARK   15  A    between atoms: C_39  and  C_40 
REMARK   16  A    between atoms: C_40  and  C_41 
REMARK   17  A    between atoms: C_41  and  C_42 
REMARK   18  A    between atoms: C_42  and  O_44 
REMARK   19  A    between atoms: C_45  and  C_46 
REMARK   20  A    between atoms: C_46  and  C_47 
REMARK   21  A    between atoms: C_47  and  O_49 
REMARK   22  A    between atoms: C_50  and  C_51 
REMARK   23  A    between atoms: C_51  and  C_52 
REMARK   24  A    between atoms: C_52  and  O_54 
REMARK   25  A    between atoms: C_55  and  C_56 
REMARK   26  A    between atoms: C_56  and  C_57 
REMARK   27  A    between atoms: C_57  and  C_58 
REMARK   28  A    between atoms: C_58  and  O_60 
ROOT
ATOM      1  O   UNK d   0      12.592 -11.503  -2.860  0.00  0.00    -0.650 OA
ATOM      2  C   UNK d   0      13.109 -12.430  -3.522  0.00  0.00     0.139 C 
ENDROOT
BRANCH   2   3
ATOM      3  O   UNK d   0      14.477 -12.552  -3.555  0.00  0.00    -0.776 OA
ATOM      4  H   UNK d   0      15.059 -12.182  -2.800  0.00  0.00     0.167 HD
ENDBRANCH   2   3
BRANCH   2   5
ATOM      5  C   UNK d   0      12.245 -13.389  -4.267  0.00  0.00     0.115 C 
BRANCH   5   6
ATOM      6  C   UNK d   0      10.930 -13.561  -3.556  0.00  0.00     0.052 C 
BRANCH   6   7
ATOM      7  C   UNK d   0      10.175 -14.785  -4.018  0.00  0.00    -0.020 A 
ATOM      8  C   UNK d   0      10.071 -15.936  -3.406  0.00  0.00    -0.011 A 
ATOM      9  C   UNK d   0       9.255 -16.808  -4.234  0.00  0.00     0.067 A 
ATOM     10  C   UNK d   0       8.764 -18.120  -4.146  0.00  0.00     0.062 C 
ATOM     11  N   UNK d   0       8.911 -16.108  -5.335  0.00  0.00    -0.248 NA
ATOM     12  C   UNK d   0       7.754 -18.700  -4.921  0.00  0.00     0.041 A 
ATOM     13  N   UNK d   0       7.503 -18.636  -6.243  0.00  0.00    -0.355 N 
ATOM     14  C   UNK d   0       6.753 -19.454  -4.281  0.00  0.00    -0.022 A 
ATOM     15  C   UNK d   0       6.365 -19.324  -6.457  0.00  0.00     0.042 A 
ATOM     16  H   UNK d   0       8.129 -18.132  -7.012  0.00  0.00     0.166 HD
ATOM     17  C   UNK d   0       5.659 -19.573  -7.651  0.00  0.00     0.062 C 
ATOM     18  C   UNK d   0       5.865 -19.851  -5.250  0.00  0.00    -0.013 A 
ATOM     19  C   UNK d   0       5.347 -18.704  -8.665  0.00  0.00     0.067 A 
ATOM     20  N   UNK d   0       5.941 -17.508  -8.642  0.00  0.00    -0.248 NA
ATOM     21  C   UNK d   0       4.476 -18.727  -9.828  0.00  0.00    -0.011 A 
ATOM     22  C   UNK d   0       5.521 -16.747  -9.705  0.00  0.00     0.066 A 
ATOM     23  C   UNK d   0       6.091 -15.488  -9.824  0.00  0.00     0.062 C 
ATOM     24  C   UNK d   0       4.579 -17.577 -10.430  0.00  0.00    -0.020 A 
ATOM     25  C   UNK d   0       7.114 -14.929  -9.043  0.00  0.00     0.041 A 
ATOM     26  N   UNK d   0       7.354 -14.980  -7.727  0.00  0.00    -0.355 N 
ATOM     27  C   UNK d   0       8.120 -14.176  -9.686  0.00  0.00    -0.022 A 
ATOM     28  C   UNK d   0       8.484 -14.288  -7.510  0.00  0.00     0.042 A 
ATOM     29  H   UNK d   0       6.719 -15.478  -6.954  0.00  0.00     0.166 HD
ATOM     30  C   UNK d   0       9.192 -14.024  -6.327  0.00  0.00     0.062 C 
ATOM     31  C   UNK d   0       8.992 -13.767  -8.724  0.00  0.00    -0.013 A 
ATOM     32  C   UNK d   0       9.432 -14.882  -5.265  0.00  0.00     0.066 A 
BRANCH   8  33
ATOM     33  C   UNK d   0      10.669 -16.307  -2.110  0.00  0.00     0.151 C 
BRANCH  33  34
ATOM     34  C   UNK d   0      12.099 -16.648  -2.219  0.00  0.00     0.143 C 
ATOM     35  O   UNK d   0      12.491 -17.500  -3.030  0.00  0.00    -0.650 OA
BRANCH  34  36
ATOM     36  O   UNK d   0      13.009 -16.011  -1.407  0.00  0.00    -0.776 OA
ATOM     37  H   UNK d   0      13.490 -15.155  -1.713  0.00  0.00     0.167 HD
ENDBRANCH  34  36
ENDBRANCH  33  34
ENDBRANCH   8  33
BRANCH  31  38
ATOM     38  C   UNK d   0      10.239 -12.943  -8.943  0.00  0.00     0.151 C 
BRANCH  38  39
ATOM     39  C   UNK d   0       9.968 -11.523  -9.014  0.00  0.00     0.143 C 
ATOM     40  O   UNK d   0       9.178 -11.037  -9.842  0.00  0.00    -0.650 OA
BRANCH  39  41
ATOM     41  O   UNK d   0      10.609 -10.657  -8.128  0.00  0.00    -0.776 OA
ATOM     42  H   UNK d   0      10.008 -10.082  -7.529  0.00  0.00     0.167 HD
ENDBRANCH  39  41
ENDBRANCH  38  39
ENDBRANCH  31  38
BRANCH  27  43
ATOM     43  C   UNK d   0       8.277 -13.838 -11.148  0.00  0.00     0.052 C 
BRANCH  43  44
ATOM     44  C   UNK d   0       6.978 -13.563 -11.834  0.00  0.00     0.115 C 
BRANCH  44  45
ATOM     45  C   UNK d   0       6.960 -14.404 -13.059  0.00  0.00     0.139 C 
ATOM     46  O   UNK d   0       5.853 -14.839 -13.462  0.00  0.00    -0.650 OA
BRANCH  45  47
ATOM     47  O   UNK d   0       8.099 -14.716 -13.768  0.00  0.00    -0.776 OA
ATOM     48  H   UNK d   0       8.624 -15.595 -13.627  0.00  0.00     0.167 HD
ENDBRANCH  45  47
ENDBRANCH  44  45
ENDBRANCH  43  44
ENDBRANCH  27  43
BRANCH  24  49
ATOM     49  C   UNK d   0       3.897 -17.184 -11.675  0.00  0.00     0.052 C 
BRANCH  49  50
ATOM     50  C   UNK d   0       2.755 -16.248 -11.374  0.00  0.00     0.115 C 
BRANCH  50  51
ATOM     51  C   UNK d   0       1.547 -16.834 -10.810  0.00  0.00     0.139 C 
ATOM     52  O   UNK d   0       1.206 -16.662  -9.616  0.00  0.00    -0.650 OA
BRANCH  51  53
ATOM     53  O   UNK d   0       0.727 -17.619 -11.607  0.00  0.00    -0.776 OA
ATOM     54  H   UNK d   0       0.451 -18.521 -11.261  0.00  0.00     0.167 HD
ENDBRANCH  51  53
ENDBRANCH  50  51
ENDBRANCH  49  50
ENDBRANCH  24  49
BRANCH  21  55
ATOM     55  C   UNK d   0       3.635 -19.896 -10.219  0.00  0.00     0.151 C 
BRANCH  55  56
ATOM     56  C   UNK d   0       4.421 -20.940 -10.895  0.00  0.00     0.143 C 
ATOM     57  O   UNK d   0       4.842 -21.955 -10.307  0.00  0.00    -0.650 OA
BRANCH  56  58
ATOM     58  O   UNK d   0       4.697 -20.768 -12.251  0.00  0.00    -0.776 OA
ATOM     59  H   UNK d   0       5.264 -21.522 -12.679  0.00  0.00     0.167 HD
ENDBRANCH  56  58
ENDBRANCH  55  56
ENDBRANCH  21  55
BRANCH  18  60
ATOM     60  C   UNK d   0       4.628 -20.678  -5.003  0.00  0.00     0.151 C 
BRANCH  60  61
ATOM     61  C   UNK d   0       3.488 -19.776  -5.228  0.00  0.00     0.143 C 
ATOM     62  O   UNK d   0       3.313 -18.663  -4.730  0.00  0.00    -0.650 OA
BRANCH  61  63
ATOM     63  O   UNK d   0       2.500 -20.263  -6.117  0.00  0.00    -0.776 OA
ATOM     64  H   UNK d   0       1.524 -20.101  -5.946  0.00  0.00     0.167 HD
ENDBRANCH  61  63
ENDBRANCH  60  61
ENDBRANCH  18  60
BRANCH  14  65
ATOM     65  C   UNK d   0       6.627 -19.906  -2.854  0.00  0.00     0.052 C 
BRANCH  65  66
ATOM     66  C   UNK d   0       5.370 -19.444  -2.206  0.00  0.00     0.115 C 
BRANCH  66  67
ATOM     67  C   UNK d   0       4.517 -20.394  -1.550  0.00  0.00     0.139 C 
ATOM     68  O   UNK d   0       3.707 -19.969  -0.646  0.00  0.00    -0.650 OA
BRANCH  67  69
ATOM     69  O   UNK d   0       4.443 -21.769  -1.769  0.00  0.00    -0.776 OA
ATOM     70  H   UNK d   0       5.203 -22.329  -1.358  0.00  0.00     0.167 HD
ENDBRANCH  67  69
ENDBRANCH  66  67
ENDBRANCH  65  66
ENDBRANCH  14  65
ENDBRANCH   6   7
ENDBRANCH   5   6
ENDBRANCH   2   5
TORSDOF 28
ENDMDL
MODEL 16
REMARK VINA RESULT:      -8.2      4.000      9.657
REMARK  28 active torsions:
REMARK  status: ('A' for Active; 'I' for Inactive)
REMARK    1  A    between atoms: C_2  and  O_3 
REMARK    2  A    between atoms: C_2  and  C_4 
REMARK    3  A    between atoms: C_4  and  C_5 
REMARK    4  A    between atoms: C_5  and  C_6 
REMARK    5  A    between atoms: C_7  and  C_8 
REMARK    6  A    between atoms: C_8  and  C_9 
REMARK    7  A    between atoms: C_9  and  O_11 
REMARK    8  A    between atoms: C_28  and  C_29 
REMARK    9  A    between atoms: C_29  and  C_30 
REMARK   10  A    between atoms: C_30  and  O_32 
REMARK   11  A    between atoms: C_33  and  C_34 
REMARK   12  A    between atoms: C_34  and  C_35 
REMARK   13  A    between atoms: C_35  and  C_36 
REMARK   14  A    between atoms: C_36  and  O_38 
REMARK   15  A    between atoms: C_39  and  C_40 
REMARK   16  A    between atoms: C_40  and  C_41 
REMARK   17  A    between atoms: C_41  and  C_42 
REMARK   18  A    between atoms: C_42  and  O_44 
REMARK   19  A    between atoms: C_45  and  C_46 
REMARK   20  A    between atoms: C_46  and  C_47 
REMARK   21  A    between atoms: C_47  and  O_49 
REMARK   22  A    between atoms: C_50  and  C_51 
REMARK   23  A    between atoms: C_51  and  C_52 
REMARK   24  A    between atoms: C_52  and  O_54 
REMARK   25  A    between atoms: C_55  and  C_56 
REMARK   26  A    between atoms: C_56  and  C_57 
REMARK   27  A    between atoms: C_57  and  C_58 
REMARK   28  A    between atoms: C_58  and  O_60 
ROOT
ATOM      1  O   UNK d   0      12.724 -11.358  -3.277  0.00  0.00    -0.650 OA
ATOM      2  C   UNK d   0      13.182 -12.356  -3.876  0.00  0.00     0.139 C 
ENDROOT
BRANCH   2   3
ATOM      3  O   UNK d   0      14.429 -12.828  -3.543  0.00  0.00    -0.776 OA
ATOM      4  H   UNK d   0      15.184 -12.857  -4.232  0.00  0.00     0.167 HD
ENDBRANCH   2   3
BRANCH   2   5
ATOM      5  C   UNK d   0      12.381 -13.023  -4.941  0.00  0.00     0.115 C 
BRANCH   5   6
ATOM      6  C   UNK d   0      10.917 -12.967  -4.598  0.00  0.00     0.052 C 
BRANCH   6   7
ATOM      7  C   UNK d   0      10.214 -14.283  -4.836  0.00  0.00    -0.020 A 
ATOM      8  C   UNK d   0      10.252 -15.355  -4.087  0.00  0.00    -0.011 A 
ATOM      9  C   UNK d   0       9.428 -16.370  -4.722  0.00  0.00     0.067 A 
ATOM     10  C   UNK d   0       9.045 -17.689  -4.433  0.00  0.00     0.062 C 
ATOM     11  N   UNK d   0       8.932 -15.832  -5.855  0.00  0.00    -0.248 NA
ATOM     12  C   UNK d   0       8.012 -18.421  -5.029  0.00  0.00     0.041 A 
ATOM     13  N   UNK d   0       7.635 -18.535  -6.316  0.00  0.00    -0.355 N 
ATOM     14  C   UNK d   0       7.134 -19.152  -4.207  0.00  0.00    -0.022 A 
ATOM     15  C   UNK d   0       6.535 -19.312  -6.332  0.00  0.00     0.042 A 
ATOM     16  H   UNK d   0       8.147 -18.091  -7.198  0.00  0.00     0.166 HD
ATOM     17  C   UNK d   0       5.741 -19.748  -7.412  0.00  0.00     0.062 C 
ATOM     18  C   UNK d   0       6.191 -19.718  -5.029  0.00  0.00    -0.013 A 
ATOM     19  C   UNK d   0       5.272 -19.031  -8.482  0.00  0.00     0.067 A 
ATOM     20  N   UNK d   0       5.776 -17.807  -8.658  0.00  0.00    -0.248 NA
ATOM     21  C   UNK d   0       4.300 -19.249  -9.541  0.00  0.00    -0.011 A 
ATOM     22  C   UNK d   0       5.204 -17.209  -9.754  0.00  0.00     0.066 A 
ATOM     23  C   UNK d   0       5.666 -15.941 -10.076  0.00  0.00     0.062 C 
ATOM     24  C   UNK d   0       4.262 -18.178 -10.279  0.00  0.00    -0.020 A 
ATOM     25  C   UNK d   0       6.714 -15.229  -9.472  0.00  0.00     0.041 A 
ATOM     26  N   UNK d   0       7.080 -15.103  -8.191  0.00  0.00    -0.355 N 
ATOM     27  C   UNK d   0       7.597 -14.499 -10.298  0.00  0.00    -0.022 A 
ATOM     28  C   UNK d   0       8.171 -14.322  -8.171  0.00  0.00     0.042 A 
ATOM     29  H   UNK d   0       6.558 -15.542  -7.305  0.00  0.00     0.166 HD
ATOM     30  C   UNK d   0       8.965 -13.872  -7.105  0.00  0.00     0.062 C 
ATOM     31  C   UNK d   0       8.523 -13.923  -9.483  0.00  0.00    -0.013 A 
ATOM     32  C   UNK d   0       9.366 -14.578  -5.981  0.00  0.00     0.066 A 
BRANCH   8  33
ATOM     33  C   UNK d   0      10.995 -15.527  -2.825  0.00  0.00     0.151 C 
BRANCH  33  34
ATOM     34  C   UNK d   0      12.182 -16.389  -2.974  0.00  0.00     0.143 C 
ATOM     35  O   UNK d   0      12.120 -17.604  -2.737  0.00  0.00    -0.650 OA
BRANCH  34  36
ATOM     36  O   UNK d   0      13.372 -15.833  -3.382  0.00  0.00    -0.776 OA
ATOM     37  H   UNK d   0      13.692 -15.911  -4.357  0.00  0.00     0.167 HD
ENDBRANCH  34  36
ENDBRANCH  33  34
ENDBRANCH   8  33
BRANCH  31  38
ATOM     38  C   UNK d   0       9.680 -13.057  -9.921  0.00  0.00     0.151 C 
BRANCH  38  39
ATOM     39  C   UNK d   0       9.293 -11.683 -10.164  0.00  0.00     0.143 C 
ATOM     40  O   UNK d   0       8.142 -11.268  -9.945  0.00  0.00    -0.650 OA
BRANCH  39  41
ATOM     41  O   UNK d   0      10.235 -10.783 -10.662  0.00  0.00    -0.776 OA
ATOM     42  H   UNK d   0       9.903 -10.103 -11.354  0.00  0.00     0.167 HD
ENDBRANCH  39  41
ENDBRANCH  38  39
ENDBRANCH  31  38
BRANCH  27  43
ATOM     43  C   UNK d   0       7.592 -14.334 -11.797  0.00  0.00     0.052 C 
BRANCH  43  44
ATOM     44  C   UNK d   0       6.282 -13.854 -12.333  0.00  0.00     0.115 C 
BRANCH  44  45
ATOM     45  C   UNK d   0       6.013 -14.641 -13.564  0.00  0.00     0.139 C 
ATOM     46  O   UNK d   0       5.069 -14.275 -14.306  0.00  0.00    -0.650 OA
BRANCH  45  47
ATOM     47  O   UNK d   0       6.757 -15.745 -13.923  0.00  0.00    -0.776 OA
ATOM     48  H   UNK d   0       6.338 -16.674 -14.086  0.00  0.00     0.167 HD
ENDBRANCH  45  47
ENDBRANCH  44  45
ENDBRANCH  43  44
ENDBRANCH  27  43
BRANCH  24  49
ATOM     49  C   UNK d   0       3.439 -17.983 -11.485  0.00  0.00     0.052 C 
BRANCH  49  50
ATOM     50  C   UNK d   0       4.315 -17.888 -12.708  0.00  0.00     0.115 C 
BRANCH  50  51
ATOM     51  C   UNK d   0       5.146 -19.043 -13.022  0.00  0.00     0.139 C 
ATOM     52  O   UNK d   0       4.668 -20.184 -13.226  0.00  0.00    -0.650 OA
BRANCH  51  53
ATOM     53  O   UNK d   0       6.522 -18.897 -13.100  0.00  0.00    -0.776 OA
ATOM     54  H   UNK d   0       6.905 -17.969 -13.062  0.00  0.00     0.167 HD
ENDBRANCH  51  53
ENDBRANCH  50  51
ENDBRANCH  49  50
ENDBRANCH  24  49
BRANCH  21  55
ATOM     55  C   UNK d   0       3.514 -20.508  -9.706  0.00  0.00     0.151 C 
BRANCH  55  56
ATOM     56  C   UNK d   0       4.379 -21.696  -9.755  0.00  0.00     0.143 C 
ATOM     57  O   UNK d   0       4.333 -22.600  -8.898  0.00  0.00    -0.650 OA
BRANCH  56  58
ATOM     58  O   UNK d   0       5.283 -21.798 -10.811  0.00  0.00    -0.776 OA
ATOM     59  H   UNK d   0       5.886 -22.641 -10.790  0.00  0.00     0.167 HD
ENDBRANCH  56  58
ENDBRANCH  55  56
ENDBRANCH  21  55
BRANCH  18  60
ATOM     60  C   UNK d   0       5.046 -20.583  -4.562  0.00  0.00     0.151 C 
BRANCH  60  61
ATOM     61  C   UNK d   0       3.957 -19.657  -4.214  0.00  0.00     0.143 C 
ATOM     62  O   UNK d   0       3.373 -18.880  -4.970  0.00  0.00    -0.650 OA
BRANCH  61  63
ATOM     63  O   UNK d   0       3.554 -19.684  -2.857  0.00  0.00    -0.776 OA
ATOM     64  H   UNK d   0       4.208 -19.496  -2.118  0.00  0.00     0.167 HD
ENDBRANCH  61  63
ENDBRANCH  60  61
ENDBRANCH  18  60
BRANCH  14  65
ATOM     65  C   UNK d   0       7.176 -19.432  -2.732  0.00  0.00     0.052 C 
BRANCH  65  66
ATOM     66  C   UNK d   0       8.448 -19.001  -2.094  0.00  0.00     0.115 C 
BRANCH  66  67
ATOM     67  C   UNK d   0       8.412 -18.126  -0.955  0.00  0.00     0.139 C 
ATOM     68  O   UNK d   0       9.336 -17.240  -0.833  0.00  0.00    -0.650 OA
BRANCH  67  69
ATOM     69  O   UNK d   0       7.475 -18.108   0.077  0.00  0.00    -0.776 OA
ATOM     70  H   UNK d   0       6.586 -17.632  -0.134  0.00  0.00     0.167 HD
ENDBRANCH  67  69
ENDBRANCH  66  67
ENDBRANCH  65  66
ENDBRANCH  14  65
ENDBRANCH   6   7
ENDBRANCH   5   6
ENDBRANCH   2   5
TORSDOF 28
ENDMDL
MODEL 17
REMARK VINA RESULT:      -8.1      2.263     10.040
REMARK  28 active torsions:
REMARK  status: ('A' for Active; 'I' for Inactive)
REMARK    1  A    between atoms: C_2  and  O_3 
REMARK    2  A    between atoms: C_2  and  C_4 
REMARK    3  A    between atoms: C_4  and  C_5 
REMARK    4  A    between atoms: C_5  and  C_6 
REMARK    5  A    between atoms: C_7  and  C_8 
REMARK    6  A    between atoms: C_8  and  C_9 
REMARK    7  A    between atoms: C_9  and  O_11 
REMARK    8  A    between atoms: C_28  and  C_29 
REMARK    9  A    between atoms: C_29  and  C_30 
REMARK   10  A    between atoms: C_30  and  O_32 
REMARK   11  A    between atoms: C_33  and  C_34 
REMARK   12  A    between atoms: C_34  and  C_35 
REMARK   13  A    between atoms: C_35  and  C_36 
REMARK   14  A    between atoms: C_36  and  O_38 
REMARK   15  A    between atoms: C_39  and  C_40 
REMARK   16  A    between atoms: C_40  and  C_41 
REMARK   17  A    between atoms: C_41  and  C_42 
REMARK   18  A    between atoms: C_42  and  O_44 
REMARK   19  A    between atoms: C_45  and  C_46 
REMARK   20  A    between atoms: C_46  and  C_47 
REMARK   21  A    between atoms: C_47  and  O_49 
REMARK   22  A    between atoms: C_50  and  C_51 
REMARK   23  A    between atoms: C_51  and  C_52 
REMARK   24  A    between atoms: C_52  and  O_54 
REMARK   25  A    between atoms: C_55  and  C_56 
REMARK   26  A    between atoms: C_56  and  C_57 
REMARK   27  A    between atoms: C_57  and  C_58 
REMARK   28  A    between atoms: C_58  and  O_60 
ROOT
ATOM      1  O   UNK d   0       3.950 -15.901 -12.753  0.00  0.00    -0.650 OA
ATOM      2  C   UNK d   0       5.171 -15.799 -12.502  0.00  0.00     0.139 C 
ENDROOT
BRANCH   2   3
ATOM      3  O   UNK d   0       6.080 -16.448 -13.303  0.00  0.00    -0.776 OA
ATOM      4  H   UNK d   0       6.863 -16.966 -12.900  0.00  0.00     0.167 HD
ENDBRANCH   2   3
BRANCH   2   5
ATOM      5  C   UNK d   0       5.632 -14.982 -11.344  0.00  0.00     0.115 C 
BRANCH   5   6
ATOM      6  C   UNK d   0       6.630 -15.757 -10.528  0.00  0.00     0.052 C 
BRANCH   6   7
ATOM      7  C   UNK d   0       7.636 -14.865  -9.840  0.00  0.00    -0.020 A 
ATOM      8  C   UNK d   0       8.284 -13.850 -10.352  0.00  0.00    -0.011 A 
ATOM      9  C   UNK d   0       9.147 -13.305  -9.316  0.00  0.00     0.067 A 
ATOM     10  C   UNK d   0      10.053 -12.238  -9.211  0.00  0.00     0.062 C 
ATOM     11  N   UNK d   0       8.965 -14.054  -8.208  0.00  0.00    -0.248 NA
ATOM     12  C   UNK d   0      10.589 -11.695  -8.038  0.00  0.00     0.041 A 
ATOM     13  N   UNK d   0      11.068 -12.284  -6.927  0.00  0.00    -0.355 N 
ATOM     14  C   UNK d   0      10.621 -10.297  -7.889  0.00  0.00    -0.022 A 
ATOM     15  C   UNK d   0      11.397 -11.296  -6.073  0.00  0.00     0.042 A 
ATOM     16  H   UNK d   0      11.190 -13.377  -6.756  0.00  0.00     0.166 HD
ATOM     17  C   UNK d   0      11.941 -11.354  -4.775  0.00  0.00     0.062 C 
ATOM     18  C   UNK d   0      11.130 -10.036  -6.642  0.00  0.00    -0.013 A 
ATOM     19  C   UNK d   0      11.588 -12.166  -3.727  0.00  0.00     0.067 A 
ATOM     20  N   UNK d   0      10.759 -13.177  -3.998  0.00  0.00    -0.248 NA
ATOM     21  C   UNK d   0      11.880 -12.222  -2.304  0.00  0.00    -0.011 A 
ATOM     22  C   UNK d   0      10.486 -13.889  -2.856  0.00  0.00     0.066 A 
ATOM     23  C   UNK d   0       9.663 -14.996  -3.002  0.00  0.00     0.062 C 
ATOM     24  C   UNK d   0      11.228 -13.230  -1.800  0.00  0.00    -0.020 A 
ATOM     25  C   UNK d   0       9.145 -15.533  -4.190  0.00  0.00     0.041 A 
ATOM     26  N   UNK d   0       8.655 -14.947  -5.289  0.00  0.00    -0.355 N 
ATOM     27  C   UNK d   0       9.117 -16.937  -4.341  0.00  0.00    -0.022 A 
ATOM     28  C   UNK d   0       8.318 -15.931  -6.139  0.00  0.00     0.042 A 
ATOM     29  H   UNK d   0       8.523 -13.850  -5.455  0.00  0.00     0.166 HD
ATOM     30  C   UNK d   0       7.767 -15.888  -7.429  0.00  0.00     0.062 C 
ATOM     31  C   UNK d   0       8.596 -17.197  -5.571  0.00  0.00    -0.013 A 
ATOM     32  C   UNK d   0       8.068 -15.009  -8.458  0.00  0.00     0.066 A 
BRANCH   8  33
ATOM     33  C   UNK d   0       8.178 -13.336 -11.730  0.00  0.00     0.151 C 
BRANCH  33  34
ATOM     34  C   UNK d   0       8.880 -14.184 -12.710  0.00  0.00     0.143 C 
ATOM     35  O   UNK d   0      10.074 -14.480 -12.556  0.00  0.00    -0.650 OA
BRANCH  34  36
ATOM     36  O   UNK d   0       8.199 -14.649 -13.811  0.00  0.00    -0.776 OA
ATOM     37  H   UNK d   0       7.194 -14.868 -13.764  0.00  0.00     0.167 HD
ENDBRANCH  34  36
ENDBRANCH  33  34
ENDBRANCH   8  33
BRANCH  31  38
ATOM     38  C   UNK d   0       8.386 -18.564  -6.179  0.00  0.00     0.151 C 
BRANCH  38  39
ATOM     39  C   UNK d   0       9.460 -18.955  -7.066  0.00  0.00     0.143 C 
ATOM     40  O   UNK d   0      10.358 -19.742  -6.718  0.00  0.00    -0.650 OA
BRANCH  39  41
ATOM     41  O   UNK d   0       9.502 -18.440  -8.362  0.00  0.00    -0.776 OA
ATOM     42  H   UNK d   0      10.138 -18.899  -9.021  0.00  0.00     0.167 HD
ENDBRANCH  39  41
ENDBRANCH  38  39
ENDBRANCH  31  38
BRANCH  27  43
ATOM     43  C   UNK d   0       9.555 -18.013  -3.379  0.00  0.00     0.052 C 
BRANCH  43  44
ATOM     44  C   UNK d   0      10.753 -17.631  -2.571  0.00  0.00     0.115 C 
BRANCH  44  45
ATOM     45  C   UNK d   0      11.913 -17.643  -3.500  0.00  0.00     0.139 C 
ATOM     46  O   UNK d   0      12.028 -18.611  -4.291  0.00  0.00    -0.650 OA
BRANCH  45  47
ATOM     47  O   UNK d   0      12.856 -16.638  -3.531  0.00  0.00    -0.776 OA
ATOM     48  H   UNK d   0      12.610 -15.637  -3.475  0.00  0.00     0.167 HD
ENDBRANCH  45  47
ENDBRANCH  44  45
ENDBRANCH  43  44
ENDBRANCH  27  43
BRANCH  24  49
ATOM     49  C   UNK d   0      11.268 -13.674  -0.396  0.00  0.00     0.052 C 
BRANCH  49  50
ATOM     50  C   UNK d   0      10.008 -13.260   0.321  0.00  0.00     0.115 C 
BRANCH  50  51
ATOM     51  C   UNK d   0      10.152 -12.341   1.442  0.00  0.00     0.139 C 
ATOM     52  O   UNK d   0       9.206 -11.633   1.862  0.00  0.00    -0.650 OA
BRANCH  51  53
ATOM     53  O   UNK d   0      11.376 -12.227   2.083  0.00  0.00    -0.776 OA
ATOM     54  H   UNK d   0      12.166 -11.912   1.547  0.00  0.00     0.167 HD
ENDBRANCH  51  53
ENDBRANCH  50  51
ENDBRANCH  49  50
ENDBRANCH  24  49
BRANCH  21  55
ATOM     55  C   UNK d   0      12.782 -11.265  -1.599  0.00  0.00     0.151 C 
BRANCH  55  56
ATOM     56  C   UNK d   0      14.202 -11.573  -1.829  0.00  0.00     0.143 C 
ATOM     57  O   UNK d   0      14.580 -12.580  -2.459  0.00  0.00    -0.650 OA
BRANCH  56  58
ATOM     58  O   UNK d   0      15.149 -10.690  -1.314  0.00  0.00    -0.776 OA
ATOM     59  H   UNK d   0      15.877 -11.128  -0.721  0.00  0.00     0.167 HD
ENDBRANCH  56  58
ENDBRANCH  55  56
ENDBRANCH  21  55
BRANCH  18  60
ATOM     60  C   UNK d   0      11.332  -8.658  -6.061  0.00  0.00     0.151 C 
BRANCH  60  61
ATOM     61  C   UNK d   0      12.634  -8.194  -6.565  0.00  0.00     0.143 C 
ATOM     62  O   UNK d   0      13.654  -8.867  -6.716  0.00  0.00    -0.650 OA
BRANCH  61  63
ATOM     63  O   UNK d   0      12.693  -6.822  -6.908  0.00  0.00    -0.776 OA
ATOM     64  H   UNK d   0      12.316  -6.118  -6.298  0.00  0.00     0.167 HD
ENDBRANCH  61  63
ENDBRANCH  60  61
ENDBRANCH  18  60
BRANCH  14  65
ATOM     65  C   UNK d   0      10.303  -9.199  -8.864  0.00  0.00     0.052 C 
BRANCH  65  66
ATOM     66  C   UNK d   0      11.472  -8.801  -9.694  0.00  0.00     0.115 C 
BRANCH  66  67
ATOM     67  C   UNK d   0      11.260  -8.169 -10.966  0.00  0.00     0.139 C 
ATOM     68  O   UNK d   0      11.416  -8.870 -12.033  0.00  0.00    -0.650 OA
BRANCH  67  69
ATOM     69  O   UNK d   0      10.894  -6.846 -11.211  0.00  0.00    -0.776 OA
ATOM     70  H   UNK d   0       9.942  -6.583 -10.917  0.00  0.00     0.167 HD
ENDBRANCH  67  69
ENDBRANCH  66  67
ENDBRANCH  65  66
ENDBRANCH  14  65
ENDBRANCH   6   7
ENDBRANCH   5   6
ENDBRANCH   2   5
TORSDOF 28
ENDMDL
MODEL 18
REMARK VINA RESULT:      -8.0      4.425     10.642
REMARK  28 active torsions:
REMARK  status: ('A' for Active; 'I' for Inactive)
REMARK    1  A    between atoms: C_2  and  O_3 
REMARK    2  A    between atoms: C_2  and  C_4 
REMARK    3  A    between atoms: C_4  and  C_5 
REMARK    4  A    between atoms: C_5  and  C_6 
REMARK    5  A    between atoms: C_7  and  C_8 
REMARK    6  A    between atoms: C_8  and  C_9 
REMARK    7  A    between atoms: C_9  and  O_11 
REMARK    8  A    between atoms: C_28  and  C_29 
REMARK    9  A    between atoms: C_29  and  C_30 
REMARK   10  A    between atoms: C_30  and  O_32 
REMARK   11  A    between atoms: C_33  and  C_34 
REMARK   12  A    between atoms: C_34  and  C_35 
REMARK   13  A    between atoms: C_35  and  C_36 
REMARK   14  A    between atoms: C_36  and  O_38 
REMARK   15  A    between atoms: C_39  and  C_40 
REMARK   16  A    between atoms: C_40  and  C_41 
REMARK   17  A    between atoms: C_41  and  C_42 
REMARK   18  A    between atoms: C_42  and  O_44 
REMARK   19  A    between atoms: C_45  and  C_46 
REMARK   20  A    between atoms: C_46  and  C_47 
REMARK   21  A    between atoms: C_47  and  O_49 
REMARK   22  A    between atoms: C_50  and  C_51 
REMARK   23  A    between atoms: C_51  and  C_52 
REMARK   24  A    between atoms: C_52  and  O_54 
REMARK   25  A    between atoms: C_55  and  C_56 
REMARK   26  A    between atoms: C_56  and  C_57 
REMARK   27  A    between atoms: C_57  and  C_58 
REMARK   28  A    between atoms: C_58  and  O_60 
ROOT
ATOM      1  O   UNK d   0      13.219 -15.815  -3.102  0.00  0.00    -0.650 OA
ATOM      2  C   UNK d   0      12.506 -16.780  -2.748  0.00  0.00     0.139 C 
ENDROOT
BRANCH   2   3
ATOM      3  O   UNK d   0      12.475 -17.144  -1.423  0.00  0.00    -0.776 OA
ATOM      4  H   UNK d   0      12.454 -16.439  -0.683  0.00  0.00     0.167 HD
ENDBRANCH   2   3
BRANCH   2   5
ATOM      5  C   UNK d   0      11.702 -17.526  -3.757  0.00  0.00     0.115 C 
BRANCH   5   6
ATOM      6  C   UNK d   0      10.235 -17.289  -3.528  0.00  0.00     0.052 C 
BRANCH   6   7
ATOM      7  C   UNK d   0       9.559 -16.639  -4.712  0.00  0.00    -0.020 A 
ATOM      8  C   UNK d   0       9.604 -15.380  -5.064  0.00  0.00    -0.011 A 
ATOM      9  C   UNK d   0       8.794 -15.224  -6.261  0.00  0.00     0.067 A 
ATOM     10  C   UNK d   0       8.456 -14.171  -7.125  0.00  0.00     0.062 C 
ATOM     11  N   UNK d   0       8.289 -16.439  -6.564  0.00  0.00    -0.248 NA
ATOM     12  C   UNK d   0       7.881 -14.269  -8.397  0.00  0.00     0.041 A 
ATOM     13  N   UNK d   0       6.882 -15.044  -8.861  0.00  0.00    -0.355 N 
ATOM     14  C   UNK d   0       8.415 -13.498  -9.446  0.00  0.00    -0.022 A 
ATOM     15  C   UNK d   0       6.774 -14.790 -10.179  0.00  0.00     0.042 A 
ATOM     16  H   UNK d   0       6.254 -15.741  -8.265  0.00  0.00     0.166 HD
ATOM     17  C   UNK d   0       5.894 -15.323 -11.142  0.00  0.00     0.062 C 
ATOM     18  C   UNK d   0       7.718 -13.826 -10.582  0.00  0.00    -0.013 A 
ATOM     19  C   UNK d   0       5.524 -16.628 -11.344  0.00  0.00     0.067 A 
ATOM     20  N   UNK d   0       5.872 -17.508 -10.402  0.00  0.00    -0.248 NA
ATOM     21  C   UNK d   0       4.822 -17.366 -12.381  0.00  0.00    -0.011 A 
ATOM     22  C   UNK d   0       5.450 -18.768 -10.748  0.00  0.00     0.066 A 
ATOM     23  C   UNK d   0       5.713 -19.779  -9.834  0.00  0.00     0.062 C 
ATOM     24  C   UNK d   0       4.786 -18.619 -12.028  0.00  0.00    -0.020 A 
ATOM     25  C   UNK d   0       6.279 -19.657  -8.556  0.00  0.00     0.041 A 
ATOM     26  N   UNK d   0       7.282 -18.898  -8.098  0.00  0.00    -0.355 N 
ATOM     27  C   UNK d   0       5.740 -20.428  -7.503  0.00  0.00    -0.022 A 
ATOM     28  C   UNK d   0       7.398 -19.156  -6.786  0.00  0.00     0.042 A 
ATOM     29  H   UNK d   0       7.920 -18.205  -8.700  0.00  0.00     0.166 HD
ATOM     30  C   UNK d   0       8.275 -18.640  -5.818  0.00  0.00     0.062 C 
ATOM     31  C   UNK d   0       6.442 -20.116  -6.379  0.00  0.00    -0.013 A 
ATOM     32  C   UNK d   0       8.712 -17.333  -5.670  0.00  0.00     0.066 A 
BRANCH   8  33
ATOM     33  C   UNK d   0      10.333 -14.295  -4.382  0.00  0.00     0.151 C 
BRANCH  33  34
ATOM     34  C   UNK d   0       9.504 -13.583  -3.393  0.00  0.00     0.143 C 
ATOM     35  O   UNK d   0       8.781 -12.636  -3.733  0.00  0.00    -0.650 OA
BRANCH  34  36
ATOM     36  O   UNK d   0       9.536 -13.978  -2.076  0.00  0.00    -0.776 OA
ATOM     37  H   UNK d   0       9.909 -14.897  -1.802  0.00  0.00     0.167 HD
ENDBRANCH  34  36
ENDBRANCH  33  34
ENDBRANCH   8  33
BRANCH  31  38
ATOM     38  C   UNK d   0       6.212 -20.685  -4.998  0.00  0.00     0.151 C 
BRANCH  38  39
ATOM     39  C   UNK d   0       5.226 -19.942  -4.242  0.00  0.00     0.143 C 
ATOM     40  O   UNK d   0       4.837 -20.306  -3.119  0.00  0.00    -0.650 OA
BRANCH  39  41
ATOM     41  O   UNK d   0       4.686 -18.774  -4.780  0.00  0.00    -0.776 OA
ATOM     42  H   UNK d   0       4.020 -18.261  -4.194  0.00  0.00     0.167 HD
ENDBRANCH  39  41
ENDBRANCH  38  39
ENDBRANCH  31  38
BRANCH  27  43
ATOM     43  C   UNK d   0       4.611 -21.427  -7.528  0.00  0.00     0.052 C 
BRANCH  43  44
ATOM     44  C   UNK d   0       3.386 -20.918  -8.216  0.00  0.00     0.115 C 
BRANCH  44  45
ATOM     45  C   UNK d   0       2.805 -19.874  -7.331  0.00  0.00     0.139 C 
ATOM     46  O   UNK d   0       2.733 -18.700  -7.770  0.00  0.00    -0.650 OA
BRANCH  45  47
ATOM     47  O   UNK d   0       2.342 -20.144  -6.062  0.00  0.00    -0.776 OA
ATOM     48  H   UNK d   0       2.320 -19.436  -5.310  0.00  0.00     0.167 HD
ENDBRANCH  45  47
ENDBRANCH  44  45
ENDBRANCH  43  44
ENDBRANCH  27  43
BRANCH  24  49
ATOM     49  C   UNK d   0       4.135 -19.712 -12.770  0.00  0.00     0.052 C 
BRANCH  49  50
ATOM     50  C   UNK d   0       2.730 -19.923 -12.269  0.00  0.00     0.115 C 
BRANCH  50  51
ATOM     51  C   UNK d   0       1.647 -19.378 -13.077  0.00  0.00     0.139 C 
ATOM     52  O   UNK d   0       1.138 -18.253 -12.856  0.00  0.00    -0.650 OA
BRANCH  51  53
ATOM     53  O   UNK d   0       1.141 -20.117 -14.135  0.00  0.00    -0.776 OA
ATOM     54  H   UNK d   0       1.214 -21.118 -14.093  0.00  0.00     0.167 HD
ENDBRANCH  51  53
ENDBRANCH  50  51
ENDBRANCH  49  50
ENDBRANCH  24  49
BRANCH  21  55
ATOM     55  C   UNK d   0       4.258 -16.742 -13.614  0.00  0.00     0.151 C 
BRANCH  55  56
ATOM     56  C   UNK d   0       5.303 -16.417 -14.596  0.00  0.00     0.143 C 
ATOM     57  O   UNK d   0       5.168 -15.525 -15.456  0.00  0.00    -0.650 OA
BRANCH  56  58
ATOM     58  O   UNK d   0       6.489 -17.148 -14.547  0.00  0.00    -0.776 OA
ATOM     59  H   UNK d   0       6.660 -17.757 -15.368  0.00  0.00     0.167 HD
ENDBRANCH  56  58
ENDBRANCH  55  56
ENDBRANCH  21  55
BRANCH  18  60
ATOM     60  C   UNK d   0       7.968 -13.239 -11.949  0.00  0.00     0.151 C 
BRANCH  60  61
ATOM     61  C   UNK d   0       8.831 -14.202 -12.651  0.00  0.00     0.143 C 
ATOM     62  O   UNK d   0      10.001 -14.479 -12.388  0.00  0.00    -0.650 OA
BRANCH  61  63
ATOM     63  O   UNK d   0       8.224 -14.870 -13.742  0.00  0.00    -0.776 OA
ATOM     64  H   UNK d   0       7.315 -14.601 -14.074  0.00  0.00     0.167 HD
ENDBRANCH  61  63
ENDBRANCH  60  61
ENDBRANCH  18  60
BRANCH  14  65
ATOM     65  C   UNK d   0       9.456 -12.415  -9.436  0.00  0.00     0.052 C 
BRANCH  65  66
ATOM     66  C   UNK d   0      10.281 -12.413  -8.198  0.00  0.00     0.115 C 
BRANCH  66  67
ATOM     67  C   UNK d   0      11.138 -11.296  -7.916  0.00  0.00     0.139 C 
ATOM     68  O   UNK d   0      11.402 -11.020  -6.689  0.00  0.00    -0.650 OA
BRANCH  67  69
ATOM     69  O   UNK d   0      11.747 -10.436  -8.830  0.00  0.00    -0.776 OA
ATOM     70  H   UNK d   0      12.607 -10.789  -9.273  0.00  0.00     0.167 HD
ENDBRANCH  67  69
ENDBRANCH  66  67
ENDBRANCH  65  66
ENDBRANCH  14  65
ENDBRANCH   6   7
ENDBRANCH   5   6
ENDBRANCH   2   5
TORSDOF 28
ENDMDL
MODEL 19
REMARK VINA RESULT:      -7.9      2.998     11.351
REMARK  28 active torsions:
REMARK  status: ('A' for Active; 'I' for Inactive)
REMARK    1  A    between atoms: C_2  and  O_3 
REMARK    2  A    between atoms: C_2  and  C_4 
REMARK    3  A    between atoms: C_4  and  C_5 
REMARK    4  A    between atoms: C_5  and  C_6 
REMARK    5  A    between atoms: C_7  and  C_8 
REMARK    6  A    between atoms: C_8  and  C_9 
REMARK    7  A    between atoms: C_9  and  O_11 
REMARK    8  A    between atoms: C_28  and  C_29 
REMARK    9  A    between atoms: C_29  and  C_30 
REMARK   10  A    between atoms: C_30  and  O_32 
REMARK   11  A    between atoms: C_33  and  C_34 
REMARK   12  A    between atoms: C_34  and  C_35 
REMARK   13  A    between atoms: C_35  and  C_36 
REMARK   14  A    between atoms: C_36  and  O_38 
REMARK   15  A    between atoms: C_39  and  C_40 
REMARK   16  A    between atoms: C_40  and  C_41 
REMARK   17  A    between atoms: C_41  and  C_42 
REMARK   18  A    between atoms: C_42  and  O_44 
REMARK   19  A    between atoms: C_45  and  C_46 
REMARK   20  A    between atoms: C_46  and  C_47 
REMARK   21  A    between atoms: C_47  and  O_49 
REMARK   22  A    between atoms: C_50  and  C_51 
REMARK   23  A    between atoms: C_51  and  C_52 
REMARK   24  A    between atoms: C_52  and  O_54 
REMARK   25  A    between atoms: C_55  and  C_56 
REMARK   26  A    between atoms: C_56  and  C_57 
REMARK   27  A    between atoms: C_57  and  C_58 
REMARK   28  A    between atoms: C_58  and  O_60 
ROOT
ATOM      1  O   UNK d   0      10.575  -7.461 -11.772  0.00  0.00    -0.650 OA
ATOM      2  C   UNK d   0      11.099  -7.974 -10.758  0.00  0.00     0.139 C 
ENDROOT
BRANCH   2   3
ATOM      3  O   UNK d   0      11.434  -7.172  -9.694  0.00  0.00    -0.776 OA
ATOM      4  H   UNK d   0      12.341  -7.262  -9.231  0.00  0.00     0.167 HD
ENDBRANCH   2   3
BRANCH   2   5
ATOM      5  C   UNK d   0      11.355  -9.441 -10.710  0.00  0.00     0.115 C 
BRANCH   5   6
ATOM      6  C   UNK d   0      10.073 -10.182 -10.440  0.00  0.00     0.052 C 
BRANCH   6   7
ATOM      7  C   UNK d   0      10.203 -11.174  -9.309  0.00  0.00    -0.020 A 
ATOM      8  C   UNK d   0      11.074 -11.163  -8.333  0.00  0.00    -0.011 A 
ATOM      9  C   UNK d   0      10.815 -12.320  -7.492  0.00  0.00     0.067 A 
ATOM     10  C   UNK d   0      11.358 -12.858  -6.315  0.00  0.00     0.062 C 
ATOM     11  N   UNK d   0       9.773 -12.985  -8.035  0.00  0.00    -0.248 NA
ATOM     12  C   UNK d   0      10.793 -13.839  -5.493  0.00  0.00     0.041 A 
ATOM     13  N   UNK d   0      10.160 -14.989  -5.792  0.00  0.00    -0.355 N 
ATOM     14  C   UNK d   0      10.795 -13.643  -4.099  0.00  0.00    -0.022 A 
ATOM     15  C   UNK d   0       9.754 -15.525  -4.625  0.00  0.00     0.042 A 
ATOM     16  H   UNK d   0      10.020 -15.424  -6.806  0.00  0.00     0.166 HD
ATOM     17  C   UNK d   0       9.051 -16.717  -4.363  0.00  0.00     0.062 C 
ATOM     18  C   UNK d   0      10.134 -14.709  -3.541  0.00  0.00    -0.013 A 
ATOM     19  C   UNK d   0       7.949 -17.227  -5.001  0.00  0.00     0.067 A 
ATOM     20  N   UNK d   0       7.589 -16.641  -6.146  0.00  0.00    -0.248 NA
ATOM     21  C   UNK d   0       6.994 -18.293  -4.746  0.00  0.00    -0.011 A 
ATOM     22  C   UNK d   0       6.467 -17.246  -6.658  0.00  0.00     0.066 A 
ATOM     23  C   UNK d   0       6.003 -16.759  -7.871  0.00  0.00     0.062 C 
ATOM     24  C   UNK d   0       6.127 -18.296  -5.717  0.00  0.00    -0.020 A 
ATOM     25  C   UNK d   0       6.593 -15.781  -8.687  0.00  0.00     0.041 A 
ATOM     26  N   UNK d   0       7.208 -14.630  -8.391  0.00  0.00    -0.355 N 
ATOM     27  C   UNK d   0       6.594 -15.980 -10.085  0.00  0.00    -0.022 A 
ATOM     28  C   UNK d   0       7.606 -14.090  -9.553  0.00  0.00     0.042 A 
ATOM     29  H   UNK d   0       7.339 -14.190  -7.372  0.00  0.00     0.166 HD
ATOM     30  C   UNK d   0       8.298 -12.900  -9.829  0.00  0.00     0.062 C 
ATOM     31  C   UNK d   0       7.234 -14.915 -10.641  0.00  0.00    -0.013 A 
ATOM     32  C   UNK d   0       9.358 -12.346  -9.130  0.00  0.00     0.066 A 
BRANCH   8  33
ATOM     33  C   UNK d   0      12.138 -10.167  -8.108  0.00  0.00     0.151 C 
BRANCH  33  34
ATOM     34  C   UNK d   0      11.835  -9.249  -6.996  0.00  0.00     0.143 C 
ATOM     35  O   UNK d   0      12.448  -9.326  -5.921  0.00  0.00    -0.650 OA
BRANCH  34  36
ATOM     36  O   UNK d   0      10.858  -8.294  -7.156  0.00  0.00    -0.776 OA
ATOM     37  H   UNK d   0      10.990  -7.332  -6.816  0.00  0.00     0.167 HD
ENDBRANCH  34  36
ENDBRANCH  33  34
ENDBRANCH   8  33
BRANCH  31  38
ATOM     38  C   UNK d   0       7.489 -14.698 -12.114  0.00  0.00     0.151 C 
BRANCH  38  39
ATOM     39  C   UNK d   0       6.272 -14.495 -12.871  0.00  0.00     0.143 C 
ATOM     40  O   UNK d   0       5.459 -13.596 -12.594  0.00  0.00    -0.650 OA
BRANCH  39  41
ATOM     41  O   UNK d   0       5.989 -15.329 -13.952  0.00  0.00    -0.776 OA
ATOM     42  H   UNK d   0       6.053 -14.912 -14.886  0.00  0.00     0.167 HD
ENDBRANCH  39  41
ENDBRANCH  38  39
ENDBRANCH  31  38
BRANCH  27  43
ATOM     43  C   UNK d   0       6.020 -17.118 -10.891  0.00  0.00     0.052 C 
BRANCH  43  44
ATOM     44  C   UNK d   0       6.412 -18.465 -10.375  0.00  0.00     0.115 C 
BRANCH  44  45
ATOM     45  C   UNK d   0       5.228 -19.346 -10.547  0.00  0.00     0.139 C 
ATOM     46  O   UNK d   0       4.267 -19.209  -9.750  0.00  0.00    -0.650 OA
BRANCH  45  47
ATOM     47  O   UNK d   0       5.142 -20.297 -11.542  0.00  0.00    -0.776 OA
ATOM     48  H   UNK d   0       4.777 -21.249 -11.377  0.00  0.00     0.167 HD
ENDBRANCH  45  47
ENDBRANCH  44  45
ENDBRANCH  43  44
ENDBRANCH  27  43
BRANCH  24  49
ATOM     49  C   UNK d   0       5.007 -19.238  -5.878  0.00  0.00     0.052 C 
BRANCH  49  50
ATOM     50  C   UNK d   0       3.770 -18.704  -5.201  0.00  0.00     0.115 C 
BRANCH  50  51
ATOM     51  C   UNK d   0       3.080 -19.594  -4.278  0.00  0.00     0.139 C 
ATOM     52  O   UNK d   0       2.047 -20.229  -4.596  0.00  0.00    -0.650 OA
BRANCH  51  53
ATOM     53  O   UNK d   0       3.567 -19.760  -2.990  0.00  0.00    -0.776 OA
ATOM     54  H   UNK d   0       4.507 -19.463  -2.796  0.00  0.00     0.167 HD
ENDBRANCH  51  53
ENDBRANCH  50  51
ENDBRANCH  49  50
ENDBRANCH  24  49
BRANCH  21  55
ATOM     55  C   UNK d   0       7.051 -19.199  -3.562  0.00  0.00     0.151 C 
BRANCH  55  56
ATOM     56  C   UNK d   0       8.327 -19.084  -2.840  0.00  0.00     0.143 C 
ATOM     57  O   UNK d   0       9.409 -19.483  -3.313  0.00  0.00    -0.650 OA
BRANCH  56  58
ATOM     58  O   UNK d   0       8.306 -18.501  -1.574  0.00  0.00    -0.776 OA
ATOM     59  H   UNK d   0       8.075 -17.492  -1.562  0.00  0.00     0.167 HD
ENDBRANCH  56  58
ENDBRANCH  55  56
ENDBRANCH  21  55
BRANCH  18  60
ATOM     60  C   UNK d   0       9.896 -14.901  -2.064  0.00  0.00     0.151 C 
BRANCH  60  61
ATOM     61  C   UNK d   0      11.027 -15.704  -1.574  0.00  0.00     0.143 C 
ATOM     62  O   UNK d   0      12.098 -15.287  -1.134  0.00  0.00    -0.650 OA
BRANCH  61  63
ATOM     63  O   UNK d   0      10.836 -17.106  -1.624  0.00  0.00    -0.776 OA
ATOM     64  H   UNK d   0      11.250 -17.660  -2.354  0.00  0.00     0.167 HD
ENDBRANCH  61  63
ENDBRANCH  60  61
ENDBRANCH  18  60
BRANCH  14  65
ATOM     65  C   UNK d   0      11.454 -12.587  -3.258  0.00  0.00     0.052 C 
BRANCH  65  66
ATOM     66  C   UNK d   0      12.921 -12.788  -3.116  0.00  0.00     0.115 C 
BRANCH  66  67
ATOM     67  C   UNK d   0      13.789 -11.649  -3.008  0.00  0.00     0.139 C 
ATOM     68  O   UNK d   0      14.928 -11.687  -3.602  0.00  0.00    -0.650 OA
BRANCH  67  69
ATOM     69  O   UNK d   0      13.554 -10.460  -2.318  0.00  0.00    -0.776 OA
ATOM     70  H   UNK d   0      12.604 -10.071  -2.406  0.00  0.00     0.167 HD
ENDBRANCH  67  69
ENDBRANCH  66  67
ENDBRANCH  65  66
ENDBRANCH  14  65
ENDBRANCH   6   7
ENDBRANCH   5   6
ENDBRANCH   2   5
TORSDOF 28
ENDMDL
MODEL 20
REMARK VINA RESULT:      -7.8     33.415     35.155
REMARK  28 active torsions:
REMARK  status: ('A' for Active; 'I' for Inactive)
REMARK    1  A    between atoms: C_2  and  O_3 
REMARK    2  A    between atoms: C_2  and  C_4 
REMARK    3  A    between atoms: C_4  and  C_5 
REMARK    4  A    between atoms: C_5  and  C_6 
REMARK    5  A    between atoms: C_7  and  C_8 
REMARK    6  A    between atoms: C_8  and  C_9 
REMARK    7  A    between atoms: C_9  and  O_11 
REMARK    8  A    between atoms: C_28  and  C_29 
REMARK    9  A    between atoms: C_29  and  C_30 
REMARK   10  A    between atoms: C_30  and  O_32 
REMARK   11  A    between atoms: C_33  and  C_34 
REMARK   12  A    between atoms: C_34  and  C_35 
REMARK   13  A    between atoms: C_35  and  C_36 
REMARK   14  A    between atoms: C_36  and  O_38 
REMARK   15  A    between atoms: C_39  and  C_40 
REMARK   16  A    between atoms: C_40  and  C_41 
REMARK   17  A    between atoms: C_41  and  C_42 
REMARK   18  A    between atoms: C_42  and  O_44 
REMARK   19  A    between atoms: C_45  and  C_46 
REMARK   20  A    between atoms: C_46  and  C_47 
REMARK   21  A    between atoms: C_47  and  O_49 
REMARK   22  A    between atoms: C_50  and  C_51 
REMARK   23  A    between atoms: C_51  and  C_52 
REMARK   24  A    between atoms: C_52  and  O_54 
REMARK   25  A    between atoms: C_55  and  C_56 
REMARK   26  A    between atoms: C_56  and  C_57 
REMARK   27  A    between atoms: C_57  and  C_58 
REMARK   28  A    between atoms: C_58  and  O_60 
ROOT
ATOM      1  O   UNK d   0     -18.251  -3.572   7.004  0.00  0.00    -0.650 OA
ATOM      2  C   UNK d   0     -17.713  -2.562   6.497  0.00  0.00     0.139 C 
ENDROOT
BRANCH   2   3
ATOM      3  O   UNK d   0     -17.474  -1.460   7.283  0.00  0.00    -0.776 OA
ATOM      4  H   UNK d   0     -16.601  -1.365   7.806  0.00  0.00     0.167 HD
ENDBRANCH   2   3
BRANCH   2   5
ATOM      5  C   UNK d   0     -17.338  -2.558   5.055  0.00  0.00     0.115 C 
BRANCH   5   6
ATOM      6  C   UNK d   0     -17.400  -3.956   4.500  0.00  0.00     0.052 C 
BRANCH   6   7
ATOM      7  C   UNK d   0     -18.276  -4.056   3.274  0.00  0.00    -0.020 A 
ATOM      8  C   UNK d   0     -17.939  -4.487   2.086  0.00  0.00    -0.011 A 
ATOM      9  C   UNK d   0     -19.109  -4.390   1.229  0.00  0.00     0.067 A 
ATOM     10  C   UNK d   0     -19.415  -4.698  -0.106  0.00  0.00     0.062 C 
ATOM     11  N   UNK d   0     -20.112  -3.883   1.976  0.00  0.00    -0.248 NA
ATOM     12  C   UNK d   0     -20.686  -4.794  -0.683  0.00  0.00     0.041 A 
ATOM     13  N   UNK d   0     -21.779  -4.019  -0.554  0.00  0.00    -0.355 N 
ATOM     14  C   UNK d   0     -20.974  -5.892  -1.515  0.00  0.00    -0.022 A 
ATOM     15  C   UNK d   0     -22.756  -4.600  -1.276  0.00  0.00     0.042 A 
ATOM     16  H   UNK d   0     -21.853  -3.069   0.020  0.00  0.00     0.166 HD
ATOM     17  C   UNK d   0     -24.093  -4.208  -1.486  0.00  0.00     0.062 C 
ATOM     18  C   UNK d   0     -22.289  -5.777  -1.893  0.00  0.00    -0.013 A 
ATOM     19  C   UNK d   0     -25.012  -3.754  -0.574  0.00  0.00     0.067 A 
ATOM     20  N   UNK d   0     -24.555  -3.447   0.643  0.00  0.00    -0.248 NA
ATOM     21  C   UNK d   0     -26.445  -3.514  -0.566  0.00  0.00    -0.011 A 
ATOM     22  C   UNK d   0     -25.586  -3.024   1.446  0.00  0.00     0.066 A 
ATOM     23  C   UNK d   0     -25.246  -2.635   2.733  0.00  0.00     0.062 C 
ATOM     24  C   UNK d   0     -26.776  -3.091   0.620  0.00  0.00    -0.020 A 
ATOM     25  C   UNK d   0     -23.961  -2.533   3.289  0.00  0.00     0.041 A 
ATOM     26  N   UNK d   0     -22.879  -3.312   3.173  0.00  0.00    -0.355 N 
ATOM     27  C   UNK d   0     -23.671  -1.429   4.121  0.00  0.00    -0.022 A 
ATOM     28  C   UNK d   0     -21.906  -2.739   3.899  0.00  0.00     0.042 A 
ATOM     29  H   UNK d   0     -22.809  -4.272   2.604  0.00  0.00     0.166 HD
ATOM     30  C   UNK d   0     -20.575  -3.123   4.124  0.00  0.00     0.062 C 
ATOM     31  C   UNK d   0     -22.373  -1.551   4.510  0.00  0.00    -0.013 A 
ATOM     32  C   UNK d   0     -19.675  -3.661   3.217  0.00  0.00     0.066 A 
BRANCH   8  33
ATOM     33  C   UNK d   0     -16.614  -4.982   1.666  0.00  0.00     0.151 C 
BRANCH  33  34
ATOM     34  C   UNK d   0     -15.712  -3.900   1.234  0.00  0.00     0.143 C 
ATOM     35  O   UNK d   0     -15.940  -3.256   0.199  0.00  0.00    -0.650 OA
BRANCH  34  36
ATOM     36  O   UNK d   0     -14.601  -3.604   1.990  0.00  0.00    -0.776 OA
ATOM     37  H   UNK d   0     -14.488  -3.978   2.942  0.00  0.00     0.167 HD
ENDBRANCH  34  36
ENDBRANCH  33  34
ENDBRANCH   8  33
BRANCH  31  38
ATOM     38  C   UNK d   0     -21.615  -0.593   5.398  0.00  0.00     0.151 C 
BRANCH  38  39
ATOM     39  C   UNK d   0     -21.490  -1.067   6.760  0.00  0.00     0.143 C 
ATOM     40  O   UNK d   0     -22.330  -1.823   7.280  0.00  0.00    -0.650 OA
BRANCH  39  41
ATOM     41  O   UNK d   0     -20.395  -0.672   7.527  0.00  0.00    -0.776 OA
ATOM     42  H   UNK d   0     -19.549  -0.399   7.017  0.00  0.00     0.167 HD
ENDBRANCH  39  41
ENDBRANCH  38  39
ENDBRANCH  31  38
BRANCH  27  43
ATOM     43  C   UNK d   0     -24.564  -0.291   4.549  0.00  0.00     0.052 C 
BRANCH  43  44
ATOM     44  C   UNK d   0     -24.292   0.981   3.815  0.00  0.00     0.115 C 
BRANCH  44  45
ATOM     45  C   UNK d   0     -25.360   1.118   2.791  0.00  0.00     0.139 C 
ATOM     46  O   UNK d   0     -26.550   1.200   3.184  0.00  0.00    -0.650 OA
BRANCH  45  47
ATOM     47  O   UNK d   0     -25.097   1.163   1.439  0.00  0.00    -0.776 OA
ATOM     48  H   UNK d   0     -25.731   1.615   0.760  0.00  0.00     0.167 HD
ENDBRANCH  45  47
ENDBRANCH  44  45
ENDBRANCH  43  44
ENDBRANCH  27  43
BRANCH  24  49
ATOM     49  C   UNK d   0     -28.125  -2.692   1.054  0.00  0.00     0.052 C 
BRANCH  49  50
ATOM     50  C   UNK d   0     -28.200  -1.196   1.224  0.00  0.00     0.115 C 
BRANCH  50  51
ATOM     51  C   UNK d   0     -28.195  -0.388   0.012  0.00  0.00     0.139 C 
ATOM     52  O   UNK d   0     -27.343   0.507  -0.201  0.00  0.00    -0.650 OA
BRANCH  51  53
ATOM     53  O   UNK d   0     -29.164  -0.598  -0.957  0.00  0.00    -0.776 OA
ATOM     54  H   UNK d   0     -30.113  -0.347  -0.742  0.00  0.00     0.167 HD
ENDBRANCH  51  53
ENDBRANCH  50  51
ENDBRANCH  49  50
ENDBRANCH  24  49
BRANCH  21  55
ATOM     55  C   UNK d   0     -27.334  -3.729  -1.746  0.00  0.00     0.151 C 
BRANCH  55  56
ATOM     56  C   UNK d   0     -27.628  -5.153  -1.964  0.00  0.00     0.143 C 
ATOM     57  O   UNK d   0     -28.231  -5.572  -2.972  0.00  0.00    -0.650 OA
BRANCH  56  58
ATOM     58  O   UNK d   0     -27.206  -6.059  -0.991  0.00  0.00    -0.776 OA
ATOM     59  H   UNK d   0     -26.726  -6.901  -1.358  0.00  0.00     0.167 HD
ENDBRANCH  56  58
ENDBRANCH  55  56
ENDBRANCH  21  55
BRANCH  18  60
ATOM     60  C   UNK d   0     -23.020  -6.749  -2.784  0.00  0.00     0.151 C 
BRANCH  60  61
ATOM     61  C   UNK d   0     -23.636  -7.737  -1.885  0.00  0.00     0.143 C 
ATOM     62  O   UNK d   0     -24.616  -7.571  -1.159  0.00  0.00    -0.650 OA
BRANCH  61  63
ATOM     63  O   UNK d   0     -23.015  -9.010  -1.873  0.00  0.00    -0.776 OA
ATOM     64  H   UNK d   0     -23.559  -9.852  -1.819  0.00  0.00     0.167 HD
ENDBRANCH  61  63
ENDBRANCH  60  61
ENDBRANCH  18  60
BRANCH  14  65
ATOM     65  C   UNK d   0     -20.084  -6.975  -2.054  0.00  0.00     0.052 C 
BRANCH  65  66
ATOM     66  C   UNK d   0     -19.238  -6.522  -3.190  0.00  0.00     0.115 C 
BRANCH  66  67
ATOM     67  C   UNK d   0     -18.357  -7.453  -3.838  0.00  0.00     0.139 C 
ATOM     68  O   UNK d   0     -17.340  -7.890  -3.185  0.00  0.00    -0.650 OA
BRANCH  67  69
ATOM     69  O   UNK d   0     -18.459  -7.966  -5.130  0.00  0.00    -0.776 OA
ATOM     70  H   UNK d   0     -19.039  -8.812  -5.232  0.00  0.00     0.167 HD
ENDBRANCH  67  69
ENDBRANCH  66  67
ENDBRANCH  65  66
ENDBRANCH  14  65
ENDBRANCH   6   7
ENDBRANCH   5   6
ENDBRANCH   2   5
TORSDOF 28
ENDMDL
