MODEL 1
REMARK VINA RESULT:     -10.3      0.000      0.000
REMARK  16 active torsions:
REMARK  status: ('A' for Active; 'I' for Inactive)
REMARK    1  A    between atoms: C_6  and  C_7 
REMARK    2  A    between atoms: C_7  and  C_8 
REMARK    3  A    between atoms: C_8  and  C_9 
REMARK    4  A    between atoms: C_9  and  O_11 
REMARK    5  A    between atoms: C_16  and  C_17 
REMARK    6  A    between atoms: C_17  and  C_18 
REMARK    7  A    between atoms: C_18  and  C_19 
REMARK    8  A    between atoms: C_19  and  O_21 
REMARK    9  A    between atoms: C_28  and  C_29 
REMARK   10  A    between atoms: C_29  and  C_30 
REMARK   11  A    between atoms: C_30  and  C_31 
REMARK   12  A    between atoms: C_31  and  O_33 
REMARK   13  A    between atoms: C_42  and  C_43 
REMARK   14  A    between atoms: C_43  and  C_44 
REMARK   15  A    between atoms: C_44  and  C_45 
REMARK   16  A    between atoms: C_45  and  O_47 
ROOT
HETATM    1  C   UNK     0     -11.244  -2.842  18.905  0.00  0.00     0.051 C 
HETATM    2  C   UNK     0     -10.858  -4.055  18.083  0.00  0.00    -0.031 A 
HETATM    3  C   UNK     0      -9.607  -4.459  17.646  0.00  0.00     0.021 A 
HETATM    4  N   UNK     0      -9.739  -5.590  16.913  0.00  0.00    -0.361 N 
HETATM    5  C   UNK     0     -11.047  -5.920  16.881  0.00  0.00     0.022 A 
HETATM    6  C   UNK     0     -11.776  -4.979  17.601  0.00  0.00    -0.027 A 
HETATM    7  C   UNK     0     -11.711  -7.123  16.288  0.00  0.00     0.115 C 
HETATM    8  C   UNK     0     -11.023  -8.459  16.509  0.00  0.00     0.021 A 
HETATM    9  N   UNK     0     -10.344  -8.882  17.587  0.00  0.00    -0.361 N 
HETATM   10  C   UNK     0      -9.827 -10.097  17.306  0.00  0.00     0.022 A 
HETATM   11  C   UNK     0     -10.191 -10.471  16.016  0.00  0.00    -0.027 A 
HETATM   12  C   UNK     0     -10.945  -9.444  15.508  0.00  0.00    -0.031 A 
HETATM   13  C   UNK     0     -11.564  -9.413  14.129  0.00  0.00     0.051 C 
HETATM   14  C   UNK     0      -8.929 -10.927  18.219  0.00  0.00     0.115 C 
HETATM   15  C   UNK     0      -7.619 -10.246  18.579  0.00  0.00     0.021 A 
HETATM   16  N   UNK     0      -7.451  -9.061  19.197  0.00  0.00    -0.361 N 
HETATM   17  C   UNK     0      -6.148  -8.783  19.265  0.00  0.00     0.022 A 
HETATM   18  C   UNK     0      -5.431  -9.841  18.672  0.00  0.00    -0.027 A 
HETATM   19  C   UNK     0      -6.363 -10.751  18.248  0.00  0.00    -0.031 A 
HETATM   20  C   UNK     0      -6.014 -12.069  17.580  0.00  0.00     0.051 C 
HETATM   21  C   UNK     0      -5.443  -7.554  19.793  0.00  0.00     0.115 C 
HETATM   22  C   UNK     0      -6.136  -6.223  19.620  0.00  0.00     0.022 A 
HETATM   23  N   UNK     0      -6.822  -5.777  18.560  0.00  0.00    -0.361 N 
HETATM   24  C   UNK     0      -7.393  -4.601  18.889  0.00  0.00     0.021 A 
HETATM   25  C   UNK     0      -7.058  -4.277  20.190  0.00  0.00    -0.031 A 
HETATM   26  C   UNK     0      -7.423  -3.043  20.989  0.00  0.00     0.051 C 
HETATM   27  C   UNK     0      -6.253  -5.300  20.678  0.00  0.00    -0.027 A 
HETATM   28  C   UNK     0      -8.340  -3.760  18.050  0.00  0.00     0.115 C 
HETATM   29  H   UNK     0      -8.913  -6.125  16.390  0.00  0.00     0.165 HD
HETATM   30  H   UNK     0     -10.270  -8.347  18.565  0.00  0.00     0.165 HD
HETATM   31  H   UNK     0      -8.267  -8.430  19.636  0.00  0.00     0.165 HD
HETATM   32  H   UNK     0      -6.875  -6.268  17.553  0.00  0.00     0.165 HD
ENDROOT
BRANCH   6  33
HETATM   33  C   UNK     0     -13.258  -4.892  17.860  0.00  0.00     0.051 C 
BRANCH  33  34
HETATM   34  C   UNK     0     -14.000  -4.511  16.601  0.00  0.00     0.114 C 
BRANCH  34  35
HETATM   35  C   UNK     0     -15.172  -5.426  16.480  0.00  0.00     0.139 C 
HETATM   36  O   UNK     0     -15.887  -5.410  15.436  0.00  0.00    -0.650 OA
BRANCH  35  37
HETATM   37  O   UNK     0     -15.530  -6.322  17.480  0.00  0.00    -0.776 OA
HETATM   38  H   UNK     0     -16.146  -7.099  17.305  0.00  0.00     0.167 HD
ENDBRANCH  35  37
ENDBRANCH  34  35
ENDBRANCH  33  34
ENDBRANCH   6  33
BRANCH  27  39
HETATM   39  C   UNK     0      -5.635  -5.269  22.031  0.00  0.00     0.051 C 
BRANCH  39  40
HETATM   40  C   UNK     0      -4.303  -4.679  22.172  0.00  0.00     0.114 C 
BRANCH  40  41
HETATM   41  C   UNK     0      -3.940  -3.860  23.307  0.00  0.00     0.139 C 
HETATM   42  O   UNK     0      -4.259  -4.126  24.473  0.00  0.00    -0.650 OA
BRANCH  41  43
HETATM   43  O   UNK     0      -3.175  -2.679  23.089  0.00  0.00    -0.776 OA
HETATM   44  H   UNK     0      -2.570  -2.423  23.860  0.00  0.00     0.167 HD
ENDBRANCH  41  43
ENDBRANCH  40  41
ENDBRANCH  39  40
ENDBRANCH  27  39
BRANCH  11  45
HETATM   45  C   UNK     0      -9.857 -11.737  15.273  0.00  0.00     0.051 C 
BRANCH  45  46
HETATM   46  C   UNK     0      -8.586 -11.673  14.507  0.00  0.00     0.114 C 
BRANCH  46  47
HETATM   47  C   UNK     0      -7.956 -13.022  14.585  0.00  0.00     0.139 C 
HETATM   48  O   UNK     0      -8.688 -14.011  14.729  0.00  0.00    -0.650 OA
BRANCH  47  49
HETATM   49  O   UNK     0      -6.594 -13.167  14.501  0.00  0.00    -0.776 OA
HETATM   50  H   UNK     0      -6.134 -14.077  14.624  0.00  0.00     0.167 HD
ENDBRANCH  47  49
ENDBRANCH  46  47
ENDBRANCH  45  46
ENDBRANCH  11  45
BRANCH  18  51
HETATM   51  C   UNK     0      -3.937  -9.987  18.537  0.00  0.00     0.051 C 
BRANCH  51  52
HETATM   52  C   UNK     0      -3.467 -10.732  19.777  0.00  0.00     0.114 C 
BRANCH  52  53
HETATM   53  C   UNK     0      -3.190 -12.153  19.492  0.00  0.00     0.139 C 
HETATM   54  O   UNK     0      -3.658 -13.037  20.228  0.00  0.00    -0.650 OA
BRANCH  53  55
HETATM   55  O   UNK     0      -2.411 -12.491  18.413  0.00  0.00    -0.776 OA
HETATM   56  H   UNK     0      -1.435 -12.673  18.431  0.00  0.00     0.167 HD
ENDBRANCH  53  55
ENDBRANCH  52  53
ENDBRANCH  51  52
ENDBRANCH  18  51
TORSDOF 16
ENDMDL
MODEL 2
REMARK VINA RESULT:     -10.3      2.145      7.250
REMARK  16 active torsions:
REMARK  status: ('A' for Active; 'I' for Inactive)
REMARK    1  A    between atoms: C_6  and  C_7 
REMARK    2  A    between atoms: C_7  and  C_8 
REMARK    3  A    between atoms: C_8  and  C_9 
REMARK    4  A    between atoms: C_9  and  O_11 
REMARK    5  A    between atoms: C_16  and  C_17 
REMARK    6  A    between atoms: C_17  and  C_18 
REMARK    7  A    between atoms: C_18  and  C_19 
REMARK    8  A    between atoms: C_19  and  O_21 
REMARK    9  A    between atoms: C_28  and  C_29 
REMARK   10  A    between atoms: C_29  and  C_30 
REMARK   11  A    between atoms: C_30  and  C_31 
REMARK   12  A    between atoms: C_31  and  O_33 
REMARK   13  A    between atoms: C_42  and  C_43 
REMARK   14  A    between atoms: C_43  and  C_44 
REMARK   15  A    between atoms: C_44  and  C_45 
REMARK   16  A    between atoms: C_45  and  O_47 
ROOT
HETATM    1  C   UNK     0      -5.866 -12.472  18.547  0.00  0.00     0.051 C 
HETATM    2  C   UNK     0      -6.929 -11.397  18.443  0.00  0.00    -0.031 A 
HETATM    3  C   UNK     0      -7.368 -10.499  19.403  0.00  0.00     0.021 A 
HETATM    4  N   UNK     0      -8.359  -9.740  18.877  0.00  0.00    -0.361 N 
HETATM    5  C   UNK     0      -8.554 -10.129  17.600  0.00  0.00     0.022 A 
HETATM    6  C   UNK     0      -7.678 -11.166  17.296  0.00  0.00    -0.027 A 
HETATM    7  C   UNK     0      -9.461  -9.553  16.557  0.00  0.00     0.115 C 
HETATM    8  C   UNK     0      -9.524  -8.039  16.470  0.00  0.00     0.021 A 
HETATM    9  N   UNK     0      -8.538  -7.148  16.660  0.00  0.00    -0.361 N 
HETATM   10  C   UNK     0      -9.068  -5.910  16.573  0.00  0.00     0.022 A 
HETATM   11  C   UNK     0     -10.431  -6.005  16.309  0.00  0.00    -0.027 A 
HETATM   12  C   UNK     0     -10.725  -7.343  16.243  0.00  0.00    -0.031 A 
HETATM   13  C   UNK     0     -12.094  -7.925  15.969  0.00  0.00     0.051 C 
HETATM   14  C   UNK     0      -8.325  -4.594  16.786  0.00  0.00     0.115 C 
HETATM   15  C   UNK     0      -7.728  -4.443  18.176  0.00  0.00     0.021 A 
HETATM   16  N   UNK     0      -6.834  -5.249  18.778  0.00  0.00    -0.361 N 
HETATM   17  C   UNK     0      -6.616  -4.812  20.020  0.00  0.00     0.022 A 
HETATM   18  C   UNK     0      -7.398  -3.660  20.234  0.00  0.00    -0.027 A 
HETATM   19  C   UNK     0      -8.089  -3.438  19.071  0.00  0.00    -0.031 A 
HETATM   20  C   UNK     0      -9.029  -2.266  18.859  0.00  0.00     0.051 C 
HETATM   21  C   UNK     0      -5.762  -5.400  21.121  0.00  0.00     0.115 C 
HETATM   22  C   UNK     0      -5.656  -6.905  21.193  0.00  0.00     0.022 A 
HETATM   23  N   UNK     0      -6.619  -7.815  21.004  0.00  0.00    -0.361 N 
HETATM   24  C   UNK     0      -6.054  -9.039  21.018  0.00  0.00     0.021 A 
HETATM   25  C   UNK     0      -4.695  -8.914  21.232  0.00  0.00    -0.031 A 
HETATM   26  C   UNK     0      -3.648 -10.000  21.368  0.00  0.00     0.051 C 
HETATM   27  C   UNK     0      -4.416  -7.558  21.347  0.00  0.00    -0.027 A 
HETATM   28  C   UNK     0      -6.726 -10.376  20.756  0.00  0.00     0.115 C 
HETATM   29  H   UNK     0      -8.940  -8.962  19.423  0.00  0.00     0.165 HD
HETATM   30  H   UNK     0      -7.457  -7.390  16.807  0.00  0.00     0.165 HD
HETATM   31  H   UNK     0      -6.309  -6.118  18.301  0.00  0.00     0.165 HD
HETATM   32  H   UNK     0      -7.716  -7.604  20.902  0.00  0.00     0.165 HD
ENDROOT
BRANCH   6  33
HETATM   33  C   UNK     0      -7.502 -11.945  16.017  0.00  0.00     0.051 C 
BRANCH  33  34
HETATM   34  C   UNK     0      -8.645 -11.677  15.067  0.00  0.00     0.114 C 
BRANCH  34  35
HETATM   35  C   UNK     0      -8.692 -12.808  14.096  0.00  0.00     0.139 C 
HETATM   36  O   UNK     0      -8.322 -13.966  14.449  0.00  0.00    -0.650 OA
BRANCH  35  37
HETATM   37  O   UNK     0      -9.137 -12.656  12.789  0.00  0.00    -0.776 OA
HETATM   38  H   UNK     0      -8.624 -12.119  12.109  0.00  0.00     0.167 HD
ENDBRANCH  35  37
ENDBRANCH  34  35
ENDBRANCH  33  34
ENDBRANCH   6  33
BRANCH  27  39
HETATM   39  C   UNK     0      -3.058  -7.033  21.655  0.00  0.00     0.051 C 
BRANCH  39  40
HETATM   40  C   UNK     0      -2.838  -6.392  22.952  0.00  0.00     0.114 C 
BRANCH  40  41
HETATM   41  C   UNK     0      -2.850  -4.956  23.114  0.00  0.00     0.139 C 
HETATM   42  O   UNK     0      -2.174  -4.184  22.420  0.00  0.00    -0.650 OA
BRANCH  41  43
HETATM   43  O   UNK     0      -3.678  -4.381  24.119  0.00  0.00    -0.776 OA
HETATM   44  H   UNK     0      -4.588  -4.815  24.212  0.00  0.00     0.167 HD
ENDBRANCH  41  43
ENDBRANCH  40  41
ENDBRANCH  39  40
ENDBRANCH  27  39
BRANCH  11  45
HETATM   45  C   UNK     0     -11.434  -4.898  16.121  0.00  0.00     0.051 C 
BRANCH  45  46
HETATM   46  C   UNK     0     -12.213  -4.572  17.343  0.00  0.00     0.114 C 
BRANCH  46  47
HETATM   47  C   UNK     0     -13.565  -4.128  16.898  0.00  0.00     0.139 C 
HETATM   48  O   UNK     0     -14.335  -3.641  17.739  0.00  0.00    -0.650 OA
BRANCH  47  49
HETATM   49  O   UNK     0     -13.952  -4.256  15.588  0.00  0.00    -0.776 OA
HETATM   50  H   UNK     0     -14.926  -4.443  15.323  0.00  0.00     0.167 HD
ENDBRANCH  47  49
ENDBRANCH  46  47
ENDBRANCH  45  46
ENDBRANCH  11  45
BRANCH  18  51
HETATM   51  C   UNK     0      -7.467  -2.805  21.473  0.00  0.00     0.051 C 
BRANCH  51  52
HETATM   52  C   UNK     0      -6.331  -1.799  21.360  0.00  0.00     0.114 C 
BRANCH  52  53
HETATM   53  C   UNK     0      -5.331  -1.977  22.431  0.00  0.00     0.139 C 
HETATM   54  O   UNK     0      -5.695  -2.299  23.574  0.00  0.00    -0.650 OA
BRANCH  53  55
HETATM   55  O   UNK     0      -3.999  -1.782  22.157  0.00  0.00    -0.776 OA
HETATM   56  H   UNK     0      -3.332  -1.372  22.766  0.00  0.00     0.167 HD
ENDBRANCH  53  55
ENDBRANCH  52  53
ENDBRANCH  51  52
ENDBRANCH  18  51
TORSDOF 16
ENDMDL
MODEL 3
REMARK VINA RESULT:      -9.6      2.859     10.473
REMARK  16 active torsions:
REMARK  status: ('A' for Active; 'I' for Inactive)
REMARK    1  A    between atoms: C_6  and  C_7 
REMARK    2  A    between atoms: C_7  and  C_8 
REMARK    3  A    between atoms: C_8  and  C_9 
REMARK    4  A    between atoms: C_9  and  O_11 
REMARK    5  A    between atoms: C_16  and  C_17 
REMARK    6  A    between atoms: C_17  and  C_18 
REMARK    7  A    between atoms: C_18  and  C_19 
REMARK    8  A    between atoms: C_19  and  O_21 
REMARK    9  A    between atoms: C_28  and  C_29 
REMARK   10  A    between atoms: C_29  and  C_30 
REMARK   11  A    between atoms: C_30  and  C_31 
REMARK   12  A    between atoms: C_31  and  O_33 
REMARK   13  A    between atoms: C_42  and  C_43 
REMARK   14  A    between atoms: C_43  and  C_44 
REMARK   15  A    between atoms: C_44  and  C_45 
REMARK   16  A    between atoms: C_45  and  O_47 
ROOT
HETATM    1  C   UNK     0      -4.376 -13.843  19.837  0.00  0.00     0.051 C 
HETATM    2  C   UNK     0      -4.110 -12.359  19.984  0.00  0.00    -0.031 A 
HETATM    3  C   UNK     0      -4.103 -11.366  19.017  0.00  0.00     0.021 A 
HETATM    4  N   UNK     0      -3.784 -10.186  19.599  0.00  0.00    -0.361 N 
HETATM    5  C   UNK     0      -3.596 -10.403  20.917  0.00  0.00     0.022 A 
HETATM    6  C   UNK     0      -3.790 -11.753  21.192  0.00  0.00    -0.027 A 
HETATM    7  C   UNK     0      -3.321  -9.422  22.013  0.00  0.00     0.115 C 
HETATM    8  C   UNK     0      -4.117  -8.129  21.987  0.00  0.00     0.021 A 
HETATM    9  N   UNK     0      -5.390  -7.938  21.606  0.00  0.00    -0.361 N 
HETATM   10  C   UNK     0      -5.649  -6.614  21.659  0.00  0.00     0.022 A 
HETATM   11  C   UNK     0      -4.515  -5.935  22.095  0.00  0.00    -0.027 A 
HETATM   12  C   UNK     0      -3.546  -6.883  22.304  0.00  0.00    -0.031 A 
HETATM   13  C   UNK     0      -2.141  -6.605  22.788  0.00  0.00     0.051 C 
HETATM   14  C   UNK     0      -6.953  -5.934  21.253  0.00  0.00     0.115 C 
HETATM   15  C   UNK     0      -7.324  -6.138  19.792  0.00  0.00     0.021 A 
HETATM   16  N   UNK     0      -7.526  -7.305  19.151  0.00  0.00    -0.361 N 
HETATM   17  C   UNK     0      -7.764  -7.060  17.861  0.00  0.00     0.022 A 
HETATM   18  C   UNK     0      -7.725  -5.667  17.653  0.00  0.00    -0.027 A 
HETATM   19  C   UNK     0      -7.450  -5.101  18.871  0.00  0.00    -0.031 A 
HETATM   20  C   UNK     0      -7.354  -3.604  19.103  0.00  0.00     0.051 C 
HETATM   21  C   UNK     0      -7.981  -8.021  16.714  0.00  0.00     0.115 C 
HETATM   22  C   UNK     0      -7.229  -9.330  16.749  0.00  0.00     0.022 A 
HETATM   23  N   UNK     0      -5.963  -9.551  17.127  0.00  0.00    -0.361 N 
HETATM   24  C   UNK     0      -5.751 -10.882  17.142  0.00  0.00     0.021 A 
HETATM   25  C   UNK     0      -6.905 -11.535  16.753  0.00  0.00    -0.031 A 
HETATM   26  C   UNK     0      -7.147 -13.019  16.577  0.00  0.00     0.051 C 
HETATM   27  C   UNK     0      -7.865 -10.563  16.497  0.00  0.00    -0.027 A 
HETATM   28  C   UNK     0      -4.501 -11.619  17.590  0.00  0.00     0.115 C 
HETATM   29  H   UNK     0      -3.655  -9.214  19.067  0.00  0.00     0.165 HD
HETATM   30  H   UNK     0      -6.123  -8.741  21.348  0.00  0.00     0.165 HD
HETATM   31  H   UNK     0      -7.549  -8.319  19.628  0.00  0.00     0.165 HD
HETATM   32  H   UNK     0      -5.193  -8.765  17.346  0.00  0.00     0.165 HD
ENDROOT
BRANCH   6  33
HETATM   33  C   UNK     0      -3.692 -12.500  22.498  0.00  0.00     0.051 C 
BRANCH  33  34
HETATM   34  C   UNK     0      -4.846 -12.146  23.405  0.00  0.00     0.114 C 
BRANCH  34  35
HETATM   35  C   UNK     0      -4.288 -11.922  24.770  0.00  0.00     0.139 C 
HETATM   36  O   UNK     0      -3.175 -11.338  24.916  0.00  0.00    -0.650 OA
BRANCH  35  37
HETATM   37  O   UNK     0      -4.946 -12.331  25.924  0.00  0.00    -0.776 OA
HETATM   38  H   UNK     0      -5.736 -11.828  26.295  0.00  0.00     0.167 HD
ENDBRANCH  35  37
ENDBRANCH  34  35
ENDBRANCH  33  34
ENDBRANCH   6  33
BRANCH  27  39
HETATM   39  C   UNK     0      -9.225 -10.882  15.984  0.00  0.00     0.051 C 
BRANCH  39  40
HETATM   40  C   UNK     0      -9.360 -11.298  14.588  0.00  0.00     0.114 C 
BRANCH  40  41
HETATM   41  C   UNK     0     -10.639 -11.332  13.915  0.00  0.00     0.139 C 
HETATM   42  O   UNK     0     -11.698 -11.650  14.473  0.00  0.00    -0.650 OA
BRANCH  41  43
HETATM   43  O   UNK     0     -10.703 -10.984  12.536  0.00  0.00    -0.776 OA
HETATM   44  H   UNK     0     -10.052 -11.487  11.946  0.00  0.00     0.167 HD
ENDBRANCH  41  43
ENDBRANCH  40  41
ENDBRANCH  39  40
ENDBRANCH  27  39
BRANCH  11  45
HETATM   45  C   UNK     0      -4.329  -4.458  22.316  0.00  0.00     0.051 C 
BRANCH  45  46
HETATM   46  C   UNK     0      -4.336  -4.053  23.745  0.00  0.00     0.114 C 
BRANCH  46  47
HETATM   47  C   UNK     0      -5.762  -3.965  24.172  0.00  0.00     0.139 C 
HETATM   48  O   UNK     0      -6.547  -3.302  23.479  0.00  0.00    -0.650 OA
BRANCH  47  49
HETATM   49  O   UNK     0      -6.196  -4.601  25.307  0.00  0.00    -0.776 OA
HETATM   50  H   UNK     0      -6.345  -4.099  26.190  0.00  0.00     0.167 HD
ENDBRANCH  47  49
ENDBRANCH  46  47
ENDBRANCH  45  46
ENDBRANCH  11  45
BRANCH  18  51
HETATM   51  C   UNK     0      -7.959  -4.915  16.368  0.00  0.00     0.051 C 
BRANCH  51  52
HETATM   52  C   UNK     0      -9.467  -4.775  16.225  0.00  0.00     0.114 C 
BRANCH  52  53
HETATM   53  C   UNK     0      -9.946  -3.466  16.710  0.00  0.00     0.139 C 
HETATM   54  O   UNK     0     -10.870  -3.410  17.536  0.00  0.00    -0.650 OA
BRANCH  53  55
HETATM   55  O   UNK     0      -9.365  -2.313  16.240  0.00  0.00    -0.776 OA
HETATM   56  H   UNK     0      -9.171  -2.103  15.290  0.00  0.00     0.167 HD
ENDBRANCH  53  55
ENDBRANCH  52  53
ENDBRANCH  51  52
ENDBRANCH  18  51
TORSDOF 16
ENDMDL
MODEL 4
REMARK VINA RESULT:      -9.6      2.390     10.015
REMARK  16 active torsions:
REMARK  status: ('A' for Active; 'I' for Inactive)
REMARK    1  A    between atoms: C_6  and  C_7 
REMARK    2  A    between atoms: C_7  and  C_8 
REMARK    3  A    between atoms: C_8  and  C_9 
REMARK    4  A    between atoms: C_9  and  O_11 
REMARK    5  A    between atoms: C_16  and  C_17 
REMARK    6  A    between atoms: C_17  and  C_18 
REMARK    7  A    between atoms: C_18  and  C_19 
REMARK    8  A    between atoms: C_19  and  O_21 
REMARK    9  A    between atoms: C_28  and  C_29 
REMARK   10  A    between atoms: C_29  and  C_30 
REMARK   11  A    between atoms: C_30  and  C_31 
REMARK   12  A    between atoms: C_31  and  O_33 
REMARK   13  A    between atoms: C_42  and  C_43 
REMARK   14  A    between atoms: C_43  and  C_44 
REMARK   15  A    between atoms: C_44  and  C_45 
REMARK   16  A    between atoms: C_45  and  O_47 
ROOT
HETATM    1  C   UNK     0      -6.153 -13.809  16.739  0.00  0.00     0.051 C 
HETATM    2  C   UNK     0      -5.892 -12.403  17.239  0.00  0.00    -0.031 A 
HETATM    3  C   UNK     0      -6.103 -11.190  16.603  0.00  0.00     0.021 A 
HETATM    4  N   UNK     0      -5.694 -10.188  17.417  0.00  0.00    -0.361 N 
HETATM    5  C   UNK     0      -5.236 -10.735  18.562  0.00  0.00     0.022 A 
HETATM    6  C   UNK     0      -5.342 -12.120  18.483  0.00  0.00    -0.027 A 
HETATM    7  C   UNK     0      -4.760 -10.067  19.814  0.00  0.00     0.115 C 
HETATM    8  C   UNK     0      -5.569  -8.877  20.301  0.00  0.00     0.021 A 
HETATM    9  N   UNK     0      -6.896  -8.688  20.240  0.00  0.00    -0.361 N 
HETATM   10  C   UNK     0      -7.165  -7.450  20.707  0.00  0.00     0.022 A 
HETATM   11  C   UNK     0      -5.979  -6.829  21.088  0.00  0.00    -0.027 A 
HETATM   12  C   UNK     0      -4.970  -7.723  20.835  0.00  0.00    -0.031 A 
HETATM   13  C   UNK     0      -3.501  -7.480  21.099  0.00  0.00     0.051 C 
HETATM   14  C   UNK     0      -8.538  -6.786  20.763  0.00  0.00     0.115 C 
HETATM   15  C   UNK     0      -9.197  -6.618  19.404  0.00  0.00     0.021 A 
HETATM   16  N   UNK     0      -9.503  -7.582  18.515  0.00  0.00    -0.361 N 
HETATM   17  C   UNK     0     -10.006  -7.019  17.414  0.00  0.00     0.022 A 
HETATM   18  C   UNK     0     -10.037  -5.623  17.597  0.00  0.00    -0.027 A 
HETATM   19  C   UNK     0      -9.529  -5.385  18.848  0.00  0.00    -0.031 A 
HETATM   20  C   UNK     0      -9.416  -4.002  19.464  0.00  0.00     0.051 C 
HETATM   21  C   UNK     0     -10.434  -7.651  16.109  0.00  0.00     0.115 C 
HETATM   22  C   UNK     0      -9.666  -8.862  15.634  0.00  0.00     0.022 A 
HETATM   23  N   UNK     0      -8.345  -9.079  15.686  0.00  0.00    -0.361 N 
HETATM   24  C   UNK     0      -8.109 -10.346  15.289  0.00  0.00     0.021 A 
HETATM   25  C   UNK     0      -9.305 -10.955  14.963  0.00  0.00    -0.031 A 
HETATM   26  C   UNK     0      -9.550 -12.352  14.432  0.00  0.00     0.051 C 
HETATM   27  C   UNK     0     -10.317 -10.025  15.176  0.00  0.00    -0.027 A 
HETATM   28  C   UNK     0      -6.780 -11.080  15.266  0.00  0.00     0.115 C 
HETATM   29  H   UNK     0      -5.696  -9.103  17.162  0.00  0.00     0.165 HD
HETATM   30  H   UNK     0      -7.652  -9.444  19.914  0.00  0.00     0.165 HD
HETATM   31  H   UNK     0      -9.408  -8.686  18.686  0.00  0.00     0.165 HD
HETATM   32  H   UNK     0      -7.563  -8.326  15.962  0.00  0.00     0.165 HD
ENDROOT
BRANCH   6  33
HETATM   33  C   UNK     0      -4.964 -13.181  19.486  0.00  0.00     0.051 C 
BRANCH  33  34
HETATM   34  C   UNK     0      -5.829 -13.083  20.720  0.00  0.00     0.114 C 
BRANCH  34  35
HETATM   35  C   UNK     0      -7.156 -13.673  20.383  0.00  0.00     0.139 C 
HETATM   36  O   UNK     0      -8.110 -12.927  20.016  0.00  0.00    -0.650 OA
BRANCH  35  37
HETATM   37  O   UNK     0      -7.408 -15.038  20.450  0.00  0.00    -0.776 OA
HETATM   38  H   UNK     0      -8.115 -15.422  21.056  0.00  0.00     0.167 HD
ENDBRANCH  35  37
ENDBRANCH  34  35
ENDBRANCH  33  34
ENDBRANCH   6  33
BRANCH  27  39
HETATM   39  C   UNK     0     -11.746 -10.297  14.866  0.00  0.00     0.051 C 
BRANCH  39  40
HETATM   40  C   UNK     0     -12.394 -11.435  15.518  0.00  0.00     0.114 C 
BRANCH  40  41
HETATM   41  C   UNK     0     -13.474 -12.168  14.895  0.00  0.00     0.139 C 
HETATM   42  O   UNK     0     -13.585 -12.312  13.670  0.00  0.00    -0.650 OA
BRANCH  41  43
HETATM   43  O   UNK     0     -14.471 -12.761  15.719  0.00  0.00    -0.776 OA
HETATM   44  H   UNK     0     -14.171 -13.599  16.203  0.00  0.00     0.167 HD
ENDBRANCH  41  43
ENDBRANCH  40  41
ENDBRANCH  39  40
ENDBRANCH  27  39
BRANCH  11  45
HETATM   45  C   UNK     0      -5.780  -5.456  21.671  0.00  0.00     0.051 C 
BRANCH  45  46
HETATM   46  C   UNK     0      -6.170  -4.349  20.760  0.00  0.00     0.114 C 
BRANCH  46  47
HETATM   47  C   UNK     0      -6.592  -3.202  21.614  0.00  0.00     0.139 C 
HETATM   48  O   UNK     0      -5.928  -2.157  21.573  0.00  0.00    -0.650 OA
BRANCH  47  49
HETATM   49  O   UNK     0      -7.690  -3.300  22.430  0.00  0.00    -0.776 OA
HETATM   50  H   UNK     0      -7.985  -2.530  23.042  0.00  0.00     0.167 HD
ENDBRANCH  47  49
ENDBRANCH  46  47
ENDBRANCH  45  46
ENDBRANCH  11  45
BRANCH  18  51
HETATM   51  C   UNK     0     -10.544  -4.574  16.642  0.00  0.00     0.051 C 
BRANCH  51  52
HETATM   52  C   UNK     0     -11.951  -4.223  17.101  0.00  0.00     0.114 C 
BRANCH  52  53
HETATM   53  C   UNK     0     -12.980  -4.837  16.239  0.00  0.00     0.139 C 
HETATM   54  O   UNK     0     -13.542  -5.886  16.594  0.00  0.00    -0.650 OA
BRANCH  53  55
HETATM   55  O   UNK     0     -13.308  -4.244  15.044  0.00  0.00    -0.776 OA
HETATM   56  H   UNK     0     -13.230  -3.278  14.831  0.00  0.00     0.167 HD
ENDBRANCH  53  55
ENDBRANCH  52  53
ENDBRANCH  51  52
ENDBRANCH  18  51
TORSDOF 16
ENDMDL
MODEL 5
REMARK VINA RESULT:      -9.5      2.267      6.972
REMARK  16 active torsions:
REMARK  status: ('A' for Active; 'I' for Inactive)
REMARK    1  A    between atoms: C_6  and  C_7 
REMARK    2  A    between atoms: C_7  and  C_8 
REMARK    3  A    between atoms: C_8  and  C_9 
REMARK    4  A    between atoms: C_9  and  O_11 
REMARK    5  A    between atoms: C_16  and  C_17 
REMARK    6  A    between atoms: C_17  and  C_18 
REMARK    7  A    between atoms: C_18  and  C_19 
REMARK    8  A    between atoms: C_19  and  O_21 
REMARK    9  A    between atoms: C_28  and  C_29 
REMARK   10  A    between atoms: C_29  and  C_30 
REMARK   11  A    between atoms: C_30  and  C_31 
REMARK   12  A    between atoms: C_31  and  O_33 
REMARK   13  A    between atoms: C_42  and  C_43 
REMARK   14  A    between atoms: C_43  and  C_44 
REMARK   15  A    between atoms: C_44  and  C_45 
REMARK   16  A    between atoms: C_45  and  O_47 
ROOT
HETATM    1  C   UNK     0      -4.391  -4.551  23.749  0.00  0.00     0.051 C 
HETATM    2  C   UNK     0      -5.074  -4.591  22.397  0.00  0.00    -0.031 A 
HETATM    3  C   UNK     0      -4.666  -5.205  21.223  0.00  0.00     0.021 A 
HETATM    4  N   UNK     0      -5.577  -4.952  20.253  0.00  0.00    -0.361 N 
HETATM    5  C   UNK     0      -6.560  -4.196  20.785  0.00  0.00     0.022 A 
HETATM    6  C   UNK     0      -6.275  -3.950  22.124  0.00  0.00    -0.027 A 
HETATM    7  C   UNK     0      -7.839  -3.725  20.167  0.00  0.00     0.115 C 
HETATM    8  C   UNK     0      -8.598  -4.731  19.319  0.00  0.00     0.021 A 
HETATM    9  N   UNK     0      -8.720  -6.055  19.502  0.00  0.00    -0.361 N 
HETATM   10  C   UNK     0      -9.405  -6.561  18.455  0.00  0.00     0.022 A 
HETATM   11  C   UNK     0      -9.741  -5.533  17.578  0.00  0.00    -0.027 A 
HETATM   12  C   UNK     0      -9.236  -4.378  18.117  0.00  0.00    -0.031 A 
HETATM   13  C   UNK     0      -9.364  -3.000  17.507  0.00  0.00     0.051 C 
HETATM   14  C   UNK     0      -9.723  -8.034  18.213  0.00  0.00     0.115 C 
HETATM   15  C   UNK     0      -8.491  -8.914  18.073  0.00  0.00     0.021 A 
HETATM   16  N   UNK     0      -7.502  -9.092  18.968  0.00  0.00    -0.361 N 
HETATM   17  C   UNK     0      -6.569  -9.887  18.440  0.00  0.00     0.022 A 
HETATM   18  C   UNK     0      -6.974 -10.252  17.140  0.00  0.00    -0.027 A 
HETATM   19  C   UNK     0      -8.180  -9.637  16.923  0.00  0.00    -0.031 A 
HETATM   20  C   UNK     0      -8.990  -9.795  15.649  0.00  0.00     0.051 C 
HETATM   21  C   UNK     0      -5.239 -10.331  19.003  0.00  0.00     0.115 C 
HETATM   22  C   UNK     0      -4.493  -9.357  19.884  0.00  0.00     0.022 A 
HETATM   23  N   UNK     0      -4.358  -8.033  19.728  0.00  0.00    -0.361 N 
HETATM   24  C   UNK     0      -3.741  -7.539  20.821  0.00  0.00     0.021 A 
HETATM   25  C   UNK     0      -3.463  -8.571  21.696  0.00  0.00    -0.031 A 
HETATM   26  C   UNK     0      -2.748  -8.523  23.031  0.00  0.00     0.051 C 
HETATM   27  C   UNK     0      -3.935  -9.744  21.118  0.00  0.00    -0.027 A 
HETATM   28  C   UNK     0      -3.450  -6.084  21.146  0.00  0.00     0.115 C 
HETATM   29  H   UNK     0      -5.498  -5.275  19.189  0.00  0.00     0.165 HD
HETATM   30  H   UNK     0      -8.367  -6.628  20.394  0.00  0.00     0.165 HD
HETATM   31  H   UNK     0      -7.484  -8.688  20.014  0.00  0.00     0.165 HD
HETATM   32  H   UNK     0      -4.659  -7.440  18.825  0.00  0.00     0.165 HD
ENDROOT
BRANCH   6  33
HETATM   33  C   UNK     0      -7.047  -3.159  23.151  0.00  0.00     0.051 C 
BRANCH  33  34
HETATM   34  C   UNK     0      -6.195  -2.053  23.726  0.00  0.00     0.114 C 
BRANCH  34  35
HETATM   35  C   UNK     0      -5.838  -1.136  22.606  0.00  0.00     0.139 C 
HETATM   36  O   UNK     0      -6.746  -0.542  21.955  0.00  0.00    -0.650 OA
BRANCH  35  37
HETATM   37  O   UNK     0      -4.524  -0.889  22.229  0.00  0.00    -0.776 OA
HETATM   38  H   UNK     0      -4.134   0.039  22.226  0.00  0.00     0.167 HD
ENDBRANCH  35  37
ENDBRANCH  34  35
ENDBRANCH  33  34
ENDBRANCH   6  33
BRANCH  27  39
HETATM   39  C   UNK     0      -3.751 -11.084  21.739  0.00  0.00     0.051 C 
BRANCH  39  40
HETATM   40  C   UNK     0      -4.911 -11.729  22.354  0.00  0.00     0.114 C 
BRANCH  40  41
HETATM   41  C   UNK     0      -4.920 -12.139  23.741  0.00  0.00     0.139 C 
HETATM   42  O   UNK     0      -4.185 -11.642  24.605  0.00  0.00    -0.650 OA
BRANCH  41  43
HETATM   43  O   UNK     0      -5.814 -13.168  24.152  0.00  0.00    -0.776 OA
HETATM   44  H   UNK     0      -6.187 -13.050  25.086  0.00  0.00     0.167 HD
ENDBRANCH  41  43
ENDBRANCH  40  41
ENDBRANCH  39  40
ENDBRANCH  27  39
BRANCH  11  45
HETATM   45  C   UNK     0     -10.507  -5.612  16.285  0.00  0.00     0.051 C 
BRANCH  45  46
HETATM   46  C   UNK     0     -11.952  -5.912  16.453  0.00  0.00     0.114 C 
BRANCH  46  47
HETATM   47  C   UNK     0     -12.691  -4.628  16.295  0.00  0.00     0.139 C 
HETATM   48  O   UNK     0     -12.845  -3.906  17.290  0.00  0.00    -0.650 OA
BRANCH  47  49
HETATM   49  O   UNK     0     -13.193  -4.252  15.074  0.00  0.00    -0.776 OA
HETATM   50  H   UNK     0     -13.780  -3.417  14.959  0.00  0.00     0.167 HD
ENDBRANCH  47  49
ENDBRANCH  46  47
ENDBRANCH  45  46
ENDBRANCH  11  45
BRANCH  18  51
HETATM   51  C   UNK     0      -6.261 -11.154  16.167  0.00  0.00     0.051 C 
BRANCH  51  52
HETATM   52  C   UNK     0      -6.749 -12.566  16.459  0.00  0.00     0.114 C 
BRANCH  52  53
HETATM   53  C   UNK     0      -7.302 -13.216  15.255  0.00  0.00     0.139 C 
HETATM   54  O   UNK     0      -7.544 -14.433  15.262  0.00  0.00    -0.650 OA
BRANCH  53  55
HETATM   55  O   UNK     0      -7.544 -12.467  14.129  0.00  0.00    -0.776 OA
HETATM   56  H   UNK     0      -8.385 -11.982  13.920  0.00  0.00     0.167 HD
ENDBRANCH  53  55
ENDBRANCH  52  53
ENDBRANCH  51  52
ENDBRANCH  18  51
TORSDOF 16
ENDMDL
MODEL 6
REMARK VINA RESULT:      -9.5      1.807      3.457
REMARK  16 active torsions:
REMARK  status: ('A' for Active; 'I' for Inactive)
REMARK    1  A    between atoms: C_6  and  C_7 
REMARK    2  A    between atoms: C_7  and  C_8 
REMARK    3  A    between atoms: C_8  and  C_9 
REMARK    4  A    between atoms: C_9  and  O_11 
REMARK    5  A    between atoms: C_16  and  C_17 
REMARK    6  A    between atoms: C_17  and  C_18 
REMARK    7  A    between atoms: C_18  and  C_19 
REMARK    8  A    between atoms: C_19  and  O_21 
REMARK    9  A    between atoms: C_28  and  C_29 
REMARK   10  A    between atoms: C_29  and  C_30 
REMARK   11  A    between atoms: C_30  and  C_31 
REMARK   12  A    between atoms: C_31  and  O_33 
REMARK   13  A    between atoms: C_42  and  C_43 
REMARK   14  A    between atoms: C_43  and  C_44 
REMARK   15  A    between atoms: C_44  and  C_45 
REMARK   16  A    between atoms: C_45  and  O_47 
ROOT
HETATM    1  C   UNK     0     -11.996  -3.968  16.488  0.00  0.00     0.051 C 
HETATM    2  C   UNK     0     -11.043  -5.146  16.445  0.00  0.00    -0.031 A 
HETATM    3  C   UNK     0      -9.658  -5.159  16.499  0.00  0.00     0.021 A 
HETATM    4  N   UNK     0      -9.225  -6.438  16.396  0.00  0.00    -0.361 N 
HETATM    5  C   UNK     0     -10.303  -7.241  16.286  0.00  0.00     0.022 A 
HETATM    6  C   UNK     0     -11.457  -6.465  16.310  0.00  0.00    -0.027 A 
HETATM    7  C   UNK     0     -10.377  -8.735  16.240  0.00  0.00     0.115 C 
HETATM    8  C   UNK     0      -9.481  -9.492  17.204  0.00  0.00     0.021 A 
HETATM    9  N   UNK     0      -9.131  -9.160  18.456  0.00  0.00    -0.361 N 
HETATM   10  C   UNK     0      -8.247 -10.078  18.902  0.00  0.00     0.022 A 
HETATM   11  C   UNK     0      -8.028 -11.032  17.912  0.00  0.00    -0.027 A 
HETATM   12  C   UNK     0      -8.803 -10.669  16.840  0.00  0.00    -0.031 A 
HETATM   13  C   UNK     0      -8.891 -11.421  15.531  0.00  0.00     0.051 C 
HETATM   14  C   UNK     0      -7.534 -10.062  20.251  0.00  0.00     0.115 C 
HETATM   15  C   UNK     0      -6.660  -8.839  20.472  0.00  0.00     0.021 A 
HETATM   16  N   UNK     0      -7.036  -7.546  20.457  0.00  0.00    -0.361 N 
HETATM   17  C   UNK     0      -5.960  -6.774  20.622  0.00  0.00     0.022 A 
HETATM   18  C   UNK     0      -4.829  -7.603  20.762  0.00  0.00    -0.027 A 
HETATM   19  C   UNK     0      -5.281  -8.894  20.667  0.00  0.00    -0.031 A 
HETATM   20  C   UNK     0      -4.387 -10.113  20.801  0.00  0.00     0.051 C 
HETATM   21  C   UNK     0      -5.833  -5.268  20.609  0.00  0.00     0.115 C 
HETATM   22  C   UNK     0      -6.749  -4.499  19.687  0.00  0.00     0.022 A 
HETATM   23  N   UNK     0      -7.119  -4.808  18.437  0.00  0.00    -0.361 N 
HETATM   24  C   UNK     0      -8.058  -3.924  18.042  0.00  0.00     0.021 A 
HETATM   25  C   UNK     0      -8.292  -3.018  19.059  0.00  0.00    -0.031 A 
HETATM   26  C   UNK     0      -9.223  -1.824  19.076  0.00  0.00     0.051 C 
HETATM   27  C   UNK     0      -7.466  -3.365  20.122  0.00  0.00    -0.027 A 
HETATM   28  C   UNK     0      -8.842  -3.921  16.742  0.00  0.00     0.115 C 
HETATM   29  H   UNK     0      -8.158  -6.761  16.362  0.00  0.00     0.165 HD
HETATM   30  H   UNK     0      -9.544  -8.306  19.047  0.00  0.00     0.165 HD
HETATM   31  H   UNK     0      -8.089  -7.171  20.375  0.00  0.00     0.165 HD
HETATM   32  H   UNK     0      -6.688  -5.627  17.805  0.00  0.00     0.165 HD
ENDROOT
BRANCH   6  33
HETATM   33  C   UNK     0     -12.905  -6.875  16.214  0.00  0.00     0.051 C 
BRANCH  33  34
HETATM   34  C   UNK     0     -13.694  -6.331  17.381  0.00  0.00     0.114 C 
BRANCH  34  35
HETATM   35  C   UNK     0     -14.946  -5.733  16.833  0.00  0.00     0.139 C 
HETATM   36  O   UNK     0     -15.631  -6.364  15.975  0.00  0.00    -0.650 OA
BRANCH  35  37
HETATM   37  O   UNK     0     -15.415  -4.486  17.227  0.00  0.00    -0.776 OA
HETATM   38  H   UNK     0     -15.674  -4.289  18.180  0.00  0.00     0.167 HD
ENDBRANCH  35  37
ENDBRANCH  34  35
ENDBRANCH  33  34
ENDBRANCH   6  33
BRANCH  27  39
HETATM   39  C   UNK     0      -7.385  -2.572  21.379  0.00  0.00     0.051 C 
BRANCH  39  40
HETATM   40  C   UNK     0      -6.220  -1.710  21.582  0.00  0.00     0.114 C 
BRANCH  40  41
HETATM   41  C   UNK     0      -5.128  -2.084  22.452  0.00  0.00     0.139 C 
HETATM   42  O   UNK     0      -5.204  -2.988  23.295  0.00  0.00    -0.650 OA
BRANCH  41  43
HETATM   43  O   UNK     0      -3.891  -1.387  22.346  0.00  0.00    -0.776 OA
HETATM   44  H   UNK     0      -3.488  -1.112  23.234  0.00  0.00     0.167 HD
ENDBRANCH  41  43
ENDBRANCH  40  41
ENDBRANCH  39  40
ENDBRANCH  27  39
BRANCH  11  45
HETATM   45  C   UNK     0      -7.136 -12.244  17.953  0.00  0.00     0.051 C 
BRANCH  45  46
HETATM   46  C   UNK     0      -5.694 -11.940  17.769  0.00  0.00     0.114 C 
BRANCH  46  47
HETATM   47  C   UNK     0      -4.933 -12.844  18.679  0.00  0.00     0.139 C 
HETATM   48  O   UNK     0      -5.471 -13.214  19.732  0.00  0.00    -0.650 OA
BRANCH  47  49
HETATM   49  O   UNK     0      -3.664 -13.257  18.359  0.00  0.00    -0.776 OA
HETATM   50  H   UNK     0      -3.076 -12.744  17.692  0.00  0.00     0.167 HD
ENDBRANCH  47  49
ENDBRANCH  46  47
ENDBRANCH  45  46
ENDBRANCH  11  45
BRANCH  18  51
HETATM   51  C   UNK     0      -3.399  -7.189  20.994  0.00  0.00     0.051 C 
BRANCH  51  52
HETATM   52  C   UNK     0      -3.245  -7.015  22.498  0.00  0.00     0.114 C 
BRANCH  52  53
HETATM   53  C   UNK     0      -2.696  -5.690  22.845  0.00  0.00     0.139 C 
HETATM   54  O   UNK     0      -1.716  -5.242  22.227  0.00  0.00    -0.650 OA
BRANCH  53  55
HETATM   55  O   UNK     0      -3.273  -4.959  23.855  0.00  0.00    -0.776 OA
HETATM   56  H   UNK     0      -3.156  -3.985  24.011  0.00  0.00     0.167 HD
ENDBRANCH  53  55
ENDBRANCH  52  53
ENDBRANCH  51  52
ENDBRANCH  18  51
TORSDOF 16
ENDMDL
MODEL 7
REMARK VINA RESULT:      -9.4      3.943      7.059
REMARK  16 active torsions:
REMARK  status: ('A' for Active; 'I' for Inactive)
REMARK    1  A    between atoms: C_6  and  C_7 
REMARK    2  A    between atoms: C_7  and  C_8 
REMARK    3  A    between atoms: C_8  and  C_9 
REMARK    4  A    between atoms: C_9  and  O_11 
REMARK    5  A    between atoms: C_16  and  C_17 
REMARK    6  A    between atoms: C_17  and  C_18 
REMARK    7  A    between atoms: C_18  and  C_19 
REMARK    8  A    between atoms: C_19  and  O_21 
REMARK    9  A    between atoms: C_28  and  C_29 
REMARK   10  A    between atoms: C_29  and  C_30 
REMARK   11  A    between atoms: C_30  and  C_31 
REMARK   12  A    between atoms: C_31  and  O_33 
REMARK   13  A    between atoms: C_42  and  C_43 
REMARK   14  A    between atoms: C_43  and  C_44 
REMARK   15  A    between atoms: C_44  and  C_45 
REMARK   16  A    between atoms: C_45  and  O_47 
ROOT
HETATM    1  C   UNK     0      -8.863  -7.825  18.852  0.00  0.00     0.051 C 
HETATM    2  C   UNK     0      -7.603  -8.665  18.887  0.00  0.00    -0.031 A 
HETATM    3  C   UNK     0      -6.277  -8.262  18.885  0.00  0.00     0.021 A 
HETATM    4  N   UNK     0      -5.482  -9.359  18.891  0.00  0.00    -0.361 N 
HETATM    5  C   UNK     0      -6.273 -10.452  18.906  0.00  0.00     0.022 A 
HETATM    6  C   UNK     0      -7.606 -10.054  18.901  0.00  0.00    -0.027 A 
HETATM    7  C   UNK     0      -5.897 -11.897  19.011  0.00  0.00     0.115 C 
HETATM    8  C   UNK     0      -4.807 -12.247  20.007  0.00  0.00     0.021 A 
HETATM    9  N   UNK     0      -4.559 -11.695  21.205  0.00  0.00    -0.361 N 
HETATM   10  C   UNK     0      -3.437 -12.256  21.702  0.00  0.00     0.022 A 
HETATM   11  C   UNK     0      -2.953 -13.203  20.804  0.00  0.00    -0.027 A 
HETATM   12  C   UNK     0      -3.812 -13.203  19.734  0.00  0.00    -0.031 A 
HETATM   13  C   UNK     0      -3.684 -14.083  18.511  0.00  0.00     0.051 C 
HETATM   14  C   UNK     0      -2.748 -11.887  23.013  0.00  0.00     0.115 C 
HETATM   15  C   UNK     0      -2.277 -10.443  23.075  0.00  0.00     0.021 A 
HETATM   16  N   UNK     0      -3.022  -9.329  22.947  0.00  0.00    -0.361 N 
HETATM   17  C   UNK     0      -2.224  -8.260  22.991  0.00  0.00     0.022 A 
HETATM   18  C   UNK     0      -0.896  -8.697  23.165  0.00  0.00    -0.027 A 
HETATM   19  C   UNK     0      -0.943 -10.066  23.218  0.00  0.00    -0.031 A 
HETATM   20  C   UNK     0       0.276 -10.945  23.434  0.00  0.00     0.051 C 
HETATM   21  C   UNK     0      -2.554  -6.794  22.824  0.00  0.00     0.115 C 
HETATM   22  C   UNK     0      -3.667  -6.434  21.869  0.00  0.00     0.022 A 
HETATM   23  N   UNK     0      -3.940  -6.970  20.672  0.00  0.00    -0.361 N 
HETATM   24  C   UNK     0      -5.104  -6.452  20.231  0.00  0.00     0.021 A 
HETATM   25  C   UNK     0      -5.587  -5.552  21.162  0.00  0.00    -0.031 A 
HETATM   26  C   UNK     0      -6.833  -4.693  21.099  0.00  0.00     0.051 C 
HETATM   27  C   UNK     0      -4.685  -5.523  22.219  0.00  0.00    -0.027 A 
HETATM   28  C   UNK     0      -5.866  -6.819  18.970  0.00  0.00     0.115 C 
HETATM   29  H   UNK     0      -4.369  -9.353  18.846  0.00  0.00     0.165 HD
HETATM   30  H   UNK     0      -5.203 -10.943  21.725  0.00  0.00     0.165 HD
HETATM   31  H   UNK     0      -4.140  -9.294  22.873  0.00  0.00     0.165 HD
HETATM   32  H   UNK     0      -3.290  -7.688  20.107  0.00  0.00     0.165 HD
ENDROOT
BRANCH   6  33
HETATM   33  C   UNK     0      -8.865 -10.883  18.905  0.00  0.00     0.051 C 
BRANCH  33  34
HETATM   34  C   UNK     0      -9.246 -11.270  20.315  0.00  0.00     0.114 C 
BRANCH  34  35
HETATM   35  C   UNK     0     -10.527 -10.579  20.637  0.00  0.00     0.139 C 
HETATM   36  O   UNK     0     -10.554  -9.663  21.510  0.00  0.00    -0.650 OA
BRANCH  35  37
HETATM   37  O   UNK     0     -11.727 -10.893  20.011  0.00  0.00    -0.776 OA
HETATM   38  H   UNK     0     -11.776 -11.113  19.029  0.00  0.00     0.167 HD
ENDBRANCH  35  37
ENDBRANCH  34  35
ENDBRANCH  33  34
ENDBRANCH   6  33
BRANCH  27  39
HETATM   39  C   UNK     0      -4.832  -4.612  23.386  0.00  0.00     0.051 C 
BRANCH  39  40
HETATM   40  C   UNK     0      -3.870  -3.522  23.541  0.00  0.00     0.114 C 
BRANCH  40  41
HETATM   41  C   UNK     0      -2.772  -3.591  24.480  0.00  0.00     0.139 C 
HETATM   42  O   UNK     0      -1.585  -3.453  24.154  0.00  0.00    -0.650 OA
BRANCH  41  43
HETATM   43  O   UNK     0      -3.053  -3.828  25.855  0.00  0.00    -0.776 OA
HETATM   44  H   UNK     0      -3.876  -3.351  26.204  0.00  0.00     0.167 HD
ENDBRANCH  41  43
ENDBRANCH  40  41
ENDBRANCH  39  40
ENDBRANCH  27  39
BRANCH  11  45
HETATM   45  C   UNK     0      -1.739 -14.085  20.928  0.00  0.00     0.051 C 
BRANCH  45  46
HETATM   46  C   UNK     0      -0.495 -13.482  20.386  0.00  0.00     0.114 C 
BRANCH  46  47
HETATM   47  C   UNK     0       0.341 -14.596  19.855  0.00  0.00     0.139 C 
HETATM   48  O   UNK     0       1.216 -15.080  20.586  0.00  0.00    -0.650 OA
BRANCH  47  49
HETATM   49  O   UNK     0       0.148 -15.076  18.584  0.00  0.00    -0.776 OA
HETATM   50  H   UNK     0      -0.302 -15.981  18.406  0.00  0.00     0.167 HD
ENDBRANCH  47  49
ENDBRANCH  46  47
ENDBRANCH  45  46
ENDBRANCH  11  45
BRANCH  18  51
HETATM   51  C   UNK     0       0.347  -7.856  23.296  0.00  0.00     0.051 C 
BRANCH  51  52
HETATM   52  C   UNK     0       0.539  -7.608  24.785  0.00  0.00     0.114 C 
BRANCH  52  53
HETATM   53  C   UNK     0       1.936  -7.831  25.204  0.00  0.00     0.139 C 
HETATM   54  O   UNK     0       2.870  -7.436  24.488  0.00  0.00    -0.650 OA
BRANCH  53  55
HETATM   55  O   UNK     0       2.196  -8.481  26.386  0.00  0.00    -0.776 OA
HETATM   56  H   UNK     0       1.759  -8.301  27.259  0.00  0.00     0.167 HD
ENDBRANCH  53  55
ENDBRANCH  52  53
ENDBRANCH  51  52
ENDBRANCH  18  51
TORSDOF 16
ENDMDL
MODEL 8
REMARK VINA RESULT:      -9.3      4.463      8.502
REMARK  16 active torsions:
REMARK  status: ('A' for Active; 'I' for Inactive)
REMARK    1  A    between atoms: C_6  and  C_7 
REMARK    2  A    between atoms: C_7  and  C_8 
REMARK    3  A    between atoms: C_8  and  C_9 
REMARK    4  A    between atoms: C_9  and  O_11 
REMARK    5  A    between atoms: C_16  and  C_17 
REMARK    6  A    between atoms: C_17  and  C_18 
REMARK    7  A    between atoms: C_18  and  C_19 
REMARK    8  A    between atoms: C_19  and  O_21 
REMARK    9  A    between atoms: C_28  and  C_29 
REMARK   10  A    between atoms: C_29  and  C_30 
REMARK   11  A    between atoms: C_30  and  C_31 
REMARK   12  A    between atoms: C_31  and  O_33 
REMARK   13  A    between atoms: C_42  and  C_43 
REMARK   14  A    between atoms: C_43  and  C_44 
REMARK   15  A    between atoms: C_44  and  C_45 
REMARK   16  A    between atoms: C_45  and  O_47 
ROOT
HETATM    1  C   UNK     0      -8.062  -9.948  18.533  0.00  0.00     0.051 C 
HETATM    2  C   UNK     0      -6.607 -10.312  18.747  0.00  0.00    -0.031 A 
HETATM    3  C   UNK     0      -5.480  -9.508  18.684  0.00  0.00     0.021 A 
HETATM    4  N   UNK     0      -4.382 -10.266  18.914  0.00  0.00    -0.361 N 
HETATM    5  C   UNK     0      -4.786 -11.536  19.130  0.00  0.00     0.022 A 
HETATM    6  C   UNK     0      -6.171 -11.600  19.030  0.00  0.00    -0.027 A 
HETATM    7  C   UNK     0      -3.981 -12.737  19.518  0.00  0.00     0.115 C 
HETATM    8  C   UNK     0      -2.914 -12.529  20.578  0.00  0.00     0.021 A 
HETATM    9  N   UNK     0      -2.945 -11.720  21.649  0.00  0.00    -0.361 N 
HETATM   10  C   UNK     0      -1.743 -11.788  22.260  0.00  0.00     0.022 A 
HETATM   11  C   UNK     0      -0.919 -12.671  21.570  0.00  0.00    -0.027 A 
HETATM   12  C   UNK     0      -1.650 -13.142  20.509  0.00  0.00    -0.031 A 
HETATM   13  C   UNK     0      -1.159 -14.137  19.482  0.00  0.00     0.051 C 
HETATM   14  C   UNK     0      -1.308 -10.986  23.483  0.00  0.00     0.115 C 
HETATM   15  C   UNK     0      -1.323  -9.480  23.270  0.00  0.00     0.021 A 
HETATM   16  N   UNK     0      -2.371  -8.711  22.919  0.00  0.00    -0.361 N 
HETATM   17  C   UNK     0      -1.958  -7.451  22.764  0.00  0.00     0.022 A 
HETATM   18  C   UNK     0      -0.577  -7.395  23.038  0.00  0.00    -0.027 A 
HETATM   19  C   UNK     0      -0.192  -8.672  23.354  0.00  0.00    -0.031 A 
HETATM   20  C   UNK     0       1.222  -9.053  23.753  0.00  0.00     0.051 C 
HETATM   21  C   UNK     0      -2.720  -6.227  22.311  0.00  0.00     0.115 C 
HETATM   22  C   UNK     0      -3.815  -6.426  21.290  0.00  0.00     0.022 A 
HETATM   23  N   UNK     0      -3.813  -7.227  20.216  0.00  0.00    -0.361 N 
HETATM   24  C   UNK     0      -5.045  -7.204  19.668  0.00  0.00     0.021 A 
HETATM   25  C   UNK     0      -5.857  -6.359  20.400  0.00  0.00    -0.031 A 
HETATM   26  C   UNK     0      -7.302  -5.976  20.155  0.00  0.00     0.051 C 
HETATM   27  C   UNK     0      -5.092  -5.849  21.443  0.00  0.00    -0.027 A 
HETATM   28  C   UNK     0      -5.555  -8.019  18.492  0.00  0.00     0.115 C 
HETATM   29  H   UNK     0      -3.328  -9.908  18.882  0.00  0.00     0.165 HD
HETATM   30  H   UNK     0      -3.830 -11.138  22.004  0.00  0.00     0.165 HD
HETATM   31  H   UNK     0      -3.434  -9.055  22.824  0.00  0.00     0.165 HD
HETATM   32  H   UNK     0      -2.929  -7.784  19.810  0.00  0.00     0.165 HD
ENDROOT
BRANCH   6  33
HETATM   33  C   UNK     0      -7.101 -12.778  19.179  0.00  0.00     0.051 C 
BRANCH  33  34
HETATM   34  C   UNK     0      -7.187 -13.212  20.623  0.00  0.00     0.114 C 
BRANCH  34  35
HETATM   35  C   UNK     0      -8.240 -12.383  21.276  0.00  0.00     0.139 C 
HETATM   36  O   UNK     0      -7.947 -11.634  22.254  0.00  0.00    -0.650 OA
BRANCH  35  37
HETATM   37  O   UNK     0      -9.565 -12.385  20.855  0.00  0.00    -0.776 OA
HETATM   38  H   UNK     0     -10.094 -11.535  20.750  0.00  0.00     0.167 HD
ENDBRANCH  35  37
ENDBRANCH  34  35
ENDBRANCH  33  34
ENDBRANCH   6  33
BRANCH  27  39
HETATM   39  C   UNK     0      -5.608  -4.841  22.409  0.00  0.00     0.051 C 
BRANCH  39  40
HETATM   40  C   UNK     0      -5.256  -3.437  22.201  0.00  0.00     0.114 C 
BRANCH  40  41
HETATM   41  C   UNK     0      -4.345  -2.733  23.076  0.00  0.00     0.139 C 
HETATM   42  O   UNK     0      -4.700  -2.167  24.119  0.00  0.00    -0.650 OA
BRANCH  41  43
HETATM   43  O   UNK     0      -2.964  -2.677  22.736  0.00  0.00    -0.776 OA
HETATM   44  H   UNK     0      -2.458  -3.540  22.895  0.00  0.00     0.167 HD
ENDBRANCH  41  43
ENDBRANCH  40  41
ENDBRANCH  39  40
ENDBRANCH  27  39
BRANCH  11  45
HETATM   45  C   UNK     0       0.499 -13.073  21.878  0.00  0.00     0.051 C 
BRANCH  45  46
HETATM   46  C   UNK     0       1.512 -12.053  21.507  0.00  0.00     0.114 C 
BRANCH  46  47
HETATM   47  C   UNK     0       2.583 -12.753  20.742  0.00  0.00     0.139 C 
HETATM   48  O   UNK     0       3.737 -12.743  21.193  0.00  0.00    -0.650 OA
BRANCH  47  49
HETATM   49  O   UNK     0       2.300 -13.393  19.562  0.00  0.00    -0.776 OA
HETATM   50  H   UNK     0       1.356 -13.401  19.159  0.00  0.00     0.167 HD
ENDBRANCH  47  49
ENDBRANCH  46  47
ENDBRANCH  45  46
ENDBRANCH  11  45
BRANCH  18  51
HETATM   51  C   UNK     0       0.323  -6.186  23.019  0.00  0.00     0.051 C 
BRANCH  51  52
HETATM   52  C   UNK     0       0.246  -5.577  24.411  0.00  0.00     0.114 C 
BRANCH  52  53
HETATM   53  C   UNK     0      -0.607  -4.373  24.437  0.00  0.00     0.139 C 
HETATM   54  O   UNK     0      -0.248  -3.343  23.844  0.00  0.00    -0.650 OA
BRANCH  53  55
HETATM   55  O   UNK     0      -1.797  -4.399  25.123  0.00  0.00    -0.776 OA
HETATM   56  H   UNK     0      -1.912  -4.255  26.099  0.00  0.00     0.167 HD
ENDBRANCH  53  55
ENDBRANCH  52  53
ENDBRANCH  51  52
ENDBRANCH  18  51
TORSDOF 16
ENDMDL
MODEL 9
REMARK VINA RESULT:      -9.3     27.908     31.245
REMARK  16 active torsions:
REMARK  status: ('A' for Active; 'I' for Inactive)
REMARK    1  A    between atoms: C_6  and  C_7 
REMARK    2  A    between atoms: C_7  and  C_8 
REMARK    3  A    between atoms: C_8  and  C_9 
REMARK    4  A    between atoms: C_9  and  O_11 
REMARK    5  A    between atoms: C_16  and  C_17 
REMARK    6  A    between atoms: C_17  and  C_18 
REMARK    7  A    between atoms: C_18  and  C_19 
REMARK    8  A    between atoms: C_19  and  O_21 
REMARK    9  A    between atoms: C_28  and  C_29 
REMARK   10  A    between atoms: C_29  and  C_30 
REMARK   11  A    between atoms: C_30  and  C_31 
REMARK   12  A    between atoms: C_31  and  O_33 
REMARK   13  A    between atoms: C_42  and  C_43 
REMARK   14  A    between atoms: C_43  and  C_44 
REMARK   15  A    between atoms: C_44  and  C_45 
REMARK   16  A    between atoms: C_45  and  O_47 
ROOT
HETATM    1  C   UNK     0      13.178   7.780  12.158  0.00  0.00     0.051 C 
HETATM    2  C   UNK     0      13.023   7.796  10.651  0.00  0.00    -0.031 A 
HETATM    3  C   UNK     0      12.114   8.491   9.868  0.00  0.00     0.021 A 
HETATM    4  N   UNK     0      12.324   8.179   8.567  0.00  0.00    -0.361 N 
HETATM    5  C   UNK     0      13.351   7.307   8.503  0.00  0.00     0.022 A 
HETATM    6  C   UNK     0      13.810   7.044   9.789  0.00  0.00    -0.027 A 
HETATM    7  C   UNK     0      14.035   6.727   7.304  0.00  0.00     0.115 C 
HETATM    8  C   UNK     0      14.318   7.678   6.155  0.00  0.00     0.021 A 
HETATM    9  N   UNK     0      14.660   8.975   6.208  0.00  0.00    -0.361 N 
HETATM   10  C   UNK     0      14.721   9.444   4.943  0.00  0.00     0.022 A 
HETATM   11  C   UNK     0      14.419   8.419   4.051  0.00  0.00    -0.027 A 
HETATM   12  C   UNK     0      14.164   7.304   4.808  0.00  0.00    -0.031 A 
HETATM   13  C   UNK     0      13.795   5.943   4.262  0.00  0.00     0.051 C 
HETATM   14  C   UNK     0      15.013  10.884   4.529  0.00  0.00     0.115 C 
HETATM   15  C   UNK     0      14.003  11.892   5.053  0.00  0.00     0.021 A 
HETATM   16  N   UNK     0      13.680  12.140   6.336  0.00  0.00    -0.361 N 
HETATM   17  C   UNK     0      12.700  13.045   6.375  0.00  0.00     0.022 A 
HETATM   18  C   UNK     0      12.375  13.412   5.054  0.00  0.00    -0.027 A 
HETATM   19  C   UNK     0      13.199  12.684   4.236  0.00  0.00    -0.031 A 
HETATM   20  C   UNK     0      13.205  12.802   2.722  0.00  0.00     0.051 C 
HETATM   21  C   UNK     0      11.940  13.606   7.556  0.00  0.00     0.115 C 
HETATM   22  C   UNK     0      11.690  12.683   8.725  0.00  0.00     0.022 A 
HETATM   23  N   UNK     0      11.352  11.387   8.703  0.00  0.00    -0.361 N 
HETATM   24  C   UNK     0      11.373  10.921   9.968  0.00  0.00     0.021 A 
HETATM   25  C   UNK     0      11.724  11.945  10.827  0.00  0.00    -0.031 A 
HETATM   26  C   UNK     0      11.842  11.923  12.337  0.00  0.00     0.051 C 
HETATM   27  C   UNK     0      11.931  13.083  10.055  0.00  0.00    -0.027 A 
HETATM   28  C   UNK     0      11.151   9.494  10.437  0.00  0.00     0.115 C 
HETATM   29  H   UNK     0      11.718   8.546   7.706  0.00  0.00     0.165 HD
HETATM   30  H   UNK     0      14.909   9.550   7.133  0.00  0.00     0.165 HD
HETATM   31  H   UNK     0      14.186  11.702   7.236  0.00  0.00     0.165 HD
HETATM   32  H   UNK     0      11.052  10.799   7.796  0.00  0.00     0.165 HD
ENDROOT
BRANCH   6  33
HETATM   33  C   UNK     0      14.924   6.141  10.256  0.00  0.00     0.051 C 
BRANCH  33  34
HETATM   34  C   UNK     0      14.444   4.714  10.373  0.00  0.00     0.114 C 
BRANCH  34  35
HETATM   35  C   UNK     0      15.489   3.840   9.769  0.00  0.00     0.139 C 
HETATM   36  O   UNK     0      15.769   3.939   8.539  0.00  0.00    -0.650 OA
BRANCH  35  37
HETATM   37  O   UNK     0      16.195   2.896  10.506  0.00  0.00    -0.776 OA
HETATM   38  H   UNK     0      17.175   2.721  10.351  0.00  0.00     0.167 HD
ENDBRANCH  35  37
ENDBRANCH  34  35
ENDBRANCH  33  34
ENDBRANCH   6  33
BRANCH  27  39
HETATM   39  C   UNK     0      12.256  14.411  10.641  0.00  0.00     0.051 C 
BRANCH  39  40
HETATM   40  C   UNK     0      13.510  15.054  10.250  0.00  0.00     0.114 C 
BRANCH  40  41
HETATM   41  C   UNK     0      13.561  16.419   9.774  0.00  0.00     0.139 C 
HETATM   42  O   UNK     0      14.500  17.190  10.010  0.00  0.00    -0.650 OA
BRANCH  41  43
HETATM   43  O   UNK     0      12.482  16.918   8.991  0.00  0.00    -0.776 OA
HETATM   44  H   UNK     0      11.991  16.212   8.456  0.00  0.00     0.167 HD
ENDBRANCH  41  43
ENDBRANCH  40  41
ENDBRANCH  39  40
ENDBRANCH  27  39
BRANCH  11  45
HETATM   45  C   UNK     0      14.368   8.464   2.548  0.00  0.00     0.051 C 
BRANCH  45  46
HETATM   46  C   UNK     0      13.202   9.204   2.002  0.00  0.00     0.114 C 
BRANCH  46  47
HETATM   47  C   UNK     0      12.916   8.643   0.651  0.00  0.00     0.139 C 
HETATM   48  O   UNK     0      11.770   8.239   0.407  0.00  0.00    -0.650 OA
BRANCH  47  49
HETATM   49  O   UNK     0      13.899   8.572  -0.303  0.00  0.00    -0.776 OA
HETATM   50  H   UNK     0      14.743   9.156  -0.261  0.00  0.00     0.167 HD
ENDBRANCH  47  49
ENDBRANCH  46  47
ENDBRANCH  45  46
ENDBRANCH  11  45
BRANCH  18  51
HETATM   51  C   UNK     0      11.351  14.418   4.597  0.00  0.00     0.051 C 
BRANCH  51  52
HETATM   52  C   UNK     0      12.096  15.732   4.415  0.00  0.00     0.114 C 
BRANCH  52  53
HETATM   53  C   UNK     0      12.116  16.529   5.656  0.00  0.00     0.139 C 
HETATM   54  O   UNK     0      11.050  16.884   6.185  0.00  0.00    -0.650 OA
BRANCH  53  55
HETATM   55  O   UNK     0      13.319  16.878   6.221  0.00  0.00    -0.776 OA
HETATM   56  H   UNK     0      13.607  17.797   6.461  0.00  0.00     0.167 HD
ENDBRANCH  53  55
ENDBRANCH  52  53
ENDBRANCH  51  52
ENDBRANCH  18  51
TORSDOF 16
ENDMDL
MODEL 10
REMARK VINA RESULT:      -9.1     29.791     32.897
REMARK  16 active torsions:
REMARK  status: ('A' for Active; 'I' for Inactive)
REMARK    1  A    between atoms: C_6  and  C_7 
REMARK    2  A    between atoms: C_7  and  C_8 
REMARK    3  A    between atoms: C_8  and  C_9 
REMARK    4  A    between atoms: C_9  and  O_11 
REMARK    5  A    between atoms: C_16  and  C_17 
REMARK    6  A    between atoms: C_17  and  C_18 
REMARK    7  A    between atoms: C_18  and  C_19 
REMARK    8  A    between atoms: C_19  and  O_21 
REMARK    9  A    between atoms: C_28  and  C_29 
REMARK   10  A    between atoms: C_29  and  C_30 
REMARK   11  A    between atoms: C_30  and  C_31 
REMARK   12  A    between atoms: C_31  and  O_33 
REMARK   13  A    between atoms: C_42  and  C_43 
REMARK   14  A    between atoms: C_43  and  C_44 
REMARK   15  A    between atoms: C_44  and  C_45 
REMARK   16  A    between atoms: C_45  and  O_47 
ROOT
HETATM    1  C   UNK     0      11.617  17.652   5.594  0.00  0.00     0.051 C 
HETATM    2  C   UNK     0      11.631  16.251   6.172  0.00  0.00    -0.031 A 
HETATM    3  C   UNK     0      11.197  15.062   5.607  0.00  0.00     0.021 A 
HETATM    4  N   UNK     0      11.374  14.059   6.499  0.00  0.00    -0.361 N 
HETATM    5  C   UNK     0      11.919  14.582   7.617  0.00  0.00     0.022 A 
HETATM    6  C   UNK     0      12.091  15.952   7.447  0.00  0.00    -0.027 A 
HETATM    7  C   UNK     0      12.394  13.891   8.857  0.00  0.00     0.115 C 
HETATM    8  C   UNK     0      13.173  12.602   8.664  0.00  0.00     0.021 A 
HETATM    9  N   UNK     0      14.040  12.288   7.688  0.00  0.00    -0.361 N 
HETATM   10  C   UNK     0      14.421  11.004   7.864  0.00  0.00     0.022 A 
HETATM   11  C   UNK     0      13.790  10.481   8.989  0.00  0.00    -0.027 A 
HETATM   12  C   UNK     0      13.002  11.482   9.497  0.00  0.00    -0.031 A 
HETATM   13  C   UNK     0      12.132  11.370  10.729  0.00  0.00     0.051 C 
HETATM   14  C   UNK     0      15.350  10.207   6.952  0.00  0.00     0.115 C 
HETATM   15  C   UNK     0      14.835  10.055   5.530  0.00  0.00     0.021 A 
HETATM   16  N   UNK     0      14.530  11.034   4.658  0.00  0.00    -0.361 N 
HETATM   17  C   UNK     0      14.045  10.490   3.540  0.00  0.00     0.022 A 
HETATM   18  C   UNK     0      14.042   9.089   3.687  0.00  0.00    -0.027 A 
HETATM   19  C   UNK     0      14.541   8.829   4.937  0.00  0.00    -0.031 A 
HETATM   20  C   UNK     0      14.743   7.431   5.491  0.00  0.00     0.051 C 
HETATM   21  C   UNK     0      13.495  11.152   2.296  0.00  0.00     0.115 C 
HETATM   22  C   UNK     0      12.755  12.457   2.470  0.00  0.00     0.022 A 
HETATM   23  N   UNK     0      11.890  12.800   3.433  0.00  0.00    -0.361 N 
HETATM   24  C   UNK     0      11.584  14.104   3.284  0.00  0.00     0.021 A 
HETATM   25  C   UNK     0      12.261  14.612   2.191  0.00  0.00    -0.031 A 
HETATM   26  C   UNK     0      12.212  16.007   1.603  0.00  0.00     0.051 C 
HETATM   27  C   UNK     0      13.017  13.576   1.653  0.00  0.00    -0.027 A 
HETATM   28  C   UNK     0      10.717  14.965   4.186  0.00  0.00     0.115 C 
HETATM   29  H   UNK     0      11.076  12.996   6.348  0.00  0.00     0.165 HD
HETATM   30  H   UNK     0      14.423  12.984   6.903  0.00  0.00     0.165 HD
HETATM   31  H   UNK     0      14.705  12.131   4.815  0.00  0.00     0.165 HD
HETATM   32  H   UNK     0      11.453  12.111   4.203  0.00  0.00     0.165 HD
ENDROOT
BRANCH   6  33
HETATM   33  C   UNK     0      12.649  16.984   8.394  0.00  0.00     0.051 C 
BRANCH  33  34
HETATM   34  C   UNK     0      14.146  16.835   8.526  0.00  0.00     0.114 C 
BRANCH  34  35
HETATM   35  C   UNK     0      14.521  17.293   9.895  0.00  0.00     0.139 C 
HETATM   36  O   UNK     0      14.481  16.487  10.869  0.00  0.00    -0.650 OA
BRANCH  35  37
HETATM   37  O   UNK     0      14.927  18.594  10.165  0.00  0.00    -0.776 OA
HETATM   38  H   UNK     0      14.273  19.358  10.215  0.00  0.00     0.167 HD
ENDBRANCH  35  37
ENDBRANCH  34  35
ENDBRANCH  33  34
ENDBRANCH   6  33
BRANCH  27  39
HETATM   39  C   UNK     0      13.831  13.725   0.416  0.00  0.00     0.051 C 
BRANCH  39  40
HETATM   40  C   UNK     0      14.544  12.552  -0.090  0.00  0.00     0.114 C 
BRANCH  40  41
HETATM   41  C   UNK     0      14.686  12.288  -1.504  0.00  0.00     0.139 C 
HETATM   42  O   UNK     0      14.778  11.149  -1.981  0.00  0.00    -0.650 OA
BRANCH  41  43
HETATM   43  O   UNK     0      14.724  13.385  -2.412  0.00  0.00    -0.776 OA
HETATM   44  H   UNK     0      15.553  13.962  -2.337  0.00  0.00     0.167 HD
ENDBRANCH  41  43
ENDBRANCH  40  41
ENDBRANCH  39  40
ENDBRANCH  27  39
BRANCH  11  45
HETATM   45  C   UNK     0      13.909   9.102   9.579  0.00  0.00     0.051 C 
BRANCH  45  46
HETATM   46  C   UNK     0      13.163   8.056   8.834  0.00  0.00     0.114 C 
BRANCH  46  47
HETATM   47  C   UNK     0      11.810   7.954   9.452  0.00  0.00     0.139 C 
HETATM   48  O   UNK     0      11.685   7.306  10.501  0.00  0.00    -0.650 OA
BRANCH  47  49
HETATM   49  O   UNK     0      10.725   8.562   8.873  0.00  0.00    -0.776 OA
HETATM   50  H   UNK     0      10.541   8.503   7.864  0.00  0.00     0.167 HD
ENDBRANCH  47  49
ENDBRANCH  46  47
ENDBRANCH  45  46
ENDBRANCH  11  45
BRANCH  18  51
HETATM   51  C   UNK     0      13.608   8.053   2.682  0.00  0.00     0.051 C 
BRANCH  51  52
HETATM   52  C   UNK     0      14.612   8.119   1.541  0.00  0.00     0.114 C 
BRANCH  52  53
HETATM   53  C   UNK     0      13.955   8.369   0.244  0.00  0.00     0.139 C 
HETATM   54  O   UNK     0      12.716   8.359   0.163  0.00  0.00    -0.650 OA
BRANCH  53  55
HETATM   55  O   UNK     0      14.720   8.607  -0.871  0.00  0.00    -0.776 OA
HETATM   56  H   UNK     0      14.903   7.962  -1.603  0.00  0.00     0.167 HD
ENDBRANCH  53  55
ENDBRANCH  52  53
ENDBRANCH  51  52
ENDBRANCH  18  51
TORSDOF 16
ENDMDL
MODEL 11
REMARK VINA RESULT:      -9.1     28.205     31.458
REMARK  16 active torsions:
REMARK  status: ('A' for Active; 'I' for Inactive)
REMARK    1  A    between atoms: C_6  and  C_7 
REMARK    2  A    between atoms: C_7  and  C_8 
REMARK    3  A    between atoms: C_8  and  C_9 
REMARK    4  A    between atoms: C_9  and  O_11 
REMARK    5  A    between atoms: C_16  and  C_17 
REMARK    6  A    between atoms: C_17  and  C_18 
REMARK    7  A    between atoms: C_18  and  C_19 
REMARK    8  A    between atoms: C_19  and  O_21 
REMARK    9  A    between atoms: C_28  and  C_29 
REMARK   10  A    between atoms: C_29  and  C_30 
REMARK   11  A    between atoms: C_30  and  C_31 
REMARK   12  A    between atoms: C_31  and  O_33 
REMARK   13  A    between atoms: C_42  and  C_43 
REMARK   14  A    between atoms: C_43  and  C_44 
REMARK   15  A    between atoms: C_44  and  C_45 
REMARK   16  A    between atoms: C_45  and  O_47 
ROOT
HETATM    1  C   UNK     0      13.348   8.940  12.280  0.00  0.00     0.051 C 
HETATM    2  C   UNK     0      13.136   8.702  10.799  0.00  0.00    -0.031 A 
HETATM    3  C   UNK     0      12.206   9.268   9.942  0.00  0.00     0.021 A 
HETATM    4  N   UNK     0      12.363   8.735   8.707  0.00  0.00    -0.361 N 
HETATM    5  C   UNK     0      13.379   7.849   8.756  0.00  0.00     0.022 A 
HETATM    6  C   UNK     0      13.883   7.801  10.052  0.00  0.00    -0.027 A 
HETATM    7  C   UNK     0      14.011   7.062   7.651  0.00  0.00     0.115 C 
HETATM    8  C   UNK     0      14.260   7.799   6.346  0.00  0.00     0.021 A 
HETATM    9  N   UNK     0      14.616   9.080   6.164  0.00  0.00    -0.361 N 
HETATM   10  C   UNK     0      14.634   9.326   4.837  0.00  0.00     0.022 A 
HETATM   11  C   UNK     0      14.288   8.169   4.145  0.00  0.00    -0.027 A 
HETATM   12  C   UNK     0      14.052   7.203   5.090  0.00  0.00    -0.031 A 
HETATM   13  C   UNK     0      13.649   5.775   4.798  0.00  0.00     0.051 C 
HETATM   14  C   UNK     0      14.924  10.669   4.173  0.00  0.00     0.115 C 
HETATM   15  C   UNK     0      13.944  11.768   4.553  0.00  0.00     0.021 A 
HETATM   16  N   UNK     0      13.672  12.236   5.785  0.00  0.00    -0.361 N 
HETATM   17  C   UNK     0      12.703  13.150   5.703  0.00  0.00     0.022 A 
HETATM   18  C   UNK     0      12.333  13.292   4.351  0.00  0.00    -0.027 A 
HETATM   19  C   UNK     0      13.118  12.422   3.641  0.00  0.00    -0.031 A 
HETATM   20  C   UNK     0      13.068  12.280   2.131  0.00  0.00     0.051 C 
HETATM   21  C   UNK     0      11.994  13.916   6.797  0.00  0.00     0.115 C 
HETATM   22  C   UNK     0      11.779  13.210   8.116  0.00  0.00     0.022 A 
HETATM   23  N   UNK     0      11.428  11.935   8.327  0.00  0.00    -0.361 N 
HETATM   24  C   UNK     0      11.493  11.691   9.651  0.00  0.00     0.021 A 
HETATM   25  C   UNK     0      11.885  12.840  10.310  0.00  0.00    -0.031 A 
HETATM   26  C   UNK     0      12.060  13.075  11.796  0.00  0.00     0.051 C 
HETATM   27  C   UNK     0      12.074  13.826   9.348  0.00  0.00    -0.027 A 
HETATM   28  C   UNK     0      11.274  10.368  10.365  0.00  0.00     0.115 C 
HETATM   29  H   UNK     0      11.729   8.960   7.818  0.00  0.00     0.165 HD
HETATM   30  H   UNK     0      14.905   9.800   6.969  0.00  0.00     0.165 HD
HETATM   31  H   UNK     0      14.208  11.950   6.728  0.00  0.00     0.165 HD
HETATM   32  H   UNK     0      11.088  11.206   7.545  0.00  0.00     0.165 HD
ENDROOT
BRANCH   6  33
HETATM   33  C   UNK     0      15.006   6.974  10.626  0.00  0.00     0.051 C 
BRANCH  33  34
HETATM   34  C   UNK     0      14.472   5.700  11.238  0.00  0.00     0.114 C 
BRANCH  34  35
HETATM   35  C   UNK     0      14.795   4.586  10.301  0.00  0.00     0.139 C 
HETATM   36  O   UNK     0      13.898   4.109   9.546  0.00  0.00    -0.650 OA
BRANCH  35  37
HETATM   37  O   UNK     0      16.064   4.028  10.209  0.00  0.00    -0.776 OA
HETATM   38  H   UNK     0      16.212   3.088   9.879  0.00  0.00     0.167 HD
ENDBRANCH  35  37
ENDBRANCH  34  35
ENDBRANCH  33  34
ENDBRANCH   6  33
BRANCH  27  39
HETATM   39  C   UNK     0      12.434  15.230   9.687  0.00  0.00     0.051 C 
BRANCH  39  40
HETATM   40  C   UNK     0      13.841  15.622   9.616  0.00  0.00     0.114 C 
BRANCH  40  41
HETATM   41  C   UNK     0      14.555  16.139  10.762  0.00  0.00     0.139 C 
HETATM   42  O   UNK     0      14.623  15.548  11.849  0.00  0.00    -0.650 OA
BRANCH  41  43
HETATM   43  O   UNK     0      15.221  17.392  10.654  0.00  0.00    -0.776 OA
HETATM   44  H   UNK     0      16.231  17.327  10.599  0.00  0.00     0.167 HD
ENDBRANCH  41  43
ENDBRANCH  40  41
ENDBRANCH  39  40
ENDBRANCH  27  39
BRANCH  11  45
HETATM   45  C   UNK     0      14.182   7.957   2.659  0.00  0.00     0.051 C 
BRANCH  45  46
HETATM   46  C   UNK     0      13.119   8.765   2.006  0.00  0.00     0.114 C 
BRANCH  46  47
HETATM   47  C   UNK     0      13.230   8.535   0.537  0.00  0.00     0.139 C 
HETATM   48  O   UNK     0      14.229   8.963  -0.056  0.00  0.00    -0.650 OA
BRANCH  47  49
HETATM   49  O   UNK     0      12.246   7.865  -0.145  0.00  0.00    -0.776 OA
HETATM   50  H   UNK     0      11.901   8.184  -1.058  0.00  0.00     0.167 HD
ENDBRANCH  47  49
ENDBRANCH  46  47
ENDBRANCH  45  46
ENDBRANCH  11  45
BRANCH  18  51
HETATM   51  C   UNK     0      11.301  14.222   3.766  0.00  0.00     0.051 C 
BRANCH  51  52
HETATM   52  C   UNK     0      12.068  15.411   3.206  0.00  0.00     0.114 C 
BRANCH  52  53
HETATM   53  C   UNK     0      11.682  15.708   1.814  0.00  0.00     0.139 C 
HETATM   54  O   UNK     0      10.563  15.370   1.394  0.00  0.00    -0.650 OA
BRANCH  53  55
HETATM   55  O   UNK     0      12.566  16.355   0.986  0.00  0.00    -0.776 OA
HETATM   56  H   UNK     0      12.643  17.338   0.868  0.00  0.00     0.167 HD
ENDBRANCH  53  55
ENDBRANCH  52  53
ENDBRANCH  51  52
ENDBRANCH  18  51
TORSDOF 16
ENDMDL
MODEL 12
REMARK VINA RESULT:      -9.1     28.248     30.729
REMARK  16 active torsions:
REMARK  status: ('A' for Active; 'I' for Inactive)
REMARK    1  A    between atoms: C_6  and  C_7 
REMARK    2  A    between atoms: C_7  and  C_8 
REMARK    3  A    between atoms: C_8  and  C_9 
REMARK    4  A    between atoms: C_9  and  O_11 
REMARK    5  A    between atoms: C_16  and  C_17 
REMARK    6  A    between atoms: C_17  and  C_18 
REMARK    7  A    between atoms: C_18  and  C_19 
REMARK    8  A    between atoms: C_19  and  O_21 
REMARK    9  A    between atoms: C_28  and  C_29 
REMARK   10  A    between atoms: C_29  and  C_30 
REMARK   11  A    between atoms: C_30  and  C_31 
REMARK   12  A    between atoms: C_31  and  O_33 
REMARK   13  A    between atoms: C_42  and  C_43 
REMARK   14  A    between atoms: C_43  and  C_44 
REMARK   15  A    between atoms: C_44  and  C_45 
REMARK   16  A    between atoms: C_45  and  O_47 
ROOT
HETATM    1  C   UNK     0      12.935  13.771   3.733  0.00  0.00     0.051 C 
HETATM    2  C   UNK     0      13.772  12.508   3.728  0.00  0.00    -0.031 A 
HETATM    3  C   UNK     0      14.495  11.927   4.759  0.00  0.00     0.021 A 
HETATM    4  N   UNK     0      15.118  10.819   4.291  0.00  0.00    -0.361 N 
HETATM    5  C   UNK     0      14.801  10.676   2.988  0.00  0.00     0.022 A 
HETATM    6  C   UNK     0      13.963  11.717   2.602  0.00  0.00    -0.027 A 
HETATM    7  C   UNK     0      15.151   9.573   2.039  0.00  0.00     0.115 C 
HETATM    8  C   UNK     0      15.051   8.156   2.575  0.00  0.00     0.021 A 
HETATM    9  N   UNK     0      14.163   7.652   3.446  0.00  0.00    -0.361 N 
HETATM   10  C   UNK     0      14.511   6.373   3.706  0.00  0.00     0.022 A 
HETATM   11  C   UNK     0      15.648   6.042   2.975  0.00  0.00    -0.027 A 
HETATM   12  C   UNK     0      15.994   7.160   2.260  0.00  0.00    -0.031 A 
HETATM   13  C   UNK     0      17.171   7.265   1.317  0.00  0.00     0.051 C 
HETATM   14  C   UNK     0      13.819   5.434   4.689  0.00  0.00     0.115 C 
HETATM   15  C   UNK     0      13.835   5.927   6.127  0.00  0.00     0.021 A 
HETATM   16  N   UNK     0      13.335   7.082   6.605  0.00  0.00    -0.361 N 
HETATM   17  C   UNK     0      13.612   7.174   7.908  0.00  0.00     0.022 A 
HETATM   18  C   UNK     0      14.319   6.020   8.299  0.00  0.00    -0.027 A 
HETATM   19  C   UNK     0      14.451   5.246   7.175  0.00  0.00    -0.031 A 
HETATM   20  C   UNK     0      15.125   3.886   7.161  0.00  0.00     0.051 C 
HETATM   21  C   UNK     0      13.337   8.296   8.883  0.00  0.00     0.115 C 
HETATM   22  C   UNK     0      13.389   9.710   8.353  0.00  0.00     0.022 A 
HETATM   23  N   UNK     0      14.259  10.238   7.482  0.00  0.00    -0.361 N 
HETATM   24  C   UNK     0      13.849  11.486   7.178  0.00  0.00     0.021 A 
HETATM   25  C   UNK     0      12.692  11.772   7.878  0.00  0.00    -0.031 A 
HETATM   26  C   UNK     0      11.883  13.052   7.900  0.00  0.00     0.051 C 
HETATM   27  C   UNK     0      12.378  10.650   8.637  0.00  0.00    -0.027 A 
HETATM   28  C   UNK     0      14.457  12.444   6.169  0.00  0.00     0.115 C 
HETATM   29  H   UNK     0      15.808  10.168   4.875  0.00  0.00     0.165 HD
HETATM   30  H   UNK     0      13.261   8.180   3.840  0.00  0.00     0.165 HD
HETATM   31  H   UNK     0      12.731   7.826   6.023  0.00  0.00     0.165 HD
HETATM   32  H   UNK     0      15.196   9.750   7.107  0.00  0.00     0.165 HD
ENDROOT
BRANCH   6  33
HETATM   33  C   UNK     0      13.340  12.015   1.262  0.00  0.00     0.051 C 
BRANCH  33  34
HETATM   34  C   UNK     0      14.203  12.970   0.471  0.00  0.00     0.114 C 
BRANCH  34  35
HETATM   35  C   UNK     0      14.506  12.319  -0.836  0.00  0.00     0.139 C 
HETATM   36  O   UNK     0      14.683  11.068  -0.899  0.00  0.00    -0.650 OA
BRANCH  35  37
HETATM   37  O   UNK     0      14.605  13.034  -2.024  0.00  0.00    -0.776 OA
HETATM   38  H   UNK     0      15.390  12.930  -2.646  0.00  0.00     0.167 HD
ENDBRANCH  35  37
ENDBRANCH  34  35
ENDBRANCH  33  34
ENDBRANCH   6  33
BRANCH  27  39
HETATM   39  C   UNK     0      11.229  10.607   9.582  0.00  0.00     0.051 C 
BRANCH  39  40
HETATM   40  C   UNK     0      10.066   9.796   9.223  0.00  0.00     0.114 C 
BRANCH  40  41
HETATM   41  C   UNK     0      10.037   8.363   9.417  0.00  0.00     0.139 C 
HETATM   42  O   UNK     0       9.710   7.561   8.532  0.00  0.00    -0.650 OA
BRANCH  41  43
HETATM   43  O   UNK     0      10.399   7.830  10.686  0.00  0.00    -0.776 OA
HETATM   44  H   UNK     0       9.709   7.210  11.093  0.00  0.00     0.167 HD
ENDBRANCH  41  43
ENDBRANCH  40  41
ENDBRANCH  39  40
ENDBRANCH  27  39
BRANCH  11  45
HETATM   45  C   UNK     0      16.393   4.735   2.933  0.00  0.00     0.051 C 
BRANCH  45  46
HETATM   46  C   UNK     0      16.574   4.184   1.566  0.00  0.00     0.114 C 
BRANCH  46  47
HETATM   47  C   UNK     0      15.216   3.914   1.015  0.00  0.00     0.139 C 
HETATM   48  O   UNK     0      14.455   3.172   1.651  0.00  0.00    -0.650 OA
BRANCH  47  49
HETATM   49  O   UNK     0      14.815   4.474  -0.172  0.00  0.00    -0.776 OA
HETATM   50  H   UNK     0      14.245   5.328  -0.207  0.00  0.00     0.167 HD
ENDBRANCH  47  49
ENDBRANCH  46  47
ENDBRANCH  45  46
ENDBRANCH  11  45
BRANCH  18  51
HETATM   51  C   UNK     0      14.823   5.664   9.674  0.00  0.00     0.051 C 
BRANCH  51  52
HETATM   52  C   UNK     0      13.814   4.686  10.257  0.00  0.00     0.114 C 
BRANCH  52  53
HETATM   53  C   UNK     0      12.713   5.382  10.952  0.00  0.00     0.139 C 
HETATM   54  O   UNK     0      12.960   6.328  11.717  0.00  0.00    -0.650 OA
BRANCH  53  55
HETATM   55  O   UNK     0      11.417   4.975  10.749  0.00  0.00    -0.776 OA
HETATM   56  H   UNK     0      10.895   4.371  11.340  0.00  0.00     0.167 HD
ENDBRANCH  53  55
ENDBRANCH  52  53
ENDBRANCH  51  52
ENDBRANCH  18  51
TORSDOF 16
ENDMDL
MODEL 13
REMARK VINA RESULT:      -9.1     28.239     31.940
REMARK  16 active torsions:
REMARK  status: ('A' for Active; 'I' for Inactive)
REMARK    1  A    between atoms: C_6  and  C_7 
REMARK    2  A    between atoms: C_7  and  C_8 
REMARK    3  A    between atoms: C_8  and  C_9 
REMARK    4  A    between atoms: C_9  and  O_11 
REMARK    5  A    between atoms: C_16  and  C_17 
REMARK    6  A    between atoms: C_17  and  C_18 
REMARK    7  A    between atoms: C_18  and  C_19 
REMARK    8  A    between atoms: C_19  and  O_21 
REMARK    9  A    between atoms: C_28  and  C_29 
REMARK   10  A    between atoms: C_29  and  C_30 
REMARK   11  A    between atoms: C_30  and  C_31 
REMARK   12  A    between atoms: C_31  and  O_33 
REMARK   13  A    between atoms: C_42  and  C_43 
REMARK   14  A    between atoms: C_43  and  C_44 
REMARK   15  A    between atoms: C_44  and  C_45 
REMARK   16  A    between atoms: C_45  and  O_47 
ROOT
HETATM    1  C   UNK     0      13.463   6.286   4.118  0.00  0.00     0.051 C 
HETATM    2  C   UNK     0      13.754   7.146   5.331  0.00  0.00    -0.031 A 
HETATM    3  C   UNK     0      14.407   8.366   5.408  0.00  0.00     0.021 A 
HETATM    4  N   UNK     0      14.466   8.754   6.704  0.00  0.00    -0.361 N 
HETATM    5  C   UNK     0      13.857   7.812   7.454  0.00  0.00     0.022 A 
HETATM    6  C   UNK     0      13.402   6.790   6.627  0.00  0.00    -0.027 A 
HETATM    7  C   UNK     0      13.570   7.803   8.923  0.00  0.00     0.115 C 
HETATM    8  C   UNK     0      13.067   9.102   9.527  0.00  0.00     0.021 A 
HETATM    9  N   UNK     0      12.257  10.020   8.979  0.00  0.00    -0.361 N 
HETATM   10  C   UNK     0      12.153  11.055   9.840  0.00  0.00     0.022 A 
HETATM   11  C   UNK     0      12.910  10.791  10.978  0.00  0.00    -0.027 A 
HETATM   12  C   UNK     0      13.489   9.563  10.787  0.00  0.00    -0.031 A 
HETATM   13  C   UNK     0      14.399   8.863  11.772  0.00  0.00     0.051 C 
HETATM   14  C   UNK     0      11.382  12.350   9.603  0.00  0.00     0.115 C 
HETATM   15  C   UNK     0      11.876  13.151   8.409  0.00  0.00     0.021 A 
HETATM   16  N   UNK     0      11.948  12.752   7.126  0.00  0.00    -0.361 N 
HETATM   17  C   UNK     0      12.502  13.722   6.395  0.00  0.00     0.022 A 
HETATM   18  C   UNK     0      12.797  14.809   7.242  0.00  0.00    -0.027 A 
HETATM   19  C   UNK     0      12.399  14.439   8.500  0.00  0.00    -0.031 A 
HETATM   20  C   UNK     0      12.504  15.340   9.717  0.00  0.00     0.051 C 
HETATM   21  C   UNK     0      12.868  13.745   4.928  0.00  0.00     0.115 C 
HETATM   22  C   UNK     0      13.328  12.449   4.303  0.00  0.00     0.022 A 
HETATM   23  N   UNK     0      14.132  11.514   4.827  0.00  0.00    -0.361 N 
HETATM   24  C   UNK     0      14.158  10.460   3.987  0.00  0.00     0.021 A 
HETATM   25  C   UNK     0      13.361  10.726   2.891  0.00  0.00    -0.031 A 
HETATM   26  C   UNK     0      13.105   9.871   1.668  0.00  0.00     0.051 C 
HETATM   27  C   UNK     0      12.819  11.994   3.070  0.00  0.00    -0.027 A 
HETATM   28  C   UNK     0      14.855   9.126   4.192  0.00  0.00     0.115 C 
HETATM   29  H   UNK     0      14.972   9.671   7.085  0.00  0.00     0.165 HD
HETATM   30  H   UNK     0      11.716   9.919   8.007  0.00  0.00     0.165 HD
HETATM   31  H   UNK     0      11.555  11.784   6.717  0.00  0.00     0.165 HD
HETATM   32  H   UNK     0      14.723  11.608   5.775  0.00  0.00     0.165 HD
ENDROOT
BRANCH   6  33
HETATM   33  C   UNK     0      12.671   5.517   6.970  0.00  0.00     0.051 C 
BRANCH  33  34
HETATM   34  C   UNK     0      11.212   5.795   7.245  0.00  0.00     0.114 C 
BRANCH  34  35
HETATM   35  C   UNK     0      10.423   5.163   6.148  0.00  0.00     0.139 C 
HETATM   36  O   UNK     0       9.246   5.558   5.902  0.00  0.00    -0.650 OA
BRANCH  35  37
HETATM   37  O   UNK     0      10.927   4.137   5.358  0.00  0.00    -0.776 OA
HETATM   38  H   UNK     0      11.101   3.216   5.726  0.00  0.00     0.167 HD
ENDBRANCH  35  37
ENDBRANCH  34  35
ENDBRANCH  33  34
ENDBRANCH   6  33
BRANCH  27  39
HETATM   39  C   UNK     0      11.957  12.658   2.055  0.00  0.00     0.051 C 
BRANCH  39  40
HETATM   40  C   UNK     0      12.549  13.700   1.217  0.00  0.00     0.114 C 
BRANCH  40  41
HETATM   41  C   UNK     0      12.223  15.099   1.380  0.00  0.00     0.139 C 
HETATM   42  O   UNK     0      11.444  15.522   2.245  0.00  0.00    -0.650 OA
BRANCH  41  43
HETATM   43  O   UNK     0      12.819  16.054   0.508  0.00  0.00    -0.776 OA
HETATM   44  H   UNK     0      13.652  15.726   0.035  0.00  0.00     0.167 HD
ENDBRANCH  41  43
ENDBRANCH  40  41
ENDBRANCH  39  40
ENDBRANCH  27  39
BRANCH  11  45
HETATM   45  C   UNK     0      13.094  11.643  12.205  0.00  0.00     0.051 C 
BRANCH  45  46
HETATM   46  C   UNK     0      14.010  12.796  12.011  0.00  0.00     0.114 C 
BRANCH  46  47
HETATM   47  C   UNK     0      15.255  12.505  12.777  0.00  0.00     0.139 C 
HETATM   48  O   UNK     0      15.191  11.724  13.737  0.00  0.00    -0.650 OA
BRANCH  47  49
HETATM   49  O   UNK     0      16.447  13.089  12.430  0.00  0.00    -0.776 OA
HETATM   50  H   UNK     0      17.343  12.776  12.823  0.00  0.00     0.167 HD
ENDBRANCH  47  49
ENDBRANCH  46  47
ENDBRANCH  45  46
ENDBRANCH  11  45
BRANCH  18  51
HETATM   51  C   UNK     0      13.406  16.135   6.868  0.00  0.00     0.051 C 
BRANCH  51  52
HETATM   52  C   UNK     0      12.279  17.156   6.936  0.00  0.00     0.114 C 
BRANCH  52  53
HETATM   53  C   UNK     0      11.395  17.077   5.758  0.00  0.00     0.139 C 
HETATM   54  O   UNK     0      10.210  16.732   5.891  0.00  0.00    -0.650 OA
BRANCH  53  55
HETATM   55  O   UNK     0      11.891  17.386   4.514  0.00  0.00    -0.776 OA
HETATM   56  H   UNK     0      12.508  18.133   4.300  0.00  0.00     0.167 HD
ENDBRANCH  53  55
ENDBRANCH  52  53
ENDBRANCH  51  52
ENDBRANCH  18  51
TORSDOF 16
ENDMDL
MODEL 14
REMARK VINA RESULT:      -9.0     28.372     31.530
REMARK  16 active torsions:
REMARK  status: ('A' for Active; 'I' for Inactive)
REMARK    1  A    between atoms: C_6  and  C_7 
REMARK    2  A    between atoms: C_7  and  C_8 
REMARK    3  A    between atoms: C_8  and  C_9 
REMARK    4  A    between atoms: C_9  and  O_11 
REMARK    5  A    between atoms: C_16  and  C_17 
REMARK    6  A    between atoms: C_17  and  C_18 
REMARK    7  A    between atoms: C_18  and  C_19 
REMARK    8  A    between atoms: C_19  and  O_21 
REMARK    9  A    between atoms: C_28  and  C_29 
REMARK   10  A    between atoms: C_29  and  C_30 
REMARK   11  A    between atoms: C_30  and  C_31 
REMARK   12  A    between atoms: C_31  and  O_33 
REMARK   13  A    between atoms: C_42  and  C_43 
REMARK   14  A    between atoms: C_43  and  C_44 
REMARK   15  A    between atoms: C_44  and  C_45 
REMARK   16  A    between atoms: C_45  and  O_47 
ROOT
HETATM    1  C   UNK     0      13.522  10.484  11.968  0.00  0.00     0.051 C 
HETATM    2  C   UNK     0      13.177   9.811  10.655  0.00  0.00    -0.031 A 
HETATM    3  C   UNK     0      12.288  10.210   9.669  0.00  0.00     0.021 A 
HETATM    4  N   UNK     0      12.278   9.282   8.683  0.00  0.00    -0.361 N 
HETATM    5  C   UNK     0      13.147   8.305   9.014  0.00  0.00     0.022 A 
HETATM    6  C   UNK     0      13.725   8.603  10.244  0.00  0.00    -0.027 A 
HETATM    7  C   UNK     0      13.576   7.106   8.229  0.00  0.00     0.115 C 
HETATM    8  C   UNK     0      13.846   7.320   6.750  0.00  0.00     0.021 A 
HETATM    9  N   UNK     0      14.382   8.392   6.144  0.00  0.00    -0.361 N 
HETATM   10  C   UNK     0      14.347   8.181   4.811  0.00  0.00     0.022 A 
HETATM   11  C   UNK     0      13.783   6.936   4.552  0.00  0.00    -0.027 A 
HETATM   12  C   UNK     0      13.465   6.388   5.768  0.00  0.00    -0.031 A 
HETATM   13  C   UNK     0      12.831   5.031   5.977  0.00  0.00     0.051 C 
HETATM   14  C   UNK     0      14.793   9.163   3.732  0.00  0.00     0.115 C 
HETATM   15  C   UNK     0      14.021  10.472   3.733  0.00  0.00     0.021 A 
HETATM   16  N   UNK     0      13.908  11.358   4.741  0.00  0.00    -0.361 N 
HETATM   17  C   UNK     0      13.087  12.343   4.369  0.00  0.00     0.022 A 
HETATM   18  C   UNK     0      12.652  12.092   3.052  0.00  0.00    -0.027 A 
HETATM   19  C   UNK     0      13.245  10.918   2.665  0.00  0.00    -0.031 A 
HETATM   20  C   UNK     0      13.072  10.298   1.290  0.00  0.00     0.051 C 
HETATM   21  C   UNK     0      12.578  13.532   5.151  0.00  0.00     0.115 C 
HETATM   22  C   UNK     0      12.347  13.345   6.632  0.00  0.00     0.022 A 
HETATM   23  N   UNK     0      11.820  12.287   7.263  0.00  0.00    -0.361 N 
HETATM   24  C   UNK     0      11.936  12.486   8.592  0.00  0.00     0.021 A 
HETATM   25  C   UNK     0      12.543  13.705   8.822  0.00  0.00    -0.031 A 
HETATM   26  C   UNK     0      12.852  14.382  10.141  0.00  0.00     0.051 C 
HETATM   27  C   UNK     0      12.815  14.274   7.583  0.00  0.00    -0.027 A 
HETATM   28  C   UNK     0      11.566  11.527   9.710  0.00  0.00     0.115 C 
HETATM   29  H   UNK     0      11.628   9.304   7.778  0.00  0.00     0.165 HD
HETATM   30  H   UNK     0      14.831   9.277   6.657  0.00  0.00     0.165 HD
HETATM   31  H   UNK     0      14.455  11.313   5.718  0.00  0.00     0.165 HD
HETATM   32  H   UNK     0      11.321  11.409   6.776  0.00  0.00     0.165 HD
ENDROOT
BRANCH   6  33
HETATM   33  C   UNK     0      14.744   7.836  11.048  0.00  0.00     0.051 C 
BRANCH  33  34
HETATM   34  C   UNK     0      14.083   6.720  11.824  0.00  0.00     0.114 C 
BRANCH  34  35
HETATM   35  C   UNK     0      14.219   7.043  13.273  0.00  0.00     0.139 C 
HETATM   36  O   UNK     0      15.300   6.794  13.883  0.00  0.00    -0.650 OA
BRANCH  35  37
HETATM   37  O   UNK     0      13.194   7.622  14.011  0.00  0.00    -0.776 OA
HETATM   38  H   UNK     0      12.624   8.366  13.642  0.00  0.00     0.167 HD
ENDBRANCH  35  37
ENDBRANCH  34  35
ENDBRANCH  33  34
ENDBRANCH   6  33
BRANCH  27  39
HETATM   39  C   UNK     0      13.407  15.631   7.427  0.00  0.00     0.051 C 
BRANCH  39  40
HETATM   40  C   UNK     0      12.502  16.768   7.265  0.00  0.00     0.114 C 
BRANCH  40  41
HETATM   41  C   UNK     0      11.725  16.970   6.063  0.00  0.00     0.139 C 
HETATM   42  O   UNK     0      12.115  17.646   5.102  0.00  0.00    -0.650 OA
BRANCH  41  43
HETATM   43  O   UNK     0      10.439  16.367   5.963  0.00  0.00    -0.776 OA
HETATM   44  H   UNK     0       9.676  17.023   5.852  0.00  0.00     0.167 HD
ENDBRANCH  41  43
ENDBRANCH  40  41
ENDBRANCH  39  40
ENDBRANCH  27  39
BRANCH  11  45
HETATM   45  C   UNK     0      13.545   6.268   3.224  0.00  0.00     0.051 C 
BRANCH  45  46
HETATM   46  C   UNK     0      14.680   5.434   2.753  0.00  0.00     0.114 C 
BRANCH  46  47
HETATM   47  C   UNK     0      14.973   5.840   1.348  0.00  0.00     0.139 C 
HETATM   48  O   UNK     0      14.721   7.003   1.003  0.00  0.00    -0.650 OA
BRANCH  47  49
HETATM   49  O   UNK     0      15.509   4.947   0.456  0.00  0.00    -0.776 OA
HETATM   50  H   UNK     0      16.419   5.104   0.007  0.00  0.00     0.167 HD
ENDBRANCH  47  49
ENDBRANCH  46  47
ENDBRANCH  45  46
ENDBRANCH  11  45
BRANCH  18  51
HETATM   51  C   UNK     0      11.738  12.935   2.202  0.00  0.00     0.051 C 
BRANCH  51  52
HETATM   52  C   UNK     0      12.636  13.879   1.417  0.00  0.00     0.114 C 
BRANCH  52  53
HETATM   53  C   UNK     0      12.223  15.287   1.572  0.00  0.00     0.139 C 
HETATM   54  O   UNK     0      11.413  15.603   2.459  0.00  0.00    -0.650 OA
BRANCH  53  55
HETATM   55  O   UNK     0      12.736  16.243   0.730  0.00  0.00    -0.776 OA
HETATM   56  H   UNK     0      12.237  17.008   0.342  0.00  0.00     0.167 HD
ENDBRANCH  53  55
ENDBRANCH  52  53
ENDBRANCH  51  52
ENDBRANCH  18  51
TORSDOF 16
ENDMDL
MODEL 15
REMARK VINA RESULT:      -9.0      2.827      8.467
REMARK  16 active torsions:
REMARK  status: ('A' for Active; 'I' for Inactive)
REMARK    1  A    between atoms: C_6  and  C_7 
REMARK    2  A    between atoms: C_7  and  C_8 
REMARK    3  A    between atoms: C_8  and  C_9 
REMARK    4  A    between atoms: C_9  and  O_11 
REMARK    5  A    between atoms: C_16  and  C_17 
REMARK    6  A    between atoms: C_17  and  C_18 
REMARK    7  A    between atoms: C_18  and  C_19 
REMARK    8  A    between atoms: C_19  and  O_21 
REMARK    9  A    between atoms: C_28  and  C_29 
REMARK   10  A    between atoms: C_29  and  C_30 
REMARK   11  A    between atoms: C_30  and  C_31 
REMARK   12  A    between atoms: C_31  and  O_33 
REMARK   13  A    between atoms: C_42  and  C_43 
REMARK   14  A    between atoms: C_43  and  C_44 
REMARK   15  A    between atoms: C_44  and  C_45 
REMARK   16  A    between atoms: C_45  and  O_47 
ROOT
HETATM    1  C   UNK     0      -3.681  -2.857  22.203  0.00  0.00     0.051 C 
HETATM    2  C   UNK     0      -4.022  -4.331  22.288  0.00  0.00    -0.031 A 
HETATM    3  C   UNK     0      -5.260  -4.951  22.245  0.00  0.00     0.021 A 
HETATM    4  N   UNK     0      -5.090  -6.287  22.389  0.00  0.00    -0.361 N 
HETATM    5  C   UNK     0      -3.769  -6.532  22.514  0.00  0.00     0.022 A 
HETATM    6  C   UNK     0      -3.072  -5.330  22.458  0.00  0.00    -0.027 A 
HETATM    7  C   UNK     0      -3.048  -7.841  22.605  0.00  0.00     0.115 C 
HETATM    8  C   UNK     0      -3.516  -8.943  21.670  0.00  0.00     0.021 A 
HETATM    9  N   UNK     0      -3.969  -8.836  20.412  0.00  0.00    -0.361 N 
HETATM   10  C   UNK     0      -4.360 -10.061  20.001  0.00  0.00     0.022 A 
HETATM   11  C   UNK     0      -4.143 -10.984  21.019  0.00  0.00    -0.027 A 
HETATM   12  C   UNK     0      -3.612 -10.287  22.074  0.00  0.00    -0.031 A 
HETATM   13  C   UNK     0      -3.211 -10.884  23.404  0.00  0.00     0.051 C 
HETATM   14  C   UNK     0      -4.998 -10.400  18.657  0.00  0.00     0.115 C 
HETATM   15  C   UNK     0      -6.320  -9.690  18.407  0.00  0.00     0.021 A 
HETATM   16  N   UNK     0      -6.548  -8.364  18.381  0.00  0.00    -0.361 N 
HETATM   17  C   UNK     0      -7.852  -8.147  18.201  0.00  0.00     0.022 A 
HETATM   18  C   UNK     0      -8.504  -9.391  18.095  0.00  0.00    -0.027 A 
HETATM   19  C   UNK     0      -7.533 -10.350  18.224  0.00  0.00    -0.031 A 
HETATM   20  C   UNK     0      -7.802 -11.841  18.134  0.00  0.00     0.051 C 
HETATM   21  C   UNK     0      -8.626  -6.848  18.170  0.00  0.00     0.115 C 
HETATM   22  C   UNK     0      -8.145  -5.728  19.062  0.00  0.00     0.022 A 
HETATM   23  N   UNK     0      -7.685  -5.806  20.318  0.00  0.00    -0.361 N 
HETATM   24  C   UNK     0      -7.230  -4.589  20.678  0.00  0.00     0.021 A 
HETATM   25  C   UNK     0      -7.411  -3.704  19.634  0.00  0.00    -0.031 A 
HETATM   26  C   UNK     0      -7.097  -2.223  19.574  0.00  0.00     0.051 C 
HETATM   27  C   UNK     0      -7.995  -4.409  18.588  0.00  0.00    -0.027 A 
HETATM   28  C   UNK     0      -6.535  -4.203  21.972  0.00  0.00     0.115 C 
HETATM   29  H   UNK     0      -5.907  -7.043  22.441  0.00  0.00     0.165 HD
HETATM   30  H   UNK     0      -3.969  -7.905  19.793  0.00  0.00     0.165 HD
HETATM   31  H   UNK     0      -5.766  -7.563  18.443  0.00  0.00     0.165 HD
HETATM   32  H   UNK     0      -7.717  -6.712  20.977  0.00  0.00     0.165 HD
ENDROOT
BRANCH   6  33
HETATM   33  C   UNK     0      -1.591  -5.062  22.555  0.00  0.00     0.051 C 
BRANCH  33  34
HETATM   34  C   UNK     0      -0.893  -5.443  21.271  0.00  0.00     0.114 C 
BRANCH  34  35
HETATM   35  C   UNK     0       0.206  -4.459  21.052  0.00  0.00     0.139 C 
HETATM   36  O   UNK     0       0.329  -3.461  21.819  0.00  0.00    -0.650 OA
BRANCH  35  37
HETATM   37  O   UNK     0       1.130  -4.586  20.022  0.00  0.00    -0.776 OA
HETATM   38  H   UNK     0       0.849  -4.671  19.059  0.00  0.00     0.167 HD
ENDBRANCH  35  37
ENDBRANCH  34  35
ENDBRANCH  33  34
ENDBRANCH   6  33
BRANCH  27  39
HETATM   39  C   UNK     0      -8.408  -3.769  17.309  0.00  0.00     0.051 C 
BRANCH  39  40
HETATM   40  C   UNK     0      -9.798  -3.338  17.166  0.00  0.00     0.114 C 
BRANCH  40  41
HETATM   41  C   UNK     0     -10.898  -4.276  17.145  0.00  0.00     0.139 C 
HETATM   42  O   UNK     0     -11.494  -4.654  18.163  0.00  0.00    -0.650 OA
BRANCH  41  43
HETATM   43  O   UNK     0     -11.332  -4.805  15.896  0.00  0.00    -0.776 OA
HETATM   44  H   UNK     0     -11.641  -5.769  15.933  0.00  0.00     0.167 HD
ENDBRANCH  41  43
ENDBRANCH  40  41
ENDBRANCH  39  40
ENDBRANCH  27  39
BRANCH  11  45
HETATM   45  C   UNK     0      -4.414 -12.465  21.021  0.00  0.00     0.051 C 
BRANCH  45  46
HETATM   46  C   UNK     0      -5.857 -12.817  21.008  0.00  0.00     0.114 C 
BRANCH  46  47
HETATM   47  C   UNK     0      -6.398 -12.513  22.364  0.00  0.00     0.139 C 
HETATM   48  O   UNK     0      -7.226 -11.598  22.480  0.00  0.00    -0.650 OA
BRANCH  47  49
HETATM   49  O   UNK     0      -5.989 -13.229  23.461  0.00  0.00    -0.776 OA
HETATM   50  H   UNK     0      -4.997 -13.416  23.650  0.00  0.00     0.167 HD
ENDBRANCH  47  49
ENDBRANCH  46  47
ENDBRANCH  45  46
ENDBRANCH  11  45
BRANCH  18  51
HETATM   51  C   UNK     0      -9.970  -9.652  17.861  0.00  0.00     0.051 C 
BRANCH  51  52
HETATM   52  C   UNK     0     -10.195  -9.506  16.364  0.00  0.00     0.114 C 
BRANCH  52  53
HETATM   53  C   UNK     0     -11.330  -8.612  16.064  0.00  0.00     0.139 C 
HETATM   54  O   UNK     0     -11.946  -8.727  14.992  0.00  0.00    -0.650 OA
BRANCH  53  55
HETATM   55  O   UNK     0     -11.698  -7.651  16.974  0.00  0.00    -0.776 OA
HETATM   56  H   UNK     0     -11.262  -6.768  17.099  0.00  0.00     0.167 HD
ENDBRANCH  53  55
ENDBRANCH  52  53
ENDBRANCH  51  52
ENDBRANCH  18  51
TORSDOF 16
ENDMDL
MODEL 16
REMARK VINA RESULT:      -9.0     28.277     31.446
REMARK  16 active torsions:
REMARK  status: ('A' for Active; 'I' for Inactive)
REMARK    1  A    between atoms: C_6  and  C_7 
REMARK    2  A    between atoms: C_7  and  C_8 
REMARK    3  A    between atoms: C_8  and  C_9 
REMARK    4  A    between atoms: C_9  and  O_11 
REMARK    5  A    between atoms: C_16  and  C_17 
REMARK    6  A    between atoms: C_17  and  C_18 
REMARK    7  A    between atoms: C_18  and  C_19 
REMARK    8  A    between atoms: C_19  and  O_21 
REMARK    9  A    between atoms: C_28  and  C_29 
REMARK   10  A    between atoms: C_29  and  C_30 
REMARK   11  A    between atoms: C_30  and  C_31 
REMARK   12  A    between atoms: C_31  and  O_33 
REMARK   13  A    between atoms: C_42  and  C_43 
REMARK   14  A    between atoms: C_43  and  C_44 
REMARK   15  A    between atoms: C_44  and  C_45 
REMARK   16  A    between atoms: C_45  and  O_47 
ROOT
HETATM    1  C   UNK     0      13.806   9.150  12.188  0.00  0.00     0.051 C 
HETATM    2  C   UNK     0      13.409   8.727  10.788  0.00  0.00    -0.031 A 
HETATM    3  C   UNK     0      12.506   9.312   9.915  0.00  0.00     0.021 A 
HETATM    4  N   UNK     0      12.446   8.573   8.782  0.00  0.00    -0.361 N 
HETATM    5  C   UNK     0      13.297   7.535   8.910  0.00  0.00     0.022 A 
HETATM    6  C   UNK     0      13.914   7.599  10.155  0.00  0.00    -0.027 A 
HETATM    7  C   UNK     0      13.673   6.483   7.914  0.00  0.00     0.115 C 
HETATM    8  C   UNK     0      13.910   6.949   6.488  0.00  0.00     0.021 A 
HETATM    9  N   UNK     0      14.458   8.098   6.064  0.00  0.00    -0.361 N 
HETATM   10  C   UNK     0      14.383   8.127   4.717  0.00  0.00     0.022 A 
HETATM   11  C   UNK     0      13.779   6.959   4.260  0.00  0.00    -0.027 A 
HETATM   12  C   UNK     0      13.479   6.212   5.370  0.00  0.00    -0.031 A 
HETATM   13  C   UNK     0      12.814   4.854   5.357  0.00  0.00     0.051 C 
HETATM   14  C   UNK     0      14.828   9.273   3.813  0.00  0.00     0.115 C 
HETATM   15  C   UNK     0      14.091  10.578   4.068  0.00  0.00     0.021 A 
HETATM   16  N   UNK     0      14.027  11.275   5.218  0.00  0.00    -0.361 N 
HETATM   17  C   UNK     0      13.224  12.327   5.049  0.00  0.00     0.022 A 
HETATM   18  C   UNK     0      12.748  12.322   3.723  0.00  0.00    -0.027 A 
HETATM   19  C   UNK     0      13.300  11.222   3.118  0.00  0.00    -0.031 A 
HETATM   20  C   UNK     0      13.075  10.858   1.662  0.00  0.00     0.051 C 
HETATM   21  C   UNK     0      12.768  13.371   6.043  0.00  0.00     0.115 C 
HETATM   22  C   UNK     0      12.570  12.931   7.475  0.00  0.00     0.022 A 
HETATM   23  N   UNK     0      12.031  11.791   7.926  0.00  0.00    -0.361 N 
HETATM   24  C   UNK     0      12.187  11.750   9.265  0.00  0.00     0.021 A 
HETATM   25  C   UNK     0      12.832  12.896   9.687  0.00  0.00    -0.031 A 
HETATM   26  C   UNK     0      13.193  13.323  11.095  0.00  0.00     0.051 C 
HETATM   27  C   UNK     0      13.087  13.668   8.559  0.00  0.00    -0.027 A 
HETATM   28  C   UNK     0      11.821  10.617  10.208  0.00  0.00     0.115 C 
HETATM   29  H   UNK     0      11.773   8.769   7.915  0.00  0.00     0.165 HD
HETATM   30  H   UNK     0      14.944   8.870   6.711  0.00  0.00     0.165 HD
HETATM   31  H   UNK     0      14.599  11.047   6.155  0.00  0.00     0.165 HD
HETATM   32  H   UNK     0      11.497  11.023   7.308  0.00  0.00     0.165 HD
ENDROOT
BRANCH   6  33
HETATM   33  C   UNK     0      14.932   6.680  10.781  0.00  0.00     0.051 C 
BRANCH  33  34
HETATM   34  C   UNK     0      14.255   5.509  11.454  0.00  0.00     0.114 C 
BRANCH  34  35
HETATM   35  C   UNK     0      14.975   4.274  11.032  0.00  0.00     0.139 C 
HETATM   36  O   UNK     0      14.740   3.171  11.607  0.00  0.00    -0.650 OA
BRANCH  35  37
HETATM   37  O   UNK     0      15.916   4.267  10.010  0.00  0.00    -0.776 OA
HETATM   38  H   UNK     0      16.906   4.225  10.194  0.00  0.00     0.167 HD
ENDBRANCH  35  37
ENDBRANCH  34  35
ENDBRANCH  33  34
ENDBRANCH   6  33
BRANCH  27  39
HETATM   39  C   UNK     0      13.711  15.018   8.625  0.00  0.00     0.051 C 
BRANCH  39  40
HETATM   40  C   UNK     0      12.840  16.190   8.544  0.00  0.00     0.114 C 
BRANCH  40  41
HETATM   41  C   UNK     0      12.606  16.891   7.301  0.00  0.00     0.139 C 
HETATM   42  O   UNK     0      11.488  17.279   6.935  0.00  0.00    -0.650 OA
BRANCH  41  43
HETATM   43  O   UNK     0      13.708  17.158   6.441  0.00  0.00    -0.776 OA
HETATM   44  H   UNK     0      14.055  18.109   6.486  0.00  0.00     0.167 HD
ENDBRANCH  41  43
ENDBRANCH  40  41
ENDBRANCH  39  40
ENDBRANCH  27  39
BRANCH  11  45
HETATM   45  C   UNK     0      13.490   6.541   2.843  0.00  0.00     0.051 C 
BRANCH  45  46
HETATM   46  C   UNK     0      14.687   6.091   2.087  0.00  0.00     0.114 C 
BRANCH  46  47
HETATM   47  C   UNK     0      14.958   7.118   1.040  0.00  0.00     0.139 C 
HETATM   48  O   UNK     0      14.024   7.482   0.312  0.00  0.00    -0.650 OA
BRANCH  47  49
HETATM   49  O   UNK     0      16.215   7.646   0.883  0.00  0.00    -0.776 OA
HETATM   50  H   UNK     0      16.646   8.246   1.596  0.00  0.00     0.167 HD
ENDBRANCH  47  49
ENDBRANCH  46  47
ENDBRANCH  45  46
ENDBRANCH  11  45
BRANCH  18  51
HETATM   51  C   UNK     0      11.835  13.321   3.061  0.00  0.00     0.051 C 
BRANCH  51  52
HETATM   52  C   UNK     0      12.739  14.347   2.393  0.00  0.00     0.114 C 
BRANCH  52  53
HETATM   53  C   UNK     0      11.974  15.293   1.559  0.00  0.00     0.139 C 
HETATM   54  O   UNK     0      10.734  15.237   1.533  0.00  0.00    -0.650 OA
BRANCH  53  55
HETATM   55  O   UNK     0      12.641  16.231   0.809  0.00  0.00    -0.776 OA
HETATM   56  H   UNK     0      12.269  16.736   0.040  0.00  0.00     0.167 HD
ENDBRANCH  53  55
ENDBRANCH  52  53
ENDBRANCH  51  52
ENDBRANCH  18  51
TORSDOF 16
ENDMDL
MODEL 17
REMARK VINA RESULT:      -8.8      5.204      8.945
REMARK  16 active torsions:
REMARK  status: ('A' for Active; 'I' for Inactive)
REMARK    1  A    between atoms: C_6  and  C_7 
REMARK    2  A    between atoms: C_7  and  C_8 
REMARK    3  A    between atoms: C_8  and  C_9 
REMARK    4  A    between atoms: C_9  and  O_11 
REMARK    5  A    between atoms: C_16  and  C_17 
REMARK    6  A    between atoms: C_17  and  C_18 
REMARK    7  A    between atoms: C_18  and  C_19 
REMARK    8  A    between atoms: C_19  and  O_21 
REMARK    9  A    between atoms: C_28  and  C_29 
REMARK   10  A    between atoms: C_29  and  C_30 
REMARK   11  A    between atoms: C_30  and  C_31 
REMARK   12  A    between atoms: C_31  and  O_33 
REMARK   13  A    between atoms: C_42  and  C_43 
REMARK   14  A    between atoms: C_43  and  C_44 
REMARK   15  A    between atoms: C_44  and  C_45 
REMARK   16  A    between atoms: C_45  and  O_47 
ROOT
HETATM    1  C   UNK     0      -7.837  -8.952  21.375  0.00  0.00     0.051 C 
HETATM    2  C   UNK     0      -6.428  -9.461  21.147  0.00  0.00    -0.031 A 
HETATM    3  C   UNK     0      -5.358  -8.839  20.522  0.00  0.00     0.021 A 
HETATM    4  N   UNK     0      -4.298  -9.682  20.519  0.00  0.00    -0.361 N 
HETATM    5  C   UNK     0      -4.666 -10.824  21.135  0.00  0.00     0.022 A 
HETATM    6  C   UNK     0      -5.994 -10.721  21.538  0.00  0.00    -0.027 A 
HETATM    7  C   UNK     0      -3.846 -12.029  21.475  0.00  0.00     0.115 C 
HETATM    8  C   UNK     0      -2.455 -11.773  22.026  0.00  0.00     0.021 A 
HETATM    9  N   UNK     0      -2.045 -10.784  22.835  0.00  0.00    -0.361 N 
HETATM   10  C   UNK     0      -0.709 -10.897  22.992  0.00  0.00     0.022 A 
HETATM   11  C   UNK     0      -0.247 -11.995  22.271  0.00  0.00    -0.027 A 
HETATM   12  C   UNK     0      -1.342 -12.551  21.661  0.00  0.00    -0.031 A 
HETATM   13  C   UNK     0      -1.320 -13.775  20.773  0.00  0.00     0.051 C 
HETATM   14  C   UNK     0       0.190  -9.948  23.780  0.00  0.00     0.115 C 
HETATM   15  C   UNK     0       0.184  -8.520  23.259  0.00  0.00     0.021 A 
HETATM   16  N   UNK     0      -0.873  -7.697  23.132  0.00  0.00    -0.361 N 
HETATM   17  C   UNK     0      -0.474  -6.553  22.572  0.00  0.00     0.022 A 
HETATM   18  C   UNK     0       0.912  -6.632  22.330  0.00  0.00    -0.027 A 
HETATM   19  C   UNK     0       1.312  -7.868  22.767  0.00  0.00    -0.031 A 
HETATM   20  C   UNK     0       2.750  -8.353  22.725  0.00  0.00     0.051 C 
HETATM   21  C   UNK     0      -1.277  -5.343  22.153  0.00  0.00     0.115 C 
HETATM   22  C   UNK     0      -2.680  -5.579  21.644  0.00  0.00     0.022 A 
HETATM   23  N   UNK     0      -3.118  -6.558  20.841  0.00  0.00    -0.361 N 
HETATM   24  C   UNK     0      -4.461  -6.472  20.762  0.00  0.00     0.021 A 
HETATM   25  C   UNK     0      -4.898  -5.406  21.524  0.00  0.00    -0.031 A 
HETATM   26  C   UNK     0      -6.307  -4.886  21.717  0.00  0.00     0.051 C 
HETATM   27  C   UNK     0      -3.776  -4.819  22.098  0.00  0.00    -0.027 A 
HETATM   28  C   UNK     0      -5.412  -7.415  20.045  0.00  0.00     0.115 C 
HETATM   29  H   UNK     0      -3.310  -9.479  20.046  0.00  0.00     0.165 HD
HETATM   30  H   UNK     0      -2.703 -10.034  23.338  0.00  0.00     0.165 HD
HETATM   31  H   UNK     0      -1.915  -7.907  23.490  0.00  0.00     0.165 HD
HETATM   32  H   UNK     0      -2.478  -7.293  20.287  0.00  0.00     0.165 HD
ENDROOT
BRANCH   6  33
HETATM   33  C   UNK     0      -6.870 -11.717  22.255  0.00  0.00     0.051 C 
BRANCH  33  34
HETATM   34  C   UNK     0      -7.118 -12.931  21.391  0.00  0.00     0.114 C 
BRANCH  34  35
HETATM   35  C   UNK     0      -8.221 -12.590  20.447  0.00  0.00     0.139 C 
HETATM   36  O   UNK     0      -7.993 -12.502  19.206  0.00  0.00    -0.650 OA
BRANCH  35  37
HETATM   37  O   UNK     0      -9.524 -12.358  20.871  0.00  0.00    -0.776 OA
HETATM   38  H   UNK     0      -9.780 -12.370  21.845  0.00  0.00     0.167 HD
ENDBRANCH  35  37
ENDBRANCH  34  35
ENDBRANCH  33  34
ENDBRANCH   6  33
BRANCH  27  39
HETATM   39  C   UNK     0      -3.843  -3.591  22.936  0.00  0.00     0.051 C 
BRANCH  39  40
HETATM   40  C   UNK     0      -4.246  -3.726  24.336  0.00  0.00     0.114 C 
BRANCH  40  41
HETATM   41  C   UNK     0      -5.616  -3.555  24.763  0.00  0.00     0.139 C 
HETATM   42  O   UNK     0      -6.246  -2.496  24.634  0.00  0.00    -0.650 OA
BRANCH  41  43
HETATM   43  O   UNK     0      -6.294  -4.652  25.367  0.00  0.00    -0.776 OA
HETATM   44  H   UNK     0      -6.030  -5.560  25.003  0.00  0.00     0.167 HD
ENDBRANCH  41  43
ENDBRANCH  40  41
ENDBRANCH  39  40
ENDBRANCH  27  39
BRANCH  11  45
HETATM   45  C   UNK     0       1.159 -12.518  22.150  0.00  0.00     0.051 C 
BRANCH  45  46
HETATM   46  C   UNK     0       2.071 -11.634  21.380  0.00  0.00     0.114 C 
BRANCH  46  47
HETATM   47  C   UNK     0       3.162 -12.491  20.835  0.00  0.00     0.139 C 
HETATM   48  O   UNK     0       3.166 -12.745  19.622  0.00  0.00    -0.650 OA
BRANCH  47  49
HETATM   49  O   UNK     0       4.140 -12.991  21.657  0.00  0.00    -0.776 OA
HETATM   50  H   UNK     0       4.578 -13.904  21.490  0.00  0.00     0.167 HD
ENDBRANCH  47  49
ENDBRANCH  46  47
ENDBRANCH  45  46
ENDBRANCH  11  45
BRANCH  18  51
HETATM   51  C   UNK     0       1.810  -5.578  21.736  0.00  0.00     0.051 C 
BRANCH  51  52
HETATM   52  C   UNK     0       1.755  -5.772  20.228  0.00  0.00     0.114 C 
BRANCH  52  53
HETATM   53  C   UNK     0       2.875  -5.095  19.545  0.00  0.00     0.139 C 
HETATM   54  O   UNK     0       2.962  -5.133  18.307  0.00  0.00    -0.650 OA
BRANCH  53  55
HETATM   55  O   UNK     0       3.819  -4.428  20.286  0.00  0.00    -0.776 OA
HETATM   56  H   UNK     0       4.353  -3.647  19.985  0.00  0.00     0.167 HD
ENDBRANCH  53  55
ENDBRANCH  52  53
ENDBRANCH  51  52
ENDBRANCH  18  51
TORSDOF 16
ENDMDL
MODEL 18
REMARK VINA RESULT:      -8.8      2.817     10.638
REMARK  16 active torsions:
REMARK  status: ('A' for Active; 'I' for Inactive)
REMARK    1  A    between atoms: C_6  and  C_7 
REMARK    2  A    between atoms: C_7  and  C_8 
REMARK    3  A    between atoms: C_8  and  C_9 
REMARK    4  A    between atoms: C_9  and  O_11 
REMARK    5  A    between atoms: C_16  and  C_17 
REMARK    6  A    between atoms: C_17  and  C_18 
REMARK    7  A    between atoms: C_18  and  C_19 
REMARK    8  A    between atoms: C_19  and  O_21 
REMARK    9  A    between atoms: C_28  and  C_29 
REMARK   10  A    between atoms: C_29  and  C_30 
REMARK   11  A    between atoms: C_30  and  C_31 
REMARK   12  A    between atoms: C_31  and  O_33 
REMARK   13  A    between atoms: C_42  and  C_43 
REMARK   14  A    between atoms: C_43  and  C_44 
REMARK   15  A    between atoms: C_44  and  C_45 
REMARK   16  A    between atoms: C_45  and  O_47 
ROOT
HETATM    1  C   UNK     0      -4.426 -12.266  20.671  0.00  0.00     0.051 C 
HETATM    2  C   UNK     0      -4.195 -10.769  20.651  0.00  0.00    -0.031 A 
HETATM    3  C   UNK     0      -4.323  -9.873  19.601  0.00  0.00     0.021 A 
HETATM    4  N   UNK     0      -3.984  -8.635  20.033  0.00  0.00    -0.361 N 
HETATM    5  C   UNK     0      -3.652  -8.721  21.337  0.00  0.00     0.022 A 
HETATM    6  C   UNK     0      -3.770 -10.042  21.756  0.00  0.00    -0.027 A 
HETATM    7  C   UNK     0      -3.296  -7.633  22.302  0.00  0.00     0.115 C 
HETATM    8  C   UNK     0      -4.132  -6.367  22.242  0.00  0.00     0.021 A 
HETATM    9  N   UNK     0      -5.443  -6.243  21.984  0.00  0.00    -0.361 N 
HETATM   10  C   UNK     0      -5.739  -4.927  21.942  0.00  0.00     0.022 A 
HETATM   11  C   UNK     0      -4.589  -4.183  22.188  0.00  0.00    -0.027 A 
HETATM   12  C   UNK     0      -3.573  -5.084  22.378  0.00  0.00    -0.031 A 
HETATM   13  C   UNK     0      -2.135  -4.729  22.681  0.00  0.00     0.051 C 
HETATM   14  C   UNK     0      -7.101  -4.319  21.616  0.00  0.00     0.115 C 
HETATM   15  C   UNK     0      -7.616  -4.671  20.230  0.00  0.00     0.021 A 
HETATM   16  N   UNK     0      -7.846  -5.897  19.725  0.00  0.00    -0.361 N 
HETATM   17  C   UNK     0      -8.226  -5.783  18.451  0.00  0.00     0.022 A 
HETATM   18  C   UNK     0      -8.255  -4.416  18.111  0.00  0.00    -0.027 A 
HETATM   19  C   UNK     0      -7.873  -3.730  19.234  0.00  0.00    -0.031 A 
HETATM   20  C   UNK     0      -7.803  -2.216  19.315  0.00  0.00     0.051 C 
HETATM   21  C   UNK     0      -8.530  -6.854  17.427  0.00  0.00     0.115 C 
HETATM   22  C   UNK     0      -7.735  -8.137  17.503  0.00  0.00     0.022 A 
HETATM   23  N   UNK     0      -6.430  -8.290  17.762  0.00  0.00    -0.361 N 
HETATM   24  C   UNK     0      -6.173  -9.609  17.877  0.00  0.00     0.021 A 
HETATM   25  C   UNK     0      -7.339 -10.322  17.677  0.00  0.00    -0.031 A 
HETATM   26  C   UNK     0      -7.550 -11.822  17.666  0.00  0.00     0.051 C 
HETATM   27  C   UNK     0      -8.353  -9.402  17.436  0.00  0.00    -0.027 A 
HETATM   28  C   UNK     0      -4.859 -10.271  18.254  0.00  0.00     0.115 C 
HETATM   29  H   UNK     0      -3.944  -7.717  19.402  0.00  0.00     0.165 HD
HETATM   30  H   UNK     0      -6.173  -7.084  21.881  0.00  0.00     0.165 HD
HETATM   31  H   UNK     0      -7.784  -6.862  20.293  0.00  0.00     0.165 HD
HETATM   32  H   UNK     0      -5.668  -7.470  17.823  0.00  0.00     0.165 HD
ENDROOT
BRANCH   6  33
HETATM   33  C   UNK     0      -3.511 -10.659  23.107  0.00  0.00     0.051 C 
BRANCH  33  34
HETATM   34  C   UNK     0      -2.083 -11.140  23.211  0.00  0.00     0.114 C 
BRANCH  34  35
HETATM   35  C   UNK     0      -1.513 -10.578  24.469  0.00  0.00     0.139 C 
HETATM   36  O   UNK     0      -1.371 -11.315  25.488  0.00  0.00    -0.650 OA
BRANCH  35  37
HETATM   37  O   UNK     0      -1.116  -9.252  24.585  0.00  0.00    -0.776 OA
HETATM   38  H   UNK     0      -0.617  -8.912  25.391  0.00  0.00     0.167 HD
ENDBRANCH  35  37
ENDBRANCH  34  35
ENDBRANCH  33  34
ENDBRANCH   6  33
BRANCH  27  39
HETATM   39  C   UNK     0      -9.748  -9.800  17.104  0.00  0.00     0.051 C 
BRANCH  39  40
HETATM   40  C   UNK     0     -10.175  -9.735  15.707  0.00  0.00     0.114 C 
BRANCH  40  41
HETATM   41  C   UNK     0     -11.498  -9.296  15.325  0.00  0.00     0.139 C 
HETATM   42  O   UNK     0     -12.432 -10.073  15.082  0.00  0.00    -0.650 OA
BRANCH  41  43
HETATM   43  O   UNK     0     -11.760  -7.901  15.218  0.00  0.00    -0.776 OA
HETATM   44  H   UNK     0     -12.112  -7.609  14.314  0.00  0.00     0.167 HD
ENDBRANCH  41  43
ENDBRANCH  40  41
ENDBRANCH  39  40
ENDBRANCH  27  39
BRANCH  11  45
HETATM   45  C   UNK     0      -4.430  -2.687  22.249  0.00  0.00     0.051 C 
BRANCH  45  46
HETATM   46  C   UNK     0      -4.913  -2.078  23.515  0.00  0.00     0.114 C 
BRANCH  46  47
HETATM   47  C   UNK     0      -6.028  -1.153  23.162  0.00  0.00     0.139 C 
HETATM   48  O   UNK     0      -5.793  -0.206  22.399  0.00  0.00    -0.650 OA
BRANCH  47  49
HETATM   49  O   UNK     0      -7.287  -1.345  23.673  0.00  0.00    -0.776 OA
HETATM   50  H   UNK     0      -7.551  -1.018  24.610  0.00  0.00     0.167 HD
ENDBRANCH  47  49
ENDBRANCH  46  47
ENDBRANCH  45  46
ENDBRANCH  11  45
BRANCH  18  51
HETATM   51  C   UNK     0      -8.647  -3.796  16.795  0.00  0.00     0.051 C 
BRANCH  51  52
HETATM   52  C   UNK     0     -10.008  -3.154  17.015  0.00  0.00     0.114 C 
BRANCH  52  53
HETATM   53  C   UNK     0     -11.099  -4.148  16.971  0.00  0.00     0.139 C 
HETATM   54  O   UNK     0     -11.953  -4.174  17.871  0.00  0.00    -0.650 OA
BRANCH  53  55
HETATM   55  O   UNK     0     -11.160  -5.043  15.931  0.00  0.00    -0.776 OA
HETATM   56  H   UNK     0     -10.424  -5.637  15.627  0.00  0.00     0.167 HD
ENDBRANCH  53  55
ENDBRANCH  52  53
ENDBRANCH  51  52
ENDBRANCH  18  51
TORSDOF 16
ENDMDL
MODEL 19
REMARK VINA RESULT:      -8.6     27.232     30.612
REMARK  16 active torsions:
REMARK  status: ('A' for Active; 'I' for Inactive)
REMARK    1  A    between atoms: C_6  and  C_7 
REMARK    2  A    between atoms: C_7  and  C_8 
REMARK    3  A    between atoms: C_8  and  C_9 
REMARK    4  A    between atoms: C_9  and  O_11 
REMARK    5  A    between atoms: C_16  and  C_17 
REMARK    6  A    between atoms: C_17  and  C_18 
REMARK    7  A    between atoms: C_18  and  C_19 
REMARK    8  A    between atoms: C_19  and  O_21 
REMARK    9  A    between atoms: C_28  and  C_29 
REMARK   10  A    between atoms: C_29  and  C_30 
REMARK   11  A    between atoms: C_30  and  C_31 
REMARK   12  A    between atoms: C_31  and  O_33 
REMARK   13  A    between atoms: C_42  and  C_43 
REMARK   14  A    between atoms: C_43  and  C_44 
REMARK   15  A    between atoms: C_44  and  C_45 
REMARK   16  A    between atoms: C_45  and  O_47 
ROOT
HETATM    1  C   UNK     0      12.022   4.989  10.854  0.00  0.00     0.051 C 
HETATM    2  C   UNK     0      12.050   5.581   9.460  0.00  0.00    -0.031 A 
HETATM    3  C   UNK     0      11.325   6.642   8.940  0.00  0.00     0.021 A 
HETATM    4  N   UNK     0      11.652   6.803   7.635  0.00  0.00    -0.361 N 
HETATM    5  C   UNK     0      12.575   5.873   7.315  0.00  0.00     0.022 A 
HETATM    6  C   UNK     0      12.845   5.090   8.432  0.00  0.00    -0.027 A 
HETATM    7  C   UNK     0      13.328   5.680   6.035  0.00  0.00     0.115 C 
HETATM    8  C   UNK     0      13.851   6.934   5.357  0.00  0.00     0.021 A 
HETATM    9  N   UNK     0      14.327   8.054   5.922  0.00  0.00    -0.361 N 
HETATM   10  C   UNK     0      14.590   8.941   4.939  0.00  0.00     0.022 A 
HETATM   11  C   UNK     0      14.284   8.373   3.706  0.00  0.00    -0.027 A 
HETATM   12  C   UNK     0      13.817   7.109   3.962  0.00  0.00    -0.031 A 
HETATM   13  C   UNK     0      13.366   6.115   2.915  0.00  0.00     0.051 C 
HETATM   14  C   UNK     0      15.089  10.371   5.124  0.00  0.00     0.115 C 
HETATM   15  C   UNK     0      14.143  11.254   5.923  0.00  0.00     0.021 A 
HETATM   16  N   UNK     0      13.699  11.057   7.178  0.00  0.00    -0.361 N 
HETATM   17  C   UNK     0      12.829  12.020   7.492  0.00  0.00     0.022 A 
HETATM   18  C   UNK     0      12.708  12.891   6.391  0.00  0.00    -0.027 A 
HETATM   19  C   UNK     0      13.537  12.401   5.415  0.00  0.00    -0.031 A 
HETATM   20  C   UNK     0      13.736  13.065   4.065  0.00  0.00     0.051 C 
HETATM   21  C   UNK     0      12.002  12.213   8.742  0.00  0.00     0.115 C 
HETATM   22  C   UNK     0      11.512  10.973   9.452  0.00  0.00     0.022 A 
HETATM   23  N   UNK     0      11.036   9.843   8.915  0.00  0.00    -0.361 N 
HETATM   24  C   UNK     0      10.854   8.947   9.906  0.00  0.00     0.021 A 
HETATM   25  C   UNK     0      11.212   9.518  11.112  0.00  0.00    -0.031 A 
HETATM   26  C   UNK     0      11.147   8.925  12.505  0.00  0.00     0.051 C 
HETATM   27  C   UNK     0      11.636  10.815  10.848  0.00  0.00    -0.027 A 
HETATM   28  C   UNK     0      10.419   7.497   9.780  0.00  0.00     0.115 C 
HETATM   29  H   UNK     0      11.198   7.547   6.940  0.00  0.00     0.165 HD
HETATM   30  H   UNK     0      14.526   8.204   7.011  0.00  0.00     0.165 HD
HETATM   31  H   UNK     0      14.042  10.250   7.876  0.00  0.00     0.165 HD
HETATM   32  H   UNK     0      10.782   9.680   7.835  0.00  0.00     0.165 HD
ENDROOT
BRANCH   6  33
HETATM   33  C   UNK     0      13.788   3.925   8.595  0.00  0.00     0.051 C 
BRANCH  33  34
HETATM   34  C   UNK     0      15.211   4.405   8.749  0.00  0.00     0.114 C 
BRANCH  34  35
HETATM   35  C   UNK     0      15.625   4.132  10.155  0.00  0.00     0.139 C 
HETATM   36  O   UNK     0      15.560   5.046  11.028  0.00  0.00    -0.650 OA
BRANCH  35  37
HETATM   37  O   UNK     0      16.091   2.890  10.571  0.00  0.00    -0.776 OA
HETATM   38  H   UNK     0      15.810   2.480  11.447  0.00  0.00     0.167 HD
ENDBRANCH  35  37
ENDBRANCH  34  35
ENDBRANCH  33  34
ENDBRANCH   6  33
BRANCH  27  39
HETATM   39  C   UNK     0      12.036  11.771  11.916  0.00  0.00     0.051 C 
BRANCH  39  40
HETATM   40  C   UNK     0      13.451  11.856  12.277  0.00  0.00     0.114 C 
BRANCH  40  41
HETATM   41  C   UNK     0      14.445  12.394  11.376  0.00  0.00     0.139 C 
HETATM   42  O   UNK     0      14.748  13.594  11.331  0.00  0.00    -0.650 OA
BRANCH  41  43
HETATM   43  O   UNK     0      15.121  11.512  10.487  0.00  0.00    -0.776 OA
HETATM   44  H   UNK     0      14.679  11.409   9.582  0.00  0.00     0.167 HD
ENDBRANCH  41  43
ENDBRANCH  40  41
ENDBRANCH  39  40
ENDBRANCH  27  39
BRANCH  11  45
HETATM   45  C   UNK     0      14.418   8.974   2.332  0.00  0.00     0.051 C 
BRANCH  45  46
HETATM   46  C   UNK     0      13.298   9.873   1.952  0.00  0.00     0.114 C 
BRANCH  46  47
HETATM   47  C   UNK     0      13.743  10.652   0.761  0.00  0.00     0.139 C 
HETATM   48  O   UNK     0      13.340  11.816   0.631  0.00  0.00    -0.650 OA
BRANCH  47  49
HETATM   49  O   UNK     0      14.579  10.093  -0.172  0.00  0.00    -0.776 OA
HETATM   50  H   UNK     0      15.550  10.406  -0.291  0.00  0.00     0.167 HD
ENDBRANCH  47  49
ENDBRANCH  46  47
ENDBRANCH  45  46
ENDBRANCH  11  45
BRANCH  18  51
HETATM   51  C   UNK     0      11.864  14.135   6.282  0.00  0.00     0.051 C 
BRANCH  51  52
HETATM   52  C   UNK     0      12.751  15.291   6.722  0.00  0.00     0.114 C 
BRANCH  52  53
HETATM   53  C   UNK     0      12.170  16.598   6.358  0.00  0.00     0.139 C 
HETATM   54  O   UNK     0      11.847  17.403   7.246  0.00  0.00    -0.650 OA
BRANCH  53  55
HETATM   55  O   UNK     0      11.987  16.916   5.034  0.00  0.00    -0.776 OA
HETATM   56  H   UNK     0      12.417  17.667   4.549  0.00  0.00     0.167 HD
ENDBRANCH  53  55
ENDBRANCH  52  53
ENDBRANCH  51  52
ENDBRANCH  18  51
TORSDOF 16
ENDMDL
MODEL 20
REMARK VINA RESULT:      -8.4     27.839     31.209
REMARK  16 active torsions:
REMARK  status: ('A' for Active; 'I' for Inactive)
REMARK    1  A    between atoms: C_6  and  C_7 
REMARK    2  A    between atoms: C_7  and  C_8 
REMARK    3  A    between atoms: C_8  and  C_9 
REMARK    4  A    between atoms: C_9  and  O_11 
REMARK    5  A    between atoms: C_16  and  C_17 
REMARK    6  A    between atoms: C_17  and  C_18 
REMARK    7  A    between atoms: C_18  and  C_19 
REMARK    8  A    between atoms: C_19  and  O_21 
REMARK    9  A    between atoms: C_28  and  C_29 
REMARK   10  A    between atoms: C_29  and  C_30 
REMARK   11  A    between atoms: C_30  and  C_31 
REMARK   12  A    between atoms: C_31  and  O_33 
REMARK   13  A    between atoms: C_42  and  C_43 
REMARK   14  A    between atoms: C_43  and  C_44 
REMARK   15  A    between atoms: C_44  and  C_45 
REMARK   16  A    between atoms: C_45  and  O_47 
ROOT
HETATM    1  C   UNK     0      15.722   4.100   6.218  0.00  0.00     0.051 C 
HETATM    2  C   UNK     0      14.924   5.264   5.669  0.00  0.00    -0.031 A 
HETATM    3  C   UNK     0      13.784   5.867   6.178  0.00  0.00     0.021 A 
HETATM    4  N   UNK     0      13.394   6.854   5.336  0.00  0.00    -0.361 N 
HETATM    5  C   UNK     0      14.265   6.899   4.308  0.00  0.00     0.022 A 
HETATM    6  C   UNK     0      15.234   5.916   4.483  0.00  0.00    -0.027 A 
HETATM    7  C   UNK     0      14.339   7.863   3.164  0.00  0.00     0.115 C 
HETATM    8  C   UNK     0      14.117   9.328   3.493  0.00  0.00     0.021 A 
HETATM    9  N   UNK     0      14.484  10.004   4.593  0.00  0.00    -0.361 N 
HETATM   10  C   UNK     0      13.998  11.259   4.496  0.00  0.00     0.022 A 
HETATM   11  C   UNK     0      13.308  11.400   3.295  0.00  0.00    -0.027 A 
HETATM   12  C   UNK     0      13.379  10.187   2.658  0.00  0.00    -0.031 A 
HETATM   13  C   UNK     0      12.771   9.870   1.310  0.00  0.00     0.051 C 
HETATM   14  C   UNK     0      14.119  12.357   5.549  0.00  0.00     0.115 C 
HETATM   15  C   UNK     0      13.468  12.009   6.878  0.00  0.00     0.021 A 
HETATM   16  N   UNK     0      13.746  10.964   7.680  0.00  0.00    -0.361 N 
HETATM   17  C   UNK     0      12.907  10.972   8.718  0.00  0.00     0.022 A 
HETATM   18  C   UNK     0      12.048  12.081   8.592  0.00  0.00    -0.027 A 
HETATM   19  C   UNK     0      12.410  12.723   7.436  0.00  0.00    -0.031 A 
HETATM   20  C   UNK     0      11.756  13.999   6.939  0.00  0.00     0.051 C 
HETATM   21  C   UNK     0      12.757   9.985   9.854  0.00  0.00     0.115 C 
HETATM   22  C   UNK     0      13.018   8.529   9.552  0.00  0.00     0.022 A 
HETATM   23  N   UNK     0      12.668   7.831   8.463  0.00  0.00    -0.361 N 
HETATM   24  C   UNK     0      13.229   6.608   8.546  0.00  0.00     0.021 A 
HETATM   25  C   UNK     0      13.948   6.511   9.722  0.00  0.00    -0.031 A 
HETATM   26  C   UNK     0      14.715   5.328  10.276  0.00  0.00     0.051 C 
HETATM   27  C   UNK     0      13.828   7.728  10.383  0.00  0.00    -0.027 A 
HETATM   28  C   UNK     0      13.195   5.498   7.510  0.00  0.00     0.115 C 
HETATM   29  H   UNK     0      12.483   7.486   5.455  0.00  0.00     0.165 HD
HETATM   30  H   UNK     0      15.128   9.612   5.418  0.00  0.00     0.165 HD
HETATM   31  H   UNK     0      14.583  10.231   7.536  0.00  0.00     0.165 HD
HETATM   32  H   UNK     0      11.986   8.182   7.645  0.00  0.00     0.165 HD
ENDROOT
BRANCH   6  33
HETATM   33  C   UNK     0      16.414   5.553   3.618  0.00  0.00     0.051 C 
BRANCH  33  34
HETATM   34  C   UNK     0      16.060   4.428   2.675  0.00  0.00     0.114 C 
BRANCH  34  35
HETATM   35  C   UNK     0      16.095   4.979   1.290  0.00  0.00     0.139 C 
HETATM   36  O   UNK     0      15.018   5.264   0.690  0.00  0.00    -0.650 OA
BRANCH  35  37
HETATM   37  O   UNK     0      17.282   5.204   0.603  0.00  0.00    -0.776 OA
HETATM   38  H   UNK     0      17.865   4.449   0.281  0.00  0.00     0.167 HD
ENDBRANCH  35  37
ENDBRANCH  34  35
ENDBRANCH  33  34
ENDBRANCH   6  33
BRANCH  27  39
HETATM   39  C   UNK     0      14.413   7.981  11.727  0.00  0.00     0.051 C 
BRANCH  39  40
HETATM   40  C   UNK     0      13.506   8.093  12.869  0.00  0.00     0.114 C 
BRANCH  40  41
HETATM   41  C   UNK     0      13.455   9.275  13.700  0.00  0.00     0.139 C 
HETATM   42  O   UNK     0      13.078   9.265  14.880  0.00  0.00    -0.650 OA
BRANCH  41  43
HETATM   43  O   UNK     0      13.854  10.525  13.149  0.00  0.00    -0.776 OA
HETATM   44  H   UNK     0      13.439  11.333  13.597  0.00  0.00     0.167 HD
ENDBRANCH  41  43
ENDBRANCH  40  41
ENDBRANCH  39  40
ENDBRANCH  27  39
BRANCH  11  45
HETATM   45  C   UNK     0      12.606  12.614   2.749  0.00  0.00     0.051 C 
BRANCH  45  46
HETATM   46  C   UNK     0      13.498  13.556   2.027  0.00  0.00     0.114 C 
BRANCH  46  47
HETATM   47  C   UNK     0      12.628  14.573   1.369  0.00  0.00     0.139 C 
HETATM   48  O   UNK     0      11.512  14.802   1.857  0.00  0.00    -0.650 OA
BRANCH  47  49
HETATM   49  O   UNK     0      13.050  15.239   0.247  0.00  0.00    -0.776 OA
HETATM   50  H   UNK     0      13.318  14.745  -0.612  0.00  0.00     0.167 HD
ENDBRANCH  47  49
ENDBRANCH  46  47
ENDBRANCH  45  46
ENDBRANCH  11  45
BRANCH  18  51
HETATM   51  C   UNK     0      10.955  12.518   9.533  0.00  0.00     0.051 C 
BRANCH  51  52
HETATM   52  C   UNK     0      11.510  13.702  10.310  0.00  0.00     0.114 C 
BRANCH  52  53
HETATM   53  C   UNK     0      12.320  13.271  11.465  0.00  0.00     0.139 C 
HETATM   54  O   UNK     0      13.538  13.512  11.495  0.00  0.00    -0.650 OA
BRANCH  53  55
HETATM   55  O   UNK     0      11.721  12.598  12.503  0.00  0.00    -0.776 OA
HETATM   56  H   UNK     0      10.948  11.980  12.429  0.00  0.00     0.167 HD
ENDBRANCH  53  55
ENDBRANCH  52  53
ENDBRANCH  51  52
ENDBRANCH  18  51
TORSDOF 16
ENDMDL
