MODEL 1
REMARK VINA RESULT:     -11.1      0.000      0.000
REMARK  16 active torsions:
REMARK  status: ('A' for Active; 'I' for Inactive)
REMARK    1  A    between atoms: C_6  and  C_7 
REMARK    2  A    between atoms: C_7  and  C_8 
REMARK    3  A    between atoms: C_8  and  C_9 
REMARK    4  A    between atoms: C_9  and  O_11 
REMARK    5  A    between atoms: C_16  and  C_17 
REMARK    6  A    between atoms: C_17  and  C_18 
REMARK    7  A    between atoms: C_18  and  C_19 
REMARK    8  A    between atoms: C_19  and  O_21 
REMARK    9  A    between atoms: C_28  and  C_29 
REMARK   10  A    between atoms: C_29  and  C_30 
REMARK   11  A    between atoms: C_30  and  C_31 
REMARK   12  A    between atoms: C_31  and  O_33 
REMARK   13  A    between atoms: C_42  and  C_43 
REMARK   14  A    between atoms: C_43  and  C_44 
REMARK   15  A    between atoms: C_44  and  C_45 
REMARK   16  A    between atoms: C_45  and  O_47 
ROOT
HETATM    1  C   UNK     0      13.597  19.856  -2.351  0.00  0.00     0.051 C 
HETATM    2  C   UNK     0      13.753  18.461  -2.922  0.00  0.00    -0.031 A 
HETATM    3  C   UNK     0      13.076  17.296  -2.595  0.00  0.00     0.021 A 
HETATM    4  N   UNK     0      13.566  16.278  -3.341  0.00  0.00    -0.361 N 
HETATM    5  C   UNK     0      14.534  16.769  -4.142  0.00  0.00     0.022 A 
HETATM    6  C   UNK     0      14.678  18.132  -3.904  0.00  0.00    -0.027 A 
HETATM    7  C   UNK     0      15.321  16.084  -5.215  0.00  0.00     0.115 C 
HETATM    8  C   UNK     0      14.551  15.154  -6.136  0.00  0.00     0.021 A 
HETATM    9  N   UNK     0      13.297  15.281  -6.596  0.00  0.00    -0.361 N 
HETATM   10  C   UNK     0      12.996  14.174  -7.306  0.00  0.00     0.022 A 
HETATM   11  C   UNK     0      14.090  13.313  -7.312  0.00  0.00    -0.027 A 
HETATM   12  C   UNK     0      15.073  13.924  -6.577  0.00  0.00    -0.031 A 
HETATM   13  C   UNK     0      16.450  13.356  -6.315  0.00  0.00     0.051 C 
HETATM   14  C   UNK     0      11.653  13.860  -7.961  0.00  0.00     0.115 C 
HETATM   15  C   UNK     0      10.496  13.771  -6.979  0.00  0.00     0.021 A 
HETATM   16  N   UNK     0      10.061  14.724  -6.134  0.00  0.00    -0.361 N 
HETATM   17  C   UNK     0       9.068  14.231  -5.391  0.00  0.00     0.022 A 
HETATM   18  C   UNK     0       8.838  12.895  -5.777  0.00  0.00    -0.027 A 
HETATM   19  C   UNK     0       9.738  12.620  -6.774  0.00  0.00    -0.031 A 
HETATM   20  C   UNK     0       9.810  11.291  -7.503  0.00  0.00     0.051 C 
HETATM   21  C   UNK     0       8.295  14.865  -4.256  0.00  0.00     0.115 C 
HETATM   22  C   UNK     0       9.037  15.827  -3.359  0.00  0.00     0.022 A 
HETATM   23  N   UNK     0      10.288  15.727  -2.889  0.00  0.00    -0.361 N 
HETATM   24  C   UNK     0      10.593  16.875  -2.250  0.00  0.00     0.021 A 
HETATM   25  C   UNK     0       9.509  17.730  -2.301  0.00  0.00    -0.031 A 
HETATM   26  C   UNK     0       9.354  19.110  -1.696  0.00  0.00     0.051 C 
HETATM   27  C   UNK     0       8.501  17.082  -3.006  0.00  0.00    -0.027 A 
HETATM   28  C   UNK     0      11.923  17.269  -1.632  0.00  0.00     0.115 C 
HETATM   29  H   UNK     0      13.252  15.210  -3.267  0.00  0.00     0.165 HD
HETATM   30  H   UNK     0      12.638  16.175  -6.462  0.00  0.00     0.165 HD
HETATM   31  H   UNK     0      10.430  15.782  -6.092  0.00  0.00     0.165 HD
HETATM   32  H   UNK     0      10.952  14.828  -2.967  0.00  0.00     0.165 HD
ENDROOT
BRANCH   6  33
HETATM   33  C   UNK     0      15.619  19.132  -4.528  0.00  0.00     0.051 C 
BRANCH  33  34
HETATM   34  C   UNK     0      15.153  19.511  -5.914  0.00  0.00     0.114 C 
BRANCH  34  35
HETATM   35  C   UNK     0      14.371  20.774  -5.792  0.00  0.00     0.139 C 
HETATM   36  O   UNK     0      14.930  21.832  -5.381  0.00  0.00    -0.650 OA
BRANCH  35  37
HETATM   37  O   UNK     0      13.023  20.855  -6.119  0.00  0.00    -0.776 OA
HETATM   38  H   UNK     0      12.299  20.797  -5.420  0.00  0.00     0.167 HD
ENDBRANCH  35  37
ENDBRANCH  34  35
ENDBRANCH  33  34
ENDBRANCH   6  33
BRANCH  27  39
HETATM   39  C   UNK     0       7.147  17.666  -3.206  0.00  0.00     0.051 C 
BRANCH  39  40
HETATM   40  C   UNK     0       6.583  18.493  -2.140  0.00  0.00     0.114 C 
BRANCH  40  41
HETATM   41  C   UNK     0       5.752  19.643  -2.414  0.00  0.00     0.139 C 
HETATM   42  O   UNK     0       4.836  20.018  -1.669  0.00  0.00    -0.650 OA
BRANCH  41  43
HETATM   43  O   UNK     0       5.983  20.396  -3.600  0.00  0.00    -0.776 OA
HETATM   44  H   UNK     0       5.142  20.720  -4.062  0.00  0.00     0.167 HD
ENDBRANCH  41  43
ENDBRANCH  40  41
ENDBRANCH  39  40
ENDBRANCH  27  39
BRANCH  11  45
HETATM   45  C   UNK     0      14.227  11.970  -7.977  0.00  0.00     0.051 C 
BRANCH  45  46
HETATM   46  C   UNK     0      14.575  10.866  -7.047  0.00  0.00     0.114 C 
BRANCH  46  47
HETATM   47  C   UNK     0      13.468   9.869  -7.111  0.00  0.00     0.139 C 
HETATM   48  O   UNK     0      13.516   8.985  -7.977  0.00  0.00    -0.650 OA
BRANCH  47  49
HETATM   49  O   UNK     0      12.417   9.929  -6.231  0.00  0.00    -0.776 OA
HETATM   50  H   UNK     0      12.396  10.596  -5.450  0.00  0.00     0.167 HD
ENDBRANCH  47  49
ENDBRANCH  46  47
ENDBRANCH  45  46
ENDBRANCH  11  45
BRANCH  18  51
HETATM   51  C   UNK     0       7.803  11.941  -5.241  0.00  0.00     0.051 C 
BRANCH  51  52
HETATM   52  C   UNK     0       6.533  12.197  -6.039  0.00  0.00     0.114 C 
BRANCH  52  53
HETATM   53  C   UNK     0       5.514  12.902  -5.238  0.00  0.00     0.139 C 
HETATM   54  O   UNK     0       4.508  13.376  -5.790  0.00  0.00    -0.650 OA
BRANCH  53  55
HETATM   55  O   UNK     0       5.686  13.031  -3.881  0.00  0.00    -0.776 OA
HETATM   56  H   UNK     0       5.091  13.530  -3.262  0.00  0.00     0.167 HD
ENDBRANCH  53  55
ENDBRANCH  52  53
ENDBRANCH  51  52
ENDBRANCH  18  51
TORSDOF 16
ENDMDL
MODEL 2
REMARK VINA RESULT:     -11.1     27.945     31.258
REMARK  16 active torsions:
REMARK  status: ('A' for Active; 'I' for Inactive)
REMARK    1  A    between atoms: C_6  and  C_7 
REMARK    2  A    between atoms: C_7  and  C_8 
REMARK    3  A    between atoms: C_8  and  C_9 
REMARK    4  A    between atoms: C_9  and  O_11 
REMARK    5  A    between atoms: C_16  and  C_17 
REMARK    6  A    between atoms: C_17  and  C_18 
REMARK    7  A    between atoms: C_18  and  C_19 
REMARK    8  A    between atoms: C_19  and  O_21 
REMARK    9  A    between atoms: C_28  and  C_29 
REMARK   10  A    between atoms: C_29  and  C_30 
REMARK   11  A    between atoms: C_30  and  C_31 
REMARK   12  A    between atoms: C_31  and  O_33 
REMARK   13  A    between atoms: C_42  and  C_43 
REMARK   14  A    between atoms: C_43  and  C_44 
REMARK   15  A    between atoms: C_44  and  C_45 
REMARK   16  A    between atoms: C_45  and  O_47 
ROOT
HETATM    1  C   UNK     0       8.759 -11.758  13.798  0.00  0.00     0.051 C 
HETATM    2  C   UNK     0       7.353 -11.195  13.758  0.00  0.00    -0.031 A 
HETATM    3  C   UNK     0       6.681 -10.437  14.704  0.00  0.00     0.021 A 
HETATM    4  N   UNK     0       5.429 -10.182  14.257  0.00  0.00    -0.361 N 
HETATM    5  C   UNK     0       5.290 -10.754  13.043  0.00  0.00     0.022 A 
HETATM    6  C   UNK     0       6.474 -11.399  12.702  0.00  0.00    -0.027 A 
HETATM    7  C   UNK     0       4.140 -10.692  12.087  0.00  0.00     0.115 C 
HETATM    8  C   UNK     0       3.475  -9.338  11.908  0.00  0.00     0.021 A 
HETATM    9  N   UNK     0       4.041  -8.121  11.914  0.00  0.00    -0.361 N 
HETATM   10  C   UNK     0       3.059  -7.202  11.812  0.00  0.00     0.022 A 
HETATM   11  C   UNK     0       1.827  -7.844  11.728  0.00  0.00    -0.027 A 
HETATM   12  C   UNK     0       2.082  -9.190  11.788  0.00  0.00    -0.031 A 
HETATM   13  C   UNK     0       1.037 -10.282  11.727  0.00  0.00     0.051 C 
HETATM   14  C   UNK     0       3.236  -5.686  11.843  0.00  0.00     0.115 C 
HETATM   15  C   UNK     0       3.846  -5.164  13.133  0.00  0.00     0.021 A 
HETATM   16  N   UNK     0       5.036  -5.491  13.670  0.00  0.00    -0.361 N 
HETATM   17  C   UNK     0       5.173  -4.870  14.844  0.00  0.00     0.022 A 
HETATM   18  C   UNK     0       4.022  -4.093  15.078  0.00  0.00    -0.027 A 
HETATM   19  C   UNK     0       3.199  -4.284  13.999  0.00  0.00    -0.031 A 
HETATM   20  C   UNK     0       1.856  -3.597  13.828  0.00  0.00     0.051 C 
HETATM   21  C   UNK     0       6.284  -4.957  15.866  0.00  0.00     0.115 C 
HETATM   22  C   UNK     0       6.984  -6.287  16.023  0.00  0.00     0.022 A 
HETATM   23  N   UNK     0       6.447  -7.513  16.017  0.00  0.00    -0.361 N 
HETATM   24  C   UNK     0       7.449  -8.415  16.041  0.00  0.00     0.021 A 
HETATM   25  C   UNK     0       8.661  -7.753  16.074  0.00  0.00    -0.031 A 
HETATM   26  C   UNK     0      10.060  -8.328  16.149  0.00  0.00     0.051 C 
HETATM   27  C   UNK     0       8.389  -6.389  16.064  0.00  0.00    -0.027 A 
HETATM   28  C   UNK     0       7.341  -9.928  15.954  0.00  0.00     0.115 C 
HETATM   29  H   UNK     0       4.638  -9.633  14.819  0.00  0.00     0.165 HD
HETATM   30  H   UNK     0       5.138  -7.910  11.940  0.00  0.00     0.165 HD
HETATM   31  H   UNK     0       5.817  -6.137  13.190  0.00  0.00     0.165 HD
HETATM   32  H   UNK     0       5.352  -7.755  16.039  0.00  0.00     0.165 HD
ENDROOT
BRANCH   6  33
HETATM   33  C   UNK     0       6.829 -12.186  11.465  0.00  0.00     0.051 C 
BRANCH  33  34
HETATM   34  C   UNK     0       7.676 -11.357  10.529  0.00  0.00     0.114 C 
BRANCH  34  35
HETATM   35  C   UNK     0       8.895 -12.154  10.207  0.00  0.00     0.139 C 
HETATM   36  O   UNK     0       8.945 -13.386  10.493  0.00  0.00    -0.650 OA
BRANCH  35  37
HETATM   37  O   UNK     0      10.011 -11.601   9.591  0.00  0.00    -0.776 OA
HETATM   38  H   UNK     0       9.934 -10.862   8.911  0.00  0.00     0.167 HD
ENDBRANCH  35  37
ENDBRANCH  34  35
ENDBRANCH  33  34
ENDBRANCH   6  33
BRANCH  27  39
HETATM   39  C   UNK     0       9.450  -5.351  16.163  0.00  0.00     0.051 C 
BRANCH  39  40
HETATM   40  C   UNK     0       9.722  -4.758  17.473  0.00  0.00     0.114 C 
BRANCH  40  41
HETATM   41  C   UNK     0       8.717  -4.689  18.510  0.00  0.00     0.139 C 
HETATM   42  O   UNK     0       7.989  -3.703  18.692  0.00  0.00    -0.650 OA
BRANCH  41  43
HETATM   43  O   UNK     0       8.541  -5.804  19.377  0.00  0.00    -0.776 OA
HETATM   44  H   UNK     0       8.756  -6.700  18.957  0.00  0.00     0.167 HD
ENDBRANCH  41  43
ENDBRANCH  40  41
ENDBRANCH  39  40
ENDBRANCH  27  39
BRANCH  11  45
HETATM   45  C   UNK     0       0.456  -7.237  11.594  0.00  0.00     0.051 C 
BRANCH  45  46
HETATM   46  C   UNK     0      -0.312  -7.188  12.865  0.00  0.00     0.114 C 
BRANCH  46  47
HETATM   47  C   UNK     0      -0.888  -5.818  12.980  0.00  0.00     0.139 C 
HETATM   48  O   UNK     0      -1.475  -5.508  14.026  0.00  0.00    -0.650 OA
BRANCH  47  49
HETATM   49  O   UNK     0      -0.773  -4.918  11.950  0.00  0.00    -0.776 OA
HETATM   50  H   UNK     0      -0.053  -5.010  11.224  0.00  0.00     0.167 HD
ENDBRANCH  47  49
ENDBRANCH  46  47
ENDBRANCH  45  46
ENDBRANCH  11  45
BRANCH  18  51
HETATM   51  C   UNK     0       3.731  -3.199  16.256  0.00  0.00     0.051 C 
BRANCH  51  52
HETATM   52  C   UNK     0       4.365  -1.854  15.937  0.00  0.00     0.114 C 
BRANCH  52  53
HETATM   53  C   UNK     0       3.362  -0.773  15.882  0.00  0.00     0.139 C 
HETATM   54  O   UNK     0       2.831  -0.471  14.801  0.00  0.00    -0.650 OA
BRANCH  53  55
HETATM   55  O   UNK     0       3.023  -0.101  17.032  0.00  0.00    -0.776 OA
HETATM   56  H   UNK     0       3.210   0.855  17.226  0.00  0.00     0.167 HD
ENDBRANCH  53  55
ENDBRANCH  52  53
ENDBRANCH  51  52
ENDBRANCH  18  51
TORSDOF 16
ENDMDL
MODEL 3
REMARK VINA RESULT:     -10.8      2.220      7.205
REMARK  16 active torsions:
REMARK  status: ('A' for Active; 'I' for Inactive)
REMARK    1  A    between atoms: C_6  and  C_7 
REMARK    2  A    between atoms: C_7  and  C_8 
REMARK    3  A    between atoms: C_8  and  C_9 
REMARK    4  A    between atoms: C_9  and  O_11 
REMARK    5  A    between atoms: C_16  and  C_17 
REMARK    6  A    between atoms: C_17  and  C_18 
REMARK    7  A    between atoms: C_18  and  C_19 
REMARK    8  A    between atoms: C_19  and  O_21 
REMARK    9  A    between atoms: C_28  and  C_29 
REMARK   10  A    between atoms: C_29  and  C_30 
REMARK   11  A    between atoms: C_30  and  C_31 
REMARK   12  A    between atoms: C_31  and  O_33 
REMARK   13  A    between atoms: C_42  and  C_43 
REMARK   14  A    between atoms: C_43  and  C_44 
REMARK   15  A    between atoms: C_44  and  C_45 
REMARK   16  A    between atoms: C_45  and  O_47 
ROOT
HETATM    1  C   UNK     0      12.032  10.824  -7.427  0.00  0.00     0.051 C 
HETATM    2  C   UNK     0      12.697  12.154  -7.136  0.00  0.00    -0.031 A 
HETATM    3  C   UNK     0      12.169  13.434  -7.199  0.00  0.00     0.021 A 
HETATM    4  N   UNK     0      13.137  14.327  -6.884  0.00  0.00    -0.361 N 
HETATM    5  C   UNK     0      14.268  13.643  -6.613  0.00  0.00     0.022 A 
HETATM    6  C   UNK     0      14.029  12.281  -6.764  0.00  0.00    -0.027 A 
HETATM    7  C   UNK     0      15.592  14.147  -6.127  0.00  0.00     0.115 C 
HETATM    8  C   UNK     0      15.560  15.205  -5.039  0.00  0.00     0.021 A 
HETATM    9  N   UNK     0      14.699  15.329  -4.017  0.00  0.00    -0.361 N 
HETATM   10  C   UNK     0      14.994  16.468  -3.356  0.00  0.00     0.022 A 
HETATM   11  C   UNK     0      16.081  17.091  -3.963  0.00  0.00    -0.027 A 
HETATM   12  C   UNK     0      16.442  16.300  -5.024  0.00  0.00    -0.031 A 
HETATM   13  C   UNK     0      17.585  16.582  -5.974  0.00  0.00     0.051 C 
HETATM   14  C   UNK     0      14.233  17.041  -2.163  0.00  0.00     0.115 C 
HETATM   15  C   UNK     0      12.779  17.369  -2.461  0.00  0.00     0.021 A 
HETATM   16  N   UNK     0      11.820  16.531  -2.895  0.00  0.00    -0.361 N 
HETATM   17  C   UNK     0      10.696  17.220  -3.103  0.00  0.00     0.022 A 
HETATM   18  C   UNK     0      10.931  18.571  -2.779  0.00  0.00    -0.027 A 
HETATM   19  C   UNK     0      12.239  18.651  -2.377  0.00  0.00    -0.031 A 
HETATM   20  C   UNK     0      12.899  19.933  -1.902  0.00  0.00     0.051 C 
HETATM   21  C   UNK     0       9.363  16.765  -3.653  0.00  0.00     0.115 C 
HETATM   22  C   UNK     0       9.377  15.680  -4.705  0.00  0.00     0.022 A 
HETATM   23  N   UNK     0      10.225  15.530  -5.731  0.00  0.00    -0.361 N 
HETATM   24  C   UNK     0       9.962  14.350  -6.328  0.00  0.00     0.021 A 
HETATM   25  C   UNK     0       8.913  13.730  -5.677  0.00  0.00    -0.031 A 
HETATM   26  C   UNK     0       8.235  12.415  -6.000  0.00  0.00     0.051 C 
HETATM   27  C   UNK     0       8.522  14.562  -4.635  0.00  0.00    -0.027 A 
HETATM   28  C   UNK     0      10.717  13.701  -7.476  0.00  0.00     0.115 C 
HETATM   29  H   UNK     0      13.025  15.436  -6.893  0.00  0.00     0.165 HD
HETATM   30  H   UNK     0      13.913  14.588  -3.730  0.00  0.00     0.165 HD
HETATM   31  H   UNK     0      11.923  15.421  -3.013  0.00  0.00     0.165 HD
HETATM   32  H   UNK     0      10.990  16.277  -6.070  0.00  0.00     0.165 HD
ENDROOT
BRANCH   6  33
HETATM   33  C   UNK     0      14.959  11.108  -6.587  0.00  0.00     0.051 C 
BRANCH  33  34
HETATM   34  C   UNK     0      15.754  10.859  -7.846  0.00  0.00     0.114 C 
BRANCH  34  35
HETATM   35  C   UNK     0      17.193  11.062  -7.513  0.00  0.00     0.139 C 
HETATM   36  O   UNK     0      17.824  10.184  -6.855  0.00  0.00    -0.650 OA
BRANCH  35  37
HETATM   37  O   UNK     0      17.900  12.194  -7.900  0.00  0.00    -0.776 OA
HETATM   38  H   UNK     0      18.246  12.314  -8.838  0.00  0.00     0.167 HD
ENDBRANCH  35  37
ENDBRANCH  34  35
ENDBRANCH  33  34
ENDBRANCH   6  33
BRANCH  27  39
HETATM   39  C   UNK     0       7.365  14.261  -3.748  0.00  0.00     0.051 C 
BRANCH  39  40
HETATM   40  C   UNK     0       6.050  14.779  -4.122  0.00  0.00     0.114 C 
BRANCH  40  41
HETATM   41  C   UNK     0       4.988  13.918  -4.592  0.00  0.00     0.139 C 
HETATM   42  O   UNK     0       3.935  13.728  -3.968  0.00  0.00    -0.650 OA
BRANCH  41  43
HETATM   43  O   UNK     0       5.144  13.244  -5.837  0.00  0.00    -0.776 OA
HETATM   44  H   UNK     0       4.968  12.247  -5.798  0.00  0.00     0.167 HD
ENDBRANCH  41  43
ENDBRANCH  40  41
ENDBRANCH  39  40
ENDBRANCH  27  39
BRANCH  11  45
HETATM   45  C   UNK     0      16.768  18.373  -3.577  0.00  0.00     0.051 C 
BRANCH  45  46
HETATM   46  C   UNK     0      17.989  18.182  -2.753  0.00  0.00     0.114 C 
BRANCH  46  47
HETATM   47  C   UNK     0      17.621  18.483  -1.340  0.00  0.00     0.139 C 
HETATM   48  O   UNK     0      17.696  19.655  -0.945  0.00  0.00    -0.650 OA
BRANCH  47  49
HETATM   49  O   UNK     0      17.208  17.485  -0.494  0.00  0.00    -0.776 OA
HETATM   50  H   UNK     0      17.869  16.949   0.080  0.00  0.00     0.167 HD
ENDBRANCH  47  49
ENDBRANCH  46  47
ENDBRANCH  45  46
ENDBRANCH  11  45
BRANCH  18  51
HETATM   51  C   UNK     0       9.957  19.720  -2.829  0.00  0.00     0.051 C 
BRANCH  51  52
HETATM   52  C   UNK     0       9.162  19.661  -1.533  0.00  0.00     0.114 C 
BRANCH  52  53
HETATM   53  C   UNK     0       7.738  19.983  -1.747  0.00  0.00     0.139 C 
HETATM   54  O   UNK     0       7.410  20.800  -2.623  0.00  0.00    -0.650 OA
BRANCH  53  55
HETATM   55  O   UNK     0       6.780  19.378  -0.970  0.00  0.00    -0.776 OA
HETATM   56  H   UNK     0       6.468  18.439  -1.054  0.00  0.00     0.167 HD
ENDBRANCH  53  55
ENDBRANCH  52  53
ENDBRANCH  51  52
ENDBRANCH  18  51
TORSDOF 16
ENDMDL
MODEL 4
REMARK VINA RESULT:     -10.7      1.475      7.207
REMARK  16 active torsions:
REMARK  status: ('A' for Active; 'I' for Inactive)
REMARK    1  A    between atoms: C_6  and  C_7 
REMARK    2  A    between atoms: C_7  and  C_8 
REMARK    3  A    between atoms: C_8  and  C_9 
REMARK    4  A    between atoms: C_9  and  O_11 
REMARK    5  A    between atoms: C_16  and  C_17 
REMARK    6  A    between atoms: C_17  and  C_18 
REMARK    7  A    between atoms: C_18  and  C_19 
REMARK    8  A    between atoms: C_19  and  O_21 
REMARK    9  A    between atoms: C_28  and  C_29 
REMARK   10  A    between atoms: C_29  and  C_30 
REMARK   11  A    between atoms: C_30  and  C_31 
REMARK   12  A    between atoms: C_31  and  O_33 
REMARK   13  A    between atoms: C_42  and  C_43 
REMARK   14  A    between atoms: C_43  and  C_44 
REMARK   15  A    between atoms: C_44  and  C_45 
REMARK   16  A    between atoms: C_45  and  O_47 
ROOT
HETATM    1  C   UNK     0      14.259  11.012  -7.803  0.00  0.00     0.051 C 
HETATM    2  C   UNK     0      14.245  12.435  -7.282  0.00  0.00    -0.031 A 
HETATM    3  C   UNK     0      13.286  13.422  -7.445  0.00  0.00     0.021 A 
HETATM    4  N   UNK     0      13.707  14.553  -6.830  0.00  0.00    -0.361 N 
HETATM    5  C   UNK     0      14.910  14.305  -6.272  0.00  0.00     0.022 A 
HETATM    6  C   UNK     0      15.278  12.990  -6.537  0.00  0.00    -0.027 A 
HETATM    7  C   UNK     0      15.757  15.185  -5.406  0.00  0.00     0.115 C 
HETATM    8  C   UNK     0      15.036  15.983  -4.333  0.00  0.00     0.021 A 
HETATM    9  N   UNK     0      13.972  15.625  -3.599  0.00  0.00    -0.361 N 
HETATM   10  C   UNK     0      13.614  16.681  -2.838  0.00  0.00     0.022 A 
HETATM   11  C   UNK     0      14.478  17.745  -3.081  0.00  0.00    -0.027 A 
HETATM   12  C   UNK     0      15.377  17.311  -4.022  0.00  0.00    -0.031 A 
HETATM   13  C   UNK     0      16.511  18.134  -4.592  0.00  0.00     0.051 C 
HETATM   14  C   UNK     0      12.417  16.747  -1.894  0.00  0.00     0.115 C 
HETATM   15  C   UNK     0      11.076  16.554  -2.585  0.00  0.00     0.021 A 
HETATM   16  N   UNK     0      10.671  15.494  -3.309  0.00  0.00    -0.361 N 
HETATM   17  C   UNK     0       9.457  15.741  -3.805  0.00  0.00     0.022 A 
HETATM   18  C   UNK     0       9.047  17.018  -3.375  0.00  0.00    -0.027 A 
HETATM   19  C   UNK     0      10.070  17.517  -2.611  0.00  0.00    -0.031 A 
HETATM   20  C   UNK     0      10.025  18.866  -1.917  0.00  0.00     0.051 C 
HETATM   21  C   UNK     0       8.599  14.911  -4.733  0.00  0.00     0.115 C 
HETATM   22  C   UNK     0       9.305  14.078  -5.777  0.00  0.00     0.022 A 
HETATM   23  N   UNK     0      10.370  14.406  -6.520  0.00  0.00    -0.361 N 
HETATM   24  C   UNK     0      10.756  13.315  -7.212  0.00  0.00     0.021 A 
HETATM   25  C   UNK     0       9.913  12.262  -6.916  0.00  0.00    -0.031 A 
HETATM   26  C   UNK     0       9.917  10.852  -7.470  0.00  0.00     0.051 C 
HETATM   27  C   UNK     0       8.976  12.725  -5.999  0.00  0.00    -0.027 A 
HETATM   28  C   UNK     0      11.967  13.170  -8.118  0.00  0.00     0.115 C 
HETATM   29  H   UNK     0      13.170  15.530  -6.829  0.00  0.00     0.165 HD
HETATM   30  H   UNK     0      13.500  14.612  -3.579  0.00  0.00     0.165 HD
HETATM   31  H   UNK     0      11.233  14.532  -3.434  0.00  0.00     0.165 HD
HETATM   32  H   UNK     0      10.833  15.424  -6.596  0.00  0.00     0.165 HD
ENDROOT
BRANCH   6  33
HETATM   33  C   UNK     0      16.520  12.232  -6.145  0.00  0.00     0.051 C 
BRANCH  33  34
HETATM   34  C   UNK     0      16.494  11.887  -4.675  0.00  0.00     0.114 C 
BRANCH  34  35
HETATM   35  C   UNK     0      17.143  10.553  -4.518  0.00  0.00     0.139 C 
HETATM   36  O   UNK     0      17.670   9.980  -5.516  0.00  0.00    -0.650 OA
BRANCH  35  37
HETATM   37  O   UNK     0      17.203   9.888  -3.300  0.00  0.00    -0.776 OA
HETATM   38  H   UNK     0      17.469  10.355  -2.448  0.00  0.00     0.167 HD
ENDBRANCH  35  37
ENDBRANCH  34  35
ENDBRANCH  33  34
ENDBRANCH   6  33
BRANCH  27  39
HETATM   39  C   UNK     0       7.853  11.889  -5.495  0.00  0.00     0.051 C 
BRANCH  39  40
HETATM   40  C   UNK     0       6.485  12.325  -5.772  0.00  0.00     0.114 C 
BRANCH  40  41
HETATM   41  C   UNK     0       5.631  12.881  -4.746  0.00  0.00     0.139 C 
HETATM   42  O   UNK     0       4.466  13.247  -4.951  0.00  0.00    -0.650 OA
BRANCH  41  43
HETATM   43  O   UNK     0       6.140  13.022  -3.424  0.00  0.00    -0.776 OA
HETATM   44  H   UNK     0       5.498  12.736  -2.695  0.00  0.00     0.167 HD
ENDBRANCH  41  43
ENDBRANCH  40  41
ENDBRANCH  39  40
ENDBRANCH  27  39
BRANCH  11  45
HETATM   45  C   UNK     0      14.479  19.118  -2.465  0.00  0.00     0.051 C 
BRANCH  45  46
HETATM   46  C   UNK     0      13.335  19.969  -2.880  0.00  0.00     0.114 C 
BRANCH  46  47
HETATM   47  C   UNK     0      13.560  20.349  -4.304  0.00  0.00     0.139 C 
HETATM   48  O   UNK     0      14.494  21.119  -4.571  0.00  0.00    -0.650 OA
BRANCH  47  49
HETATM   49  O   UNK     0      12.753  19.858  -5.298  0.00  0.00    -0.776 OA
HETATM   50  H   UNK     0      13.097  19.196  -6.003  0.00  0.00     0.167 HD
ENDBRANCH  47  49
ENDBRANCH  46  47
ENDBRANCH  45  46
ENDBRANCH  11  45
BRANCH  18  51
HETATM   51  C   UNK     0       7.743  17.718  -3.660  0.00  0.00     0.051 C 
BRANCH  51  52
HETATM   52  C   UNK     0       6.967  17.722  -2.351  0.00  0.00     0.114 C 
BRANCH  52  53
HETATM   53  C   UNK     0       6.418  19.057  -2.043  0.00  0.00     0.139 C 
HETATM   54  O   UNK     0       6.345  19.920  -2.932  0.00  0.00    -0.650 OA
BRANCH  53  55
HETATM   55  O   UNK     0       5.991  19.338  -0.768  0.00  0.00    -0.776 OA
HETATM   56  H   UNK     0       6.570  19.440   0.032  0.00  0.00     0.167 HD
ENDBRANCH  53  55
ENDBRANCH  52  53
ENDBRANCH  51  52
ENDBRANCH  18  51
TORSDOF 16
ENDMDL
MODEL 5
REMARK VINA RESULT:     -10.5      4.291      9.293
REMARK  16 active torsions:
REMARK  status: ('A' for Active; 'I' for Inactive)
REMARK    1  A    between atoms: C_6  and  C_7 
REMARK    2  A    between atoms: C_7  and  C_8 
REMARK    3  A    between atoms: C_8  and  C_9 
REMARK    4  A    between atoms: C_9  and  O_11 
REMARK    5  A    between atoms: C_16  and  C_17 
REMARK    6  A    between atoms: C_17  and  C_18 
REMARK    7  A    between atoms: C_18  and  C_19 
REMARK    8  A    between atoms: C_19  and  O_21 
REMARK    9  A    between atoms: C_28  and  C_29 
REMARK   10  A    between atoms: C_29  and  C_30 
REMARK   11  A    between atoms: C_30  and  C_31 
REMARK   12  A    between atoms: C_31  and  O_33 
REMARK   13  A    between atoms: C_42  and  C_43 
REMARK   14  A    between atoms: C_43  and  C_44 
REMARK   15  A    between atoms: C_44  and  C_45 
REMARK   16  A    between atoms: C_45  and  O_47 
ROOT
HETATM    1  C   UNK     0      11.319  18.200  -4.167  0.00  0.00     0.051 C 
HETATM    2  C   UNK     0      12.768  18.078  -3.740  0.00  0.00    -0.031 A 
HETATM    3  C   UNK     0      13.506  16.943  -3.446  0.00  0.00     0.021 A 
HETATM    4  N   UNK     0      14.756  17.312  -3.078  0.00  0.00    -0.361 N 
HETATM    5  C   UNK     0      14.833  18.658  -3.139  0.00  0.00     0.022 A 
HETATM    6  C   UNK     0      13.605  19.169  -3.547  0.00  0.00    -0.027 A 
HETATM    7  C   UNK     0      16.011  19.555  -2.924  0.00  0.00     0.115 C 
HETATM    8  C   UNK     0      17.329  19.106  -3.532  0.00  0.00     0.021 A 
HETATM    9  N   UNK     0      17.539  18.461  -4.689  0.00  0.00    -0.361 N 
HETATM   10  C   UNK     0      18.857  18.183  -4.781  0.00  0.00     0.022 A 
HETATM   11  C   UNK     0      19.515  18.672  -3.656  0.00  0.00    -0.027 A 
HETATM   12  C   UNK     0      18.558  19.255  -2.865  0.00  0.00    -0.031 A 
HETATM   13  C   UNK     0      18.815  19.928  -1.535  0.00  0.00     0.051 C 
HETATM   14  C   UNK     0      19.538  17.403  -5.902  0.00  0.00     0.115 C 
HETATM   15  C   UNK     0      19.037  15.976  -6.051  0.00  0.00     0.021 A 
HETATM   16  N   UNK     0      17.777  15.569  -6.293  0.00  0.00    -0.361 N 
HETATM   17  C   UNK     0      17.738  14.234  -6.282  0.00  0.00     0.022 A 
HETATM   18  C   UNK     0      19.036  13.749  -6.031  0.00  0.00    -0.027 A 
HETATM   19  C   UNK     0      19.841  14.849  -5.889  0.00  0.00    -0.031 A 
HETATM   20  C   UNK     0      21.336  14.775  -5.641  0.00  0.00     0.051 C 
HETATM   21  C   UNK     0      16.562  13.296  -6.429  0.00  0.00     0.115 C 
HETATM   22  C   UNK     0      15.234  13.748  -5.868  0.00  0.00     0.022 A 
HETATM   23  N   UNK     0      14.995  14.396  -4.720  0.00  0.00    -0.361 N 
HETATM   24  C   UNK     0      13.690  14.731  -4.687  0.00  0.00     0.021 A 
HETATM   25  C   UNK     0      13.070  14.278  -5.836  0.00  0.00    -0.031 A 
HETATM   26  C   UNK     0      11.613  14.375  -6.235  0.00  0.00     0.051 C 
HETATM   27  C   UNK     0      14.038  13.645  -6.607  0.00  0.00    -0.027 A 
HETATM   28  C   UNK     0      12.968  15.553  -3.633  0.00  0.00     0.115 C 
HETATM   29  H   UNK     0      15.563  16.622  -2.740  0.00  0.00     0.165 HD
HETATM   30  H   UNK     0      16.767  18.243  -5.467  0.00  0.00     0.165 HD
HETATM   31  H   UNK     0      16.906  16.235  -6.524  0.00  0.00     0.165 HD
HETATM   32  H   UNK     0      15.738  14.586  -3.903  0.00  0.00     0.165 HD
ENDROOT
BRANCH   6  33
HETATM   33  C   UNK     0      13.173  20.598  -3.763  0.00  0.00     0.051 C 
BRANCH  33  34
HETATM   34  C   UNK     0      13.204  20.951  -5.231  0.00  0.00     0.114 C 
BRANCH  34  35
HETATM   35  C   UNK     0      14.621  21.251  -5.588  0.00  0.00     0.139 C 
HETATM   36  O   UNK     0      15.304  20.412  -6.243  0.00  0.00    -0.650 OA
BRANCH  35  37
HETATM   37  O   UNK     0      15.248  22.439  -5.231  0.00  0.00    -0.776 OA
HETATM   38  H   UNK     0      14.799  23.125  -4.646  0.00  0.00     0.167 HD
ENDBRANCH  35  37
ENDBRANCH  34  35
ENDBRANCH  33  34
ENDBRANCH   6  33
BRANCH  27  39
HETATM   39  C   UNK     0      13.731  12.963  -7.894  0.00  0.00     0.051 C 
BRANCH  39  40
HETATM   40  C   UNK     0      14.017  11.533  -8.007  0.00  0.00     0.114 C 
BRANCH  40  41
HETATM   41  C   UNK     0      14.968  11.011  -8.963  0.00  0.00     0.139 C 
HETATM   42  O   UNK     0      14.825  11.102 -10.189  0.00  0.00    -0.650 OA
BRANCH  41  43
HETATM   43  O   UNK     0      16.137  10.354  -8.485  0.00  0.00    -0.776 OA
HETATM   44  H   UNK     0      17.002  10.848  -8.670  0.00  0.00     0.167 HD
ENDBRANCH  41  43
ENDBRANCH  40  41
ENDBRANCH  39  40
ENDBRANCH  27  39
BRANCH  11  45
HETATM   45  C   UNK     0      20.981  18.608  -3.320  0.00  0.00     0.051 C 
BRANCH  45  46
HETATM   46  C   UNK     0      21.266  18.507  -1.866  0.00  0.00     0.114 C 
BRANCH  46  47
HETATM   47  C   UNK     0      22.538  17.743  -1.717  0.00  0.00     0.139 C 
HETATM   48  O   UNK     0      23.095  17.316  -2.738  0.00  0.00    -0.650 OA
BRANCH  47  49
HETATM   49  O   UNK     0      23.080  17.516  -0.478  0.00  0.00    -0.776 OA
HETATM   50  H   UNK     0      22.812  16.707   0.095  0.00  0.00     0.167 HD
ENDBRANCH  47  49
ENDBRANCH  46  47
ENDBRANCH  45  46
ENDBRANCH  11  45
BRANCH  18  51
HETATM   51  C   UNK     0      19.489  12.314  -5.951  0.00  0.00     0.051 C 
BRANCH  51  52
HETATM   52  C   UNK     0      19.438  11.771  -7.371  0.00  0.00     0.114 C 
BRANCH  52  53
HETATM   53  C   UNK     0      20.419  12.437  -8.250  0.00  0.00     0.139 C 
HETATM   54  O   UNK     0      21.631  12.206  -8.114  0.00  0.00    -0.650 OA
BRANCH  53  55
HETATM   55  O   UNK     0      19.984  13.313  -9.214  0.00  0.00    -0.776 OA
HETATM   56  H   UNK     0      19.086  13.315  -9.638  0.00  0.00     0.167 HD
ENDBRANCH  53  55
ENDBRANCH  52  53
ENDBRANCH  51  52
ENDBRANCH  18  51
TORSDOF 16
ENDMDL
MODEL 6
REMARK VINA RESULT:     -10.5      2.310      5.401
REMARK  16 active torsions:
REMARK  status: ('A' for Active; 'I' for Inactive)
REMARK    1  A    between atoms: C_6  and  C_7 
REMARK    2  A    between atoms: C_7  and  C_8 
REMARK    3  A    between atoms: C_8  and  C_9 
REMARK    4  A    between atoms: C_9  and  O_11 
REMARK    5  A    between atoms: C_16  and  C_17 
REMARK    6  A    between atoms: C_17  and  C_18 
REMARK    7  A    between atoms: C_18  and  C_19 
REMARK    8  A    between atoms: C_19  and  O_21 
REMARK    9  A    between atoms: C_28  and  C_29 
REMARK   10  A    between atoms: C_29  and  C_30 
REMARK   11  A    between atoms: C_30  and  C_31 
REMARK   12  A    between atoms: C_31  and  O_33 
REMARK   13  A    between atoms: C_42  and  C_43 
REMARK   14  A    between atoms: C_43  and  C_44 
REMARK   15  A    between atoms: C_44  and  C_45 
REMARK   16  A    between atoms: C_45  and  O_47 
ROOT
HETATM    1  C   UNK     0      17.537  16.923  -4.586  0.00  0.00     0.051 C 
HETATM    2  C   UNK     0      16.352  15.980  -4.612  0.00  0.00    -0.031 A 
HETATM    3  C   UNK     0      15.348  15.802  -3.674  0.00  0.00     0.021 A 
HETATM    4  N   UNK     0      14.513  14.826  -4.101  0.00  0.00    -0.361 N 
HETATM    5  C   UNK     0      14.957  14.384  -5.295  0.00  0.00     0.022 A 
HETATM    6  C   UNK     0      16.108  15.082  -5.644  0.00  0.00    -0.027 A 
HETATM    7  C   UNK     0      14.346  13.385  -6.228  0.00  0.00     0.115 C 
HETATM    8  C   UNK     0      12.844  13.472  -6.430  0.00  0.00     0.021 A 
HETATM    9  N   UNK     0      12.067  14.566  -6.470  0.00  0.00    -0.361 N 
HETATM   10  C   UNK     0      10.783  14.164  -6.576  0.00  0.00     0.022 A 
HETATM   11  C   UNK     0      10.731  12.774  -6.616  0.00  0.00    -0.027 A 
HETATM   12  C   UNK     0      12.026  12.331  -6.525  0.00  0.00    -0.031 A 
HETATM   13  C   UNK     0      12.457  10.882  -6.533  0.00  0.00     0.051 C 
HETATM   14  C   UNK     0       9.554  15.069  -6.591  0.00  0.00     0.115 C 
HETATM   15  C   UNK     0       9.385  15.899  -5.328  0.00  0.00     0.021 A 
HETATM   16  N   UNK     0      10.252  16.787  -4.808  0.00  0.00    -0.361 N 
HETATM   17  C   UNK     0       9.764  17.252  -3.655  0.00  0.00     0.022 A 
HETATM   18  C   UNK     0       8.515  16.643  -3.418  0.00  0.00    -0.027 A 
HETATM   19  C   UNK     0       8.289  15.799  -4.474  0.00  0.00    -0.031 A 
HETATM   20  C   UNK     0       7.029  14.968  -4.634  0.00  0.00     0.051 C 
HETATM   21  C   UNK     0      10.377  18.206  -2.655  0.00  0.00     0.115 C 
HETATM   22  C   UNK     0      11.876  18.161  -2.476  0.00  0.00     0.022 A 
HETATM   23  N   UNK     0      12.675  17.087  -2.437  0.00  0.00    -0.361 N 
HETATM   24  C   UNK     0      13.955  17.512  -2.409  0.00  0.00     0.021 A 
HETATM   25  C   UNK     0      13.979  18.893  -2.420  0.00  0.00    -0.031 A 
HETATM   26  C   UNK     0      15.171  19.826  -2.359  0.00  0.00     0.051 C 
HETATM   27  C   UNK     0      12.661  19.332  -2.462  0.00  0.00    -0.027 A 
HETATM   28  C   UNK     0      15.216  16.667  -2.452  0.00  0.00     0.115 C 
HETATM   29  H   UNK     0      13.637  14.429  -3.537  0.00  0.00     0.165 HD
HETATM   30  H   UNK     0      12.426  15.624  -6.473  0.00  0.00     0.165 HD
HETATM   31  H   UNK     0      11.205  17.131  -5.286  0.00  0.00     0.165 HD
HETATM   32  H   UNK     0      12.342  16.018  -2.385  0.00  0.00     0.165 HD
ENDROOT
BRANCH   6  33
HETATM   33  C   UNK     0      16.984  14.961  -6.865  0.00  0.00     0.051 C 
BRANCH  33  34
HETATM   34  C   UNK     0      18.066  13.930  -6.648  0.00  0.00     0.114 C 
BRANCH  34  35
HETATM   35  C   UNK     0      19.086  14.121  -7.718  0.00  0.00     0.139 C 
HETATM   36  O   UNK     0      19.802  15.164  -7.736  0.00  0.00    -0.650 OA
BRANCH  35  37
HETATM   37  O   UNK     0      19.301  13.187  -8.724  0.00  0.00    -0.776 OA
HETATM   38  H   UNK     0      20.209  13.047  -9.139  0.00  0.00     0.167 HD
ENDBRANCH  35  37
ENDBRANCH  34  35
ENDBRANCH  33  34
ENDBRANCH   6  33
BRANCH  27  39
HETATM   39  C   UNK     0      12.283  20.770  -2.414  0.00  0.00     0.051 C 
BRANCH  39  40
HETATM   40  C   UNK     0      11.559  21.336  -3.552  0.00  0.00     0.114 C 
BRANCH  40  41
HETATM   41  C   UNK     0      12.229  22.065  -4.606  0.00  0.00     0.139 C 
HETATM   42  O   UNK     0      13.225  21.638  -5.206  0.00  0.00    -0.650 OA
BRANCH  41  43
HETATM   43  O   UNK     0      11.731  23.343  -4.987  0.00  0.00    -0.776 OA
HETATM   44  H   UNK     0      10.742  23.477  -4.812  0.00  0.00     0.167 HD
ENDBRANCH  41  43
ENDBRANCH  40  41
ENDBRANCH  39  40
ENDBRANCH  27  39
BRANCH  11  45
HETATM   45  C   UNK     0       9.527  11.879  -6.737  0.00  0.00     0.051 C 
BRANCH  45  46
HETATM   46  C   UNK     0       8.604  11.944  -5.575  0.00  0.00     0.114 C 
BRANCH  46  47
HETATM   47  C   UNK     0       7.250  11.558  -6.065  0.00  0.00     0.139 C 
HETATM   48  O   UNK     0       6.864  12.006  -7.153  0.00  0.00    -0.650 OA
BRANCH  47  49
HETATM   49  O   UNK     0       6.447  10.725  -5.327  0.00  0.00    -0.776 OA
HETATM   50  H   UNK     0       5.462  10.945  -5.137  0.00  0.00     0.167 HD
ENDBRANCH  47  49
ENDBRANCH  46  47
ENDBRANCH  45  46
ENDBRANCH  11  45
BRANCH  18  51
HETATM   51  C   UNK     0       7.579  16.870  -2.259  0.00  0.00     0.051 C 
BRANCH  51  52
HETATM   52  C   UNK     0       6.610  17.956  -2.701  0.00  0.00     0.114 C 
BRANCH  52  53
HETATM   53  C   UNK     0       6.718  19.164  -1.860  0.00  0.00     0.139 C 
HETATM   54  O   UNK     0       7.485  20.084  -2.188  0.00  0.00    -0.650 OA
BRANCH  53  55
HETATM   55  O   UNK     0       5.968  19.263  -0.713  0.00  0.00    -0.776 OA
HETATM   56  H   UNK     0       5.049  18.910  -0.584  0.00  0.00     0.167 HD
ENDBRANCH  53  55
ENDBRANCH  52  53
ENDBRANCH  51  52
ENDBRANCH  18  51
TORSDOF 16
ENDMDL
MODEL 7
REMARK VINA RESULT:     -10.2      2.330      6.921
REMARK  16 active torsions:
REMARK  status: ('A' for Active; 'I' for Inactive)
REMARK    1  A    between atoms: C_6  and  C_7 
REMARK    2  A    between atoms: C_7  and  C_8 
REMARK    3  A    between atoms: C_8  and  C_9 
REMARK    4  A    between atoms: C_9  and  O_11 
REMARK    5  A    between atoms: C_16  and  C_17 
REMARK    6  A    between atoms: C_17  and  C_18 
REMARK    7  A    between atoms: C_18  and  C_19 
REMARK    8  A    between atoms: C_19  and  O_21 
REMARK    9  A    between atoms: C_28  and  C_29 
REMARK   10  A    between atoms: C_29  and  C_30 
REMARK   11  A    between atoms: C_30  and  C_31 
REMARK   12  A    between atoms: C_31  and  O_33 
REMARK   13  A    between atoms: C_42  and  C_43 
REMARK   14  A    between atoms: C_43  and  C_44 
REMARK   15  A    between atoms: C_44  and  C_45 
REMARK   16  A    between atoms: C_45  and  O_47 
ROOT
HETATM    1  C   UNK     0       7.795  18.566  -2.101  0.00  0.00     0.051 C 
HETATM    2  C   UNK     0       9.299  18.387  -2.120  0.00  0.00    -0.031 A 
HETATM    3  C   UNK     0      10.047  17.222  -2.056  0.00  0.00     0.021 A 
HETATM    4  N   UNK     0      11.363  17.541  -2.073  0.00  0.00    -0.361 N 
HETATM    5  C   UNK     0      11.470  18.884  -2.155  0.00  0.00     0.022 A 
HETATM    6  C   UNK     0      10.198  19.444  -2.183  0.00  0.00    -0.027 A 
HETATM    7  C   UNK     0      12.693  19.734  -2.297  0.00  0.00     0.115 C 
HETATM    8  C   UNK     0      13.755  19.244  -3.265  0.00  0.00     0.021 A 
HETATM    9  N   UNK     0      13.591  18.604  -4.433  0.00  0.00    -0.361 N 
HETATM   10  C   UNK     0      14.812  18.279  -4.909  0.00  0.00     0.022 A 
HETATM   11  C   UNK     0      15.790  18.732  -4.028  0.00  0.00    -0.027 A 
HETATM   12  C   UNK     0      15.131  19.341  -2.991  0.00  0.00    -0.031 A 
HETATM   13  C   UNK     0      15.793  19.989  -1.796  0.00  0.00     0.051 C 
HETATM   14  C   UNK     0      15.102  17.486  -6.180  0.00  0.00     0.115 C 
HETATM   15  C   UNK     0      14.525  16.080  -6.174  0.00  0.00     0.021 A 
HETATM   16  N   UNK     0      13.235  15.722  -6.034  0.00  0.00    -0.361 N 
HETATM   17  C   UNK     0      13.149  14.390  -6.011  0.00  0.00     0.022 A 
HETATM   18  C   UNK     0      14.445  13.854  -6.152  0.00  0.00    -0.027 A 
HETATM   19  C   UNK     0      15.297  14.923  -6.255  0.00  0.00    -0.031 A 
HETATM   20  C   UNK     0      16.796  14.791  -6.458  0.00  0.00     0.051 C 
HETATM   21  C   UNK     0      11.947  13.496  -5.803  0.00  0.00     0.115 C 
HETATM   22  C   UNK     0      10.862  13.991  -4.877  0.00  0.00     0.022 A 
HETATM   23  N   UNK     0      10.997  14.636  -3.710  0.00  0.00    -0.361 N 
HETATM   24  C   UNK     0       9.773  15.018  -3.293  0.00  0.00     0.021 A 
HETATM   25  C   UNK     0       8.826  14.600  -4.208  0.00  0.00    -0.031 A 
HETATM   26  C   UNK     0       7.320  14.755  -4.160  0.00  0.00     0.051 C 
HETATM   27  C   UNK     0       9.499  13.940  -5.231  0.00  0.00    -0.027 A 
HETATM   28  C   UNK     0       9.425  15.855  -2.074  0.00  0.00     0.115 C 
HETATM   29  H   UNK     0      12.208  16.818  -1.987  0.00  0.00     0.165 HD
HETATM   30  H   UNK     0      12.616  18.422  -4.949  0.00  0.00     0.165 HD
HETATM   31  H   UNK     0      12.360  16.422  -5.998  0.00  0.00     0.165 HD
HETATM   32  H   UNK     0      11.955  14.790  -3.148  0.00  0.00     0.165 HD
ENDROOT
BRANCH   6  33
HETATM   33  C   UNK     0       9.776  20.890  -2.263  0.00  0.00     0.051 C 
BRANCH  33  34
HETATM   34  C   UNK     0       9.573  21.465  -0.881  0.00  0.00     0.114 C 
BRANCH  34  35
HETATM   35  C   UNK     0      10.679  22.435  -0.635  0.00  0.00     0.139 C 
HETATM   36  O   UNK     0      10.817  22.968   0.505  0.00  0.00    -0.650 OA
BRANCH  35  37
HETATM   37  O   UNK     0      11.593  22.794  -1.618  0.00  0.00    -0.776 OA
HETATM   38  H   UNK     0      11.518  23.661  -2.126  0.00  0.00     0.167 HD
ENDBRANCH  35  37
ENDBRANCH  34  35
ENDBRANCH  33  34
ENDBRANCH   6  33
BRANCH  27  39
HETATM   39  C   UNK     0       8.801  13.284  -6.369  0.00  0.00     0.051 C 
BRANCH  39  40
HETATM   40  C   UNK     0       8.417  11.879  -6.231  0.00  0.00     0.114 C 
BRANCH  40  41
HETATM   41  C   UNK     0       7.113  11.480  -5.752  0.00  0.00     0.139 C 
HETATM   42  O   UNK     0       6.060  12.034  -6.094  0.00  0.00    -0.650 OA
BRANCH  41  43
HETATM   43  O   UNK     0       7.016  10.393  -4.837  0.00  0.00    -0.776 OA
HETATM   44  H   UNK     0       7.904  10.078  -4.466  0.00  0.00     0.167 HD
ENDBRANCH  41  43
ENDBRANCH  40  41
ENDBRANCH  39  40
ENDBRANCH  27  39
BRANCH  11  45
HETATM   45  C   UNK     0      17.286  18.610  -4.139  0.00  0.00     0.051 C 
BRANCH  45  46
HETATM   46  C   UNK     0      17.956  19.828  -4.661  0.00  0.00     0.114 C 
BRANCH  46  47
HETATM   47  C   UNK     0      18.211  19.604  -6.113  0.00  0.00     0.139 C 
HETATM   48  O   UNK     0      18.497  18.461  -6.495  0.00  0.00    -0.650 OA
BRANCH  47  49
HETATM   49  O   UNK     0      18.134  20.641  -7.009  0.00  0.00    -0.776 OA
HETATM   50  H   UNK     0      18.964  21.015  -7.483  0.00  0.00     0.167 HD
ENDBRANCH  47  49
ENDBRANCH  46  47
ENDBRANCH  45  46
ENDBRANCH  11  45
BRANCH  18  51
HETATM   51  C   UNK     0      14.846  12.403  -6.208  0.00  0.00     0.051 C 
BRANCH  51  52
HETATM   52  C   UNK     0      14.250  11.845  -7.492  0.00  0.00     0.114 C 
BRANCH  52  53
HETATM   53  C   UNK     0      15.295  11.421  -8.444  0.00  0.00     0.139 C 
HETATM   54  O   UNK     0      14.981  11.039  -9.583  0.00  0.00    -0.650 OA
BRANCH  53  55
HETATM   55  O   UNK     0      16.614  11.449  -8.062  0.00  0.00    -0.776 OA
HETATM   56  H   UNK     0      16.955  11.362  -7.134  0.00  0.00     0.167 HD
ENDBRANCH  53  55
ENDBRANCH  52  53
ENDBRANCH  51  52
ENDBRANCH  18  51
TORSDOF 16
ENDMDL
MODEL 8
REMARK VINA RESULT:     -10.2      1.756      2.213
REMARK  16 active torsions:
REMARK  status: ('A' for Active; 'I' for Inactive)
REMARK    1  A    between atoms: C_6  and  C_7 
REMARK    2  A    between atoms: C_7  and  C_8 
REMARK    3  A    between atoms: C_8  and  C_9 
REMARK    4  A    between atoms: C_9  and  O_11 
REMARK    5  A    between atoms: C_16  and  C_17 
REMARK    6  A    between atoms: C_17  and  C_18 
REMARK    7  A    between atoms: C_18  and  C_19 
REMARK    8  A    between atoms: C_19  and  O_21 
REMARK    9  A    between atoms: C_28  and  C_29 
REMARK   10  A    between atoms: C_29  and  C_30 
REMARK   11  A    between atoms: C_30  and  C_31 
REMARK   12  A    between atoms: C_31  and  O_33 
REMARK   13  A    between atoms: C_42  and  C_43 
REMARK   14  A    between atoms: C_43  and  C_44 
REMARK   15  A    between atoms: C_44  and  C_45 
REMARK   16  A    between atoms: C_45  and  O_47 
ROOT
HETATM    1  C   UNK     0      16.122  19.943  -2.919  0.00  0.00     0.051 C 
HETATM    2  C   UNK     0      15.903  18.496  -3.311  0.00  0.00    -0.031 A 
HETATM    3  C   UNK     0      15.048  17.555  -2.759  0.00  0.00     0.021 A 
HETATM    4  N   UNK     0      15.208  16.378  -3.410  0.00  0.00    -0.361 N 
HETATM    5  C   UNK     0      16.140  16.550  -4.369  0.00  0.00     0.022 A 
HETATM    6  C   UNK     0      16.598  17.863  -4.334  0.00  0.00    -0.027 A 
HETATM    7  C   UNK     0      16.613  15.595  -5.420  0.00  0.00     0.115 C 
HETATM    8  C   UNK     0      15.548  14.767  -6.118  0.00  0.00     0.021 A 
HETATM    9  N   UNK     0      14.299  15.124  -6.453  0.00  0.00    -0.361 N 
HETATM   10  C   UNK     0      13.679  14.043  -6.972  0.00  0.00     0.022 A 
HETATM   11  C   UNK     0      14.557  12.962  -6.980  0.00  0.00    -0.027 A 
HETATM   12  C   UNK     0      15.736  13.412  -6.444  0.00  0.00    -0.031 A 
HETATM   13  C   UNK     0      16.985  12.580  -6.258  0.00  0.00     0.051 C 
HETATM   14  C   UNK     0      12.225  13.970  -7.429  0.00  0.00     0.115 C 
HETATM   15  C   UNK     0      11.218  14.250  -6.325  0.00  0.00     0.021 A 
HETATM   16  N   UNK     0      11.110  15.361  -5.574  0.00  0.00    -0.361 N 
HETATM   17  C   UNK     0      10.145  15.187  -4.668  0.00  0.00     0.022 A 
HETATM   18  C   UNK     0       9.590  13.904  -4.845  0.00  0.00    -0.027 A 
HETATM   19  C   UNK     0      10.270  13.328  -5.887  0.00  0.00    -0.031 A 
HETATM   20  C   UNK     0       9.962  11.946  -6.433  0.00  0.00     0.051 C 
HETATM   21  C   UNK     0       9.683  16.097  -3.553  0.00  0.00     0.115 C 
HETATM   22  C   UNK     0      10.725  16.958  -2.878  0.00  0.00     0.022 A 
HETATM   23  N   UNK     0      11.978  16.631  -2.537  0.00  0.00    -0.361 N 
HETATM   24  C   UNK     0      12.600  17.742  -2.095  0.00  0.00     0.021 A 
HETATM   25  C   UNK     0      11.724  18.809  -2.143  0.00  0.00    -0.031 A 
HETATM   26  C   UNK     0      11.945  20.245  -1.716  0.00  0.00     0.051 C 
HETATM   27  C   UNK     0      10.516  18.332  -2.641  0.00  0.00    -0.027 A 
HETATM   28  C   UNK     0      14.055  17.892  -1.683  0.00  0.00     0.115 C 
HETATM   29  H   UNK     0      14.690  15.423  -3.160  0.00  0.00     0.165 HD
HETATM   30  H   UNK     0      13.866  16.151  -6.371  0.00  0.00     0.165 HD
HETATM   31  H   UNK     0      11.695  16.307  -5.715  0.00  0.00     0.165 HD
HETATM   32  H   UNK     0      12.422  15.602  -2.564  0.00  0.00     0.165 HD
ENDROOT
BRANCH   6  33
HETATM   33  C   UNK     0      17.634  18.553  -5.185  0.00  0.00     0.051 C 
BRANCH  33  34
HETATM   34  C   UNK     0      16.981  19.299  -6.324  0.00  0.00     0.114 C 
BRANCH  34  35
HETATM   35  C   UNK     0      17.776  20.538  -6.560  0.00  0.00     0.139 C 
HETATM   36  O   UNK     0      17.892  21.405  -5.646  0.00  0.00    -0.650 OA
BRANCH  35  37
HETATM   37  O   UNK     0      18.418  20.798  -7.765  0.00  0.00    -0.776 OA
HETATM   38  H   UNK     0      18.470  21.726  -8.154  0.00  0.00     0.167 HD
ENDBRANCH  35  37
ENDBRANCH  34  35
ENDBRANCH  33  34
ENDBRANCH   6  33
BRANCH  27  39
HETATM   39  C   UNK     0       9.301  19.181  -2.771  0.00  0.00     0.051 C 
BRANCH  39  40
HETATM   40  C   UNK     0       8.359  19.220  -1.652  0.00  0.00     0.114 C 
BRANCH  40  41
HETATM   41  C   UNK     0       7.018  19.740  -1.792  0.00  0.00     0.139 C 
HETATM   42  O   UNK     0       6.641  20.408  -2.765  0.00  0.00    -0.650 OA
BRANCH  41  43
HETATM   43  O   UNK     0       6.065  19.479  -0.767  0.00  0.00    -0.776 OA
HETATM   44  H   UNK     0       6.159  18.571  -0.328  0.00  0.00     0.167 HD
ENDBRANCH  41  43
ENDBRANCH  40  41
ENDBRANCH  39  40
ENDBRANCH  27  39
BRANCH  11  45
HETATM   45  C   UNK     0      14.319  11.559  -7.469  0.00  0.00     0.051 C 
BRANCH  45  46
HETATM   46  C   UNK     0      14.138  11.452  -8.940  0.00  0.00     0.114 C 
BRANCH  46  47
HETATM   47  C   UNK     0      15.211  10.553  -9.452  0.00  0.00     0.139 C 
HETATM   48  O   UNK     0      15.061  10.023 -10.562  0.00  0.00    -0.650 OA
BRANCH  47  49
HETATM   49  O   UNK     0      16.341  10.314  -8.711  0.00  0.00    -0.776 OA
HETATM   50  H   UNK     0      16.978  11.068  -8.428  0.00  0.00     0.167 HD
ENDBRANCH  47  49
ENDBRANCH  46  47
ENDBRANCH  45  46
ENDBRANCH  11  45
BRANCH  18  51
HETATM   51  C   UNK     0       8.460  13.270  -4.076  0.00  0.00     0.051 C 
BRANCH  51  52
HETATM   52  C   UNK     0       7.179  13.899  -4.606  0.00  0.00     0.114 C 
BRANCH  52  53
HETATM   53  C   UNK     0       6.225  12.881  -5.085  0.00  0.00     0.139 C 
HETATM   54  O   UNK     0       6.580  12.046  -5.932  0.00  0.00    -0.650 OA
BRANCH  53  55
HETATM   55  O   UNK     0       4.943  12.866  -4.592  0.00  0.00    -0.776 OA
HETATM   56  H   UNK     0       4.667  12.548  -3.693  0.00  0.00     0.167 HD
ENDBRANCH  53  55
ENDBRANCH  52  53
ENDBRANCH  51  52
ENDBRANCH  18  51
TORSDOF 16
ENDMDL
MODEL 9
REMARK VINA RESULT:     -10.1     27.936     31.270
REMARK  16 active torsions:
REMARK  status: ('A' for Active; 'I' for Inactive)
REMARK    1  A    between atoms: C_6  and  C_7 
REMARK    2  A    between atoms: C_7  and  C_8 
REMARK    3  A    between atoms: C_8  and  C_9 
REMARK    4  A    between atoms: C_9  and  O_11 
REMARK    5  A    between atoms: C_16  and  C_17 
REMARK    6  A    between atoms: C_17  and  C_18 
REMARK    7  A    between atoms: C_18  and  C_19 
REMARK    8  A    between atoms: C_19  and  O_21 
REMARK    9  A    between atoms: C_28  and  C_29 
REMARK   10  A    between atoms: C_29  and  C_30 
REMARK   11  A    between atoms: C_30  and  C_31 
REMARK   12  A    between atoms: C_31  and  O_33 
REMARK   13  A    between atoms: C_42  and  C_43 
REMARK   14  A    between atoms: C_43  and  C_44 
REMARK   15  A    between atoms: C_44  and  C_45 
REMARK   16  A    between atoms: C_45  and  O_47 
ROOT
HETATM    1  C   UNK     0       8.068 -12.075  13.070  0.00  0.00     0.051 C 
HETATM    2  C   UNK     0       6.768 -11.305  13.193  0.00  0.00    -0.031 A 
HETATM    3  C   UNK     0       6.253 -10.617  14.280  0.00  0.00     0.021 A 
HETATM    4  N   UNK     0       5.044 -10.106  13.946  0.00  0.00    -0.361 N 
HETATM    5  C   UNK     0       4.782 -10.446  12.667  0.00  0.00     0.022 A 
HETATM    6  C   UNK     0       5.839 -11.199  12.166  0.00  0.00    -0.027 A 
HETATM    7  C   UNK     0       3.630 -10.055  11.795  0.00  0.00     0.115 C 
HETATM    8  C   UNK     0       3.183  -8.606  11.864  0.00  0.00     0.021 A 
HETATM    9  N   UNK     0       3.935  -7.506  12.029  0.00  0.00    -0.361 N 
HETATM   10  C   UNK     0       3.108  -6.443  12.124  0.00  0.00     0.022 A 
HETATM   11  C   UNK     0       1.788  -6.869  12.008  0.00  0.00    -0.027 A 
HETATM   12  C   UNK     0       1.828  -8.230  11.844  0.00  0.00    -0.031 A 
HETATM   13  C   UNK     0       0.622  -9.125  11.670  0.00  0.00     0.051 C 
HETATM   14  C   UNK     0       3.524  -4.998  12.381  0.00  0.00     0.115 C 
HETATM   15  C   UNK     0       4.247  -4.790  13.702  0.00  0.00     0.021 A 
HETATM   16  N   UNK     0       5.385  -5.377  14.118  0.00  0.00    -0.361 N 
HETATM   17  C   UNK     0       5.652  -4.982  15.364  0.00  0.00     0.022 A 
HETATM   18  C   UNK     0       4.645  -4.088  15.778  0.00  0.00    -0.027 A 
HETATM   19  C   UNK     0       3.772  -3.975  14.727  0.00  0.00    -0.031 A 
HETATM   20  C   UNK     0       2.551  -3.073  14.738  0.00  0.00     0.051 C 
HETATM   21  C   UNK     0       6.764  -5.402  16.299  0.00  0.00     0.115 C 
HETATM   22  C   UNK     0       7.248  -6.830  16.210  0.00  0.00     0.022 A 
HETATM   23  N   UNK     0       6.523  -7.944  16.042  0.00  0.00    -0.361 N 
HETATM   24  C   UNK     0       7.370  -8.979  15.872  0.00  0.00     0.021 A 
HETATM   25  C   UNK     0       8.672  -8.523  15.943  0.00  0.00    -0.031 A 
HETATM   26  C   UNK     0       9.963  -9.309  15.852  0.00  0.00     0.051 C 
HETATM   27  C   UNK     0       8.620  -7.151  16.159  0.00  0.00    -0.027 A 
HETATM   28  C   UNK     0       7.020 -10.423  15.557  0.00  0.00     0.115 C 
HETATM   29  H   UNK     0       4.367  -9.542  14.628  0.00  0.00     0.165 HD
HETATM   30  H   UNK     0       5.052  -7.471  12.029  0.00  0.00     0.165 HD
HETATM   31  H   UNK     0       6.039  -6.048  13.502  0.00  0.00     0.165 HD
HETATM   32  H   UNK     0       5.405  -8.016  16.085  0.00  0.00     0.165 HD
ENDROOT
BRANCH   6  33
HETATM   33  C   UNK     0       6.028 -11.820  10.805  0.00  0.00     0.051 C 
BRANCH  33  34
HETATM   34  C   UNK     0       4.968 -12.862  10.540  0.00  0.00     0.114 C 
BRANCH  34  35
HETATM   35  C   UNK     0       4.585 -12.754   9.103  0.00  0.00     0.139 C 
HETATM   36  O   UNK     0       3.785 -11.850   8.723  0.00  0.00    -0.650 OA
BRANCH  35  37
HETATM   37  O   UNK     0       5.076 -13.616   8.130  0.00  0.00    -0.776 OA
HETATM   38  H   UNK     0       4.962 -13.432   7.146  0.00  0.00     0.167 HD
ENDBRANCH  35  37
ENDBRANCH  34  35
ENDBRANCH  33  34
ENDBRANCH   6  33
BRANCH  27  39
HETATM   39  C   UNK     0       9.835  -6.315  16.362  0.00  0.00     0.051 C 
BRANCH  39  40
HETATM   40  C   UNK     0      10.455  -5.697  15.190  0.00  0.00     0.114 C 
BRANCH  40  41
HETATM   41  C   UNK     0      10.509  -4.263  15.013  0.00  0.00     0.139 C 
HETATM   42  O   UNK     0      10.125  -3.454  15.869  0.00  0.00    -0.650 OA
BRANCH  41  43
HETATM   43  O   UNK     0      11.029  -3.736  13.797  0.00  0.00    -0.776 OA
HETATM   44  H   UNK     0      10.425  -3.064  13.340  0.00  0.00     0.167 HD
ENDBRANCH  41  43
ENDBRANCH  40  41
ENDBRANCH  39  40
ENDBRANCH  27  39
BRANCH  11  45
HETATM   45  C   UNK     0       0.527  -6.047  12.044  0.00  0.00     0.051 C 
BRANCH  45  46
HETATM   46  C   UNK     0       0.276  -5.379  13.346  0.00  0.00     0.114 C 
BRANCH  46  47
HETATM   47  C   UNK     0      -1.196  -5.410  13.582  0.00  0.00     0.139 C 
HETATM   48  O   UNK     0      -1.622  -5.118  14.708  0.00  0.00    -0.650 OA
BRANCH  47  49
HETATM   49  O   UNK     0      -2.062  -5.754  12.574  0.00  0.00    -0.776 OA
HETATM   50  H   UNK     0      -2.315  -5.098  11.825  0.00  0.00     0.167 HD
ENDBRANCH  47  49
ENDBRANCH  46  47
ENDBRANCH  45  46
ENDBRANCH  11  45
BRANCH  18  51
HETATM   51  C   UNK     0       4.534  -3.363  17.094  0.00  0.00     0.051 C 
BRANCH  51  52
HETATM   52  C   UNK     0       5.587  -2.266  17.068  0.00  0.00     0.114 C 
BRANCH  52  53
HETATM   53  C   UNK     0       4.993  -0.939  16.814  0.00  0.00     0.139 C 
HETATM   54  O   UNK     0       4.727  -0.186  17.764  0.00  0.00    -0.650 OA
BRANCH  53  55
HETATM   55  O   UNK     0       4.734  -0.546  15.523  0.00  0.00    -0.776 OA
HETATM   56  H   UNK     0       3.839  -0.347  15.142  0.00  0.00     0.167 HD
ENDBRANCH  53  55
ENDBRANCH  52  53
ENDBRANCH  51  52
ENDBRANCH  18  51
TORSDOF 16
ENDMDL
MODEL 10
REMARK VINA RESULT:     -10.1      2.336      7.203
REMARK  16 active torsions:
REMARK  status: ('A' for Active; 'I' for Inactive)
REMARK    1  A    between atoms: C_6  and  C_7 
REMARK    2  A    between atoms: C_7  and  C_8 
REMARK    3  A    between atoms: C_8  and  C_9 
REMARK    4  A    between atoms: C_9  and  O_11 
REMARK    5  A    between atoms: C_16  and  C_17 
REMARK    6  A    between atoms: C_17  and  C_18 
REMARK    7  A    between atoms: C_18  and  C_19 
REMARK    8  A    between atoms: C_19  and  O_21 
REMARK    9  A    between atoms: C_28  and  C_29 
REMARK   10  A    between atoms: C_29  and  C_30 
REMARK   11  A    between atoms: C_30  and  C_31 
REMARK   12  A    between atoms: C_31  and  O_33 
REMARK   13  A    between atoms: C_42  and  C_43 
REMARK   14  A    between atoms: C_43  and  C_44 
REMARK   15  A    between atoms: C_44  and  C_45 
REMARK   16  A    between atoms: C_45  and  O_47 
ROOT
HETATM    1  C   UNK     0      11.093  11.231  -6.863  0.00  0.00     0.051 C 
HETATM    2  C   UNK     0      12.068  12.390  -6.827  0.00  0.00    -0.031 A 
HETATM    3  C   UNK     0      11.828  13.747  -6.976  0.00  0.00     0.021 A 
HETATM    4  N   UNK     0      13.005  14.414  -6.903  0.00  0.00    -0.361 N 
HETATM    5  C   UNK     0      13.988  13.512  -6.703  0.00  0.00     0.022 A 
HETATM    6  C   UNK     0      13.438  12.236  -6.653  0.00  0.00    -0.027 A 
HETATM    7  C   UNK     0      15.448  13.735  -6.461  0.00  0.00     0.115 C 
HETATM    8  C   UNK     0      15.818  14.864  -5.516  0.00  0.00     0.021 A 
HETATM    9  N   UNK     0      15.175  15.276  -4.412  0.00  0.00    -0.361 N 
HETATM   10  C   UNK     0      15.811  16.369  -3.940  0.00  0.00     0.022 A 
HETATM   11  C   UNK     0      16.898  16.665  -4.756  0.00  0.00    -0.027 A 
HETATM   12  C   UNK     0      16.909  15.720  -5.751  0.00  0.00    -0.031 A 
HETATM   13  C   UNK     0      17.923  15.642  -6.871  0.00  0.00     0.051 C 
HETATM   14  C   UNK     0      15.389  17.207  -2.736  0.00  0.00     0.115 C 
HETATM   15  C   UNK     0      14.013  17.838  -2.877  0.00  0.00     0.021 A 
HETATM   16  N   UNK     0      12.838  17.211  -3.075  0.00  0.00    -0.361 N 
HETATM   17  C   UNK     0      11.873  18.122  -3.216  0.00  0.00     0.022 A 
HETATM   18  C   UNK     0      12.444  19.404  -3.093  0.00  0.00    -0.027 A 
HETATM   19  C   UNK     0      13.785  19.212  -2.880  0.00  0.00    -0.031 A 
HETATM   20  C   UNK     0      14.774  20.342  -2.656  0.00  0.00     0.051 C 
HETATM   21  C   UNK     0      10.404  17.942  -3.526  0.00  0.00     0.115 C 
HETATM   22  C   UNK     0      10.017  16.795  -4.429  0.00  0.00     0.022 A 
HETATM   23  N   UNK     0      10.641  16.361  -5.532  0.00  0.00    -0.361 N 
HETATM   24  C   UNK     0      10.038  15.226  -5.941  0.00  0.00     0.021 A 
HETATM   25  C   UNK     0       8.994  14.929  -5.086  0.00  0.00    -0.031 A 
HETATM   26  C   UNK     0       8.004  13.784  -5.153  0.00  0.00     0.051 C 
HETATM   27  C   UNK     0       8.961  15.919  -4.111  0.00  0.00    -0.027 A 
HETATM   28  C   UNK     0      10.444  14.320  -7.090  0.00  0.00     0.115 C 
HETATM   29  H   UNK     0      13.136  15.513  -7.034  0.00  0.00     0.165 HD
HETATM   30  H   UNK     0      14.302  14.767  -3.935  0.00  0.00     0.165 HD
HETATM   31  H   UNK     0      12.678  16.101  -3.069  0.00  0.00     0.165 HD
HETATM   32  H   UNK     0      11.487  16.875  -6.058  0.00  0.00     0.165 HD
ENDROOT
BRANCH   6  33
HETATM   33  C   UNK     0      14.106  10.898  -6.458  0.00  0.00     0.051 C 
BRANCH  33  34
HETATM   34  C   UNK     0      14.131  10.119  -7.751  0.00  0.00     0.114 C 
BRANCH  34  35
HETATM   35  C   UNK     0      15.303  10.598  -8.538  0.00  0.00     0.139 C 
HETATM   36  O   UNK     0      16.464  10.563  -8.037  0.00  0.00    -0.650 OA
BRANCH  35  37
HETATM   37  O   UNK     0      15.186  11.091  -9.832  0.00  0.00    -0.776 OA
HETATM   38  H   UNK     0      14.307  11.096 -10.325  0.00  0.00     0.167 HD
ENDBRANCH  35  37
ENDBRANCH  34  35
ENDBRANCH  33  34
ENDBRANCH   6  33
BRANCH  27  39
HETATM   39  C   UNK     0       7.920  15.975  -3.049  0.00  0.00     0.051 C 
BRANCH  39  40
HETATM   40  C   UNK     0       6.955  17.074  -3.081  0.00  0.00     0.114 C 
BRANCH  40  41
HETATM   41  C   UNK     0       7.044  18.205  -2.184  0.00  0.00     0.139 C 
HETATM   42  O   UNK     0       6.285  19.182  -2.238  0.00  0.00    -0.650 OA
BRANCH  41  43
HETATM   43  O   UNK     0       8.053  18.212  -1.180  0.00  0.00    -0.776 OA
HETATM   44  H   UNK     0       7.814  18.741  -0.350  0.00  0.00     0.167 HD
ENDBRANCH  41  43
ENDBRANCH  40  41
ENDBRANCH  39  40
ENDBRANCH  27  39
BRANCH  11  45
HETATM   45  C   UNK     0      17.900  17.780  -4.624  0.00  0.00     0.051 C 
BRANCH  45  46
HETATM   46  C   UNK     0      17.412  19.094  -5.118  0.00  0.00     0.114 C 
BRANCH  46  47
HETATM   47  C   UNK     0      18.308  19.505  -6.237  0.00  0.00     0.139 C 
HETATM   48  O   UNK     0      19.264  18.773  -6.530  0.00  0.00    -0.650 OA
BRANCH  47  49
HETATM   49  O   UNK     0      18.081  20.668  -6.927  0.00  0.00    -0.776 OA
HETATM   50  H   UNK     0      17.893  20.676  -7.937  0.00  0.00     0.167 HD
ENDBRANCH  47  49
ENDBRANCH  46  47
ENDBRANCH  45  46
ENDBRANCH  11  45
BRANCH  18  51
HETATM   51  C   UNK     0      11.748  20.739  -3.154  0.00  0.00     0.051 C 
BRANCH  51  52
HETATM   52  C   UNK     0      11.238  21.018  -1.748  0.00  0.00     0.114 C 
BRANCH  52  53
HETATM   53  C   UNK     0       9.764  21.048  -1.694  0.00  0.00     0.139 C 
HETATM   54  O   UNK     0       9.103  21.068  -2.745  0.00  0.00    -0.650 OA
BRANCH  53  55
HETATM   55  O   UNK     0       9.129  21.057  -0.476  0.00  0.00    -0.776 OA
HETATM   56  H   UNK     0       9.234  20.379   0.242  0.00  0.00     0.167 HD
ENDBRANCH  53  55
ENDBRANCH  52  53
ENDBRANCH  51  52
ENDBRANCH  18  51
TORSDOF 16
ENDMDL
MODEL 11
REMARK VINA RESULT:      -9.9     27.870     30.465
REMARK  16 active torsions:
REMARK  status: ('A' for Active; 'I' for Inactive)
REMARK    1  A    between atoms: C_6  and  C_7 
REMARK    2  A    between atoms: C_7  and  C_8 
REMARK    3  A    between atoms: C_8  and  C_9 
REMARK    4  A    between atoms: C_9  and  O_11 
REMARK    5  A    between atoms: C_16  and  C_17 
REMARK    6  A    between atoms: C_17  and  C_18 
REMARK    7  A    between atoms: C_18  and  C_19 
REMARK    8  A    between atoms: C_19  and  O_21 
REMARK    9  A    between atoms: C_28  and  C_29 
REMARK   10  A    between atoms: C_29  and  C_30 
REMARK   11  A    between atoms: C_30  and  C_31 
REMARK   12  A    between atoms: C_31  and  O_33 
REMARK   13  A    between atoms: C_42  and  C_43 
REMARK   14  A    between atoms: C_43  and  C_44 
REMARK   15  A    between atoms: C_44  and  C_45 
REMARK   16  A    between atoms: C_45  and  O_47 
ROOT
HETATM    1  C   UNK     0       8.069  -3.892  16.767  0.00  0.00     0.051 C 
HETATM    2  C   UNK     0       7.660  -5.328  16.507  0.00  0.00    -0.031 A 
HETATM    3  C   UNK     0       6.391  -5.877  16.413  0.00  0.00     0.021 A 
HETATM    4  N   UNK     0       6.502  -7.211  16.202  0.00  0.00    -0.361 N 
HETATM    5  C   UNK     0       7.814  -7.521  16.152  0.00  0.00     0.022 A 
HETATM    6  C   UNK     0       8.566  -6.367  16.342  0.00  0.00    -0.027 A 
HETATM    7  C   UNK     0       8.471  -8.832  15.852  0.00  0.00     0.115 C 
HETATM    8  C   UNK     0       7.881  -9.645  14.713  0.00  0.00     0.021 A 
HETATM    9  N   UNK     0       7.344  -9.207  13.563  0.00  0.00    -0.361 N 
HETATM   10  C   UNK     0       6.863 -10.274  12.892  0.00  0.00     0.022 A 
HETATM   11  C   UNK     0       7.104 -11.433  13.624  0.00  0.00    -0.027 A 
HETATM   12  C   UNK     0       7.745 -11.043  14.773  0.00  0.00    -0.031 A 
HETATM   13  C   UNK     0       8.210 -11.972  15.872  0.00  0.00     0.051 C 
HETATM   14  C   UNK     0       6.113 -10.240  11.563  0.00  0.00     0.115 C 
HETATM   15  C   UNK     0       4.815  -9.449  11.609  0.00  0.00     0.021 A 
HETATM   16  N   UNK     0       4.654  -8.153  11.936  0.00  0.00    -0.361 N 
HETATM   17  C   UNK     0       3.353  -7.856  11.925  0.00  0.00     0.022 A 
HETATM   18  C   UNK     0       2.632  -9.012  11.564  0.00  0.00    -0.027 A 
HETATM   19  C   UNK     0       3.559 -10.002  11.368  0.00  0.00    -0.031 A 
HETATM   20  C   UNK     0       3.208 -11.412  10.929  0.00  0.00     0.051 C 
HETATM   21  C   UNK     0       2.647  -6.569  12.285  0.00  0.00     0.115 C 
HETATM   22  C   UNK     0       3.248  -5.728  13.386  0.00  0.00     0.022 A 
HETATM   23  N   UNK     0       3.793  -6.137  14.540  0.00  0.00    -0.361 N 
HETATM   24  C   UNK     0       4.335  -5.067  15.155  0.00  0.00     0.021 A 
HETATM   25  C   UNK     0       4.125  -3.940  14.385  0.00  0.00    -0.031 A 
HETATM   26  C   UNK     0       4.510  -2.503  14.672  0.00  0.00     0.051 C 
HETATM   27  C   UNK     0       3.431  -4.337  13.248  0.00  0.00    -0.027 A 
HETATM   28  C   UNK     0       5.140  -5.045  16.443  0.00  0.00     0.115 C 
HETATM   29  H   UNK     0       5.653  -7.929  16.130  0.00  0.00     0.165 HD
HETATM   30  H   UNK     0       7.349  -8.150  13.199  0.00  0.00     0.165 HD
HETATM   31  H   UNK     0       5.479  -7.419  12.132  0.00  0.00     0.165 HD
HETATM   32  H   UNK     0       3.762  -7.180  14.951  0.00  0.00     0.165 HD
ENDROOT
BRANCH   6  33
HETATM   33  C   UNK     0      10.062  -6.180  16.381  0.00  0.00     0.051 C 
BRANCH  33  34
HETATM   34  C   UNK     0      10.619  -6.029  14.985  0.00  0.00     0.114 C 
BRANCH  34  35
HETATM   35  C   UNK     0      11.133  -4.635  14.858  0.00  0.00     0.139 C 
HETATM   36  O   UNK     0      11.474  -3.985  15.889  0.00  0.00    -0.650 OA
BRANCH  35  37
HETATM   37  O   UNK     0      11.265  -3.994  13.632  0.00  0.00    -0.776 OA
HETATM   38  H   UNK     0      11.636  -3.061  13.554  0.00  0.00     0.167 HD
ENDBRANCH  35  37
ENDBRANCH  34  35
ENDBRANCH  33  34
ENDBRANCH   6  33
BRANCH  27  39
HETATM   39  C   UNK     0       2.961  -3.381  12.209  0.00  0.00     0.051 C 
BRANCH  39  40
HETATM   40  C   UNK     0       1.663  -2.734  12.398  0.00  0.00     0.114 C 
BRANCH  40  41
HETATM   41  C   UNK     0       1.448  -1.713  13.398  0.00  0.00     0.139 C 
HETATM   42  O   UNK     0       1.850  -0.547  13.281  0.00  0.00    -0.650 OA
BRANCH  41  43
HETATM   43  O   UNK     0       0.740  -2.047  14.587  0.00  0.00    -0.776 OA
HETATM   44  H   UNK     0      -0.263  -2.125  14.469  0.00  0.00     0.167 HD
ENDBRANCH  41  43
ENDBRANCH  40  41
ENDBRANCH  39  40
ENDBRANCH  27  39
BRANCH  11  45
HETATM   45  C   UNK     0       6.758 -12.856  13.277  0.00  0.00     0.051 C 
BRANCH  45  46
HETATM   46  C   UNK     0       7.934 -13.704  12.953  0.00  0.00     0.114 C 
BRANCH  46  47
HETATM   47  C   UNK     0       8.552 -13.147  11.716  0.00  0.00     0.139 C 
HETATM   48  O   UNK     0       7.908 -13.195  10.659  0.00  0.00    -0.650 OA
BRANCH  47  49
HETATM   49  O   UNK     0       9.807 -12.594  11.745  0.00  0.00    -0.776 OA
HETATM   50  H   UNK     0      10.149 -11.977  10.999  0.00  0.00     0.167 HD
ENDBRANCH  47  49
ENDBRANCH  46  47
ENDBRANCH  45  46
ENDBRANCH  11  45
BRANCH  18  51
HETATM   51  C   UNK     0       1.142  -9.158  11.394  0.00  0.00     0.051 C 
BRANCH  51  52
HETATM   52  C   UNK     0       0.562  -9.268  12.797  0.00  0.00     0.114 C 
BRANCH  52  53
HETATM   53  C   UNK     0       0.613 -10.653  13.305  0.00  0.00     0.139 C 
HETATM   54  O   UNK     0       0.144 -11.581  12.627  0.00  0.00    -0.650 OA
BRANCH  53  55
HETATM   55  O   UNK     0       1.177 -10.907  14.531  0.00  0.00    -0.776 OA
HETATM   56  H   UNK     0       2.109 -10.695  14.800  0.00  0.00     0.167 HD
ENDBRANCH  53  55
ENDBRANCH  52  53
ENDBRANCH  51  52
ENDBRANCH  18  51
TORSDOF 16
ENDMDL
MODEL 12
REMARK VINA RESULT:      -9.8     27.661     30.174
REMARK  16 active torsions:
REMARK  status: ('A' for Active; 'I' for Inactive)
REMARK    1  A    between atoms: C_6  and  C_7 
REMARK    2  A    between atoms: C_7  and  C_8 
REMARK    3  A    between atoms: C_8  and  C_9 
REMARK    4  A    between atoms: C_9  and  O_11 
REMARK    5  A    between atoms: C_16  and  C_17 
REMARK    6  A    between atoms: C_17  and  C_18 
REMARK    7  A    between atoms: C_18  and  C_19 
REMARK    8  A    between atoms: C_19  and  O_21 
REMARK    9  A    between atoms: C_28  and  C_29 
REMARK   10  A    between atoms: C_29  and  C_30 
REMARK   11  A    between atoms: C_30  and  C_31 
REMARK   12  A    between atoms: C_31  and  O_33 
REMARK   13  A    between atoms: C_42  and  C_43 
REMARK   14  A    between atoms: C_43  and  C_44 
REMARK   15  A    between atoms: C_44  and  C_45 
REMARK   16  A    between atoms: C_45  and  O_47 
ROOT
HETATM    1  C   UNK     0       9.723  -4.029  17.514  0.00  0.00     0.051 C 
HETATM    2  C   UNK     0       9.035  -5.336  17.177  0.00  0.00    -0.031 A 
HETATM    3  C   UNK     0       7.693  -5.671  17.260  0.00  0.00     0.021 A 
HETATM    4  N   UNK     0       7.537  -6.963  16.885  0.00  0.00    -0.361 N 
HETATM    5  C   UNK     0       8.749  -7.456  16.558  0.00  0.00     0.022 A 
HETATM    6  C   UNK     0       9.710  -6.466  16.731  0.00  0.00    -0.027 A 
HETATM    7  C   UNK     0       9.112  -8.795  15.995  0.00  0.00     0.115 C 
HETATM    8  C   UNK     0       8.210  -9.343  14.903  0.00  0.00     0.021 A 
HETATM    9  N   UNK     0       7.574  -8.673  13.930  0.00  0.00    -0.361 N 
HETATM   10  C   UNK     0       6.812  -9.552  13.245  0.00  0.00     0.022 A 
HETATM   11  C   UNK     0       6.968 -10.824  13.786  0.00  0.00    -0.027 A 
HETATM   12  C   UNK     0       7.848 -10.700  14.831  0.00  0.00    -0.031 A 
HETATM   13  C   UNK     0       8.322 -11.832  15.715  0.00  0.00     0.051 C 
HETATM   14  C   UNK     0       5.869  -9.220  12.092  0.00  0.00     0.115 C 
HETATM   15  C   UNK     0       4.753  -8.258  12.467  0.00  0.00     0.021 A 
HETATM   16  N   UNK     0       4.874  -7.011  12.960  0.00  0.00    -0.361 N 
HETATM   17  C   UNK     0       3.659  -6.525  13.224  0.00  0.00     0.022 A 
HETATM   18  C   UNK     0       2.700  -7.497  12.878  0.00  0.00    -0.027 A 
HETATM   19  C   UNK     0       3.398  -8.578  12.403  0.00  0.00    -0.031 A 
HETATM   20  C   UNK     0       2.742  -9.844  11.883  0.00  0.00     0.051 C 
HETATM   21  C   UNK     0       3.255  -5.210  13.851  0.00  0.00     0.115 C 
HETATM   22  C   UNK     0       4.165  -4.631  14.908  0.00  0.00     0.022 A 
HETATM   23  N   UNK     0       4.815  -5.275  15.887  0.00  0.00    -0.361 N 
HETATM   24  C   UNK     0       5.627  -4.395  16.506  0.00  0.00     0.021 A 
HETATM   25  C   UNK     0       5.490  -3.152  15.919  0.00  0.00    -0.031 A 
HETATM   26  C   UNK     0       6.158  -1.844  16.288  0.00  0.00     0.051 C 
HETATM   27  C   UNK     0       4.559  -3.278  14.893  0.00  0.00    -0.027 A 
HETATM   28  C   UNK     0       6.627  -4.674  17.615  0.00  0.00     0.115 C 
HETATM   29  H   UNK     0       6.577  -7.529  16.893  0.00  0.00     0.165 HD
HETATM   30  H   UNK     0       7.700  -7.588  13.692  0.00  0.00     0.165 HD
HETATM   31  H   UNK     0       5.833  -6.444  13.080  0.00  0.00     0.165 HD
HETATM   32  H   UNK     0       4.674  -6.348  16.178  0.00  0.00     0.165 HD
ENDROOT
BRANCH   6  33
HETATM   33  C   UNK     0      11.201  -6.511  16.511  0.00  0.00     0.051 C 
BRANCH  33  34
HETATM   34  C   UNK     0      11.535  -6.268  15.059  0.00  0.00     0.114 C 
BRANCH  34  35
HETATM   35  C   UNK     0      12.605  -5.231  15.014  0.00  0.00     0.139 C 
HETATM   36  O   UNK     0      13.813  -5.569  14.851  0.00  0.00    -0.650 OA
BRANCH  35  37
HETATM   37  O   UNK     0      12.338  -3.873  15.143  0.00  0.00    -0.776 OA
HETATM   38  H   UNK     0      12.766  -3.310  15.860  0.00  0.00     0.167 HD
ENDBRANCH  35  37
ENDBRANCH  34  35
ENDBRANCH  33  34
ENDBRANCH   6  33
BRANCH  27  39
HETATM   39  C   UNK     0       4.095  -2.125  14.074  0.00  0.00     0.051 C 
BRANCH  39  40
HETATM   40  C   UNK     0       2.876  -1.429  14.483  0.00  0.00     0.114 C 
BRANCH  40  41
HETATM   41  C   UNK     0       1.602  -1.662  13.841  0.00  0.00     0.139 C 
HETATM   42  O   UNK     0       0.701  -2.350  14.339  0.00  0.00    -0.650 OA
BRANCH  41  43
HETATM   43  O   UNK     0       1.354  -1.077  12.567  0.00  0.00    -0.776 OA
HETATM   44  H   UNK     0       0.579  -1.489  12.060  0.00  0.00     0.167 HD
ENDBRANCH  41  43
ENDBRANCH  40  41
ENDBRANCH  39  40
ENDBRANCH  27  39
BRANCH  11  45
HETATM   45  C   UNK     0       6.330 -12.117  13.353  0.00  0.00     0.051 C 
BRANCH  45  46
HETATM   46  C   UNK     0       6.937 -12.715  12.136  0.00  0.00     0.114 C 
BRANCH  46  47
HETATM   47  C   UNK     0       8.022 -13.631  12.589  0.00  0.00     0.139 C 
HETATM   48  O   UNK     0       9.188 -13.378  12.255  0.00  0.00    -0.650 OA
BRANCH  47  49
HETATM   49  O   UNK     0       7.738 -14.732  13.357  0.00  0.00    -0.776 OA
HETATM   50  H   UNK     0       8.338 -15.021  14.139  0.00  0.00     0.167 HD
ENDBRANCH  47  49
ENDBRANCH  46  47
ENDBRANCH  45  46
ENDBRANCH  11  45
BRANCH  18  51
HETATM   51  C   UNK     0       1.200  -7.394  12.974  0.00  0.00     0.051 C 
BRANCH  51  52
HETATM   52  C   UNK     0       0.763  -6.473  11.845  0.00  0.00     0.114 C 
BRANCH  52  53
HETATM   53  C   UNK     0       0.131  -5.241  12.355  0.00  0.00     0.139 C 
HETATM   54  O   UNK     0      -0.700  -5.303  13.274  0.00  0.00    -0.650 OA
BRANCH  53  55
HETATM   55  O   UNK     0       0.467  -4.027  11.804  0.00  0.00    -0.776 OA
HETATM   56  H   UNK     0       1.207  -3.436  12.102  0.00  0.00     0.167 HD
ENDBRANCH  53  55
ENDBRANCH  52  53
ENDBRANCH  51  52
ENDBRANCH  18  51
TORSDOF 16
ENDMDL
MODEL 13
REMARK VINA RESULT:      -9.6     29.119     32.140
REMARK  16 active torsions:
REMARK  status: ('A' for Active; 'I' for Inactive)
REMARK    1  A    between atoms: C_6  and  C_7 
REMARK    2  A    between atoms: C_7  and  C_8 
REMARK    3  A    between atoms: C_8  and  C_9 
REMARK    4  A    between atoms: C_9  and  O_11 
REMARK    5  A    between atoms: C_16  and  C_17 
REMARK    6  A    between atoms: C_17  and  C_18 
REMARK    7  A    between atoms: C_18  and  C_19 
REMARK    8  A    between atoms: C_19  and  O_21 
REMARK    9  A    between atoms: C_28  and  C_29 
REMARK   10  A    between atoms: C_29  and  C_30 
REMARK   11  A    between atoms: C_30  and  C_31 
REMARK   12  A    between atoms: C_31  and  O_33 
REMARK   13  A    between atoms: C_42  and  C_43 
REMARK   14  A    between atoms: C_43  and  C_44 
REMARK   15  A    between atoms: C_44  and  C_45 
REMARK   16  A    between atoms: C_45  and  O_47 
ROOT
HETATM    1  C   UNK     0      11.334 -13.070  13.551  0.00  0.00     0.051 C 
HETATM    2  C   UNK     0       9.855 -12.894  13.272  0.00  0.00    -0.031 A 
HETATM    3  C   UNK     0       8.849 -12.444  14.111  0.00  0.00     0.021 A 
HETATM    4  N   UNK     0       7.670 -12.481  13.447  0.00  0.00    -0.361 N 
HETATM    5  C   UNK     0       7.904 -12.937  12.199  0.00  0.00     0.022 A 
HETATM    6  C   UNK     0       9.260 -13.208  12.056  0.00  0.00    -0.027 A 
HETATM    7  C   UNK     0       6.962 -13.078  11.044  0.00  0.00     0.115 C 
HETATM    8  C   UNK     0       5.988 -11.935  10.816  0.00  0.00     0.021 A 
HETATM    9  N   UNK     0       6.184 -10.620  10.999  0.00  0.00    -0.361 N 
HETATM   10  C   UNK     0       5.017  -9.985  10.761  0.00  0.00     0.022 A 
HETATM   11  C   UNK     0       4.044 -10.916  10.406  0.00  0.00    -0.027 A 
HETATM   12  C   UNK     0       4.649 -12.146  10.439  0.00  0.00    -0.031 A 
HETATM   13  C   UNK     0       3.975 -13.461  10.118  0.00  0.00     0.051 C 
HETATM   14  C   UNK     0       4.758  -8.488  10.910  0.00  0.00     0.115 C 
HETATM   15  C   UNK     0       4.971  -7.964  12.321  0.00  0.00     0.021 A 
HETATM   16  N   UNK     0       6.096  -8.023  13.058  0.00  0.00    -0.361 N 
HETATM   17  C   UNK     0       5.854  -7.515  14.269  0.00  0.00     0.022 A 
HETATM   18  C   UNK     0       4.509  -7.097  14.320  0.00  0.00    -0.027 A 
HETATM   19  C   UNK     0       3.968  -7.383  13.093  0.00  0.00    -0.031 A 
HETATM   20  C   UNK     0       2.536  -7.058  12.706  0.00  0.00     0.051 C 
HETATM   21  C   UNK     0       6.754  -7.416  15.479  0.00  0.00     0.115 C 
HETATM   22  C   UNK     0       7.759  -8.524  15.694  0.00  0.00     0.022 A 
HETATM   23  N   UNK     0       7.592  -9.841  15.516  0.00  0.00    -0.361 N 
HETATM   24  C   UNK     0       8.786 -10.445  15.682  0.00  0.00     0.021 A 
HETATM   25  C   UNK     0       9.742  -9.495  15.985  0.00  0.00    -0.031 A 
HETATM   26  C   UNK     0      11.212  -9.687  16.295  0.00  0.00     0.051 C 
HETATM   27  C   UNK     0       9.109  -8.258  15.998  0.00  0.00    -0.027 A 
HETATM   28  C   UNK     0       9.118 -11.915  15.492  0.00  0.00     0.115 C 
HETATM   29  H   UNK     0       6.674 -12.222  13.876  0.00  0.00     0.165 HD
HETATM   30  H   UNK     0       7.158 -10.132  11.247  0.00  0.00     0.165 HD
HETATM   31  H   UNK     0       7.095  -8.386  12.702  0.00  0.00     0.165 HD
HETATM   32  H   UNK     0       6.620 -10.362  15.314  0.00  0.00     0.165 HD
ENDROOT
BRANCH   6  33
HETATM   33  C   UNK     0      10.024 -13.739  10.869  0.00  0.00     0.051 C 
BRANCH  33  34
HETATM   34  C   UNK     0      10.447 -12.611   9.958  0.00  0.00     0.114 C 
BRANCH  34  35
HETATM   35  C   UNK     0      11.574 -13.113   9.120  0.00  0.00     0.139 C 
HETATM   36  O   UNK     0      11.963 -12.452   8.114  0.00  0.00    -0.650 OA
BRANCH  35  37
HETATM   37  O   UNK     0      12.241 -14.300   9.395  0.00  0.00    -0.776 OA
HETATM   38  H   UNK     0      12.929 -14.370  10.128  0.00  0.00     0.167 HD
ENDBRANCH  35  37
ENDBRANCH  34  35
ENDBRANCH  33  34
ENDBRANCH   6  33
BRANCH  27  39
HETATM   39  C   UNK     0       9.807  -6.993  16.358  0.00  0.00     0.051 C 
BRANCH  39  40
HETATM   40  C   UNK     0       8.997  -5.842  16.754  0.00  0.00     0.114 C 
BRANCH  40  41
HETATM   41  C   UNK     0       9.151  -5.197  18.039  0.00  0.00     0.139 C 
HETATM   42  O   UNK     0       9.838  -4.182  18.217  0.00  0.00    -0.650 OA
BRANCH  41  43
HETATM   43  O   UNK     0       8.484  -5.745  19.171  0.00  0.00    -0.776 OA
HETATM   44  H   UNK     0       7.473  -5.719  19.115  0.00  0.00     0.167 HD
ENDBRANCH  41  43
ENDBRANCH  40  41
ENDBRANCH  39  40
ENDBRANCH  27  39
BRANCH  11  45
HETATM   45  C   UNK     0       2.602 -10.680  10.045  0.00  0.00     0.051 C 
BRANCH  45  46
HETATM   46  C   UNK     0       1.679 -10.676  11.209  0.00  0.00     0.114 C 
BRANCH  46  47
HETATM   47  C   UNK     0       0.413 -11.331  10.770  0.00  0.00     0.139 C 
HETATM   48  O   UNK     0      -0.053 -11.035   9.662  0.00  0.00    -0.650 OA
BRANCH  47  49
HETATM   49  O   UNK     0      -0.222 -12.241  11.576  0.00  0.00    -0.776 OA
HETATM   50  H   UNK     0       0.141 -13.191  11.719  0.00  0.00     0.167 HD
ENDBRANCH  47  49
ENDBRANCH  46  47
ENDBRANCH  45  46
ENDBRANCH  11  45
BRANCH  18  51
HETATM   51  C   UNK     0       3.786  -6.442  15.468  0.00  0.00     0.051 C 
BRANCH  51  52
HETATM   52  C   UNK     0       4.301  -5.012  15.536  0.00  0.00     0.114 C 
BRANCH  52  53
HETATM   53  C   UNK     0       3.513  -4.102  14.682  0.00  0.00     0.139 C 
HETATM   54  O   UNK     0       2.301  -3.942  14.898  0.00  0.00    -0.650 OA
BRANCH  53  55
HETATM   55  O   UNK     0       4.127  -3.438  13.648  0.00  0.00    -0.776 OA
HETATM   56  H   UNK     0       4.724  -2.650  13.733  0.00  0.00     0.167 HD
ENDBRANCH  53  55
ENDBRANCH  52  53
ENDBRANCH  51  52
ENDBRANCH  18  51
TORSDOF 16
ENDMDL
MODEL 14
REMARK VINA RESULT:      -9.2      2.571      3.607
REMARK  16 active torsions:
REMARK  status: ('A' for Active; 'I' for Inactive)
REMARK    1  A    between atoms: C_6  and  C_7 
REMARK    2  A    between atoms: C_7  and  C_8 
REMARK    3  A    between atoms: C_8  and  C_9 
REMARK    4  A    between atoms: C_9  and  O_11 
REMARK    5  A    between atoms: C_16  and  C_17 
REMARK    6  A    between atoms: C_17  and  C_18 
REMARK    7  A    between atoms: C_18  and  C_19 
REMARK    8  A    between atoms: C_19  and  O_21 
REMARK    9  A    between atoms: C_28  and  C_29 
REMARK   10  A    between atoms: C_29  and  C_30 
REMARK   11  A    between atoms: C_30  and  C_31 
REMARK   12  A    between atoms: C_31  and  O_33 
REMARK   13  A    between atoms: C_42  and  C_43 
REMARK   14  A    between atoms: C_43  and  C_44 
REMARK   15  A    between atoms: C_44  and  C_45 
REMARK   16  A    between atoms: C_45  and  O_47 
ROOT
HETATM    1  C   UNK     0      17.778  20.442  -3.462  0.00  0.00     0.051 C 
HETATM    2  C   UNK     0      17.415  18.986  -3.668  0.00  0.00    -0.031 A 
HETATM    3  C   UNK     0      16.502  18.201  -2.981  0.00  0.00     0.021 A 
HETATM    4  N   UNK     0      16.530  16.946  -3.487  0.00  0.00    -0.361 N 
HETATM    5  C   UNK     0      17.434  16.915  -4.487  0.00  0.00     0.022 A 
HETATM    6  C   UNK     0      18.009  18.174  -4.625  0.00  0.00    -0.027 A 
HETATM    7  C   UNK     0      17.778  15.801  -5.426  0.00  0.00     0.115 C 
HETATM    8  C   UNK     0      16.616  15.000  -5.988  0.00  0.00     0.021 A 
HETATM    9  N   UNK     0      15.391  15.430  -6.327  0.00  0.00    -0.361 N 
HETATM   10  C   UNK     0      14.657  14.357  -6.692  0.00  0.00     0.022 A 
HETATM   11  C   UNK     0      15.434  13.206  -6.594  0.00  0.00    -0.027 A 
HETATM   12  C   UNK     0      16.669  13.604  -6.151  0.00  0.00    -0.031 A 
HETATM   13  C   UNK     0      17.845  12.687  -5.901  0.00  0.00     0.051 C 
HETATM   14  C   UNK     0      13.185  14.367  -7.095  0.00  0.00     0.115 C 
HETATM   15  C   UNK     0      12.252  14.869  -6.005  0.00  0.00     0.021 A 
HETATM   16  N   UNK     0      12.275  16.067  -5.392  0.00  0.00    -0.361 N 
HETATM   17  C   UNK     0      11.335  16.093  -4.444  0.00  0.00     0.022 A 
HETATM   18  C   UNK     0      10.661  14.855  -4.447  0.00  0.00    -0.027 A 
HETATM   19  C   UNK     0      11.244  14.099  -5.430  0.00  0.00    -0.031 A 
HETATM   20  C   UNK     0      10.792  12.696  -5.795  0.00  0.00     0.051 C 
HETATM   21  C   UNK     0      11.001  17.168  -3.435  0.00  0.00     0.115 C 
HETATM   22  C   UNK     0      12.142  18.002  -2.902  0.00  0.00     0.022 A 
HETATM   23  N   UNK     0      13.373  17.602  -2.559  0.00  0.00    -0.361 N 
HETATM   24  C   UNK     0      14.109  18.695  -2.274  0.00  0.00     0.021 A 
HETATM   25  C   UNK     0      13.330  19.826  -2.427  0.00  0.00    -0.031 A 
HETATM   26  C   UNK     0      13.696  21.275  -2.184  0.00  0.00     0.051 C 
HETATM   27  C   UNK     0      12.066  19.408  -2.828  0.00  0.00    -0.027 A 
HETATM   28  C   UNK     0      15.587  18.755  -1.925  0.00  0.00     0.115 C 
HETATM   29  H   UNK     0      15.939  16.080  -3.108  0.00  0.00     0.165 HD
HETATM   30  H   UNK     0      15.056  16.495  -6.358  0.00  0.00     0.165 HD
HETATM   31  H   UNK     0      12.936  16.931  -5.664  0.00  0.00     0.165 HD
HETATM   32  H   UNK     0      13.722  16.540  -2.473  0.00  0.00     0.165 HD
ENDROOT
BRANCH   6  33
HETATM   33  C   UNK     0      19.068  18.657  -5.584  0.00  0.00     0.051 C 
BRANCH  33  34
HETATM   34  C   UNK     0      18.440  19.203  -6.844  0.00  0.00     0.114 C 
BRANCH  34  35
HETATM   35  C   UNK     0      19.084  18.513  -7.999  0.00  0.00     0.139 C 
HETATM   36  O   UNK     0      19.491  17.320  -7.882  0.00  0.00    -0.650 OA
BRANCH  35  37
HETATM   37  O   UNK     0      19.265  19.127  -9.232  0.00  0.00    -0.776 OA
HETATM   38  H   UNK     0      19.790  19.981  -9.333  0.00  0.00     0.167 HD
ENDBRANCH  35  37
ENDBRANCH  34  35
ENDBRANCH  33  34
ENDBRANCH   6  33
BRANCH  27  39
HETATM   39  C   UNK     0      10.928  20.345  -3.025  0.00  0.00     0.051 C 
BRANCH  39  40
HETATM   40  C   UNK     0      10.076  20.654  -1.877  0.00  0.00     0.114 C 
BRANCH  40  41
HETATM   41  C   UNK     0       8.683  20.269  -1.825  0.00  0.00     0.139 C 
HETATM   42  O   UNK     0       7.774  21.036  -1.479  0.00  0.00    -0.650 OA
BRANCH  41  43
HETATM   43  O   UNK     0       8.320  18.941  -2.187  0.00  0.00    -0.776 OA
HETATM   44  H   UNK     0       7.760  18.456  -1.495  0.00  0.00     0.167 HD
ENDBRANCH  41  43
ENDBRANCH  40  41
ENDBRANCH  39  40
ENDBRANCH  27  39
BRANCH  11  45
HETATM   45  C   UNK     0      15.052  11.783  -6.901  0.00  0.00     0.051 C 
BRANCH  45  46
HETATM   46  C   UNK     0      15.868  11.154  -7.970  0.00  0.00     0.114 C 
BRANCH  46  47
HETATM   47  C   UNK     0      14.926  10.686  -9.027  0.00  0.00     0.139 C 
HETATM   48  O   UNK     0      14.778  11.385 -10.040  0.00  0.00    -0.650 OA
BRANCH  47  49
HETATM   49  O   UNK     0      14.236   9.509  -8.883  0.00  0.00    -0.776 OA
HETATM   50  H   UNK     0      13.212   9.467  -8.940  0.00  0.00     0.167 HD
ENDBRANCH  47  49
ENDBRANCH  46  47
ENDBRANCH  45  46
ENDBRANCH  11  45
BRANCH  18  51
HETATM   51  C   UNK     0       9.510  14.426  -3.575  0.00  0.00     0.051 C 
BRANCH  51  52
HETATM   52  C   UNK     0       8.243  14.878  -4.287  0.00  0.00     0.114 C 
BRANCH  52  53
HETATM   53  C   UNK     0       7.571  15.978  -3.567  0.00  0.00     0.139 C 
HETATM   54  O   UNK     0       7.515  15.965  -2.327  0.00  0.00    -0.650 OA
BRANCH  53  55
HETATM   55  O   UNK     0       7.008  17.010  -4.277  0.00  0.00    -0.776 OA
HETATM   56  H   UNK     0       6.731  17.889  -3.908  0.00  0.00     0.167 HD
ENDBRANCH  53  55
ENDBRANCH  52  53
ENDBRANCH  51  52
ENDBRANCH  18  51
TORSDOF 16
ENDMDL
MODEL 15
REMARK VINA RESULT:      -8.6     28.517     31.147
REMARK  16 active torsions:
REMARK  status: ('A' for Active; 'I' for Inactive)
REMARK    1  A    between atoms: C_6  and  C_7 
REMARK    2  A    between atoms: C_7  and  C_8 
REMARK    3  A    between atoms: C_8  and  C_9 
REMARK    4  A    between atoms: C_9  and  O_11 
REMARK    5  A    between atoms: C_16  and  C_17 
REMARK    6  A    between atoms: C_17  and  C_18 
REMARK    7  A    between atoms: C_18  and  C_19 
REMARK    8  A    between atoms: C_19  and  O_21 
REMARK    9  A    between atoms: C_28  and  C_29 
REMARK   10  A    between atoms: C_29  and  C_30 
REMARK   11  A    between atoms: C_30  and  C_31 
REMARK   12  A    between atoms: C_31  and  O_33 
REMARK   13  A    between atoms: C_42  and  C_43 
REMARK   14  A    between atoms: C_43  and  C_44 
REMARK   15  A    between atoms: C_44  and  C_45 
REMARK   16  A    between atoms: C_45  and  O_47 
ROOT
HETATM    1  C   UNK     0       7.461  -5.046  16.615  0.00  0.00     0.051 C 
HETATM    2  C   UNK     0       7.312  -6.516  16.281  0.00  0.00    -0.031 A 
HETATM    3  C   UNK     0       6.165  -7.244  16.006  0.00  0.00     0.021 A 
HETATM    4  N   UNK     0       6.503  -8.537  15.792  0.00  0.00    -0.361 N 
HETATM    5  C   UNK     0       7.842  -8.648  15.917  0.00  0.00     0.022 A 
HETATM    6  C   UNK     0       8.379  -7.403  16.225  0.00  0.00    -0.027 A 
HETATM    7  C   UNK     0       8.724  -9.836  15.688  0.00  0.00     0.115 C 
HETATM    8  C   UNK     0       8.420 -10.686  14.468  0.00  0.00     0.021 A 
HETATM    9  N   UNK     0       7.980 -10.292  13.262  0.00  0.00    -0.361 N 
HETATM   10  C   UNK     0       7.759 -11.394  12.515  0.00  0.00     0.022 A 
HETATM   11  C   UNK     0       8.074 -12.529  13.257  0.00  0.00    -0.027 A 
HETATM   12  C   UNK     0       8.491 -12.090  14.487  0.00  0.00    -0.031 A 
HETATM   13  C   UNK     0       8.941 -12.978  15.626  0.00  0.00     0.051 C 
HETATM   14  C   UNK     0       7.195 -11.425  11.098  0.00  0.00     0.115 C 
HETATM   15  C   UNK     0       5.798 -10.837  10.979  0.00  0.00     0.021 A 
HETATM   16  N   UNK     0       5.401  -9.591  11.301  0.00  0.00    -0.361 N 
HETATM   17  C   UNK     0       4.082  -9.490  11.117  0.00  0.00     0.022 A 
HETATM   18  C   UNK     0       3.599 -10.726  10.644  0.00  0.00    -0.027 A 
HETATM   19  C   UNK     0       4.683 -11.560  10.561  0.00  0.00    -0.031 A 
HETATM   20  C   UNK     0       4.611 -12.990  10.057  0.00  0.00     0.051 C 
HETATM   21  C   UNK     0       3.148  -8.335  11.397  0.00  0.00     0.115 C 
HETATM   22  C   UNK     0       3.464  -7.454  12.583  0.00  0.00     0.022 A 
HETATM   23  N   UNK     0       3.906  -7.819  13.793  0.00  0.00    -0.361 N 
HETATM   24  C   UNK     0       4.194  -6.703  14.493  0.00  0.00     0.021 A 
HETATM   25  C   UNK     0       3.919  -5.592  13.718  0.00  0.00    -0.031 A 
HETATM   26  C   UNK     0       4.040  -4.126  14.077  0.00  0.00     0.051 C 
HETATM   27  C   UNK     0       3.450  -6.048  12.491  0.00  0.00    -0.027 A 
HETATM   28  C   UNK     0       4.809  -6.607  15.878  0.00  0.00     0.115 C 
HETATM   29  H   UNK     0       5.790  -9.371  15.595  0.00  0.00     0.165 HD
HETATM   30  H   UNK     0       7.872  -9.234  12.919  0.00  0.00     0.165 HD
HETATM   31  H   UNK     0       6.071  -8.751  11.618  0.00  0.00     0.165 HD
HETATM   32  H   UNK     0       3.980  -8.868  14.180  0.00  0.00     0.165 HD
ENDROOT
BRANCH   6  33
HETATM   33  C   UNK     0       9.811  -6.997  16.469  0.00  0.00     0.051 C 
BRANCH  33  34
HETATM   34  C   UNK     0      10.460  -6.528  15.189  0.00  0.00     0.114 C 
BRANCH  34  35
HETATM   35  C   UNK     0      11.936  -6.581  15.392  0.00  0.00     0.139 C 
HETATM   36  O   UNK     0      12.659  -7.288  14.631  0.00  0.00    -0.650 OA
BRANCH  35  37
HETATM   37  O   UNK     0      12.580  -5.872  16.399  0.00  0.00    -0.776 OA
HETATM   38  H   UNK     0      12.086  -5.514  17.200  0.00  0.00     0.167 HD
ENDBRANCH  35  37
ENDBRANCH  34  35
ENDBRANCH  33  34
ENDBRANCH   6  33
BRANCH  27  39
HETATM   39  C   UNK     0       2.982  -5.135  11.413  0.00  0.00     0.051 C 
BRANCH  39  40
HETATM   40  C   UNK     0       1.714  -4.431  11.602  0.00  0.00     0.114 C 
BRANCH  40  41
HETATM   41  C   UNK     0       0.594  -5.031  12.291  0.00  0.00     0.139 C 
HETATM   42  O   UNK     0       0.148  -4.610  13.367  0.00  0.00    -0.650 OA
BRANCH  41  43
HETATM   43  O   UNK     0      -0.041  -6.168  11.717  0.00  0.00    -0.776 OA
HETATM   44  H   UNK     0      -0.085  -6.976  12.326  0.00  0.00     0.167 HD
ENDBRANCH  41  43
ENDBRANCH  40  41
ENDBRANCH  39  40
ENDBRANCH  27  39
BRANCH  11  45
HETATM   45  C   UNK     0       7.997 -13.975  12.844  0.00  0.00     0.051 C 
BRANCH  45  46
HETATM   46  C   UNK     0       9.313 -14.586  12.528  0.00  0.00     0.114 C 
BRANCH  46  47
HETATM   47  C   UNK     0       9.773 -14.000  11.236  0.00  0.00     0.139 C 
HETATM   48  O   UNK     0      10.801 -13.308  11.233  0.00  0.00    -0.650 OA
BRANCH  47  49
HETATM   49  O   UNK     0       9.074 -14.220  10.076  0.00  0.00    -0.776 OA
HETATM   50  H   UNK     0       9.007 -13.510   9.337  0.00  0.00     0.167 HD
ENDBRANCH  47  49
ENDBRANCH  46  47
ENDBRANCH  45  46
ENDBRANCH  11  45
BRANCH  18  51
HETATM   51  C   UNK     0       2.184 -11.086  10.271  0.00  0.00     0.051 C 
BRANCH  51  52
HETATM   52  C   UNK     0       1.330 -10.775  11.491  0.00  0.00     0.114 C 
BRANCH  52  53
HETATM   53  C   UNK     0       0.032 -10.181  11.116  0.00  0.00     0.139 C 
HETATM   54  O   UNK     0      -0.741 -10.799  10.367  0.00  0.00    -0.650 OA
BRANCH  53  55
HETATM   55  O   UNK     0      -0.313  -8.942  11.598  0.00  0.00    -0.776 OA
HETATM   56  H   UNK     0      -1.223  -8.543  11.587  0.00  0.00     0.167 HD
ENDBRANCH  53  55
ENDBRANCH  52  53
ENDBRANCH  51  52
ENDBRANCH  18  51
TORSDOF 16
ENDMDL
MODEL 16
REMARK VINA RESULT:      -8.6     10.391     14.812
REMARK  16 active torsions:
REMARK  status: ('A' for Active; 'I' for Inactive)
REMARK    1  A    between atoms: C_6  and  C_7 
REMARK    2  A    between atoms: C_7  and  C_8 
REMARK    3  A    between atoms: C_8  and  C_9 
REMARK    4  A    between atoms: C_9  and  O_11 
REMARK    5  A    between atoms: C_16  and  C_17 
REMARK    6  A    between atoms: C_17  and  C_18 
REMARK    7  A    between atoms: C_18  and  C_19 
REMARK    8  A    between atoms: C_19  and  O_21 
REMARK    9  A    between atoms: C_28  and  C_29 
REMARK   10  A    between atoms: C_29  and  C_30 
REMARK   11  A    between atoms: C_30  and  C_31 
REMARK   12  A    between atoms: C_31  and  O_33 
REMARK   13  A    between atoms: C_42  and  C_43 
REMARK   14  A    between atoms: C_43  and  C_44 
REMARK   15  A    between atoms: C_44  and  C_45 
REMARK   16  A    between atoms: C_45  and  O_47 
ROOT
HETATM    1  C   UNK     0      22.544  14.319  -4.759  0.00  0.00     0.051 C 
HETATM    2  C   UNK     0      23.172  14.120  -3.395  0.00  0.00    -0.031 A 
HETATM    3  C   UNK     0      23.761  15.051  -2.554  0.00  0.00     0.021 A 
HETATM    4  N   UNK     0      24.217  14.419  -1.447  0.00  0.00    -0.361 N 
HETATM    5  C   UNK     0      23.923  13.107  -1.560  0.00  0.00     0.022 A 
HETATM    6  C   UNK     0      23.272  12.885  -2.768  0.00  0.00    -0.027 A 
HETATM    7  C   UNK     0      24.125  11.998  -0.575  0.00  0.00     0.115 C 
HETATM    8  C   UNK     0      23.788  12.303   0.874  0.00  0.00     0.021 A 
HETATM    9  N   UNK     0      22.805  13.078   1.358  0.00  0.00    -0.361 N 
HETATM   10  C   UNK     0      22.939  13.136   2.700  0.00  0.00     0.022 A 
HETATM   11  C   UNK     0      24.032  12.369   3.092  0.00  0.00    -0.027 A 
HETATM   12  C   UNK     0      24.572  11.842   1.947  0.00  0.00    -0.031 A 
HETATM   13  C   UNK     0      25.780  10.934   1.887  0.00  0.00     0.051 C 
HETATM   14  C   UNK     0      22.077  13.954   3.658  0.00  0.00     0.115 C 
HETATM   15  C   UNK     0      22.125  15.452   3.402  0.00  0.00     0.021 A 
HETATM   16  N   UNK     0      21.798  16.103   2.270  0.00  0.00    -0.361 N 
HETATM   17  C   UNK     0      22.045  17.405   2.426  0.00  0.00     0.022 A 
HETATM   18  C   UNK     0      22.550  17.614   3.725  0.00  0.00    -0.027 A 
HETATM   19  C   UNK     0      22.594  16.383   4.326  0.00  0.00    -0.031 A 
HETATM   20  C   UNK     0      23.045  16.159   5.758  0.00  0.00     0.051 C 
HETATM   21  C   UNK     0      21.918  18.543   1.439  0.00  0.00     0.115 C 
HETATM   22  C   UNK     0      22.209  18.243  -0.013  0.00  0.00     0.022 A 
HETATM   23  N   UNK     0      23.178  17.472  -0.524  0.00  0.00    -0.361 N 
HETATM   24  C   UNK     0      22.978  17.367  -1.853  0.00  0.00     0.021 A 
HETATM   25  C   UNK     0      21.860  18.095  -2.209  0.00  0.00    -0.031 A 
HETATM   26  C   UNK     0      21.261  18.314  -3.583  0.00  0.00     0.051 C 
HETATM   27  C   UNK     0      21.350  18.666  -1.048  0.00  0.00    -0.027 A 
HETATM   28  C   UNK     0      23.761  16.525  -2.846  0.00  0.00     0.115 C 
HETATM   29  H   UNK     0      24.779  14.898  -0.611  0.00  0.00     0.165 HD
HETATM   30  H   UNK     0      21.985  13.546   0.760  0.00  0.00     0.165 HD
HETATM   31  H   UNK     0      21.337  15.641   1.358  0.00  0.00     0.165 HD
HETATM   32  H   UNK     0      24.038  17.031   0.044  0.00  0.00     0.165 HD
ENDROOT
BRANCH   6  33
HETATM   33  C   UNK     0      22.746  11.604  -3.366  0.00  0.00     0.051 C 
BRANCH  33  34
HETATM   34  C   UNK     0      21.345  11.321  -2.876  0.00  0.00     0.114 C 
BRANCH  34  35
HETATM   35  C   UNK     0      20.436  11.400  -4.055  0.00  0.00     0.139 C 
HETATM   36  O   UNK     0      19.214  11.688  -3.899  0.00  0.00    -0.650 OA
BRANCH  35  37
HETATM   37  O   UNK     0      20.872  11.169  -5.354  0.00  0.00    -0.776 OA
HETATM   38  H   UNK     0      21.111  10.247  -5.682  0.00  0.00     0.167 HD
ENDBRANCH  35  37
ENDBRANCH  34  35
ENDBRANCH  33  34
ENDBRANCH   6  33
BRANCH  27  39
HETATM   39  C   UNK     0      20.179  19.585  -1.043  0.00  0.00     0.051 C 
BRANCH  39  40
HETATM   40  C   UNK     0      19.058  19.275  -0.156  0.00  0.00     0.114 C 
BRANCH  40  41
HETATM   41  C   UNK     0      18.423  17.976  -0.140  0.00  0.00     0.139 C 
HETATM   42  O   UNK     0      17.434  17.691  -0.828  0.00  0.00    -0.650 OA
BRANCH  41  43
HETATM   43  O   UNK     0      18.951  16.960   0.706  0.00  0.00    -0.776 OA
HETATM   44  H   UNK     0      19.598  16.329   0.248  0.00  0.00     0.167 HD
ENDBRANCH  41  43
ENDBRANCH  40  41
ENDBRANCH  39  40
ENDBRANCH  27  39
BRANCH  11  45
HETATM   45  C   UNK     0      24.564  12.127   4.479  0.00  0.00     0.051 C 
BRANCH  45  46
HETATM   46  C   UNK     0      25.464  13.197   4.979  0.00  0.00     0.114 C 
BRANCH  46  47
HETATM   47  C   UNK     0      26.863  12.707   4.821  0.00  0.00     0.139 C 
HETATM   48  O   UNK     0      27.713  13.481   4.359  0.00  0.00    -0.650 OA
BRANCH  47  49
HETATM   49  O   UNK     0      27.204  11.427   5.177  0.00  0.00    -0.776 OA
HETATM   50  H   UNK     0      28.092  10.999   4.889  0.00  0.00     0.167 HD
ENDBRANCH  47  49
ENDBRANCH  46  47
ENDBRANCH  45  46
ENDBRANCH  11  45
BRANCH  18  51
HETATM   51  C   UNK     0      22.947  18.919   4.365  0.00  0.00     0.051 C 
BRANCH  51  52
HETATM   52  C   UNK     0      24.449  19.052   4.162  0.00  0.00     0.114 C 
BRANCH  52  53
HETATM   53  C   UNK     0      24.775  19.993   3.073  0.00  0.00     0.139 C 
HETATM   54  O   UNK     0      25.641  19.697   2.234  0.00  0.00    -0.650 OA
BRANCH  53  55
HETATM   55  O   UNK     0      24.118  21.197   2.996  0.00  0.00    -0.776 OA
HETATM   56  H   UNK     0      24.535  22.095   3.071  0.00  0.00     0.167 HD
ENDBRANCH  53  55
ENDBRANCH  52  53
ENDBRANCH  51  52
ENDBRANCH  18  51
TORSDOF 16
ENDMDL
MODEL 17
REMARK VINA RESULT:      -8.6     10.413     14.976
REMARK  16 active torsions:
REMARK  status: ('A' for Active; 'I' for Inactive)
REMARK    1  A    between atoms: C_6  and  C_7 
REMARK    2  A    between atoms: C_7  and  C_8 
REMARK    3  A    between atoms: C_8  and  C_9 
REMARK    4  A    between atoms: C_9  and  O_11 
REMARK    5  A    between atoms: C_16  and  C_17 
REMARK    6  A    between atoms: C_17  and  C_18 
REMARK    7  A    between atoms: C_18  and  C_19 
REMARK    8  A    between atoms: C_19  and  O_21 
REMARK    9  A    between atoms: C_28  and  C_29 
REMARK   10  A    between atoms: C_29  and  C_30 
REMARK   11  A    between atoms: C_30  and  C_31 
REMARK   12  A    between atoms: C_31  and  O_33 
REMARK   13  A    between atoms: C_42  and  C_43 
REMARK   14  A    between atoms: C_43  and  C_44 
REMARK   15  A    between atoms: C_44  and  C_45 
REMARK   16  A    between atoms: C_45  and  O_47 
ROOT
HETATM    1  C   UNK     0      22.603  14.227  -4.634  0.00  0.00     0.051 C 
HETATM    2  C   UNK     0      23.233  14.120  -3.260  0.00  0.00    -0.031 A 
HETATM    3  C   UNK     0      23.787  15.112  -2.467  0.00  0.00     0.021 A 
HETATM    4  N   UNK     0      24.261  14.553  -1.328  0.00  0.00    -0.361 N 
HETATM    5  C   UNK     0      24.013  13.227  -1.374  0.00  0.00     0.022 A 
HETATM    6  C   UNK     0      23.373  12.922  -2.571  0.00  0.00    -0.027 A 
HETATM    7  C   UNK     0      24.250  12.177  -0.334  0.00  0.00     0.115 C 
HETATM    8  C   UNK     0      23.897  12.544   1.097  0.00  0.00     0.021 A 
HETATM    9  N   UNK     0      22.887  13.308   1.539  0.00  0.00    -0.361 N 
HETATM   10  C   UNK     0      23.014  13.438   2.877  0.00  0.00     0.022 A 
HETATM   11  C   UNK     0      24.132  12.730   3.309  0.00  0.00    -0.027 A 
HETATM   12  C   UNK     0      24.693  12.165   2.192  0.00  0.00    -0.031 A 
HETATM   13  C   UNK     0      25.932  11.297   2.180  0.00  0.00     0.051 C 
HETATM   14  C   UNK     0      22.122  14.274   3.791  0.00  0.00     0.115 C 
HETATM   15  C   UNK     0      22.119  15.757   3.459  0.00  0.00     0.021 A 
HETATM   16  N   UNK     0      21.773  16.338   2.295  0.00  0.00    -0.361 N 
HETATM   17  C   UNK     0      21.975  17.654   2.385  0.00  0.00     0.022 A 
HETATM   18  C   UNK     0      22.468  17.947   3.672  0.00  0.00    -0.027 A 
HETATM   19  C   UNK     0      22.552  16.750   4.335  0.00  0.00    -0.031 A 
HETATM   20  C   UNK     0      23.007  16.615   5.777  0.00  0.00     0.051 C 
HETATM   21  C   UNK     0      21.812  18.736   1.341  0.00  0.00     0.115 C 
HETATM   22  C   UNK     0      22.117  18.373  -0.093  0.00  0.00     0.022 A 
HETATM   23  N   UNK     0      23.114  17.611  -0.563  0.00  0.00    -0.361 N 
HETATM   24  C   UNK     0      22.923  17.431  -1.885  0.00  0.00     0.021 A 
HETATM   25  C   UNK     0      21.781  18.102  -2.279  0.00  0.00    -0.031 A 
HETATM   26  C   UNK     0      21.180  18.229  -3.663  0.00  0.00     0.051 C 
HETATM   27  C   UNK     0      21.248  18.712  -1.149  0.00  0.00    -0.027 A 
HETATM   28  C   UNK     0      23.737  16.568  -2.833  0.00  0.00     0.115 C 
HETATM   29  H   UNK     0      24.803  15.092  -0.517  0.00  0.00     0.165 HD
HETATM   30  H   UNK     0      22.053  13.716   0.917  0.00  0.00     0.165 HD
HETATM   31  H   UNK     0      21.332  15.815   1.407  0.00  0.00     0.165 HD
HETATM   32  H   UNK     0      23.987  17.229   0.028  0.00  0.00     0.165 HD
ENDROOT
BRANCH   6  33
HETATM   33  C   UNK     0      22.894  11.595  -3.104  0.00  0.00     0.051 C 
BRANCH  33  34
HETATM   34  C   UNK     0      24.045  10.799  -3.671  0.00  0.00     0.114 C 
BRANCH  34  35
HETATM   35  C   UNK     0      23.651  10.360  -5.041  0.00  0.00     0.139 C 
HETATM   36  O   UNK     0      24.340   9.495  -5.655  0.00  0.00    -0.650 OA
BRANCH  35  37
HETATM   37  O   UNK     0      22.534  10.864  -5.697  0.00  0.00    -0.776 OA
HETATM   38  H   UNK     0      21.615  10.475  -5.563  0.00  0.00     0.167 HD
ENDBRANCH  35  37
ENDBRANCH  34  35
ENDBRANCH  33  34
ENDBRANCH   6  33
BRANCH  27  39
HETATM   39  C   UNK     0      20.046  19.589  -1.193  0.00  0.00     0.051 C 
BRANCH  39  40
HETATM   40  C   UNK     0      18.942  19.300  -0.278  0.00  0.00     0.114 C 
BRANCH  40  41
HETATM   41  C   UNK     0      18.330  17.993  -0.198  0.00  0.00     0.139 C 
HETATM   42  O   UNK     0      17.322  17.670  -0.841  0.00  0.00    -0.650 OA
BRANCH  41  43
HETATM   43  O   UNK     0      18.903  17.013   0.661  0.00  0.00    -0.776 OA
HETATM   44  H   UNK     0      18.588  17.062   1.622  0.00  0.00     0.167 HD
ENDBRANCH  41  43
ENDBRANCH  40  41
ENDBRANCH  39  40
ENDBRANCH  27  39
BRANCH  11  45
HETATM   45  C   UNK     0      24.667  12.577   4.707  0.00  0.00     0.051 C 
BRANCH  45  46
HETATM   46  C   UNK     0      25.226  13.827   5.283  0.00  0.00     0.114 C 
BRANCH  46  47
HETATM   47  C   UNK     0      26.306  14.291   4.366  0.00  0.00     0.139 C 
HETATM   48  O   UNK     0      27.362  13.645   4.320  0.00  0.00    -0.650 OA
BRANCH  47  49
HETATM   49  O   UNK     0      26.137  15.410   3.590  0.00  0.00    -0.776 OA
HETATM   50  H   UNK     0      25.284  15.568   3.040  0.00  0.00     0.167 HD
ENDBRANCH  47  49
ENDBRANCH  46  47
ENDBRANCH  45  46
ENDBRANCH  11  45
BRANCH  18  51
HETATM   51  C   UNK     0      22.818  19.295   4.246  0.00  0.00     0.051 C 
BRANCH  51  52
HETATM   52  C   UNK     0      24.296  19.510   3.955  0.00  0.00     0.114 C 
BRANCH  52  53
HETATM   53  C   UNK     0      24.513  20.603   2.988  0.00  0.00     0.139 C 
HETATM   54  O   UNK     0      24.895  20.346   1.835  0.00  0.00    -0.650 OA
BRANCH  53  55
HETATM   55  O   UNK     0      24.291  21.904   3.371  0.00  0.00    -0.776 OA
HETATM   56  H   UNK     0      23.578  22.218   3.985  0.00  0.00     0.167 HD
ENDBRANCH  53  55
ENDBRANCH  52  53
ENDBRANCH  51  52
ENDBRANCH  18  51
TORSDOF 16
ENDMDL
MODEL 18
REMARK VINA RESULT:      -8.5     29.800     32.177
REMARK  16 active torsions:
REMARK  status: ('A' for Active; 'I' for Inactive)
REMARK    1  A    between atoms: C_6  and  C_7 
REMARK    2  A    between atoms: C_7  and  C_8 
REMARK    3  A    between atoms: C_8  and  C_9 
REMARK    4  A    between atoms: C_9  and  O_11 
REMARK    5  A    between atoms: C_16  and  C_17 
REMARK    6  A    between atoms: C_17  and  C_18 
REMARK    7  A    between atoms: C_18  and  C_19 
REMARK    8  A    between atoms: C_19  and  O_21 
REMARK    9  A    between atoms: C_28  and  C_29 
REMARK   10  A    between atoms: C_29  and  C_30 
REMARK   11  A    between atoms: C_30  and  C_31 
REMARK   12  A    between atoms: C_31  and  O_33 
REMARK   13  A    between atoms: C_42  and  C_43 
REMARK   14  A    between atoms: C_43  and  C_44 
REMARK   15  A    between atoms: C_44  and  C_45 
REMARK   16  A    between atoms: C_45  and  O_47 
ROOT
HETATM    1  C   UNK     0       7.767  -8.026  16.826  0.00  0.00     0.051 C 
HETATM    2  C   UNK     0       7.825  -9.302  16.013  0.00  0.00    -0.031 A 
HETATM    3  C   UNK     0       6.788 -10.088  15.534  0.00  0.00     0.021 A 
HETATM    4  N   UNK     0       7.308 -11.155  14.883  0.00  0.00    -0.361 N 
HETATM    5  C   UNK     0       8.654 -11.063  14.929  0.00  0.00     0.022 A 
HETATM    6  C   UNK     0       9.011  -9.916  15.631  0.00  0.00    -0.027 A 
HETATM    7  C   UNK     0       9.690 -11.930  14.286  0.00  0.00     0.115 C 
HETATM    8  C   UNK     0       9.424 -12.366  12.856  0.00  0.00     0.021 A 
HETATM    9  N   UNK     0       8.828 -11.678  11.870  0.00  0.00    -0.361 N 
HETATM   10  C   UNK     0       8.723 -12.489  10.796  0.00  0.00     0.022 A 
HETATM   11  C   UNK     0       9.274 -13.732  11.097  0.00  0.00    -0.027 A 
HETATM   12  C   UNK     0       9.718 -13.661  12.393  0.00  0.00    -0.031 A 
HETATM   13  C   UNK     0      10.396 -14.782  13.147  0.00  0.00     0.051 C 
HETATM   14  C   UNK     0       8.054 -12.146   9.469  0.00  0.00     0.115 C 
HETATM   15  C   UNK     0       6.577 -11.809   9.592  0.00  0.00     0.021 A 
HETATM   16  N   UNK     0       6.016 -10.832  10.330  0.00  0.00    -0.361 N 
HETATM   17  C   UNK     0       4.688 -10.911  10.224  0.00  0.00     0.022 A 
HETATM   18  C   UNK     0       4.368 -11.984   9.369  0.00  0.00    -0.027 A 
HETATM   19  C   UNK     0       5.560 -12.537   8.979  0.00  0.00    -0.031 A 
HETATM   20  C   UNK     0       5.673 -13.707   8.018  0.00  0.00     0.051 C 
HETATM   21  C   UNK     0       3.609 -10.100  10.905  0.00  0.00     0.115 C 
HETATM   22  C   UNK     0       3.879  -9.622  12.313  0.00  0.00     0.022 A 
HETATM   23  N   UNK     0       4.474 -10.284  13.314  0.00  0.00    -0.361 N 
HETATM   24  C   UNK     0       4.638  -9.433  14.346  0.00  0.00     0.021 A 
HETATM   25  C   UNK     0       4.128  -8.195  14.005  0.00  0.00    -0.031 A 
HETATM   26  C   UNK     0       4.045  -6.934  14.841  0.00  0.00     0.051 C 
HETATM   27  C   UNK     0       3.636  -8.291  12.708  0.00  0.00    -0.027 A 
HETATM   28  C   UNK     0       5.344  -9.696  15.665  0.00  0.00     0.115 C 
HETATM   29  H   UNK     0       6.722 -11.988  14.429  0.00  0.00     0.165 HD
HETATM   30  H   UNK     0       8.526 -10.602  11.911  0.00  0.00     0.165 HD
HETATM   31  H   UNK     0       6.570 -10.041  10.899  0.00  0.00     0.165 HD
HETATM   32  H   UNK     0       4.744 -11.372  13.317  0.00  0.00     0.165 HD
ENDROOT
BRANCH   6  33
HETATM   33  C   UNK     0      10.376  -9.369  15.964  0.00  0.00     0.051 C 
BRANCH  33  34
HETATM   34  C   UNK     0      11.181 -10.379  16.746  0.00  0.00     0.114 C 
BRANCH  34  35
HETATM   35  C   UNK     0      12.622 -10.051  16.549  0.00  0.00     0.139 C 
HETATM   36  O   UNK     0      13.352  -9.762  17.542  0.00  0.00    -0.650 OA
BRANCH  35  37
HETATM   37  O   UNK     0      13.225 -10.046  15.297  0.00  0.00    -0.776 OA
HETATM   38  H   UNK     0      14.200 -10.264  15.173  0.00  0.00     0.167 HD
ENDBRANCH  35  37
ENDBRANCH  34  35
ENDBRANCH  33  34
ENDBRANCH   6  33
BRANCH  27  39
HETATM   39  C   UNK     0       2.942  -7.170  12.019  0.00  0.00     0.051 C 
BRANCH  39  40
HETATM   40  C   UNK     0       1.514  -6.978  12.272  0.00  0.00     0.114 C 
BRANCH  40  41
HETATM   41  C   UNK     0       0.947  -5.675  12.538  0.00  0.00     0.139 C 
HETATM   42  O   UNK     0       1.441  -4.864  13.333  0.00  0.00    -0.650 OA
BRANCH  41  43
HETATM   43  O   UNK     0      -0.243  -5.287  11.859  0.00  0.00    -0.776 OA
HETATM   44  H   UNK     0      -0.602  -4.379  12.129  0.00  0.00     0.167 HD
ENDBRANCH  41  43
ENDBRANCH  40  41
ENDBRANCH  39  40
ENDBRANCH  27  39
BRANCH  11  45
HETATM   45  C   UNK     0       9.392 -14.947  10.217  0.00  0.00     0.051 C 
BRANCH  45  46
HETATM   46  C   UNK     0      10.557 -14.918   9.296  0.00  0.00     0.114 C 
BRANCH  46  47
HETATM   47  C   UNK     0      10.024 -14.740   7.915  0.00  0.00     0.139 C 
HETATM   48  O   UNK     0       8.839 -15.025   7.696  0.00  0.00    -0.650 OA
BRANCH  47  49
HETATM   49  O   UNK     0      10.828 -14.271   6.907  0.00  0.00    -0.776 OA
HETATM   50  H   UNK     0      11.461 -14.887   6.383  0.00  0.00     0.167 HD
ENDBRANCH  47  49
ENDBRANCH  46  47
ENDBRANCH  45  46
ENDBRANCH  11  45
BRANCH  18  51
HETATM   51  C   UNK     0       3.002 -12.444   8.930  0.00  0.00     0.051 C 
BRANCH  51  52
HETATM   52  C   UNK     0       2.789 -13.811   9.563  0.00  0.00     0.114 C 
BRANCH  52  53
HETATM   53  C   UNK     0       1.926 -14.672   8.732  0.00  0.00     0.139 C 
HETATM   54  O   UNK     0       2.270 -14.967   7.576  0.00  0.00    -0.650 OA
BRANCH  53  55
HETATM   55  O   UNK     0       0.741 -15.142   9.243  0.00  0.00    -0.776 OA
HETATM   56  H   UNK     0       0.278 -15.978   8.972  0.00  0.00     0.167 HD
ENDBRANCH  53  55
ENDBRANCH  52  53
ENDBRANCH  51  52
ENDBRANCH  18  51
TORSDOF 16
ENDMDL
MODEL 19
REMARK VINA RESULT:      -8.4      9.330     14.496
REMARK  16 active torsions:
REMARK  status: ('A' for Active; 'I' for Inactive)
REMARK    1  A    between atoms: C_6  and  C_7 
REMARK    2  A    between atoms: C_7  and  C_8 
REMARK    3  A    between atoms: C_8  and  C_9 
REMARK    4  A    between atoms: C_9  and  O_11 
REMARK    5  A    between atoms: C_16  and  C_17 
REMARK    6  A    between atoms: C_17  and  C_18 
REMARK    7  A    between atoms: C_18  and  C_19 
REMARK    8  A    between atoms: C_19  and  O_21 
REMARK    9  A    between atoms: C_28  and  C_29 
REMARK   10  A    between atoms: C_29  and  C_30 
REMARK   11  A    between atoms: C_30  and  C_31 
REMARK   12  A    between atoms: C_31  and  O_33 
REMARK   13  A    between atoms: C_42  and  C_43 
REMARK   14  A    between atoms: C_43  and  C_44 
REMARK   15  A    between atoms: C_44  and  C_45 
REMARK   16  A    between atoms: C_45  and  O_47 
ROOT
HETATM    1  C   UNK     0      18.758   7.318   2.416  0.00  0.00     0.051 C 
HETATM    2  C   UNK     0      18.733   8.407   1.362  0.00  0.00    -0.031 A 
HETATM    3  C   UNK     0      19.096   9.741   1.467  0.00  0.00     0.021 A 
HETATM    4  N   UNK     0      18.879  10.351   0.278  0.00  0.00    -0.361 N 
HETATM    5  C   UNK     0      18.394   9.434  -0.585  0.00  0.00     0.022 A 
HETATM    6  C   UNK     0      18.288   8.207   0.062  0.00  0.00    -0.027 A 
HETATM    7  C   UNK     0      18.080   9.570  -2.042  0.00  0.00     0.115 C 
HETATM    8  C   UNK     0      19.080  10.341  -2.886  0.00  0.00     0.021 A 
HETATM    9  N   UNK     0      20.416  10.380  -2.771  0.00  0.00    -0.361 N 
HETATM   10  C   UNK     0      20.888  11.268  -3.672  0.00  0.00     0.022 A 
HETATM   11  C   UNK     0      19.827  11.809  -4.393  0.00  0.00    -0.027 A 
HETATM   12  C   UNK     0      18.685  11.229  -3.902  0.00  0.00    -0.031 A 
HETATM   13  C   UNK     0      17.282  11.511  -4.391  0.00  0.00     0.051 C 
HETATM   14  C   UNK     0      22.346  11.680  -3.853  0.00  0.00     0.115 C 
HETATM   15  C   UNK     0      22.963  12.321  -2.620  0.00  0.00     0.021 A 
HETATM   16  N   UNK     0      23.081  11.788  -1.390  0.00  0.00    -0.361 N 
HETATM   17  C   UNK     0      23.614  12.696  -0.568  0.00  0.00     0.022 A 
HETATM   18  C   UNK     0      23.863  13.873  -1.301  0.00  0.00    -0.027 A 
HETATM   19  C   UNK     0      23.452  13.625  -2.585  0.00  0.00    -0.031 A 
HETATM   20  C   UNK     0      23.576  14.626  -3.719  0.00  0.00     0.051 C 
HETATM   21  C   UNK     0      23.885  12.622   0.917  0.00  0.00     0.115 C 
HETATM   22  C   UNK     0      22.923  11.820   1.763  0.00  0.00     0.022 A 
HETATM   23  N   UNK     0      21.588  11.759   1.669  0.00  0.00    -0.361 N 
HETATM   24  C   UNK     0      21.146  10.812   2.521  0.00  0.00     0.021 A 
HETATM   25  C   UNK     0      22.222  10.258   3.187  0.00  0.00    -0.031 A 
HETATM   26  C   UNK     0      22.230   9.193   4.264  0.00  0.00     0.051 C 
HETATM   27  C   UNK     0      23.370  10.887   2.719  0.00  0.00    -0.027 A 
HETATM   28  C   UNK     0      19.722  10.318   2.705  0.00  0.00     0.115 C 
HETATM   29  H   UNK     0      19.033  11.435   0.067  0.00  0.00     0.165 HD
HETATM   30  H   UNK     0      21.034   9.746  -2.090  0.00  0.00     0.165 HD
HETATM   31  H   UNK     0      22.828  10.734  -1.105  0.00  0.00     0.165 HD
HETATM   32  H   UNK     0      20.940  12.415   1.031  0.00  0.00     0.165 HD
ENDROOT
BRANCH   6  33
HETATM   33  C   UNK     0      17.799   6.878  -0.454  0.00  0.00     0.051 C 
BRANCH  33  34
HETATM   34  C   UNK     0      16.297   6.776  -0.332  0.00  0.00     0.114 C 
BRANCH  34  35
HETATM   35  C   UNK     0      15.981   5.403   0.157  0.00  0.00     0.139 C 
HETATM   36  O   UNK     0      16.856   4.730   0.778  0.00  0.00    -0.650 OA
BRANCH  35  37
HETATM   37  O   UNK     0      14.741   4.805  -0.035  0.00  0.00    -0.776 OA
HETATM   38  H   UNK     0      14.393   4.087   0.579  0.00  0.00     0.167 HD
ENDBRANCH  35  37
ENDBRANCH  34  35
ENDBRANCH  33  34
ENDBRANCH   6  33
BRANCH  27  39
HETATM   39  C   UNK     0      24.728  10.602   3.258  0.00  0.00     0.051 C 
BRANCH  39  40
HETATM   40  C   UNK     0      25.622   9.752   2.473  0.00  0.00     0.114 C 
BRANCH  40  41
HETATM   41  C   UNK     0      26.347  10.249   1.325  0.00  0.00     0.139 C 
HETATM   42  O   UNK     0      26.333   9.697   0.217  0.00  0.00    -0.650 OA
BRANCH  41  43
HETATM   43  O   UNK     0      27.124  11.434   1.459  0.00  0.00    -0.776 OA
HETATM   44  H   UNK     0      27.169  11.801   2.402  0.00  0.00     0.167 HD
ENDBRANCH  41  43
ENDBRANCH  40  41
ENDBRANCH  39  40
ENDBRANCH  27  39
BRANCH  11  45
HETATM   45  C   UNK     0      19.863  12.826  -5.502  0.00  0.00     0.051 C 
BRANCH  45  46
HETATM   46  C   UNK     0      20.071  12.244  -6.852  0.00  0.00     0.114 C 
BRANCH  46  47
HETATM   47  C   UNK     0      19.236  13.030  -7.805  0.00  0.00     0.139 C 
HETATM   48  O   UNK     0      18.056  13.262  -7.507  0.00  0.00    -0.650 OA
BRANCH  47  49
HETATM   49  O   UNK     0      19.761  13.486  -8.988  0.00  0.00    -0.776 OA
HETATM   50  H   UNK     0      19.605  14.445  -9.320  0.00  0.00     0.167 HD
ENDBRANCH  47  49
ENDBRANCH  46  47
ENDBRANCH  45  46
ENDBRANCH  11  45
BRANCH  18  51
HETATM   51  C   UNK     0      24.479  15.157  -0.809  0.00  0.00     0.051 C 
BRANCH  51  52
HETATM   52  C   UNK     0      23.342  15.977  -0.218  0.00  0.00     0.114 C 
BRANCH  52  53
HETATM   53  C   UNK     0      23.289  17.336  -0.789  0.00  0.00     0.139 C 
HETATM   54  O   UNK     0      23.122  17.492  -2.009  0.00  0.00    -0.650 OA
BRANCH  53  55
HETATM   55  O   UNK     0      23.429  18.426   0.036  0.00  0.00    -0.776 OA
HETATM   56  H   UNK     0      23.110  19.346  -0.153  0.00  0.00     0.167 HD
ENDBRANCH  53  55
ENDBRANCH  52  53
ENDBRANCH  51  52
ENDBRANCH  18  51
TORSDOF 16
ENDMDL
MODEL 20
REMARK VINA RESULT:      -8.3     10.024     14.089
REMARK  16 active torsions:
REMARK  status: ('A' for Active; 'I' for Inactive)
REMARK    1  A    between atoms: C_6  and  C_7 
REMARK    2  A    between atoms: C_7  and  C_8 
REMARK    3  A    between atoms: C_8  and  C_9 
REMARK    4  A    between atoms: C_9  and  O_11 
REMARK    5  A    between atoms: C_16  and  C_17 
REMARK    6  A    between atoms: C_17  and  C_18 
REMARK    7  A    between atoms: C_18  and  C_19 
REMARK    8  A    between atoms: C_19  and  O_21 
REMARK    9  A    between atoms: C_28  and  C_29 
REMARK   10  A    between atoms: C_29  and  C_30 
REMARK   11  A    between atoms: C_30  and  C_31 
REMARK   12  A    between atoms: C_31  and  O_33 
REMARK   13  A    between atoms: C_42  and  C_43 
REMARK   14  A    between atoms: C_43  and  C_44 
REMARK   15  A    between atoms: C_44  and  C_45 
REMARK   16  A    between atoms: C_45  and  O_47 
ROOT
HETATM    1  C   UNK     0      24.797  12.520   4.495  0.00  0.00     0.051 C 
HETATM    2  C   UNK     0      24.172  12.657   3.122  0.00  0.00    -0.031 A 
HETATM    3  C   UNK     0      22.997  13.291   2.749  0.00  0.00     0.021 A 
HETATM    4  N   UNK     0      22.814  13.133   1.417  0.00  0.00    -0.361 N 
HETATM    5  C   UNK     0      23.851  12.420   0.931  0.00  0.00     0.022 A 
HETATM    6  C   UNK     0      24.718  12.103   1.971  0.00  0.00    -0.027 A 
HETATM    7  C   UNK     0      24.174  12.054  -0.484  0.00  0.00     0.115 C 
HETATM    8  C   UNK     0      23.981  13.139  -1.530  0.00  0.00     0.021 A 
HETATM    9  N   UNK     0      24.190  14.459  -1.413  0.00  0.00    -0.361 N 
HETATM   10  C   UNK     0      23.800  15.049  -2.563  0.00  0.00     0.022 A 
HETATM   11  C   UNK     0      23.335  14.080  -3.448  0.00  0.00    -0.027 A 
HETATM   12  C   UNK     0      23.447  12.875  -2.804  0.00  0.00    -0.031 A 
HETATM   13  C   UNK     0      23.064  11.533  -3.386  0.00  0.00     0.051 C 
HETATM   14  C   UNK     0      23.799  16.547  -2.852  0.00  0.00     0.115 C 
HETATM   15  C   UNK     0      22.911  17.354  -1.919  0.00  0.00     0.021 A 
HETATM   16  N   UNK     0      22.987  17.434  -0.577  0.00  0.00    -0.361 N 
HETATM   17  C   UNK     0      21.984  18.190  -0.125  0.00  0.00     0.022 A 
HETATM   18  C   UNK     0      21.223  18.631  -1.225  0.00  0.00    -0.027 A 
HETATM   19  C   UNK     0      21.814  18.102  -2.343  0.00  0.00    -0.031 A 
HETATM   20  C   UNK     0      21.328  18.361  -3.757  0.00  0.00     0.051 C 
HETATM   21  C   UNK     0      21.585  18.527   1.294  0.00  0.00     0.115 C 
HETATM   22  C   UNK     0      21.812  17.473   2.352  0.00  0.00     0.022 A 
HETATM   23  N   UNK     0      21.617  16.151   2.262  0.00  0.00    -0.361 N 
HETATM   24  C   UNK     0      22.085  15.577   3.388  0.00  0.00     0.021 A 
HETATM   25  C   UNK     0      22.585  16.553   4.228  0.00  0.00    -0.031 A 
HETATM   26  C   UNK     0      23.177  16.407   5.615  0.00  0.00     0.051 C 
HETATM   27  C   UNK     0      22.421  17.776   3.587  0.00  0.00    -0.027 A 
HETATM   28  C   UNK     0      22.168  14.095   3.710  0.00  0.00     0.115 C 
HETATM   29  H   UNK     0      21.933  13.493   0.836  0.00  0.00     0.165 HD
HETATM   30  H   UNK     0      24.660  14.973  -0.539  0.00  0.00     0.165 HD
HETATM   31  H   UNK     0      23.794  16.988   0.061  0.00  0.00     0.165 HD
HETATM   32  H   UNK     0      21.107  15.615   1.420  0.00  0.00     0.165 HD
ENDROOT
BRANCH   6  33
HETATM   33  C   UNK     0      26.007  11.322   1.955  0.00  0.00     0.051 C 
BRANCH  33  34
HETATM   34  C   UNK     0      25.748   9.857   2.216  0.00  0.00     0.114 C 
BRANCH  34  35
HETATM   35  C   UNK     0      26.461   9.082   1.160  0.00  0.00     0.139 C 
HETATM   36  O   UNK     0      26.939   7.940   1.420  0.00  0.00    -0.650 OA
BRANCH  35  37
HETATM   37  O   UNK     0      26.632   9.561  -0.134  0.00  0.00    -0.776 OA
HETATM   38  H   UNK     0      26.991   8.981  -0.875  0.00  0.00     0.167 HD
ENDBRANCH  35  37
ENDBRANCH  34  35
ENDBRANCH  33  34
ENDBRANCH   6  33
BRANCH  27  39
HETATM   39  C   UNK     0      22.779  19.076   4.216  0.00  0.00     0.051 C 
BRANCH  39  40
HETATM   40  C   UNK     0      24.032  19.718   3.819  0.00  0.00     0.114 C 
BRANCH  40  41
HETATM   41  C   UNK     0      25.016  19.046   3.000  0.00  0.00     0.139 C 
HETATM   42  O   UNK     0      25.933  18.353   3.463  0.00  0.00    -0.650 OA
BRANCH  41  43
HETATM   43  O   UNK     0      24.942  19.177   1.584  0.00  0.00    -0.776 OA
HETATM   44  H   UNK     0      24.155  19.723   1.254  0.00  0.00     0.167 HD
ENDBRANCH  41  43
ENDBRANCH  40  41
ENDBRANCH  39  40
ENDBRANCH  27  39
BRANCH  11  45
HETATM   45  C   UNK     0      22.807  14.258  -4.846  0.00  0.00     0.051 C 
BRANCH  45  46
HETATM   46  C   UNK     0      21.348  14.525  -4.913  0.00  0.00     0.114 C 
BRANCH  46  47
HETATM   47  C   UNK     0      20.711  13.339  -5.556  0.00  0.00     0.139 C 
HETATM   48  O   UNK     0      21.014  13.065  -6.725  0.00  0.00    -0.650 OA
BRANCH  47  49
HETATM   49  O   UNK     0      19.808  12.568  -4.869  0.00  0.00    -0.776 OA
HETATM   50  H   UNK     0      20.058  11.652  -4.478  0.00  0.00     0.167 HD
ENDBRANCH  47  49
ENDBRANCH  46  47
ENDBRANCH  45  46
ENDBRANCH  11  45
BRANCH  18  51
HETATM   51  C   UNK     0      20.010  19.525  -1.214  0.00  0.00     0.051 C 
BRANCH  51  52
HETATM   52  C   UNK     0      18.812  18.616  -0.986  0.00  0.00     0.114 C 
BRANCH  52  53
HETATM   53  C   UNK     0      17.735  18.872  -1.961  0.00  0.00     0.139 C 
HETATM   54  O   UNK     0      17.816  18.414  -3.112  0.00  0.00    -0.650 OA
BRANCH  53  55
HETATM   55  O   UNK     0      16.645  19.622  -1.589  0.00  0.00    -0.776 OA
HETATM   56  H   UNK     0      15.863  19.297  -1.071  0.00  0.00     0.167 HD
ENDBRANCH  53  55
ENDBRANCH  52  53
ENDBRANCH  51  52
ENDBRANCH  18  51
TORSDOF 16
ENDMDL
