MODEL 1
REMARK VINA RESULT:     -10.7      0.000      0.000
REMARK  16 active torsions:
REMARK  status: ('A' for Active; 'I' for Inactive)
REMARK    1  A    between atoms: C_6  and  C_7 
REMARK    2  A    between atoms: C_7  and  C_8 
REMARK    3  A    between atoms: C_8  and  C_9 
REMARK    4  A    between atoms: C_9  and  O_11 
REMARK    5  A    between atoms: C_16  and  C_17 
REMARK    6  A    between atoms: C_17  and  C_18 
REMARK    7  A    between atoms: C_18  and  C_19 
REMARK    8  A    between atoms: C_19  and  O_21 
REMARK    9  A    between atoms: C_28  and  C_29 
REMARK   10  A    between atoms: C_29  and  C_30 
REMARK   11  A    between atoms: C_30  and  C_31 
REMARK   12  A    between atoms: C_31  and  O_33 
REMARK   13  A    between atoms: C_42  and  C_43 
REMARK   14  A    between atoms: C_43  and  C_44 
REMARK   15  A    between atoms: C_44  and  C_45 
REMARK   16  A    between atoms: C_45  and  O_47 
ROOT
HETATM    1  C   UNK     0       8.572   4.333  22.578  0.00  0.00     0.051 C 
HETATM    2  C   UNK     0       7.232   4.824  23.086  0.00  0.00    -0.031 A 
HETATM    3  C   UNK     0       6.886   6.063  23.600  0.00  0.00     0.021 A 
HETATM    4  N   UNK     0       5.580   6.043  23.960  0.00  0.00    -0.361 N 
HETATM    5  C   UNK     0       5.085   4.821  23.678  0.00  0.00     0.022 A 
HETATM    6  C   UNK     0       6.092   4.031  23.133  0.00  0.00    -0.027 A 
HETATM    7  C   UNK     0       3.682   4.312  23.795  0.00  0.00     0.115 C 
HETATM    8  C   UNK     0       2.577   5.247  23.334  0.00  0.00     0.021 A 
HETATM    9  N   UNK     0       2.590   6.117  22.312  0.00  0.00    -0.361 N 
HETATM   10  C   UNK     0       1.427   6.802  22.330  0.00  0.00     0.022 A 
HETATM   11  C   UNK     0       0.640   6.355  23.387  0.00  0.00    -0.027 A 
HETATM   12  C   UNK     0       1.358   5.375  24.023  0.00  0.00    -0.031 A 
HETATM   13  C   UNK     0       0.892   4.596  25.232  0.00  0.00     0.051 C 
HETATM   14  C   UNK     0       1.036   7.938  21.389  0.00  0.00     0.115 C 
HETATM   15  C   UNK     0       1.962   9.141  21.457  0.00  0.00     0.021 A 
HETATM   16  N   UNK     0       3.288   9.171  21.228  0.00  0.00    -0.361 N 
HETATM   17  C   UNK     0       3.745  10.404  21.460  0.00  0.00     0.022 A 
HETATM   18  C   UNK     0       2.664  11.218  21.850  0.00  0.00    -0.027 A 
HETATM   19  C   UNK     0       1.552  10.416  21.843  0.00  0.00    -0.031 A 
HETATM   20  C   UNK     0       0.154  10.908  22.170  0.00  0.00     0.051 C 
HETATM   21  C   UNK     0       5.158  10.940  21.417  0.00  0.00     0.115 C 
HETATM   22  C   UNK     0       6.271  10.007  21.832  0.00  0.00     0.022 A 
HETATM   23  N   UNK     0       6.284   9.127  22.842  0.00  0.00    -0.361 N 
HETATM   24  C   UNK     0       7.418   8.403  22.758  0.00  0.00     0.021 A 
HETATM   25  C   UNK     0       8.158   8.833  21.673  0.00  0.00    -0.031 A 
HETATM   26  C   UNK     0       9.514   8.357  21.195  0.00  0.00     0.051 C 
HETATM   27  C   UNK     0       7.445   9.859  21.065  0.00  0.00    -0.027 A 
HETATM   28  C   UNK     0       7.836   7.227  23.624  0.00  0.00     0.115 C 
HETATM   29  H   UNK     0       5.028   6.881  24.447  0.00  0.00     0.165 HD
HETATM   30  H   UNK     0       3.398   6.215  21.546  0.00  0.00     0.165 HD
HETATM   31  H   UNK     0       3.907   8.317  20.848  0.00  0.00     0.165 HD
HETATM   32  H   UNK     0       5.513   9.039  23.650  0.00  0.00     0.165 HD
ENDROOT
BRANCH   6  33
HETATM   33  C   UNK     0       6.054   2.600  22.661  0.00  0.00     0.051 C 
BRANCH  33  34
HETATM   34  C   UNK     0       6.450   1.659  23.775  0.00  0.00     0.114 C 
BRANCH  34  35
HETATM   35  C   UNK     0       5.197   1.061  24.320  0.00  0.00     0.139 C 
HETATM   36  O   UNK     0       4.695   0.033  23.781  0.00  0.00    -0.650 OA
BRANCH  35  37
HETATM   37  O   UNK     0       4.535   1.586  25.423  0.00  0.00    -0.776 OA
HETATM   38  H   UNK     0       4.949   1.595  26.341  0.00  0.00     0.167 HD
ENDBRANCH  35  37
ENDBRANCH  34  35
ENDBRANCH  33  34
ENDBRANCH   6  33
BRANCH  27  39
HETATM   39  C   UNK     0       7.961  10.624  19.897  0.00  0.00     0.051 C 
BRANCH  39  40
HETATM   40  C   UNK     0       8.867  11.744  20.147  0.00  0.00     0.114 C 
BRANCH  40  41
HETATM   41  C   UNK     0       8.810  12.525  21.363  0.00  0.00     0.139 C 
HETATM   42  O   UNK     0       8.213  13.606  21.454  0.00  0.00    -0.650 OA
BRANCH  41  43
HETATM   43  O   UNK     0       9.471  12.039  22.527  0.00  0.00    -0.776 OA
HETATM   44  H   UNK     0      10.449  11.815  22.391  0.00  0.00     0.167 HD
ENDBRANCH  41  43
ENDBRANCH  40  41
ENDBRANCH  39  40
ENDBRANCH  27  39
BRANCH  11  45
HETATM   45  C   UNK     0      -0.734   6.813  23.797  0.00  0.00     0.051 C 
BRANCH  45  46
HETATM   46  C   UNK     0      -0.741   7.750  24.949  0.00  0.00     0.114 C 
BRANCH  46  47
HETATM   47  C   UNK     0      -1.719   8.831  24.632  0.00  0.00     0.139 C 
HETATM   48  O   UNK     0      -2.283   8.815  23.529  0.00  0.00    -0.650 OA
BRANCH  47  49
HETATM   49  O   UNK     0      -1.988   9.823  25.541  0.00  0.00    -0.776 OA
HETATM   50  H   UNK     0      -2.941  10.172  25.701  0.00  0.00     0.167 HD
ENDBRANCH  47  49
ENDBRANCH  46  47
ENDBRANCH  45  46
ENDBRANCH  11  45
BRANCH  18  51
HETATM   51  C   UNK     0       2.685  12.686  22.190  0.00  0.00     0.051 C 
BRANCH  51  52
HETATM   52  C   UNK     0       2.406  13.428  20.892  0.00  0.00     0.114 C 
BRANCH  52  53
HETATM   53  C   UNK     0       3.368  14.524  20.668  0.00  0.00     0.139 C 
HETATM   54  O   UNK     0       4.552  14.394  21.018  0.00  0.00    -0.650 OA
BRANCH  53  55
HETATM   55  O   UNK     0       2.945  15.689  20.074  0.00  0.00    -0.776 OA
HETATM   56  H   UNK     0       2.004  15.995  19.994  0.00  0.00     0.167 HD
ENDBRANCH  53  55
ENDBRANCH  52  53
ENDBRANCH  51  52
ENDBRANCH  18  51
TORSDOF 16
ENDMDL
MODEL 2
REMARK VINA RESULT:     -10.6      2.378      6.937
REMARK  16 active torsions:
REMARK  status: ('A' for Active; 'I' for Inactive)
REMARK    1  A    between atoms: C_6  and  C_7 
REMARK    2  A    between atoms: C_7  and  C_8 
REMARK    3  A    between atoms: C_8  and  C_9 
REMARK    4  A    between atoms: C_9  and  O_11 
REMARK    5  A    between atoms: C_16  and  C_17 
REMARK    6  A    between atoms: C_17  and  C_18 
REMARK    7  A    between atoms: C_18  and  C_19 
REMARK    8  A    between atoms: C_19  and  O_21 
REMARK    9  A    between atoms: C_28  and  C_29 
REMARK   10  A    between atoms: C_29  and  C_30 
REMARK   11  A    between atoms: C_30  and  C_31 
REMARK   12  A    between atoms: C_31  and  O_33 
REMARK   13  A    between atoms: C_42  and  C_43 
REMARK   14  A    between atoms: C_43  and  C_44 
REMARK   15  A    between atoms: C_44  and  C_45 
REMARK   16  A    between atoms: C_45  and  O_47 
ROOT
HETATM    1  C   UNK     0      -0.435   6.932  24.078  0.00  0.00     0.051 C 
HETATM    2  C   UNK     0       0.928   6.620  23.494  0.00  0.00    -0.031 A 
HETATM    3  C   UNK     0       1.494   7.050  22.304  0.00  0.00     0.021 A 
HETATM    4  N   UNK     0       2.722   6.494  22.173  0.00  0.00    -0.361 N 
HETATM    5  C   UNK     0       2.953   5.725  23.257  0.00  0.00     0.022 A 
HETATM    6  C   UNK     0       1.850   5.779  24.103  0.00  0.00    -0.027 A 
HETATM    7  C   UNK     0       4.188   4.972  23.645  0.00  0.00     0.115 C 
HETATM    8  C   UNK     0       5.513   5.684  23.438  0.00  0.00     0.021 A 
HETATM    9  N   UNK     0       5.793   6.989  23.582  0.00  0.00    -0.361 N 
HETATM   10  C   UNK     0       7.073   7.187  23.204  0.00  0.00     0.022 A 
HETATM   11  C   UNK     0       7.637   5.976  22.814  0.00  0.00    -0.027 A 
HETATM   12  C   UNK     0       6.659   5.024  22.959  0.00  0.00    -0.031 A 
HETATM   13  C   UNK     0       6.821   3.551  22.657  0.00  0.00     0.051 C 
HETATM   14  C   UNK     0       7.798   8.529  23.144  0.00  0.00     0.115 C 
HETATM   15  C   UNK     0       7.165   9.528  22.189  0.00  0.00     0.021 A 
HETATM   16  N   UNK     0       5.908  10.008  22.217  0.00  0.00    -0.361 N 
HETATM   17  C   UNK     0       5.720  10.809  21.166  0.00  0.00     0.022 A 
HETATM   18  C   UNK     0       6.916  10.861  20.422  0.00  0.00    -0.027 A 
HETATM   19  C   UNK     0       7.813  10.056  21.074  0.00  0.00    -0.031 A 
HETATM   20  C   UNK     0       9.249   9.855  20.625  0.00  0.00     0.051 C 
HETATM   21  C   UNK     0       4.475  11.532  20.704  0.00  0.00     0.115 C 
HETATM   22  C   UNK     0       3.146  10.855  20.944  0.00  0.00     0.022 A 
HETATM   23  N   UNK     0       2.840   9.558  20.812  0.00  0.00    -0.361 N 
HETATM   24  C   UNK     0       1.585   9.371  21.268  0.00  0.00     0.021 A 
HETATM   25  C   UNK     0       1.067  10.578  21.694  0.00  0.00    -0.031 A 
HETATM   26  C   UNK     0      -0.310  10.883  22.245  0.00  0.00     0.051 C 
HETATM   27  C   UNK     0       2.048  11.544  21.496  0.00  0.00    -0.027 A 
HETATM   28  C   UNK     0       0.833   8.058  21.407  0.00  0.00     0.115 C 
HETATM   29  H   UNK     0       3.400   6.617  21.297  0.00  0.00     0.165 HD
HETATM   30  H   UNK     0       5.104   7.764  23.998  0.00  0.00     0.165 HD
HETATM   31  H   UNK     0       5.150   9.816  23.021  0.00  0.00     0.165 HD
HETATM   32  H   UNK     0       3.492   8.769  20.355  0.00  0.00     0.165 HD
ENDROOT
BRANCH   6  33
HETATM   33  C   UNK     0       1.608   5.099  25.426  0.00  0.00     0.051 C 
BRANCH  33  34
HETATM   34  C   UNK     0       1.253   3.644  25.224  0.00  0.00     0.114 C 
BRANCH  34  35
HETATM   35  C   UNK     0       2.136   2.841  26.117  0.00  0.00     0.139 C 
HETATM   36  O   UNK     0       3.186   2.304  25.660  0.00  0.00    -0.650 OA
BRANCH  35  37
HETATM   37  O   UNK     0       1.860   2.647  27.465  0.00  0.00    -0.776 OA
HETATM   38  H   UNK     0       1.748   3.417  28.104  0.00  0.00     0.167 HD
ENDBRANCH  35  37
ENDBRANCH  34  35
ENDBRANCH  33  34
ENDBRANCH   6  33
BRANCH  27  39
HETATM   39  C   UNK     0       1.829  12.990  21.773  0.00  0.00     0.051 C 
BRANCH  39  40
HETATM   40  C   UNK     0       1.435  13.857  20.663  0.00  0.00     0.114 C 
BRANCH  40  41
HETATM   41  C   UNK     0       2.244  14.975  20.234  0.00  0.00     0.139 C 
HETATM   42  O   UNK     0       1.845  16.147  20.233  0.00  0.00    -0.650 OA
BRANCH  41  43
HETATM   43  O   UNK     0       3.574  14.734  19.786  0.00  0.00    -0.776 OA
HETATM   44  H   UNK     0       4.294  14.998  20.448  0.00  0.00     0.167 HD
ENDBRANCH  41  43
ENDBRANCH  40  41
ENDBRANCH  39  40
ENDBRANCH  27  39
BRANCH  11  45
HETATM   45  C   UNK     0       9.033   5.700  22.325  0.00  0.00     0.051 C 
BRANCH  45  46
HETATM   46  C   UNK     0      10.096   6.024  23.312  0.00  0.00     0.114 C 
BRANCH  46  47
HETATM   47  C   UNK     0      11.134   6.821  22.597  0.00  0.00     0.139 C 
HETATM   48  O   UNK     0      11.923   7.502  23.267  0.00  0.00    -0.650 OA
BRANCH  47  49
HETATM   49  O   UNK     0      11.214   6.803  21.228  0.00  0.00    -0.776 OA
HETATM   50  H   UNK     0      10.952   5.977  20.677  0.00  0.00     0.167 HD
ENDBRANCH  47  49
ENDBRANCH  46  47
ENDBRANCH  45  46
ENDBRANCH  11  45
BRANCH  18  51
HETATM   51  C   UNK     0       7.195  11.652  19.170  0.00  0.00     0.051 C 
BRANCH  51  52
HETATM   52  C   UNK     0       6.862  10.735  18.003  0.00  0.00     0.114 C 
BRANCH  52  53
HETATM   53  C   UNK     0       7.741  10.979  16.843  0.00  0.00     0.139 C 
HETATM   54  O   UNK     0       8.793  11.622  16.986  0.00  0.00    -0.650 OA
BRANCH  53  55
HETATM   55  O   UNK     0       7.386  10.495  15.608  0.00  0.00    -0.776 OA
HETATM   56  H   UNK     0       7.326   9.538  15.351  0.00  0.00     0.167 HD
ENDBRANCH  53  55
ENDBRANCH  52  53
ENDBRANCH  51  52
ENDBRANCH  18  51
TORSDOF 16
ENDMDL
MODEL 3
REMARK VINA RESULT:     -10.5      2.071      8.970
REMARK  16 active torsions:
REMARK  status: ('A' for Active; 'I' for Inactive)
REMARK    1  A    between atoms: C_6  and  C_7 
REMARK    2  A    between atoms: C_7  and  C_8 
REMARK    3  A    between atoms: C_8  and  C_9 
REMARK    4  A    between atoms: C_9  and  O_11 
REMARK    5  A    between atoms: C_16  and  C_17 
REMARK    6  A    between atoms: C_17  and  C_18 
REMARK    7  A    between atoms: C_18  and  C_19 
REMARK    8  A    between atoms: C_19  and  O_21 
REMARK    9  A    between atoms: C_28  and  C_29 
REMARK   10  A    between atoms: C_29  and  C_30 
REMARK   11  A    between atoms: C_30  and  C_31 
REMARK   12  A    between atoms: C_31  and  O_33 
REMARK   13  A    between atoms: C_42  and  C_43 
REMARK   14  A    between atoms: C_43  and  C_44 
REMARK   15  A    between atoms: C_44  and  C_45 
REMARK   16  A    between atoms: C_45  and  O_47 
ROOT
HETATM    1  C   UNK     0       0.547   6.384  22.798  0.00  0.00     0.051 C 
HETATM    2  C   UNK     0       1.651   7.409  22.636  0.00  0.00    -0.031 A 
HETATM    3  C   UNK     0       2.840   7.541  23.336  0.00  0.00     0.021 A 
HETATM    4  N   UNK     0       3.508   8.623  22.871  0.00  0.00    -0.361 N 
HETATM    5  C   UNK     0       2.775   9.179  21.885  0.00  0.00     0.022 A 
HETATM    6  C   UNK     0       1.605   8.447  21.713  0.00  0.00    -0.027 A 
HETATM    7  C   UNK     0       3.104  10.331  20.988  0.00  0.00     0.115 C 
HETATM    8  C   UNK     0       4.519  10.384  20.437  0.00  0.00     0.021 A 
HETATM    9  N   UNK     0       5.311   9.365  20.068  0.00  0.00    -0.361 N 
HETATM   10  C   UNK     0       6.515   9.872  19.729  0.00  0.00     0.022 A 
HETATM   11  C   UNK     0       6.495  11.256  19.875  0.00  0.00    -0.027 A 
HETATM   12  C   UNK     0       5.241  11.585  20.321  0.00  0.00    -0.031 A 
HETATM   13  C   UNK     0       4.758  12.987  20.616  0.00  0.00     0.051 C 
HETATM   14  C   UNK     0       7.743   9.071  19.306  0.00  0.00     0.115 C 
HETATM   15  C   UNK     0       8.241   8.102  20.367  0.00  0.00     0.021 A 
HETATM   16  N   UNK     0       7.562   7.092  20.941  0.00  0.00    -0.361 N 
HETATM   17  C   UNK     0       8.327   6.523  21.874  0.00  0.00     0.022 A 
HETATM   18  C   UNK     0       9.569   7.188  21.903  0.00  0.00    -0.027 A 
HETATM   19  C   UNK     0       9.503   8.174  20.953  0.00  0.00    -0.031 A 
HETATM   20  C   UNK     0      10.652   9.111  20.629  0.00  0.00     0.051 C 
HETATM   21  C   UNK     0       8.010   5.406  22.843  0.00  0.00     0.115 C 
HETATM   22  C   UNK     0       6.595   5.316  23.364  0.00  0.00     0.022 A 
HETATM   23  N   UNK     0       5.782   6.313  23.736  0.00  0.00    -0.361 N 
HETATM   24  C   UNK     0       4.565   5.793  23.995  0.00  0.00     0.021 A 
HETATM   25  C   UNK     0       4.598   4.427  23.795  0.00  0.00    -0.031 A 
HETATM   26  C   UNK     0       3.496   3.407  23.994  0.00  0.00     0.051 C 
HETATM   27  C   UNK     0       5.887   4.097  23.391  0.00  0.00    -0.027 A 
HETATM   28  C   UNK     0       3.294   6.540  24.360  0.00  0.00     0.115 C 
HETATM   29  H   UNK     0       4.474   9.010  23.271  0.00  0.00     0.165 HD
HETATM   30  H   UNK     0       5.007   8.292  19.997  0.00  0.00     0.165 HD
HETATM   31  H   UNK     0       6.537   6.742  20.649  0.00  0.00     0.165 HD
HETATM   32  H   UNK     0       6.072   7.389  23.861  0.00  0.00     0.165 HD
ENDROOT
BRANCH   6  33
HETATM   33  C   UNK     0       0.461   8.656  20.754  0.00  0.00     0.051 C 
BRANCH  33  34
HETATM   34  C   UNK     0      -0.576   9.577  21.351  0.00  0.00     0.114 C 
BRANCH  34  35
HETATM   35  C   UNK     0      -1.863   8.825  21.404  0.00  0.00     0.139 C 
HETATM   36  O   UNK     0      -2.837   9.277  22.073  0.00  0.00    -0.650 OA
BRANCH  35  37
HETATM   37  O   UNK     0      -2.056   7.622  20.736  0.00  0.00    -0.776 OA
HETATM   38  H   UNK     0      -1.287   7.086  20.366  0.00  0.00     0.167 HD
ENDBRANCH  35  37
ENDBRANCH  34  35
ENDBRANCH  33  34
ENDBRANCH   6  33
BRANCH  27  39
HETATM   39  C   UNK     0       6.328   2.696  23.148  0.00  0.00     0.051 C 
BRANCH  39  40
HETATM   40  C   UNK     0       6.628   1.853  24.305  0.00  0.00     0.114 C 
BRANCH  40  41
HETATM   41  C   UNK     0       6.122   0.504  24.426  0.00  0.00     0.139 C 
HETATM   42  O   UNK     0       5.113   0.096  23.835  0.00  0.00    -0.650 OA
BRANCH  41  43
HETATM   43  O   UNK     0       6.809  -0.418  25.267  0.00  0.00    -0.776 OA
HETATM   44  H   UNK     0       7.780  -0.188  25.435  0.00  0.00     0.167 HD
ENDBRANCH  41  43
ENDBRANCH  40  41
ENDBRANCH  39  40
ENDBRANCH  27  39
BRANCH  11  45
HETATM   45  C   UNK     0       7.597  12.247  19.609  0.00  0.00     0.051 C 
BRANCH  45  46
HETATM   46  C   UNK     0       8.877  11.927  20.292  0.00  0.00     0.114 C 
BRANCH  46  47
HETATM   47  C   UNK     0       8.889  12.677  21.581  0.00  0.00     0.139 C 
HETATM   48  O   UNK     0       8.454  13.837  21.595  0.00  0.00    -0.650 OA
BRANCH  47  49
HETATM   49  O   UNK     0       9.372  12.097  22.727  0.00  0.00    -0.776 OA
HETATM   50  H   UNK     0      10.277  12.363  23.132  0.00  0.00     0.167 HD
ENDBRANCH  47  49
ENDBRANCH  46  47
ENDBRANCH  45  46
ENDBRANCH  11  45
BRANCH  18  51
HETATM   51  C   UNK     0      10.761   6.886  22.774  0.00  0.00     0.051 C 
BRANCH  51  52
HETATM   52  C   UNK     0      10.660   7.818  23.973  0.00  0.00     0.114 C 
BRANCH  52  53
HETATM   53  C   UNK     0      11.120   7.166  25.215  0.00  0.00     0.139 C 
HETATM   54  O   UNK     0      10.374   6.377  25.815  0.00  0.00    -0.650 OA
BRANCH  53  55
HETATM   55  O   UNK     0      12.374   7.442  25.702  0.00  0.00    -0.776 OA
HETATM   56  H   UNK     0      12.873   6.903  26.370  0.00  0.00     0.167 HD
ENDBRANCH  53  55
ENDBRANCH  52  53
ENDBRANCH  51  52
ENDBRANCH  18  51
TORSDOF 16
ENDMDL
MODEL 4
REMARK VINA RESULT:     -10.2      2.176      6.625
REMARK  16 active torsions:
REMARK  status: ('A' for Active; 'I' for Inactive)
REMARK    1  A    between atoms: C_6  and  C_7 
REMARK    2  A    between atoms: C_7  and  C_8 
REMARK    3  A    between atoms: C_8  and  C_9 
REMARK    4  A    between atoms: C_9  and  O_11 
REMARK    5  A    between atoms: C_16  and  C_17 
REMARK    6  A    between atoms: C_17  and  C_18 
REMARK    7  A    between atoms: C_18  and  C_19 
REMARK    8  A    between atoms: C_19  and  O_21 
REMARK    9  A    between atoms: C_28  and  C_29 
REMARK   10  A    between atoms: C_29  and  C_30 
REMARK   11  A    between atoms: C_30  and  C_31 
REMARK   12  A    between atoms: C_31  and  O_33 
REMARK   13  A    between atoms: C_42  and  C_43 
REMARK   14  A    between atoms: C_43  and  C_44 
REMARK   15  A    between atoms: C_44  and  C_45 
REMARK   16  A    between atoms: C_45  and  O_47 
ROOT
HETATM    1  C   UNK     0      -0.956   6.491  24.493  0.00  0.00     0.051 C 
HETATM    2  C   UNK     0       0.372   6.120  23.864  0.00  0.00    -0.031 A 
HETATM    3  C   UNK     0       0.907   6.510  22.646  0.00  0.00     0.021 A 
HETATM    4  N   UNK     0       2.109   5.908  22.480  0.00  0.00    -0.361 N 
HETATM    5  C   UNK     0       2.355   5.151  23.569  0.00  0.00     0.022 A 
HETATM    6  C   UNK     0       1.288   5.258  24.454  0.00  0.00    -0.027 A 
HETATM    7  C   UNK     0       3.577   4.363  23.924  0.00  0.00     0.115 C 
HETATM    8  C   UNK     0       4.917   5.024  23.654  0.00  0.00     0.021 A 
HETATM    9  N   UNK     0       5.247   6.320  23.763  0.00  0.00    -0.361 N 
HETATM   10  C   UNK     0       6.518   6.467  23.333  0.00  0.00     0.022 A 
HETATM   11  C   UNK     0       7.024   5.230  22.946  0.00  0.00    -0.027 A 
HETATM   12  C   UNK     0       6.021   4.316  23.146  0.00  0.00    -0.031 A 
HETATM   13  C   UNK     0       6.121   2.834  22.866  0.00  0.00     0.051 C 
HETATM   14  C   UNK     0       7.285   7.782  23.221  0.00  0.00     0.115 C 
HETATM   15  C   UNK     0       6.651   8.785  22.271  0.00  0.00     0.021 A 
HETATM   16  N   UNK     0       5.413   9.309  22.337  0.00  0.00    -0.361 N 
HETATM   17  C   UNK     0       5.213  10.098  21.279  0.00  0.00     0.022 A 
HETATM   18  C   UNK     0       6.381  10.095  20.490  0.00  0.00    -0.027 A 
HETATM   19  C   UNK     0       7.274   9.270  21.123  0.00  0.00    -0.031 A 
HETATM   20  C   UNK     0       8.684   9.012  20.624  0.00  0.00     0.051 C 
HETATM   21  C   UNK     0       3.977  10.856  20.851  0.00  0.00     0.115 C 
HETATM   22  C   UNK     0       2.636  10.230  21.153  0.00  0.00     0.022 A 
HETATM   23  N   UNK     0       2.281   8.942  21.057  0.00  0.00    -0.361 N 
HETATM   24  C   UNK     0       1.038   8.807  21.563  0.00  0.00     0.021 A 
HETATM   25  C   UNK     0       0.578  10.039  21.985  0.00  0.00    -0.031 A 
HETATM   26  C   UNK     0      -0.766  10.402  22.582  0.00  0.00     0.051 C 
HETATM   27  C   UNK     0       1.583  10.966  21.733  0.00  0.00    -0.027 A 
HETATM   28  C   UNK     0       0.247   7.524  21.756  0.00  0.00     0.115 C 
HETATM   29  H   UNK     0       2.757   5.992  21.577  0.00  0.00     0.165 HD
HETATM   30  H   UNK     0       4.601   7.127  24.190  0.00  0.00     0.165 HD
HETATM   31  H   UNK     0       4.681   9.158  23.173  0.00  0.00     0.165 HD
HETATM   32  H   UNK     0       2.888   8.122  20.591  0.00  0.00     0.165 HD
ENDROOT
BRANCH   6  33
HETATM   33  C   UNK     0       1.073   4.611  25.798  0.00  0.00     0.051 C 
BRANCH  33  34
HETATM   34  C   UNK     0       0.604   3.184  25.636  0.00  0.00     0.114 C 
BRANCH  34  35
HETATM   35  C   UNK     0       1.596   2.307  26.321  0.00  0.00     0.139 C 
HETATM   36  O   UNK     0       1.977   1.230  25.777  0.00  0.00    -0.650 OA
BRANCH  35  37
HETATM   37  O   UNK     0       2.143   2.619  27.560  0.00  0.00    -0.776 OA
HETATM   38  H   UNK     0       1.596   3.035  28.296  0.00  0.00     0.167 HD
ENDBRANCH  35  37
ENDBRANCH  34  35
ENDBRANCH  33  34
ENDBRANCH   6  33
BRANCH  27  39
HETATM   39  C   UNK     0       1.425  12.423  21.990  0.00  0.00     0.051 C 
BRANCH  39  40
HETATM   40  C   UNK     0       1.471  13.338  20.850  0.00  0.00     0.114 C 
BRANCH  40  41
HETATM   41  C   UNK     0       2.264  14.547  20.864  0.00  0.00     0.139 C 
HETATM   42  O   UNK     0       1.848  15.642  20.463  0.00  0.00    -0.650 OA
BRANCH  41  43
HETATM   43  O   UNK     0       3.597  14.494  21.362  0.00  0.00    -0.776 OA
HETATM   44  H   UNK     0       3.918  13.563  21.601  0.00  0.00     0.167 HD
ENDBRANCH  41  43
ENDBRANCH  40  41
ENDBRANCH  39  40
ENDBRANCH  27  39
BRANCH  11  45
HETATM   45  C   UNK     0       8.391   4.897  22.410  0.00  0.00     0.051 C 
BRANCH  45  46
HETATM   46  C   UNK     0       9.505   5.556  23.140  0.00  0.00     0.114 C 
BRANCH  46  47
HETATM   47  C   UNK     0      10.419   6.140  22.118  0.00  0.00     0.139 C 
HETATM   48  O   UNK     0      10.272   5.807  20.933  0.00  0.00    -0.650 OA
BRANCH  47  49
HETATM   49  O   UNK     0      11.403   7.025  22.478  0.00  0.00    -0.776 OA
HETATM   50  H   UNK     0      11.188   7.969  22.822  0.00  0.00     0.167 HD
ENDBRANCH  47  49
ENDBRANCH  46  47
ENDBRANCH  45  46
ENDBRANCH  11  45
BRANCH  18  51
HETATM   51  C   UNK     0       6.639  10.853  19.214  0.00  0.00     0.051 C 
BRANCH  51  52
HETATM   52  C   UNK     0       7.395  12.113  19.612  0.00  0.00     0.114 C 
BRANCH  52  53
HETATM   53  C   UNK     0       6.481  13.189  20.042  0.00  0.00     0.139 C 
HETATM   54  O   UNK     0       6.716  13.825  21.082  0.00  0.00    -0.650 OA
BRANCH  53  55
HETATM   55  O   UNK     0       5.370  13.479  19.289  0.00  0.00    -0.776 OA
HETATM   56  H   UNK     0       4.543  12.933  19.233  0.00  0.00     0.167 HD
ENDBRANCH  53  55
ENDBRANCH  52  53
ENDBRANCH  51  52
ENDBRANCH  18  51
TORSDOF 16
ENDMDL
MODEL 5
REMARK VINA RESULT:     -10.1      2.384      7.540
REMARK  16 active torsions:
REMARK  status: ('A' for Active; 'I' for Inactive)
REMARK    1  A    between atoms: C_6  and  C_7 
REMARK    2  A    between atoms: C_7  and  C_8 
REMARK    3  A    between atoms: C_8  and  C_9 
REMARK    4  A    between atoms: C_9  and  O_11 
REMARK    5  A    between atoms: C_16  and  C_17 
REMARK    6  A    between atoms: C_17  and  C_18 
REMARK    7  A    between atoms: C_18  and  C_19 
REMARK    8  A    between atoms: C_19  and  O_21 
REMARK    9  A    between atoms: C_28  and  C_29 
REMARK   10  A    between atoms: C_29  and  C_30 
REMARK   11  A    between atoms: C_30  and  C_31 
REMARK   12  A    between atoms: C_31  and  O_33 
REMARK   13  A    between atoms: C_42  and  C_43 
REMARK   14  A    between atoms: C_43  and  C_44 
REMARK   15  A    between atoms: C_44  and  C_45 
REMARK   16  A    between atoms: C_45  and  O_47 
ROOT
HETATM    1  C   UNK     0       0.472   4.686  23.047  0.00  0.00     0.051 C 
HETATM    2  C   UNK     0       0.929   6.130  23.049  0.00  0.00    -0.031 A 
HETATM    3  C   UNK     0       1.993   6.716  23.717  0.00  0.00     0.021 A 
HETATM    4  N   UNK     0       2.004   8.044  23.450  0.00  0.00    -0.361 N 
HETATM    5  C   UNK     0       0.976   8.315  22.620  0.00  0.00     0.022 A 
HETATM    6  C   UNK     0       0.281   7.141  22.351  0.00  0.00    -0.027 A 
HETATM    7  C   UNK     0       0.604   9.604  21.955  0.00  0.00     0.115 C 
HETATM    8  C   UNK     0       1.742  10.424  21.374  0.00  0.00     0.021 A 
HETATM    9  N   UNK     0       2.867   9.993  20.782  0.00  0.00    -0.361 N 
HETATM   10  C   UNK     0       3.634  11.069  20.505  0.00  0.00     0.022 A 
HETATM   11  C   UNK     0       2.981  12.225  20.921  0.00  0.00    -0.027 A 
HETATM   12  C   UNK     0       1.789  11.827  21.469  0.00  0.00    -0.031 A 
HETATM   13  C   UNK     0       0.742  12.750  22.052  0.00  0.00     0.051 C 
HETATM   14  C   UNK     0       5.030  11.046  19.888  0.00  0.00     0.115 C 
HETATM   15  C   UNK     0       6.057  10.294  20.718  0.00  0.00     0.021 A 
HETATM   16  N   UNK     0       6.015   9.005  21.107  0.00  0.00    -0.361 N 
HETATM   17  C   UNK     0       7.071   8.747  21.882  0.00  0.00     0.022 A 
HETATM   18  C   UNK     0       7.843   9.920  21.995  0.00  0.00    -0.027 A 
HETATM   19  C   UNK     0       7.198  10.881  21.261  0.00  0.00    -0.031 A 
HETATM   20  C   UNK     0       7.715  12.297  21.084  0.00  0.00     0.051 C 
HETATM   21  C   UNK     0       7.447   7.484  22.623  0.00  0.00     0.115 C 
HETATM   22  C   UNK     0       6.323   6.635  23.168  0.00  0.00     0.022 A 
HETATM   23  N   UNK     0       5.190   7.037  23.759  0.00  0.00    -0.361 N 
HETATM   24  C   UNK     0       4.408   5.956  23.955  0.00  0.00     0.021 A 
HETATM   25  C   UNK     0       5.057   4.829  23.489  0.00  0.00    -0.031 A 
HETATM   26  C   UNK     0       4.604   3.385  23.525  0.00  0.00     0.051 C 
HETATM   27  C   UNK     0       6.285   5.238  22.981  0.00  0.00    -0.027 A 
HETATM   28  C   UNK     0       2.993   5.921  24.507  0.00  0.00     0.115 C 
HETATM   29  H   UNK     0       2.715   8.786  23.881  0.00  0.00     0.165 HD
HETATM   30  H   UNK     0       3.101   8.934  20.513  0.00  0.00     0.165 HD
HETATM   31  H   UNK     0       5.251   8.250  20.790  0.00  0.00     0.165 HD
HETATM   32  H   UNK     0       4.949   8.083  24.082  0.00  0.00     0.165 HD
ENDROOT
BRANCH   6  33
HETATM   33  C   UNK     0      -0.938   6.910  21.494  0.00  0.00     0.051 C 
BRANCH  33  34
HETATM   34  C   UNK     0      -2.201   7.189  22.273  0.00  0.00     0.114 C 
BRANCH  34  35
HETATM   35  C   UNK     0      -3.068   8.056  21.425  0.00  0.00     0.139 C 
HETATM   36  O   UNK     0      -2.566   9.026  20.784  0.00  0.00    -0.650 OA
BRANCH  35  37
HETATM   37  O   UNK     0      -4.435   7.850  21.293  0.00  0.00    -0.776 OA
HETATM   38  H   UNK     0      -4.835   7.422  20.473  0.00  0.00     0.167 HD
ENDBRANCH  35  37
ENDBRANCH  34  35
ENDBRANCH  33  34
ENDBRANCH   6  33
BRANCH  27  39
HETATM   39  C   UNK     0       7.300   4.287  22.452  0.00  0.00     0.051 C 
BRANCH  39  40
HETATM   40  C   UNK     0       8.618   4.255  23.086  0.00  0.00     0.114 C 
BRANCH  40  41
HETATM   41  C   UNK     0       9.710   5.088  22.637  0.00  0.00     0.139 C 
HETATM   42  O   UNK     0      10.419   5.756  23.402  0.00  0.00    -0.650 OA
BRANCH  41  43
HETATM   43  O   UNK     0       9.999   5.158  21.244  0.00  0.00    -0.776 OA
HETATM   44  H   UNK     0       9.197   5.017  20.642  0.00  0.00     0.167 HD
ENDBRANCH  41  43
ENDBRANCH  40  41
ENDBRANCH  39  40
ENDBRANCH  27  39
BRANCH  11  45
HETATM   45  C   UNK     0       3.439  13.655  20.815  0.00  0.00     0.051 C 
BRANCH  45  46
HETATM   46  C   UNK     0       3.992  14.017  19.485  0.00  0.00     0.114 C 
BRANCH  46  47
HETATM   47  C   UNK     0       5.243  14.792  19.722  0.00  0.00     0.139 C 
HETATM   48  O   UNK     0       5.634  14.942  20.888  0.00  0.00    -0.650 OA
BRANCH  47  49
HETATM   49  O   UNK     0       5.947  15.329  18.674  0.00  0.00    -0.776 OA
HETATM   50  H   UNK     0       6.909  15.672  18.782  0.00  0.00     0.167 HD
ENDBRANCH  47  49
ENDBRANCH  46  47
ENDBRANCH  45  46
ENDBRANCH  11  45
BRANCH  18  51
HETATM   51  C   UNK     0       9.137  10.109  22.745  0.00  0.00     0.051 C 
BRANCH  51  52
HETATM   52  C   UNK     0      10.250   9.756  21.770  0.00  0.00     0.114 C 
BRANCH  52  53
HETATM   53  C   UNK     0      11.213   8.804  22.357  0.00  0.00     0.139 C 
HETATM   54  O   UNK     0      11.606   8.958  23.524  0.00  0.00    -0.650 OA
BRANCH  53  55
HETATM   55  O   UNK     0      11.672   7.750  21.604  0.00  0.00    -0.776 OA
HETATM   56  H   UNK     0      11.141   6.961  21.318  0.00  0.00     0.167 HD
ENDBRANCH  53  55
ENDBRANCH  52  53
ENDBRANCH  51  52
ENDBRANCH  18  51
TORSDOF 16
ENDMDL
MODEL 6
REMARK VINA RESULT:     -10.0      2.398      6.908
REMARK  16 active torsions:
REMARK  status: ('A' for Active; 'I' for Inactive)
REMARK    1  A    between atoms: C_6  and  C_7 
REMARK    2  A    between atoms: C_7  and  C_8 
REMARK    3  A    between atoms: C_8  and  C_9 
REMARK    4  A    between atoms: C_9  and  O_11 
REMARK    5  A    between atoms: C_16  and  C_17 
REMARK    6  A    between atoms: C_17  and  C_18 
REMARK    7  A    between atoms: C_18  and  C_19 
REMARK    8  A    between atoms: C_19  and  O_21 
REMARK    9  A    between atoms: C_28  and  C_29 
REMARK   10  A    between atoms: C_29  and  C_30 
REMARK   11  A    between atoms: C_30  and  C_31 
REMARK   12  A    between atoms: C_31  and  O_33 
REMARK   13  A    between atoms: C_42  and  C_43 
REMARK   14  A    between atoms: C_43  and  C_44 
REMARK   15  A    between atoms: C_44  and  C_45 
REMARK   16  A    between atoms: C_45  and  O_47 
ROOT
HETATM    1  C   UNK     0      -1.270   5.598  24.871  0.00  0.00     0.051 C 
HETATM    2  C   UNK     0       0.045   5.248  24.206  0.00  0.00    -0.031 A 
HETATM    3  C   UNK     0       0.497   5.558  22.932  0.00  0.00     0.021 A 
HETATM    4  N   UNK     0       1.723   5.011  22.754  0.00  0.00    -0.361 N 
HETATM    5  C   UNK     0       2.066   4.367  23.889  0.00  0.00     0.022 A 
HETATM    6  C   UNK     0       1.038   4.492  24.817  0.00  0.00    -0.027 A 
HETATM    7  C   UNK     0       3.348   3.681  24.244  0.00  0.00     0.115 C 
HETATM    8  C   UNK     0       4.632   4.389  23.848  0.00  0.00     0.021 A 
HETATM    9  N   UNK     0       4.889   5.706  23.828  0.00  0.00    -0.361 N 
HETATM   10  C   UNK     0       6.127   5.884  23.320  0.00  0.00     0.022 A 
HETATM   11  C   UNK     0       6.687   4.647  23.013  0.00  0.00    -0.027 A 
HETATM   12  C   UNK     0       5.750   3.701  23.343  0.00  0.00    -0.031 A 
HETATM   13  C   UNK     0       5.924   2.207  23.185  0.00  0.00     0.051 C 
HETATM   14  C   UNK     0       6.809   7.223  23.056  0.00  0.00     0.115 C 
HETATM   15  C   UNK     0       6.071   8.104  22.060  0.00  0.00     0.021 A 
HETATM   16  N   UNK     0       4.808   8.563  22.147  0.00  0.00    -0.361 N 
HETATM   17  C   UNK     0       4.512   9.243  21.038  0.00  0.00     0.022 A 
HETATM   18  C   UNK     0       5.638   9.235  20.191  0.00  0.00    -0.027 A 
HETATM   19  C   UNK     0       6.608   8.519  20.844  0.00  0.00    -0.031 A 
HETATM   20  C   UNK     0       8.005   8.296  20.294  0.00  0.00     0.051 C 
HETATM   21  C   UNK     0       3.213   9.891  20.614  0.00  0.00     0.115 C 
HETATM   22  C   UNK     0       1.928   9.221  21.038  0.00  0.00     0.022 A 
HETATM   23  N   UNK     0       1.645   7.912  21.072  0.00  0.00    -0.361 N 
HETATM   24  C   UNK     0       0.439   7.754  21.653  0.00  0.00     0.021 A 
HETATM   25  C   UNK     0      -0.072   8.992  21.993  0.00  0.00    -0.031 A 
HETATM   26  C   UNK     0      -1.405   9.331  22.627  0.00  0.00     0.051 C 
HETATM   27  C   UNK     0       0.862   9.947  21.609  0.00  0.00    -0.027 A 
HETATM   28  C   UNK     0      -0.264   6.452  21.995  0.00  0.00     0.115 C 
HETATM   29  H   UNK     0       2.321   5.050  21.814  0.00  0.00     0.165 HD
HETATM   30  H   UNK     0       4.218   6.509  24.219  0.00  0.00     0.165 HD
HETATM   31  H   UNK     0       4.128   8.445  23.030  0.00  0.00     0.165 HD
HETATM   32  H   UNK     0       2.277   7.090  20.645  0.00  0.00     0.165 HD
ENDROOT
BRANCH   6  33
HETATM   33  C   UNK     0       0.927   3.954  26.221  0.00  0.00     0.051 C 
BRANCH  33  34
HETATM   34  C   UNK     0       0.394   2.541  26.212  0.00  0.00     0.114 C 
BRANCH  34  35
HETATM   35  C   UNK     0       0.021   2.196  27.614  0.00  0.00     0.139 C 
HETATM   36  O   UNK     0       0.516   2.843  28.583  0.00  0.00    -0.650 OA
BRANCH  35  37
HETATM   37  O   UNK     0      -0.869   1.175  27.923  0.00  0.00    -0.776 OA
HETATM   38  H   UNK     0      -1.137   0.477  27.248  0.00  0.00     0.167 HD
ENDBRANCH  35  37
ENDBRANCH  34  35
ENDBRANCH  33  34
ENDBRANCH   6  33
BRANCH  27  39
HETATM   39  C   UNK     0       0.631  11.410  21.750  0.00  0.00     0.051 C 
BRANCH  39  40
HETATM   40  C   UNK     0       1.681  12.223  22.364  0.00  0.00     0.114 C 
BRANCH  40  41
HETATM   41  C   UNK     0       1.884  13.611  22.015  0.00  0.00     0.139 C 
HETATM   42  O   UNK     0       1.678  14.068  20.882  0.00  0.00    -0.650 OA
BRANCH  41  43
HETATM   43  O   UNK     0       2.344  14.515  23.014  0.00  0.00    -0.776 OA
HETATM   44  H   UNK     0       1.979  15.455  22.928  0.00  0.00     0.167 HD
ENDBRANCH  41  43
ENDBRANCH  40  41
ENDBRANCH  39  40
ENDBRANCH  27  39
BRANCH  11  45
HETATM   45  C   UNK     0       8.043   4.344  22.436  0.00  0.00     0.051 C 
BRANCH  45  46
HETATM   46  C   UNK     0       9.168   4.984  23.165  0.00  0.00     0.114 C 
BRANCH  46  47
HETATM   47  C   UNK     0       9.983   5.723  22.158  0.00  0.00     0.139 C 
HETATM   48  O   UNK     0      10.659   6.690  22.538  0.00  0.00    -0.650 OA
BRANCH  47  49
HETATM   49  O   UNK     0       9.985   5.343  20.840  0.00  0.00    -0.776 OA
HETATM   50  H   UNK     0      10.803   4.905  20.400  0.00  0.00     0.167 HD
ENDBRANCH  47  49
ENDBRANCH  46  47
ENDBRANCH  45  46
ENDBRANCH  11  45
BRANCH  18  51
HETATM   51  C   UNK     0       5.788   9.891  18.843  0.00  0.00     0.051 C 
BRANCH  51  52
HETATM   52  C   UNK     0       6.020  11.371  19.113  0.00  0.00     0.114 C 
BRANCH  52  53
HETATM   53  C   UNK     0       7.457  11.703  19.158  0.00  0.00     0.139 C 
HETATM   54  O   UNK     0       8.214  11.309  18.257  0.00  0.00    -0.650 OA
BRANCH  53  55
HETATM   55  O   UNK     0       7.950  12.447  20.202  0.00  0.00    -0.776 OA
HETATM   56  H   UNK     0       8.899  12.487  20.493  0.00  0.00     0.167 HD
ENDBRANCH  53  55
ENDBRANCH  52  53
ENDBRANCH  51  52
ENDBRANCH  18  51
TORSDOF 16
ENDMDL
MODEL 7
REMARK VINA RESULT:      -9.9      1.989      7.847
REMARK  16 active torsions:
REMARK  status: ('A' for Active; 'I' for Inactive)
REMARK    1  A    between atoms: C_6  and  C_7 
REMARK    2  A    between atoms: C_7  and  C_8 
REMARK    3  A    between atoms: C_8  and  C_9 
REMARK    4  A    between atoms: C_9  and  O_11 
REMARK    5  A    between atoms: C_16  and  C_17 
REMARK    6  A    between atoms: C_17  and  C_18 
REMARK    7  A    between atoms: C_18  and  C_19 
REMARK    8  A    between atoms: C_19  and  O_21 
REMARK    9  A    between atoms: C_28  and  C_29 
REMARK   10  A    between atoms: C_29  and  C_30 
REMARK   11  A    between atoms: C_30  and  C_31 
REMARK   12  A    between atoms: C_31  and  O_33 
REMARK   13  A    between atoms: C_42  and  C_43 
REMARK   14  A    between atoms: C_43  and  C_44 
REMARK   15  A    between atoms: C_44  and  C_45 
REMARK   16  A    between atoms: C_45  and  O_47 
ROOT
HETATM    1  C   UNK     0       6.769  12.808  19.952  0.00  0.00     0.051 C 
HETATM    2  C   UNK     0       5.771  11.678  20.110  0.00  0.00    -0.031 A 
HETATM    3  C   UNK     0       5.907  10.335  19.798  0.00  0.00     0.021 A 
HETATM    4  N   UNK     0       4.746   9.697  20.079  0.00  0.00    -0.361 N 
HETATM    5  C   UNK     0       3.876  10.603  20.571  0.00  0.00     0.022 A 
HETATM    6  C   UNK     0       4.484  11.854  20.602  0.00  0.00    -0.027 A 
HETATM    7  C   UNK     0       2.497  10.401  21.118  0.00  0.00     0.115 C 
HETATM    8  C   UNK     0       2.293   9.199  22.024  0.00  0.00     0.021 A 
HETATM    9  N   UNK     0       3.145   8.670  22.916  0.00  0.00    -0.361 N 
HETATM   10  C   UNK     0       2.580   7.556  23.426  0.00  0.00     0.022 A 
HETATM   11  C   UNK     0       1.324   7.368  22.855  0.00  0.00    -0.027 A 
HETATM   12  C   UNK     0       1.138   8.400  21.971  0.00  0.00    -0.031 A 
HETATM   13  C   UNK     0      -0.095   8.609  21.120  0.00  0.00     0.051 C 
HETATM   14  C   UNK     0       3.218   6.599  24.429  0.00  0.00     0.115 C 
HETATM   15  C   UNK     0       4.496   5.946  23.928  0.00  0.00     0.021 A 
HETATM   16  N   UNK     0       5.626   6.555  23.523  0.00  0.00    -0.361 N 
HETATM   17  C   UNK     0       6.491   5.634  23.092  0.00  0.00     0.022 A 
HETATM   18  C   UNK     0       5.900   4.363  23.233  0.00  0.00    -0.027 A 
HETATM   19  C   UNK     0       4.652   4.571  23.759  0.00  0.00    -0.031 A 
HETATM   20  C   UNK     0       3.684   3.454  24.105  0.00  0.00     0.051 C 
HETATM   21  C   UNK     0       7.861   5.801  22.474  0.00  0.00     0.115 C 
HETATM   22  C   UNK     0       8.091   7.015  21.606  0.00  0.00     0.022 A 
HETATM   23  N   UNK     0       7.259   7.567  20.713  0.00  0.00    -0.361 N 
HETATM   24  C   UNK     0       7.810   8.717  20.275  0.00  0.00     0.021 A 
HETATM   25  C   UNK     0       9.031   8.905  20.893  0.00  0.00    -0.031 A 
HETATM   26  C   UNK     0      10.035  10.023  20.700  0.00  0.00     0.051 C 
HETATM   27  C   UNK     0       9.233   7.829  21.749  0.00  0.00    -0.027 A 
HETATM   28  C   UNK     0       7.202   9.737  19.327  0.00  0.00     0.115 C 
HETATM   29  H   UNK     0       4.536   8.619  19.891  0.00  0.00     0.165 HD
HETATM   30  H   UNK     0       4.126   9.108  23.224  0.00  0.00     0.165 HD
HETATM   31  H   UNK     0       5.837   7.655  23.585  0.00  0.00     0.165 HD
HETATM   32  H   UNK     0       6.294   7.127  20.350  0.00  0.00     0.165 HD
ENDROOT
BRANCH   6  33
HETATM   33  C   UNK     0       3.941  13.186  21.054  0.00  0.00     0.051 C 
BRANCH  33  34
HETATM   34  C   UNK     0       3.120  13.828  19.962  0.00  0.00     0.114 C 
BRANCH  34  35
HETATM   35  C   UNK     0       2.269  14.874  20.599  0.00  0.00     0.139 C 
HETATM   36  O   UNK     0       1.882  14.737  21.796  0.00  0.00    -0.650 OA
BRANCH  35  37
HETATM   37  O   UNK     0       1.869  16.024  19.930  0.00  0.00    -0.776 OA
HETATM   38  H   UNK     0       1.619  16.015  18.954  0.00  0.00     0.167 HD
ENDBRANCH  35  37
ENDBRANCH  34  35
ENDBRANCH  33  34
ENDBRANCH   6  33
BRANCH  27  39
HETATM   39  C   UNK     0      10.480   7.645  22.540  0.00  0.00     0.051 C 
BRANCH  39  40
HETATM   40  C   UNK     0      10.539   8.215  23.886  0.00  0.00     0.114 C 
BRANCH  40  41
HETATM   41  C   UNK     0      10.936   7.434  25.036  0.00  0.00     0.139 C 
HETATM   42  O   UNK     0      10.176   6.659  25.632  0.00  0.00    -0.650 OA
BRANCH  41  43
HETATM   43  O   UNK     0      12.269   7.551  25.524  0.00  0.00    -0.776 OA
HETATM   44  H   UNK     0      12.973   7.646  24.802  0.00  0.00     0.167 HD
ENDBRANCH  41  43
ENDBRANCH  40  41
ENDBRANCH  39  40
ENDBRANCH  27  39
BRANCH  11  45
HETATM   45  C   UNK     0       0.325   6.273  23.116  0.00  0.00     0.051 C 
BRANCH  45  46
HETATM   46  C   UNK     0      -0.281   6.316  24.472  0.00  0.00     0.114 C 
BRANCH  46  47
HETATM   47  C   UNK     0      -1.170   7.512  24.519  0.00  0.00     0.139 C 
HETATM   48  O   UNK     0      -2.202   7.510  23.834  0.00  0.00    -0.650 OA
BRANCH  47  49
HETATM   49  O   UNK     0      -0.853   8.592  25.303  0.00  0.00    -0.776 OA
HETATM   50  H   UNK     0      -1.427   8.868  26.109  0.00  0.00     0.167 HD
ENDBRANCH  47  49
ENDBRANCH  46  47
ENDBRANCH  45  46
ENDBRANCH  11  45
BRANCH  18  51
HETATM   51  C   UNK     0       6.501   3.021  22.904  0.00  0.00     0.051 C 
BRANCH  51  52
HETATM   52  C   UNK     0       6.715   2.312  24.234  0.00  0.00     0.114 C 
BRANCH  52  53
HETATM   53  C   UNK     0       6.412   0.871  24.143  0.00  0.00     0.139 C 
HETATM   54  O   UNK     0       5.940   0.400  23.097  0.00  0.00    -0.650 OA
BRANCH  53  55
HETATM   55  O   UNK     0       6.653   0.057  25.223  0.00  0.00    -0.776 OA
HETATM   56  H   UNK     0       6.363   0.226  26.158  0.00  0.00     0.167 HD
ENDBRANCH  53  55
ENDBRANCH  52  53
ENDBRANCH  51  52
ENDBRANCH  18  51
TORSDOF 16
ENDMDL
MODEL 8
REMARK VINA RESULT:      -9.8      1.837      6.916
REMARK  16 active torsions:
REMARK  status: ('A' for Active; 'I' for Inactive)
REMARK    1  A    between atoms: C_6  and  C_7 
REMARK    2  A    between atoms: C_7  and  C_8 
REMARK    3  A    between atoms: C_8  and  C_9 
REMARK    4  A    between atoms: C_9  and  O_11 
REMARK    5  A    between atoms: C_16  and  C_17 
REMARK    6  A    between atoms: C_17  and  C_18 
REMARK    7  A    between atoms: C_18  and  C_19 
REMARK    8  A    between atoms: C_19  and  O_21 
REMARK    9  A    between atoms: C_28  and  C_29 
REMARK   10  A    between atoms: C_29  and  C_30 
REMARK   11  A    between atoms: C_30  and  C_31 
REMARK   12  A    between atoms: C_31  and  O_33 
REMARK   13  A    between atoms: C_42  and  C_43 
REMARK   14  A    between atoms: C_43  and  C_44 
REMARK   15  A    between atoms: C_44  and  C_45 
REMARK   16  A    between atoms: C_45  and  O_47 
ROOT
HETATM    1  C   UNK     0      -2.359   7.553  24.065  0.00  0.00     0.051 C 
HETATM    2  C   UNK     0      -1.176   6.744  23.571  0.00  0.00    -0.031 A 
HETATM    3  C   UNK     0      -0.408   6.915  22.430  0.00  0.00     0.021 A 
HETATM    4  N   UNK     0       0.527   5.937  22.377  0.00  0.00    -0.361 N 
HETATM    5  C   UNK     0       0.377   5.151  23.463  0.00  0.00     0.022 A 
HETATM    6  C   UNK     0      -0.681   5.626  24.231  0.00  0.00    -0.027 A 
HETATM    7  C   UNK     0       1.209   3.996  23.924  0.00  0.00     0.115 C 
HETATM    8  C   UNK     0       2.715   4.155  23.820  0.00  0.00     0.021 A 
HETATM    9  N   UNK     0       3.453   5.261  24.001  0.00  0.00    -0.361 N 
HETATM   10  C   UNK     0       4.738   4.960  23.715  0.00  0.00     0.022 A 
HETATM   11  C   UNK     0       4.831   3.620  23.348  0.00  0.00    -0.027 A 
HETATM   12  C   UNK     0       3.560   3.108  23.412  0.00  0.00    -0.031 A 
HETATM   13  C   UNK     0       3.178   1.678  23.102  0.00  0.00     0.051 C 
HETATM   14  C   UNK     0       5.915   5.931  23.724  0.00  0.00     0.115 C 
HETATM   15  C   UNK     0       5.771   7.082  22.742  0.00  0.00     0.021 A 
HETATM   16  N   UNK     0       4.787   7.999  22.690  0.00  0.00    -0.361 N 
HETATM   17  C   UNK     0       4.988   8.798  21.639  0.00  0.00     0.022 A 
HETATM   18  C   UNK     0       6.164   8.388  20.981  0.00  0.00    -0.027 A 
HETATM   19  C   UNK     0       6.646   7.313  21.682  0.00  0.00    -0.031 A 
HETATM   20  C   UNK     0       7.929   6.583  21.330  0.00  0.00     0.051 C 
HETATM   21  C   UNK     0       4.140   9.929  21.103  0.00  0.00     0.115 C 
HETATM   22  C   UNK     0       2.641   9.804  21.240  0.00  0.00     0.022 A 
HETATM   23  N   UNK     0       1.880   8.714  21.070  0.00  0.00    -0.361 N 
HETATM   24  C   UNK     0       0.618   9.018  21.435  0.00  0.00     0.021 A 
HETATM   25  C   UNK     0       0.563  10.337  21.841  0.00  0.00    -0.031 A 
HETATM   26  C   UNK     0      -0.634  11.144  22.300  0.00  0.00     0.051 C 
HETATM   27  C   UNK     0       1.845  10.861  21.725  0.00  0.00    -0.027 A 
HETATM   28  C   UNK     0      -0.579   8.086  21.504  0.00  0.00     0.115 C 
HETATM   29  H   UNK     0       1.260   5.785  21.551  0.00  0.00     0.165 HD
HETATM   30  H   UNK     0       3.079   6.244  24.379  0.00  0.00     0.165 HD
HETATM   31  H   UNK     0       3.959   8.116  23.437  0.00  0.00     0.165 HD
HETATM   32  H   UNK     0       2.219   7.732  20.648  0.00  0.00     0.165 HD
ENDROOT
BRANCH   6  33
HETATM   33  C   UNK     0      -1.252   5.104  25.525  0.00  0.00     0.051 C 
BRANCH  33  34
HETATM   34  C   UNK     0      -0.166   4.941  26.562  0.00  0.00     0.114 C 
BRANCH  34  35
HETATM   35  C   UNK     0      -0.199   6.149  27.436  0.00  0.00     0.139 C 
HETATM   36  O   UNK     0       0.002   7.297  26.943  0.00  0.00    -0.650 OA
BRANCH  35  37
HETATM   37  O   UNK     0      -0.447   6.079  28.801  0.00  0.00    -0.776 OA
HETATM   38  H   UNK     0      -1.198   5.525  29.180  0.00  0.00     0.167 HD
ENDBRANCH  35  37
ENDBRANCH  34  35
ENDBRANCH  33  34
ENDBRANCH   6  33
BRANCH  27  39
HETATM   39  C   UNK     0       2.167  12.287  22.006  0.00  0.00     0.051 C 
BRANCH  39  40
HETATM   40  C   UNK     0       2.354  13.193  20.873  0.00  0.00     0.114 C 
BRANCH  40  41
HETATM   41  C   UNK     0       3.658  13.684  20.486  0.00  0.00     0.139 C 
HETATM   42  O   UNK     0       4.216  14.646  21.032  0.00  0.00    -0.650 OA
BRANCH  41  43
HETATM   43  O   UNK     0       4.352  13.039  19.424  0.00  0.00    -0.776 OA
HETATM   44  H   UNK     0       5.212  12.581  19.701  0.00  0.00     0.167 HD
ENDBRANCH  41  43
ENDBRANCH  40  41
ENDBRANCH  39  40
ENDBRANCH  27  39
BRANCH  11  45
HETATM   45  C   UNK     0       6.052   2.835  22.954  0.00  0.00     0.051 C 
BRANCH  45  46
HETATM   46  C   UNK     0       6.737   2.167  24.090  0.00  0.00     0.114 C 
BRANCH  46  47
HETATM   47  C   UNK     0       6.496   0.702  23.952  0.00  0.00     0.139 C 
HETATM   48  O   UNK     0       6.279   0.241  22.823  0.00  0.00    -0.650 OA
BRANCH  47  49
HETATM   49  O   UNK     0       6.511  -0.119  25.052  0.00  0.00    -0.776 OA
HETATM   50  H   UNK     0       6.235   0.213  25.983  0.00  0.00     0.167 HD
ENDBRANCH  47  49
ENDBRANCH  46  47
ENDBRANCH  45  46
ENDBRANCH  11  45
BRANCH  18  51
HETATM   51  C   UNK     0       6.805   9.000  19.763  0.00  0.00     0.051 C 
BRANCH  51  52
HETATM   52  C   UNK     0       7.585  10.210  20.254  0.00  0.00     0.114 C 
BRANCH  52  53
HETATM   53  C   UNK     0       7.920  11.133  19.152  0.00  0.00     0.139 C 
HETATM   54  O   UNK     0       9.059  11.122  18.658  0.00  0.00    -0.650 OA
BRANCH  53  55
HETATM   55  O   UNK     0       6.968  12.003  18.680  0.00  0.00    -0.776 OA
HETATM   56  H   UNK     0       7.018  12.994  18.706  0.00  0.00     0.167 HD
ENDBRANCH  53  55
ENDBRANCH  52  53
ENDBRANCH  51  52
ENDBRANCH  18  51
TORSDOF 16
ENDMDL
MODEL 9
REMARK VINA RESULT:      -9.7      2.051      7.918
REMARK  16 active torsions:
REMARK  status: ('A' for Active; 'I' for Inactive)
REMARK    1  A    between atoms: C_6  and  C_7 
REMARK    2  A    between atoms: C_7  and  C_8 
REMARK    3  A    between atoms: C_8  and  C_9 
REMARK    4  A    between atoms: C_9  and  O_11 
REMARK    5  A    between atoms: C_16  and  C_17 
REMARK    6  A    between atoms: C_17  and  C_18 
REMARK    7  A    between atoms: C_18  and  C_19 
REMARK    8  A    between atoms: C_19  and  O_21 
REMARK    9  A    between atoms: C_28  and  C_29 
REMARK   10  A    between atoms: C_29  and  C_30 
REMARK   11  A    between atoms: C_30  and  C_31 
REMARK   12  A    between atoms: C_31  and  O_33 
REMARK   13  A    between atoms: C_42  and  C_43 
REMARK   14  A    between atoms: C_43  and  C_44 
REMARK   15  A    between atoms: C_44  and  C_45 
REMARK   16  A    between atoms: C_45  and  O_47 
ROOT
HETATM    1  C   UNK     0       5.780  12.840  20.218  0.00  0.00     0.051 C 
HETATM    2  C   UNK     0       4.837  11.661  20.346  0.00  0.00    -0.031 A 
HETATM    3  C   UNK     0       5.036  10.334  20.001  0.00  0.00     0.021 A 
HETATM    4  N   UNK     0       3.906   9.635  20.263  0.00  0.00    -0.361 N 
HETATM    5  C   UNK     0       2.994  10.487  20.776  0.00  0.00     0.022 A 
HETATM    6  C   UNK     0       3.542  11.764  20.839  0.00  0.00    -0.027 A 
HETATM    7  C   UNK     0       1.625  10.206  21.314  0.00  0.00     0.115 C 
HETATM    8  C   UNK     0       1.477   8.974  22.189  0.00  0.00     0.021 A 
HETATM    9  N   UNK     0       2.352   8.463  23.069  0.00  0.00    -0.361 N 
HETATM   10  C   UNK     0       1.839   7.311  23.550  0.00  0.00     0.022 A 
HETATM   11  C   UNK     0       0.594   7.079  22.972  0.00  0.00    -0.027 A 
HETATM   12  C   UNK     0       0.360   8.123  22.113  0.00  0.00    -0.031 A 
HETATM   13  C   UNK     0      -0.879   8.295  21.265  0.00  0.00     0.051 C 
HETATM   14  C   UNK     0       2.520   6.361  24.530  0.00  0.00     0.115 C 
HETATM   15  C   UNK     0       3.829   5.781  24.017  0.00  0.00     0.021 A 
HETATM   16  N   UNK     0       4.929   6.453  23.629  0.00  0.00    -0.361 N 
HETATM   17  C   UNK     0       5.837   5.585  23.178  0.00  0.00     0.022 A 
HETATM   18  C   UNK     0       5.306   4.284  23.285  0.00  0.00    -0.027 A 
HETATM   19  C   UNK     0       4.049   4.420  23.813  0.00  0.00    -0.031 A 
HETATM   20  C   UNK     0       3.134   3.251  24.129  0.00  0.00     0.051 C 
HETATM   21  C   UNK     0       7.198   5.831  22.567  0.00  0.00     0.115 C 
HETATM   22  C   UNK     0       7.372   7.076  21.730  0.00  0.00     0.022 A 
HETATM   23  N   UNK     0       6.516   7.610  20.849  0.00  0.00    -0.361 N 
HETATM   24  C   UNK     0       7.012   8.796  20.441  0.00  0.00     0.021 A 
HETATM   25  C   UNK     0       8.222   9.026  21.067  0.00  0.00    -0.031 A 
HETATM   26  C   UNK     0       9.173  10.194  20.904  0.00  0.00     0.051 C 
HETATM   27  C   UNK     0       8.474   7.939  21.897  0.00  0.00    -0.027 A 
HETATM   28  C   UNK     0       6.358   9.809  19.518  0.00  0.00     0.115 C 
HETATM   29  H   UNK     0       3.747   8.553  20.047  0.00  0.00     0.165 HD
HETATM   30  H   UNK     0       3.311   8.939  23.390  0.00  0.00     0.165 HD
HETATM   31  H   UNK     0       5.087   7.559  23.720  0.00  0.00     0.165 HD
HETATM   32  H   UNK     0       5.572   7.135  20.474  0.00  0.00     0.165 HD
ENDROOT
BRANCH   6  33
HETATM   33  C   UNK     0       2.937  13.057  21.323  0.00  0.00     0.051 C 
BRANCH  33  34
HETATM   34  C   UNK     0       2.159  13.730  20.218  0.00  0.00     0.114 C 
BRANCH  34  35
HETATM   35  C   UNK     0       2.570  15.163  20.191  0.00  0.00     0.139 C 
HETATM   36  O   UNK     0       1.696  16.078  20.222  0.00  0.00    -0.650 OA
BRANCH  35  37
HETATM   37  O   UNK     0       3.901  15.560  20.136  0.00  0.00    -0.776 OA
HETATM   38  H   UNK     0       4.322  15.902  19.288  0.00  0.00     0.167 HD
ENDBRANCH  35  37
ENDBRANCH  34  35
ENDBRANCH  33  34
ENDBRANCH   6  33
BRANCH  27  39
HETATM   39  C   UNK     0       9.728   7.794  22.685  0.00  0.00     0.051 C 
BRANCH  39  40
HETATM   40  C   UNK     0      10.814   6.993  22.122  0.00  0.00     0.114 C 
BRANCH  40  41
HETATM   41  C   UNK     0      10.629   6.153  20.960  0.00  0.00     0.139 C 
HETATM   42  O   UNK     0      10.938   6.497  19.811  0.00  0.00    -0.650 OA
BRANCH  41  43
HETATM   43  O   UNK     0      10.062   4.857  21.128  0.00  0.00    -0.776 OA
HETATM   44  H   UNK     0       9.272   4.824  21.760  0.00  0.00     0.167 HD
ENDBRANCH  41  43
ENDBRANCH  40  41
ENDBRANCH  39  40
ENDBRANCH  27  39
BRANCH  11  45
HETATM   45  C   UNK     0      -0.352   5.932  23.203  0.00  0.00     0.051 C 
BRANCH  45  46
HETATM   46  C   UNK     0      -1.208   6.086  24.407  0.00  0.00     0.114 C 
BRANCH  46  47
HETATM   47  C   UNK     0      -2.600   6.330  23.931  0.00  0.00     0.139 C 
HETATM   48  O   UNK     0      -2.999   7.500  23.840  0.00  0.00    -0.650 OA
BRANCH  47  49
HETATM   49  O   UNK     0      -3.424   5.283  23.602  0.00  0.00    -0.776 OA
HETATM   50  H   UNK     0      -4.417   5.420  23.379  0.00  0.00     0.167 HD
ENDBRANCH  47  49
ENDBRANCH  46  47
ENDBRANCH  45  46
ENDBRANCH  11  45
BRANCH  18  51
HETATM   51  C   UNK     0       5.970   2.980  22.925  0.00  0.00     0.051 C 
BRANCH  51  52
HETATM   52  C   UNK     0       6.435   2.362  24.235  0.00  0.00     0.114 C 
BRANCH  52  53
HETATM   53  C   UNK     0       6.475   0.888  24.164  0.00  0.00     0.139 C 
HETATM   54  O   UNK     0       6.362   0.316  23.068  0.00  0.00    -0.650 OA
BRANCH  53  55
HETATM   55  O   UNK     0       6.634   0.157  25.315  0.00  0.00    -0.776 OA
HETATM   56  H   UNK     0       6.070   0.220  26.130  0.00  0.00     0.167 HD
ENDBRANCH  53  55
ENDBRANCH  52  53
ENDBRANCH  51  52
ENDBRANCH  18  51
TORSDOF 16
ENDMDL
MODEL 10
REMARK VINA RESULT:      -9.6      2.287      8.253
REMARK  16 active torsions:
REMARK  status: ('A' for Active; 'I' for Inactive)
REMARK    1  A    between atoms: C_6  and  C_7 
REMARK    2  A    between atoms: C_7  and  C_8 
REMARK    3  A    between atoms: C_8  and  C_9 
REMARK    4  A    between atoms: C_9  and  O_11 
REMARK    5  A    between atoms: C_16  and  C_17 
REMARK    6  A    between atoms: C_17  and  C_18 
REMARK    7  A    between atoms: C_18  and  C_19 
REMARK    8  A    between atoms: C_19  and  O_21 
REMARK    9  A    between atoms: C_28  and  C_29 
REMARK   10  A    between atoms: C_29  and  C_30 
REMARK   11  A    between atoms: C_30  and  C_31 
REMARK   12  A    between atoms: C_31  and  O_33 
REMARK   13  A    between atoms: C_42  and  C_43 
REMARK   14  A    between atoms: C_43  and  C_44 
REMARK   15  A    between atoms: C_44  and  C_45 
REMARK   16  A    between atoms: C_45  and  O_47 
ROOT
HETATM    1  C   UNK     0      -1.460   6.998  24.199  0.00  0.00     0.051 C 
HETATM    2  C   UNK     0      -0.477   8.097  23.850  0.00  0.00    -0.031 A 
HETATM    3  C   UNK     0       0.816   8.299  24.306  0.00  0.00     0.021 A 
HETATM    4  N   UNK     0       1.309   9.429  23.747  0.00  0.00    -0.361 N 
HETATM    5  C   UNK     0       0.362   9.947  22.939  0.00  0.00     0.022 A 
HETATM    6  C   UNK     0      -0.770   9.140  22.981  0.00  0.00    -0.027 A 
HETATM    7  C   UNK     0       0.435  11.130  22.024  0.00  0.00     0.115 C 
HETATM    8  C   UNK     0       1.706  11.284  21.208  0.00  0.00     0.021 A 
HETATM    9  N   UNK     0       2.472  10.326  20.664  0.00  0.00    -0.361 N 
HETATM   10  C   UNK     0       3.551  10.917  20.109  0.00  0.00     0.022 A 
HETATM   11  C   UNK     0       3.473  12.294  20.291  0.00  0.00    -0.027 A 
HETATM   12  C   UNK     0       2.313  12.533  20.983  0.00  0.00    -0.031 A 
HETATM   13  C   UNK     0       1.811  13.896  21.403  0.00  0.00     0.051 C 
HETATM   14  C   UNK     0       4.720  10.205  19.433  0.00  0.00     0.115 C 
HETATM   15  C   UNK     0       5.478   9.259  20.349  0.00  0.00     0.021 A 
HETATM   16  N   UNK     0       4.990   8.198  21.019  0.00  0.00    -0.361 N 
HETATM   17  C   UNK     0       5.959   7.669  21.770  0.00  0.00     0.022 A 
HETATM   18  C   UNK     0       7.138   8.416  21.571  0.00  0.00    -0.027 A 
HETATM   19  C   UNK     0       6.823   9.407  20.679  0.00  0.00    -0.031 A 
HETATM   20  C   UNK     0       7.824  10.423  20.159  0.00  0.00     0.051 C 
HETATM   21  C   UNK     0       5.911   6.522  22.753  0.00  0.00     0.115 C 
HETATM   22  C   UNK     0       4.636   6.330  23.539  0.00  0.00     0.022 A 
HETATM   23  N   UNK     0       3.851   7.266  24.089  0.00  0.00    -0.361 N 
HETATM   24  C   UNK     0       2.745   6.662  24.568  0.00  0.00     0.021 A 
HETATM   25  C   UNK     0       2.824   5.304  24.330  0.00  0.00    -0.031 A 
HETATM   26  C   UNK     0       1.849   4.210  24.716  0.00  0.00     0.051 C 
HETATM   27  C   UNK     0       4.026   5.066  23.673  0.00  0.00    -0.027 A 
HETATM   28  C   UNK     0       1.526   7.318  25.195  0.00  0.00     0.115 C 
HETATM   29  H   UNK     0       2.309   9.874  23.959  0.00  0.00     0.165 HD
HETATM   30  H   UNK     0       2.229   9.236  20.627  0.00  0.00     0.165 HD
HETATM   31  H   UNK     0       3.952   7.784  20.926  0.00  0.00     0.165 HD
HETATM   32  H   UNK     0       4.091   8.357  24.182  0.00  0.00     0.165 HD
ENDROOT
BRANCH   6  33
HETATM   33  C   UNK     0      -2.092   9.285  22.270  0.00  0.00     0.051 C 
BRANCH  33  34
HETATM   34  C   UNK     0      -2.112   8.460  21.006  0.00  0.00     0.114 C 
BRANCH  34  35
HETATM   35  C   UNK     0      -3.315   7.581  21.065  0.00  0.00     0.139 C 
HETATM   36  O   UNK     0      -4.398   8.016  21.553  0.00  0.00    -0.650 OA
BRANCH  35  37
HETATM   37  O   UNK     0      -3.311   6.272  20.597  0.00  0.00    -0.776 OA
HETATM   38  H   UNK     0      -2.752   5.988  19.809  0.00  0.00     0.167 HD
ENDBRANCH  35  37
ENDBRANCH  34  35
ENDBRANCH  33  34
ENDBRANCH   6  33
BRANCH  27  39
HETATM   39  C   UNK     0       4.497   3.702  23.312  0.00  0.00     0.051 C 
BRANCH  39  40
HETATM   40  C   UNK     0       5.668   3.166  24.006  0.00  0.00     0.114 C 
BRANCH  40  41
HETATM   41  C   UNK     0       7.014   3.583  23.680  0.00  0.00     0.139 C 
HETATM   42  O   UNK     0       7.577   3.300  22.614  0.00  0.00    -0.650 OA
BRANCH  41  43
HETATM   43  O   UNK     0       7.744   4.359  24.624  0.00  0.00    -0.776 OA
HETATM   44  H   UNK     0       8.433   4.977  24.214  0.00  0.00     0.167 HD
ENDBRANCH  41  43
ENDBRANCH  40  41
ENDBRANCH  39  40
ENDBRANCH  27  39
BRANCH  11  45
HETATM   45  C   UNK     0       4.436  13.360  19.840  0.00  0.00     0.051 C 
BRANCH  45  46
HETATM   46  C   UNK     0       5.708  13.391  20.606  0.00  0.00     0.114 C 
BRANCH  46  47
HETATM   47  C   UNK     0       6.147  14.814  20.675  0.00  0.00     0.139 C 
HETATM   48  O   UNK     0       5.745  15.601  19.806  0.00  0.00    -0.650 OA
BRANCH  47  49
HETATM   49  O   UNK     0       6.980  15.245  21.677  0.00  0.00    -0.776 OA
HETATM   50  H   UNK     0       6.619  15.608  22.567  0.00  0.00     0.167 HD
ENDBRANCH  47  49
ENDBRANCH  46  47
ENDBRANCH  45  46
ENDBRANCH  11  45
BRANCH  18  51
HETATM   51  C   UNK     0       8.495   8.183  22.183  0.00  0.00     0.051 C 
BRANCH  51  52
HETATM   52  C   UNK     0       9.155   7.091  21.354  0.00  0.00     0.114 C 
BRANCH  52  53
HETATM   53  C   UNK     0      10.432   7.541  20.767  0.00  0.00     0.139 C 
HETATM   54  O   UNK     0      10.538   7.673  19.538  0.00  0.00    -0.650 OA
BRANCH  53  55
HETATM   55  O   UNK     0      11.500   7.809  21.588  0.00  0.00    -0.776 OA
HETATM   56  H   UNK     0      12.405   8.092  21.295  0.00  0.00     0.167 HD
ENDBRANCH  53  55
ENDBRANCH  52  53
ENDBRANCH  51  52
ENDBRANCH  18  51
TORSDOF 16
ENDMDL
MODEL 11
REMARK VINA RESULT:      -9.6      1.856      8.253
REMARK  16 active torsions:
REMARK  status: ('A' for Active; 'I' for Inactive)
REMARK    1  A    between atoms: C_6  and  C_7 
REMARK    2  A    between atoms: C_7  and  C_8 
REMARK    3  A    between atoms: C_8  and  C_9 
REMARK    4  A    between atoms: C_9  and  O_11 
REMARK    5  A    between atoms: C_16  and  C_17 
REMARK    6  A    between atoms: C_17  and  C_18 
REMARK    7  A    between atoms: C_18  and  C_19 
REMARK    8  A    between atoms: C_19  and  O_21 
REMARK    9  A    between atoms: C_28  and  C_29 
REMARK   10  A    between atoms: C_29  and  C_30 
REMARK   11  A    between atoms: C_30  and  C_31 
REMARK   12  A    between atoms: C_31  and  O_33 
REMARK   13  A    between atoms: C_42  and  C_43 
REMARK   14  A    between atoms: C_43  and  C_44 
REMARK   15  A    between atoms: C_44  and  C_45 
REMARK   16  A    between atoms: C_45  and  O_47 
ROOT
HETATM    1  C   UNK     0      -0.767   4.058  23.095  0.00  0.00     0.051 C 
HETATM    2  C   UNK     0      -0.043   5.388  23.116  0.00  0.00    -0.031 A 
HETATM    3  C   UNK     0       1.061   5.778  23.859  0.00  0.00     0.021 A 
HETATM    4  N   UNK     0       1.347   7.072  23.579  0.00  0.00    -0.361 N 
HETATM    5  C   UNK     0       0.455   7.512  22.667  0.00  0.00     0.022 A 
HETATM    6  C   UNK     0      -0.431   6.485  22.358  0.00  0.00    -0.027 A 
HETATM    7  C   UNK     0       0.388   8.830  21.961  0.00  0.00     0.115 C 
HETATM    8  C   UNK     0       1.703   9.403  21.462  0.00  0.00     0.021 A 
HETATM    9  N   UNK     0       2.765   8.751  20.966  0.00  0.00    -0.361 N 
HETATM   10  C   UNK     0       3.743   9.653  20.737  0.00  0.00     0.022 A 
HETATM   11  C   UNK     0       3.295  10.923  21.088  0.00  0.00    -0.027 A 
HETATM   12  C   UNK     0       2.011  10.773  21.545  0.00  0.00    -0.031 A 
HETATM   13  C   UNK     0       1.120  11.894  22.033  0.00  0.00     0.051 C 
HETATM   14  C   UNK     0       5.151   9.348  20.233  0.00  0.00     0.115 C 
HETATM   15  C   UNK     0       5.950   8.436  21.150  0.00  0.00     0.021 A 
HETATM   16  N   UNK     0       5.632   7.190  21.549  0.00  0.00    -0.361 N 
HETATM   17  C   UNK     0       6.558   6.756  22.407  0.00  0.00     0.022 A 
HETATM   18  C   UNK     0       7.530   7.763  22.567  0.00  0.00    -0.027 A 
HETATM   19  C   UNK     0       7.138   8.810  21.774  0.00  0.00    -0.031 A 
HETATM   20  C   UNK     0       7.929  10.096  21.622  0.00  0.00     0.051 C 
HETATM   21  C   UNK     0       6.627   5.464  23.189  0.00  0.00     0.115 C 
HETATM   22  C   UNK     0       5.323   4.859  23.654  0.00  0.00     0.022 A 
HETATM   23  N   UNK     0       4.247   5.485  24.149  0.00  0.00    -0.361 N 
HETATM   24  C   UNK     0       3.260   4.579  24.295  0.00  0.00     0.021 A 
HETATM   25  C   UNK     0       3.714   3.337  23.895  0.00  0.00    -0.031 A 
HETATM   26  C   UNK     0       2.991   2.007  23.911  0.00  0.00     0.051 C 
HETATM   27  C   UNK     0       5.032   3.491  23.480  0.00  0.00    -0.027 A 
HETATM   28  C   UNK     0       1.827   4.828  24.735  0.00  0.00     0.115 C 
HETATM   29  H   UNK     0       2.152   7.676  24.057  0.00  0.00     0.165 HD
HETATM   30  H   UNK     0       2.811   7.659  20.728  0.00  0.00     0.165 HD
HETATM   31  H   UNK     0       4.763   6.586  21.181  0.00  0.00     0.165 HD
HETATM   32  H   UNK     0       4.189   6.566  24.440  0.00  0.00     0.165 HD
ENDROOT
BRANCH   6  33
HETATM   33  C   UNK     0      -1.603   6.468  21.410  0.00  0.00     0.051 C 
BRANCH  33  34
HETATM   34  C   UNK     0      -2.907   6.517  22.171  0.00  0.00     0.114 C 
BRANCH  34  35
HETATM   35  C   UNK     0      -3.627   7.751  21.746  0.00  0.00     0.139 C 
HETATM   36  O   UNK     0      -3.079   8.885  21.875  0.00  0.00    -0.650 OA
BRANCH  35  37
HETATM   37  O   UNK     0      -4.903   7.723  21.198  0.00  0.00    -0.776 OA
HETATM   38  H   UNK     0      -5.581   7.025  21.458  0.00  0.00     0.167 HD
ENDBRANCH  35  37
ENDBRANCH  34  35
ENDBRANCH  33  34
ENDBRANCH   6  33
BRANCH  27  39
HETATM   39  C   UNK     0       5.883   2.351  23.043  0.00  0.00     0.051 C 
BRANCH  39  40
HETATM   40  C   UNK     0       6.474   1.493  24.069  0.00  0.00     0.114 C 
BRANCH  40  41
HETATM   41  C   UNK     0       6.199   0.075  24.141  0.00  0.00     0.139 C 
HETATM   42  O   UNK     0       5.444  -0.515  23.357  0.00  0.00    -0.650 OA
BRANCH  41  43
HETATM   43  O   UNK     0       6.821  -0.699  25.162  0.00  0.00    -0.776 OA
HETATM   44  H   UNK     0       7.260  -0.152  25.893  0.00  0.00     0.167 HD
ENDBRANCH  41  43
ENDBRANCH  40  41
ENDBRANCH  39  40
ENDBRANCH  27  39
BRANCH  11  45
HETATM   45  C   UNK     0       4.026  12.236  21.002  0.00  0.00     0.051 C 
BRANCH  45  46
HETATM   46  C   UNK     0       3.679  13.046  19.806  0.00  0.00     0.114 C 
BRANCH  46  47
HETATM   47  C   UNK     0       3.006  14.285  20.292  0.00  0.00     0.139 C 
HETATM   48  O   UNK     0       3.347  14.753  21.387  0.00  0.00    -0.650 OA
BRANCH  47  49
HETATM   49  O   UNK     0       2.030  14.893  19.544  0.00  0.00    -0.776 OA
HETATM   50  H   UNK     0       2.242  15.649  18.882  0.00  0.00     0.167 HD
ENDBRANCH  47  49
ENDBRANCH  46  47
ENDBRANCH  45  46
ENDBRANCH  11  45
BRANCH  18  51
HETATM   51  C   UNK     0       8.776   7.722  23.414  0.00  0.00     0.051 C 
BRANCH  51  52
HETATM   52  C   UNK     0       9.946   7.630  22.446  0.00  0.00     0.114 C 
BRANCH  52  53
HETATM   53  C   UNK     0      11.164   8.255  22.996  0.00  0.00     0.139 C 
HETATM   54  O   UNK     0      11.184   9.473  23.235  0.00  0.00    -0.650 OA
BRANCH  53  55
HETATM   55  O   UNK     0      12.275   7.484  23.238  0.00  0.00    -0.776 OA
HETATM   56  H   UNK     0      12.661   6.807  22.622  0.00  0.00     0.167 HD
ENDBRANCH  53  55
ENDBRANCH  52  53
ENDBRANCH  51  52
ENDBRANCH  18  51
TORSDOF 16
ENDMDL
MODEL 12
REMARK VINA RESULT:      -9.4      2.457      9.893
REMARK  16 active torsions:
REMARK  status: ('A' for Active; 'I' for Inactive)
REMARK    1  A    between atoms: C_6  and  C_7 
REMARK    2  A    between atoms: C_7  and  C_8 
REMARK    3  A    between atoms: C_8  and  C_9 
REMARK    4  A    between atoms: C_9  and  O_11 
REMARK    5  A    between atoms: C_16  and  C_17 
REMARK    6  A    between atoms: C_17  and  C_18 
REMARK    7  A    between atoms: C_18  and  C_19 
REMARK    8  A    between atoms: C_19  and  O_21 
REMARK    9  A    between atoms: C_28  and  C_29 
REMARK   10  A    between atoms: C_29  and  C_30 
REMARK   11  A    between atoms: C_30  and  C_31 
REMARK   12  A    between atoms: C_31  and  O_33 
REMARK   13  A    between atoms: C_42  and  C_43 
REMARK   14  A    between atoms: C_43  and  C_44 
REMARK   15  A    between atoms: C_44  and  C_45 
REMARK   16  A    between atoms: C_45  and  O_47 
ROOT
HETATM    1  C   UNK     0       0.401   9.251  23.083  0.00  0.00     0.051 C 
HETATM    2  C   UNK     0       1.832   9.717  22.911  0.00  0.00    -0.031 A 
HETATM    3  C   UNK     0       2.972   9.331  23.599  0.00  0.00     0.021 A 
HETATM    4  N   UNK     0       4.030  10.034  23.130  0.00  0.00    -0.361 N 
HETATM    5  C   UNK     0       3.591  10.853  22.152  0.00  0.00     0.022 A 
HETATM    6  C   UNK     0       2.220  10.683  21.991  0.00  0.00    -0.027 A 
HETATM    7  C   UNK     0       4.367  11.764  21.254  0.00  0.00     0.115 C 
HETATM    8  C   UNK     0       5.667  11.219  20.689  0.00  0.00     0.021 A 
HETATM    9  N   UNK     0       5.953   9.964  20.309  0.00  0.00    -0.361 N 
HETATM   10  C   UNK     0       7.256   9.919  19.958  0.00  0.00     0.022 A 
HETATM   11  C   UNK     0       7.822  11.181  20.107  0.00  0.00    -0.027 A 
HETATM   12  C   UNK     0       6.827  12.005  20.567  0.00  0.00    -0.031 A 
HETATM   13  C   UNK     0       6.983  13.479  20.870  0.00  0.00     0.051 C 
HETATM   14  C   UNK     0       8.028   8.677  19.522  0.00  0.00     0.115 C 
HETATM   15  C   UNK     0       8.081   7.582  20.575  0.00  0.00     0.021 A 
HETATM   16  N   UNK     0       7.044   6.949  21.154  0.00  0.00    -0.361 N 
HETATM   17  C   UNK     0       7.506   6.105  22.078  0.00  0.00     0.022 A 
HETATM   18  C   UNK     0       8.913   6.184  22.096  0.00  0.00    -0.027 A 
HETATM   19  C   UNK     0       9.260   7.112  21.149  0.00  0.00    -0.031 A 
HETATM   20  C   UNK     0      10.694   7.480  20.814  0.00  0.00     0.051 C 
HETATM   21  C   UNK     0       6.757   5.220  23.048  0.00  0.00     0.115 C 
HETATM   22  C   UNK     0       5.440   5.730  23.584  0.00  0.00     0.022 A 
HETATM   23  N   UNK     0       5.126   6.975  23.966  0.00  0.00    -0.361 N 
HETATM   24  C   UNK     0       3.806   7.015  24.236  0.00  0.00     0.021 A 
HETATM   25  C   UNK     0       3.258   5.763  24.033  0.00  0.00    -0.031 A 
HETATM   26  C   UNK     0       1.831   5.301  24.242  0.00  0.00     0.051 C 
HETATM   27  C   UNK     0       4.284   4.923  23.616  0.00  0.00    -0.027 A 
HETATM   28  C   UNK     0       2.971   8.226  24.617  0.00  0.00     0.115 C 
HETATM   29  H   UNK     0       5.072   9.975  23.520  0.00  0.00     0.165 HD
HETATM   30  H   UNK     0       5.225   9.119  20.240  0.00  0.00     0.165 HD
HETATM   31  H   UNK     0       5.965   7.065  20.872  0.00  0.00     0.165 HD
HETATM   32  H   UNK     0       5.843   7.828  24.090  0.00  0.00     0.165 HD
ENDROOT
BRANCH   6  33
HETATM   33  C   UNK     0       1.262  11.360  21.044  0.00  0.00     0.051 C 
BRANCH  33  34
HETATM   34  C   UNK     0       0.618  12.558  21.700  0.00  0.00     0.114 C 
BRANCH  34  35
HETATM   35  C   UNK     0       1.542  13.715  21.523  0.00  0.00     0.139 C 
HETATM   36  O   UNK     0       1.707  14.230  20.379  0.00  0.00    -0.650 OA
BRANCH  35  37
HETATM   37  O   UNK     0       2.251  14.276  22.579  0.00  0.00    -0.776 OA
HETATM   38  H   UNK     0       3.045  14.878  22.430  0.00  0.00     0.167 HD
ENDBRANCH  35  37
ENDBRANCH  34  35
ENDBRANCH  33  34
ENDBRANCH   6  33
BRANCH  27  39
HETATM   39  C   UNK     0       4.091   3.469  23.366  0.00  0.00     0.051 C 
BRANCH  39  40
HETATM   40  C   UNK     0       4.324   2.538  24.469  0.00  0.00     0.114 C 
BRANCH  40  41
HETATM   41  C   UNK     0       3.326   1.582  24.895  0.00  0.00     0.139 C 
HETATM   42  O   UNK     0       2.349   1.880  25.595  0.00  0.00    -0.650 OA
BRANCH  41  43
HETATM   43  O   UNK     0       3.458   0.222  24.496  0.00  0.00    -0.776 OA
HETATM   44  H   UNK     0       4.159  -0.299  25.009  0.00  0.00     0.167 HD
ENDBRANCH  41  43
ENDBRANCH  40  41
ENDBRANCH  39  40
ENDBRANCH  27  39
BRANCH  11  45
HETATM   45  C   UNK     0       9.236  11.617  19.833  0.00  0.00     0.051 C 
BRANCH  45  46
HETATM   46  C   UNK     0       9.542  11.810  18.392  0.00  0.00     0.114 C 
BRANCH  46  47
HETATM   47  C   UNK     0      10.880  11.204  18.139  0.00  0.00     0.139 C 
HETATM   48  O   UNK     0      11.089  10.046  18.527  0.00  0.00    -0.650 OA
BRANCH  47  49
HETATM   49  O   UNK     0      11.862  11.912  17.492  0.00  0.00    -0.776 OA
HETATM   50  H   UNK     0      12.616  12.387  18.001  0.00  0.00     0.167 HD
ENDBRANCH  47  49
ENDBRANCH  46  47
ENDBRANCH  45  46
ENDBRANCH  11  45
BRANCH  18  51
HETATM   51  C   UNK     0       9.874   5.403  22.953  0.00  0.00     0.051 C 
BRANCH  51  52
HETATM   52  C   UNK     0      10.005   6.174  24.258  0.00  0.00     0.114 C 
BRANCH  52  53
HETATM   53  C   UNK     0      11.412   6.485  24.575  0.00  0.00     0.139 C 
HETATM   54  O   UNK     0      11.895   6.141  25.665  0.00  0.00    -0.650 OA
BRANCH  53  55
HETATM   55  O   UNK     0      12.181   7.160  23.658  0.00  0.00    -0.776 OA
HETATM   56  H   UNK     0      11.965   8.037  23.246  0.00  0.00     0.167 HD
ENDBRANCH  53  55
ENDBRANCH  52  53
ENDBRANCH  51  52
ENDBRANCH  18  51
TORSDOF 16
ENDMDL
MODEL 13
REMARK VINA RESULT:      -9.3      2.872      7.663
REMARK  16 active torsions:
REMARK  status: ('A' for Active; 'I' for Inactive)
REMARK    1  A    between atoms: C_6  and  C_7 
REMARK    2  A    between atoms: C_7  and  C_8 
REMARK    3  A    between atoms: C_8  and  C_9 
REMARK    4  A    between atoms: C_9  and  O_11 
REMARK    5  A    between atoms: C_16  and  C_17 
REMARK    6  A    between atoms: C_17  and  C_18 
REMARK    7  A    between atoms: C_18  and  C_19 
REMARK    8  A    between atoms: C_19  and  O_21 
REMARK    9  A    between atoms: C_28  and  C_29 
REMARK   10  A    between atoms: C_29  and  C_30 
REMARK   11  A    between atoms: C_30  and  C_31 
REMARK   12  A    between atoms: C_31  and  O_33 
REMARK   13  A    between atoms: C_42  and  C_43 
REMARK   14  A    between atoms: C_43  and  C_44 
REMARK   15  A    between atoms: C_44  and  C_45 
REMARK   16  A    between atoms: C_45  and  O_47 
ROOT
HETATM    1  C   UNK     0       5.825   1.777  24.223  0.00  0.00     0.051 C 
HETATM    2  C   UNK     0       5.263   3.079  23.689  0.00  0.00    -0.031 A 
HETATM    3  C   UNK     0       4.025   3.336  23.121  0.00  0.00     0.021 A 
HETATM    4  N   UNK     0       3.967   4.639  22.759  0.00  0.00    -0.361 N 
HETATM    5  C   UNK     0       5.138   5.221  23.092  0.00  0.00     0.022 A 
HETATM    6  C   UNK     0       5.973   4.273  23.674  0.00  0.00    -0.027 A 
HETATM    7  C   UNK     0       5.549   6.657  22.993  0.00  0.00     0.115 C 
HETATM    8  C   UNK     0       4.519   7.692  23.410  0.00  0.00     0.021 A 
HETATM    9  N   UNK     0       3.608   7.616  24.392  0.00  0.00    -0.361 N 
HETATM   10  C   UNK     0       2.843   8.727  24.341  0.00  0.00     0.022 A 
HETATM   11  C   UNK     0       3.278   9.545  23.303  0.00  0.00    -0.027 A 
HETATM   12  C   UNK     0       4.334   8.899  22.712  0.00  0.00    -0.031 A 
HETATM   13  C   UNK     0       5.130   9.419  21.536  0.00  0.00     0.051 C 
HETATM   14  C   UNK     0       1.642   9.036  25.231  0.00  0.00     0.115 C 
HETATM   15  C   UNK     0       0.512   8.026  25.113  0.00  0.00     0.021 A 
HETATM   16  N   UNK     0       0.567   6.701  25.345  0.00  0.00    -0.361 N 
HETATM   17  C   UNK     0      -0.618   6.157  25.060  0.00  0.00     0.022 A 
HETATM   18  C   UNK     0      -1.490   7.177  24.632  0.00  0.00    -0.027 A 
HETATM   19  C   UNK     0      -0.771   8.343  24.670  0.00  0.00    -0.031 A 
HETATM   20  C   UNK     0      -1.347   9.702  24.318  0.00  0.00     0.051 C 
HETATM   21  C   UNK     0      -1.054   4.709  25.083  0.00  0.00     0.115 C 
HETATM   22  C   UNK     0      -0.026   3.665  24.713  0.00  0.00     0.022 A 
HETATM   23  N   UNK     0       0.896   3.716  23.743  0.00  0.00    -0.361 N 
HETATM   24  C   UNK     0       1.695   2.637  23.862  0.00  0.00     0.021 A 
HETATM   25  C   UNK     0       1.272   1.868  24.929  0.00  0.00    -0.031 A 
HETATM   26  C   UNK     0       1.823   0.549  25.431  0.00  0.00     0.051 C 
HETATM   27  C   UNK     0       0.172   2.506  25.490  0.00  0.00    -0.027 A 
HETATM   28  C   UNK     0       2.935   2.304  23.049  0.00  0.00     0.115 C 
HETATM   29  H   UNK     0       3.115   5.130  22.234  0.00  0.00     0.165 HD
HETATM   30  H   UNK     0       3.535   6.803  25.156  0.00  0.00     0.165 HD
HETATM   31  H   UNK     0       1.445   6.144  25.763  0.00  0.00     0.165 HD
HETATM   32  H   UNK     0       0.964   4.492  22.937  0.00  0.00     0.165 HD
ENDROOT
BRANCH   6  33
HETATM   33  C   UNK     0       7.376   4.413  24.207  0.00  0.00     0.051 C 
BRANCH  33  34
HETATM   34  C   UNK     0       8.390   4.196  23.109  0.00  0.00     0.114 C 
BRANCH  34  35
HETATM   35  C   UNK     0       8.854   5.540  22.658  0.00  0.00     0.139 C 
HETATM   36  O   UNK     0       9.300   6.375  23.498  0.00  0.00    -0.650 OA
BRANCH  35  37
HETATM   37  O   UNK     0       8.824   5.935  21.326  0.00  0.00    -0.776 OA
HETATM   38  H   UNK     0       9.506   5.614  20.658  0.00  0.00     0.167 HD
ENDBRANCH  35  37
ENDBRANCH  34  35
ENDBRANCH  33  34
ENDBRANCH   6  33
BRANCH  27  39
HETATM   39  C   UNK     0      -0.604   1.935  26.624  0.00  0.00     0.051 C 
BRANCH  39  40
HETATM   40  C   UNK     0      -0.110   2.155  27.983  0.00  0.00     0.114 C 
BRANCH  40  41
HETATM   41  C   UNK     0       0.752   3.266  28.320  0.00  0.00     0.139 C 
HETATM   42  O   UNK     0       0.348   4.430  28.444  0.00  0.00    -0.650 OA
BRANCH  41  43
HETATM   43  O   UNK     0       2.140   3.027  28.523  0.00  0.00    -0.776 OA
HETATM   44  H   UNK     0       2.354   2.131  28.944  0.00  0.00     0.167 HD
ENDBRANCH  41  43
ENDBRANCH  40  41
ENDBRANCH  39  40
ENDBRANCH  27  39
BRANCH  11  45
HETATM   45  C   UNK     0       2.741  10.882  22.869  0.00  0.00     0.051 C 
BRANCH  45  46
HETATM   46  C   UNK     0       1.780  10.811  21.739  0.00  0.00     0.114 C 
BRANCH  46  47
HETATM   47  C   UNK     0       0.909  12.018  21.824  0.00  0.00     0.139 C 
HETATM   48  O   UNK     0       1.440  13.120  22.024  0.00  0.00    -0.650 OA
BRANCH  47  49
HETATM   49  O   UNK     0      -0.452  11.914  21.686  0.00  0.00    -0.776 OA
HETATM   50  H   UNK     0      -1.043  12.727  21.478  0.00  0.00     0.167 HD
ENDBRANCH  47  49
ENDBRANCH  46  47
ENDBRANCH  45  46
ENDBRANCH  11  45
BRANCH  18  51
HETATM   51  C   UNK     0      -2.936   7.051  24.228  0.00  0.00     0.051 C 
BRANCH  51  52
HETATM   52  C   UNK     0      -2.938   6.451  22.830  0.00  0.00     0.114 C 
BRANCH  52  53
HETATM   53  C   UNK     0      -2.861   7.490  21.785  0.00  0.00     0.139 C 
HETATM   54  O   UNK     0      -3.611   8.478  21.835  0.00  0.00    -0.650 OA
BRANCH  53  55
HETATM   55  O   UNK     0      -1.959   7.356  20.758  0.00  0.00    -0.776 OA
HETATM   56  H   UNK     0      -1.088   7.826  20.680  0.00  0.00     0.167 HD
ENDBRANCH  53  55
ENDBRANCH  52  53
ENDBRANCH  51  52
ENDBRANCH  18  51
TORSDOF 16
ENDMDL
MODEL 14
REMARK VINA RESULT:      -9.3      2.758      7.447
REMARK  16 active torsions:
REMARK  status: ('A' for Active; 'I' for Inactive)
REMARK    1  A    between atoms: C_6  and  C_7 
REMARK    2  A    between atoms: C_7  and  C_8 
REMARK    3  A    between atoms: C_8  and  C_9 
REMARK    4  A    between atoms: C_9  and  O_11 
REMARK    5  A    between atoms: C_16  and  C_17 
REMARK    6  A    between atoms: C_17  and  C_18 
REMARK    7  A    between atoms: C_18  and  C_19 
REMARK    8  A    between atoms: C_19  and  O_21 
REMARK    9  A    between atoms: C_28  and  C_29 
REMARK   10  A    between atoms: C_29  and  C_30 
REMARK   11  A    between atoms: C_30  and  C_31 
REMARK   12  A    between atoms: C_31  and  O_33 
REMARK   13  A    between atoms: C_42  and  C_43 
REMARK   14  A    between atoms: C_43  and  C_44 
REMARK   15  A    between atoms: C_44  and  C_45 
REMARK   16  A    between atoms: C_45  and  O_47 
ROOT
HETATM    1  C   UNK     0      -1.705   2.403  25.491  0.00  0.00     0.051 C 
HETATM    2  C   UNK     0      -0.429   2.566  24.690  0.00  0.00    -0.031 A 
HETATM    3  C   UNK     0      -0.212   3.268  23.514  0.00  0.00     0.021 A 
HETATM    4  N   UNK     0       1.080   3.110  23.139  0.00  0.00    -0.361 N 
HETATM    5  C   UNK     0       1.692   2.330  24.054  0.00  0.00     0.022 A 
HETATM    6  C   UNK     0       0.776   1.970  25.036  0.00  0.00    -0.027 A 
HETATM    7  C   UNK     0       3.132   1.933  24.155  0.00  0.00     0.115 C 
HETATM    8  C   UNK     0       4.159   3.018  23.884  0.00  0.00     0.021 A 
HETATM    9  N   UNK     0       4.095   4.324  24.185  0.00  0.00    -0.361 N 
HETATM   10  C   UNK     0       5.190   4.926  23.674  0.00  0.00     0.022 A 
HETATM   11  C   UNK     0       5.985   3.980  23.035  0.00  0.00    -0.027 A 
HETATM   12  C   UNK     0       5.342   2.776  23.163  0.00  0.00    -0.031 A 
HETATM   13  C   UNK     0       5.843   1.455  22.623  0.00  0.00     0.051 C 
HETATM   14  C   UNK     0       5.502   6.419  23.722  0.00  0.00     0.115 C 
HETATM   15  C   UNK     0       4.469   7.287  23.022  0.00  0.00     0.021 A 
HETATM   16  N   UNK     0       3.152   7.374  23.289  0.00  0.00    -0.361 N 
HETATM   17  C   UNK     0       2.579   8.194  22.406  0.00  0.00     0.022 A 
HETATM   18  C   UNK     0       3.571   8.672  21.526  0.00  0.00    -0.027 A 
HETATM   19  C   UNK     0       4.750   8.097  21.924  0.00  0.00    -0.031 A 
HETATM   20  C   UNK     0       6.088   8.373  21.263  0.00  0.00     0.051 C 
HETATM   21  C   UNK     0       1.125   8.568  22.229  0.00  0.00     0.115 C 
HETATM   22  C   UNK     0       0.090   7.512  22.537  0.00  0.00     0.022 A 
HETATM   23  N   UNK     0       0.129   6.203  22.253  0.00  0.00    -0.361 N 
HETATM   24  C   UNK     0      -0.931   5.611  22.838  0.00  0.00     0.021 A 
HETATM   25  C   UNK     0      -1.677   6.563  23.507  0.00  0.00    -0.031 A 
HETATM   26  C   UNK     0      -2.971   6.392  24.276  0.00  0.00     0.051 C 
HETATM   27  C   UNK     0      -1.044   7.787  23.329  0.00  0.00    -0.027 A 
HETATM   28  C   UNK     0      -1.264   4.129  22.876  0.00  0.00     0.115 C 
HETATM   29  H   UNK     0       1.539   3.518  22.209  0.00  0.00     0.165 HD
HETATM   30  H   UNK     0       3.303   4.816  24.801  0.00  0.00     0.165 HD
HETATM   31  H   UNK     0       2.624   6.885  24.149  0.00  0.00     0.165 HD
HETATM   32  H   UNK     0       0.883   5.692  21.599  0.00  0.00     0.165 HD
ENDROOT
BRANCH   6  33
HETATM   33  C   UNK     0       0.957   1.111  26.262  0.00  0.00     0.051 C 
BRANCH  33  34
HETATM   34  C   UNK     0       1.004  -0.352  25.888  0.00  0.00     0.114 C 
BRANCH  34  35
HETATM   35  C   UNK     0       0.778  -1.139  27.135  0.00  0.00     0.139 C 
HETATM   36  O   UNK     0      -0.184  -0.852  27.904  0.00  0.00    -0.650 OA
BRANCH  35  37
HETATM   37  O   UNK     0       1.591  -2.203  27.507  0.00  0.00    -0.776 OA
HETATM   38  H   UNK     0       1.465  -3.129  27.131  0.00  0.00     0.167 HD
ENDBRANCH  35  37
ENDBRANCH  34  35
ENDBRANCH  33  34
ENDBRANCH   6  33
BRANCH  27  39
HETATM   39  C   UNK     0      -1.595   9.068  23.848  0.00  0.00     0.051 C 
BRANCH  39  40
HETATM   40  C   UNK     0      -1.458   9.355  25.275  0.00  0.00     0.114 C 
BRANCH  40  41
HETATM   41  C   UNK     0      -0.276   8.991  26.024  0.00  0.00     0.139 C 
HETATM   42  O   UNK     0      -0.296   8.244  27.012  0.00  0.00    -0.650 OA
BRANCH  41  43
HETATM   43  O   UNK     0       0.986   9.511  25.619  0.00  0.00    -0.776 OA
HETATM   44  H   UNK     0       1.084  10.512  25.736  0.00  0.00     0.167 HD
ENDBRANCH  41  43
ENDBRANCH  40  41
ENDBRANCH  39  40
ENDBRANCH  27  39
BRANCH  11  45
HETATM   45  C   UNK     0       7.300   4.178  22.329  0.00  0.00     0.051 C 
BRANCH  45  46
HETATM   46  C   UNK     0       8.412   4.591  23.223  0.00  0.00     0.114 C 
BRANCH  46  47
HETATM   47  C   UNK     0       9.228   5.593  22.479  0.00  0.00     0.139 C 
HETATM   48  O   UNK     0       9.222   6.769  22.869  0.00  0.00    -0.650 OA
BRANCH  47  49
HETATM   49  O   UNK     0       9.968   5.223  21.384  0.00  0.00    -0.776 OA
HETATM   50  H   UNK     0       9.547   5.104  20.455  0.00  0.00     0.167 HD
ENDBRANCH  47  49
ENDBRANCH  46  47
ENDBRANCH  45  46
ENDBRANCH  11  45
BRANCH  18  51
HETATM   51  C   UNK     0       3.407   9.639  20.383  0.00  0.00     0.051 C 
BRANCH  51  52
HETATM   52  C   UNK     0       3.350  11.027  21.004  0.00  0.00     0.114 C 
BRANCH  52  53
HETATM   53  C   UNK     0       4.405  11.911  20.473  0.00  0.00     0.139 C 
HETATM   54  O   UNK     0       5.529  11.922  21.000  0.00  0.00    -0.650 OA
BRANCH  53  55
HETATM   55  O   UNK     0       4.136  12.721  19.397  0.00  0.00    -0.776 OA
HETATM   56  H   UNK     0       3.234  12.948  19.048  0.00  0.00     0.167 HD
ENDBRANCH  53  55
ENDBRANCH  52  53
ENDBRANCH  51  52
ENDBRANCH  18  51
TORSDOF 16
ENDMDL
MODEL 15
REMARK VINA RESULT:      -9.3      2.283      9.332
REMARK  16 active torsions:
REMARK  status: ('A' for Active; 'I' for Inactive)
REMARK    1  A    between atoms: C_6  and  C_7 
REMARK    2  A    between atoms: C_7  and  C_8 
REMARK    3  A    between atoms: C_8  and  C_9 
REMARK    4  A    between atoms: C_9  and  O_11 
REMARK    5  A    between atoms: C_16  and  C_17 
REMARK    6  A    between atoms: C_17  and  C_18 
REMARK    7  A    between atoms: C_18  and  C_19 
REMARK    8  A    between atoms: C_19  and  O_21 
REMARK    9  A    between atoms: C_28  and  C_29 
REMARK   10  A    between atoms: C_29  and  C_30 
REMARK   11  A    between atoms: C_30  and  C_31 
REMARK   12  A    between atoms: C_31  and  O_33 
REMARK   13  A    between atoms: C_42  and  C_43 
REMARK   14  A    between atoms: C_43  and  C_44 
REMARK   15  A    between atoms: C_44  and  C_45 
REMARK   16  A    between atoms: C_45  and  O_47 
ROOT
HETATM    1  C   UNK     0       3.128  11.281  21.835  0.00  0.00     0.051 C 
HETATM    2  C   UNK     0       3.674  10.059  22.545  0.00  0.00    -0.031 A 
HETATM    3  C   UNK     0       3.269   9.479  23.737  0.00  0.00     0.021 A 
HETATM    4  N   UNK     0       4.065   8.417  24.004  0.00  0.00    -0.361 N 
HETATM    5  C   UNK     0       4.963   8.302  23.004  0.00  0.00     0.022 A 
HETATM    6  C   UNK     0       4.749   9.315  22.075  0.00  0.00    -0.027 A 
HETATM    7  C   UNK     0       5.999   7.247  22.772  0.00  0.00     0.115 C 
HETATM    8  C   UNK     0       5.577   5.810  23.023  0.00  0.00     0.021 A 
HETATM    9  N   UNK     0       4.384   5.238  22.800  0.00  0.00    -0.361 N 
HETATM   10  C   UNK     0       4.435   3.969  23.259  0.00  0.00     0.022 A 
HETATM   11  C   UNK     0       5.699   3.714  23.783  0.00  0.00    -0.027 A 
HETATM   12  C   UNK     0       6.424   4.870  23.638  0.00  0.00    -0.031 A 
HETATM   13  C   UNK     0       7.862   5.059  24.065  0.00  0.00     0.051 C 
HETATM   14  C   UNK     0       3.284   2.967  23.269  0.00  0.00     0.115 C 
HETATM   15  C   UNK     0       2.087   3.414  24.093  0.00  0.00     0.021 A 
HETATM   16  N   UNK     0       1.349   4.529  23.931  0.00  0.00    -0.361 N 
HETATM   17  C   UNK     0       0.433   4.592  24.900  0.00  0.00     0.022 A 
HETATM   18  C   UNK     0       0.574   3.460  25.726  0.00  0.00    -0.027 A 
HETATM   19  C   UNK     0       1.612   2.729  25.209  0.00  0.00    -0.031 A 
HETATM   20  C   UNK     0       2.078   1.403  25.781  0.00  0.00     0.051 C 
HETATM   21  C   UNK     0      -0.584   5.668  25.207  0.00  0.00     0.115 C 
HETATM   22  C   UNK     0      -0.193   7.099  24.920  0.00  0.00     0.022 A 
HETATM   23  N   UNK     0       0.988   7.695  25.129  0.00  0.00    -0.361 N 
HETATM   24  C   UNK     0       0.939   8.932  24.594  0.00  0.00     0.021 A 
HETATM   25  C   UNK     0      -0.308   9.141  24.037  0.00  0.00    -0.031 A 
HETATM   26  C   UNK     0      -0.853  10.382  23.360  0.00  0.00     0.051 C 
HETATM   27  C   UNK     0      -1.051   7.983  24.234  0.00  0.00    -0.027 A 
HETATM   28  C   UNK     0       2.063   9.949  24.500  0.00  0.00     0.115 C 
HETATM   29  H   UNK     0       4.013   7.780  24.917  0.00  0.00     0.165 HD
HETATM   30  H   UNK     0       3.519   5.711  22.274  0.00  0.00     0.165 HD
HETATM   31  H   UNK     0       1.445   5.263  23.089  0.00  0.00     0.165 HD
HETATM   32  H   UNK     0       1.855   7.263  25.694  0.00  0.00     0.165 HD
ENDROOT
BRANCH   6  33
HETATM   33  C   UNK     0       5.480   9.627  20.794  0.00  0.00     0.051 C 
BRANCH  33  34
HETATM   34  C   UNK     0       6.590  10.621  21.039  0.00  0.00     0.114 C 
BRANCH  34  35
HETATM   35  C   UNK     0       6.488  11.672  19.987  0.00  0.00     0.139 C 
HETATM   36  O   UNK     0       7.429  12.503  19.823  0.00  0.00    -0.650 OA
BRANCH  35  37
HETATM   37  O   UNK     0       5.385  11.791  19.150  0.00  0.00    -0.776 OA
HETATM   38  H   UNK     0       4.856  12.645  19.080  0.00  0.00     0.167 HD
ENDBRANCH  35  37
ENDBRANCH  34  35
ENDBRANCH  33  34
ENDBRANCH   6  33
BRANCH  27  39
HETATM   39  C   UNK     0      -2.477   7.856  23.830  0.00  0.00     0.051 C 
BRANCH  39  40
HETATM   40  C   UNK     0      -2.779   7.279  22.520  0.00  0.00     0.114 C 
BRANCH  40  41
HETATM   41  C   UNK     0      -2.091   7.695  21.318  0.00  0.00     0.139 C 
HETATM   42  O   UNK     0      -2.496   8.602  20.578  0.00  0.00    -0.650 OA
BRANCH  41  43
HETATM   43  O   UNK     0      -0.884   7.037  20.950  0.00  0.00    -0.776 OA
HETATM   44  H   UNK     0      -0.163   7.054  21.662  0.00  0.00     0.167 HD
ENDBRANCH  41  43
ENDBRANCH  40  41
ENDBRANCH  39  40
ENDBRANCH  27  39
BRANCH  11  45
HETATM   45  C   UNK     0       6.225   2.445  24.397  0.00  0.00     0.051 C 
BRANCH  45  46
HETATM   46  C   UNK     0       6.460   1.351  23.420  0.00  0.00     0.114 C 
BRANCH  46  47
HETATM   47  C   UNK     0       5.858   0.112  23.991  0.00  0.00     0.139 C 
HETATM   48  O   UNK     0       4.696  -0.181  23.677  0.00  0.00    -0.650 OA
BRANCH  47  49
HETATM   49  O   UNK     0       6.574  -0.687  24.847  0.00  0.00    -0.776 OA
HETATM   50  H   UNK     0       6.281  -0.845  25.818  0.00  0.00     0.167 HD
ENDBRANCH  47  49
ENDBRANCH  46  47
ENDBRANCH  45  46
ENDBRANCH  11  45
BRANCH  18  51
HETATM   51  C   UNK     0      -0.250   3.083  26.931  0.00  0.00     0.051 C 
BRANCH  51  52
HETATM   52  C   UNK     0       0.365   3.816  28.114  0.00  0.00     0.114 C 
BRANCH  52  53
HETATM   53  C   UNK     0       1.239   2.935  28.912  0.00  0.00     0.139 C 
HETATM   54  O   UNK     0       0.942   1.740  29.067  0.00  0.00    -0.650 OA
BRANCH  53  55
HETATM   55  O   UNK     0       2.380   3.445  29.482  0.00  0.00    -0.776 OA
HETATM   56  H   UNK     0       2.548   3.554  30.455  0.00  0.00     0.167 HD
ENDBRANCH  53  55
ENDBRANCH  52  53
ENDBRANCH  51  52
ENDBRANCH  18  51
TORSDOF 16
ENDMDL
MODEL 16
REMARK VINA RESULT:      -9.1      5.159     10.291
REMARK  16 active torsions:
REMARK  status: ('A' for Active; 'I' for Inactive)
REMARK    1  A    between atoms: C_6  and  C_7 
REMARK    2  A    between atoms: C_7  and  C_8 
REMARK    3  A    between atoms: C_8  and  C_9 
REMARK    4  A    between atoms: C_9  and  O_11 
REMARK    5  A    between atoms: C_16  and  C_17 
REMARK    6  A    between atoms: C_17  and  C_18 
REMARK    7  A    between atoms: C_18  and  C_19 
REMARK    8  A    between atoms: C_19  and  O_21 
REMARK    9  A    between atoms: C_28  and  C_29 
REMARK   10  A    between atoms: C_29  and  C_30 
REMARK   11  A    between atoms: C_30  and  C_31 
REMARK   12  A    between atoms: C_31  and  O_33 
REMARK   13  A    between atoms: C_42  and  C_43 
REMARK   14  A    between atoms: C_43  and  C_44 
REMARK   15  A    between atoms: C_44  and  C_45 
REMARK   16  A    between atoms: C_45  and  O_47 
ROOT
HETATM    1  C   UNK     0      -6.126   5.834  21.806  0.00  0.00     0.051 C 
HETATM    2  C   UNK     0      -5.102   4.722  21.902  0.00  0.00    -0.031 A 
HETATM    3  C   UNK     0      -3.773   4.712  21.507  0.00  0.00     0.021 A 
HETATM    4  N   UNK     0      -3.247   3.490  21.757  0.00  0.00    -0.361 N 
HETATM    5  C   UNK     0      -4.210   2.722  22.309  0.00  0.00     0.022 A 
HETATM    6  C   UNK     0      -5.384   3.461  22.412  0.00  0.00    -0.027 A 
HETATM    7  C   UNK     0      -4.122   1.330  22.851  0.00  0.00     0.115 C 
HETATM    8  C   UNK     0      -2.896   0.998  23.684  0.00  0.00     0.021 A 
HETATM    9  N   UNK     0      -2.225   1.789  24.536  0.00  0.00    -0.361 N 
HETATM   10  C   UNK     0      -1.149   1.107  24.981  0.00  0.00     0.022 A 
HETATM   11  C   UNK     0      -1.131  -0.161  24.408  0.00  0.00    -0.027 A 
HETATM   12  C   UNK     0      -2.229  -0.236  23.590  0.00  0.00    -0.031 A 
HETATM   13  C   UNK     0      -2.622  -1.439  22.761  0.00  0.00     0.051 C 
HETATM   14  C   UNK     0      -0.069   1.639  25.919  0.00  0.00     0.115 C 
HETATM   15  C   UNK     0       0.685   2.840  25.371  0.00  0.00     0.021 A 
HETATM   16  N   UNK     0       0.176   4.029  24.996  0.00  0.00    -0.361 N 
HETATM   17  C   UNK     0       1.156   4.790  24.504  0.00  0.00     0.022 A 
HETATM   18  C   UNK     0       2.363   4.066  24.571  0.00  0.00    -0.027 A 
HETATM   19  C   UNK     0       2.055   2.848  25.117  0.00  0.00    -0.031 A 
HETATM   20  C   UNK     0       3.081   1.766  25.401  0.00  0.00     0.051 C 
HETATM   21  C   UNK     0       1.099   6.170  23.888  0.00  0.00     0.115 C 
HETATM   22  C   UNK     0      -0.135   6.529  23.094  0.00  0.00     0.022 A 
HETATM   23  N   UNK     0      -0.826   5.760  22.242  0.00  0.00    -0.361 N 
HETATM   24  C   UNK     0      -1.935   6.431  21.871  0.00  0.00     0.021 A 
HETATM   25  C   UNK     0      -1.953   7.665  22.492  0.00  0.00    -0.031 A 
HETATM   26  C   UNK     0      -2.967   8.783  22.361  0.00  0.00     0.051 C 
HETATM   27  C   UNK     0      -0.811   7.751  23.279  0.00  0.00    -0.027 A 
HETATM   28  C   UNK     0      -3.070   5.936  20.992  0.00  0.00     0.115 C 
HETATM   29  H   UNK     0      -2.211   3.165  21.504  0.00  0.00     0.165 HD
HETATM   30  H   UNK     0      -2.536   2.811  24.863  0.00  0.00     0.165 HD
HETATM   31  H   UNK     0      -0.889   4.356  25.124  0.00  0.00     0.165 HD
HETATM   32  H   UNK     0      -0.515   4.753  21.860  0.00  0.00     0.165 HD
ENDROOT
BRANCH   6  33
HETATM   33  C   UNK     0      -6.736   3.064  22.948  0.00  0.00     0.051 C 
BRANCH  33  34
HETATM   34  C   UNK     0      -7.502   2.258  21.926  0.00  0.00     0.114 C 
BRANCH  34  35
HETATM   35  C   UNK     0      -8.525   3.160  21.322  0.00  0.00     0.139 C 
HETATM   36  O   UNK     0      -8.310   3.707  20.202  0.00  0.00    -0.650 OA
BRANCH  35  37
HETATM   37  O   UNK     0      -9.737   3.438  21.942  0.00  0.00    -0.776 OA
HETATM   38  H   UNK     0     -10.464   2.746  22.029  0.00  0.00     0.167 HD
ENDBRANCH  35  37
ENDBRANCH  34  35
ENDBRANCH  33  34
ENDBRANCH   6  33
BRANCH  27  39
HETATM   39  C   UNK     0      -0.447   8.972  24.049  0.00  0.00     0.051 C 
BRANCH  39  40
HETATM   40  C   UNK     0      -0.917   9.088  25.429  0.00  0.00     0.114 C 
BRANCH  40  41
HETATM   41  C   UNK     0      -0.007   9.129  26.552  0.00  0.00     0.139 C 
HETATM   42  O   UNK     0       0.792  10.054  26.751  0.00  0.00    -0.650 OA
BRANCH  41  43
HETATM   43  O   UNK     0      -0.017   8.057  27.489  0.00  0.00    -0.776 OA
HETATM   44  H   UNK     0       0.811   7.474  27.468  0.00  0.00     0.167 HD
ENDBRANCH  41  43
ENDBRANCH  40  41
ENDBRANCH  39  40
ENDBRANCH  27  39
BRANCH  11  45
HETATM   45  C   UNK     0      -0.135  -1.272  24.608  0.00  0.00     0.051 C 
BRANCH  45  46
HETATM   46  C   UNK     0      -0.508  -2.234  25.676  0.00  0.00     0.114 C 
BRANCH  46  47
HETATM   47  C   UNK     0       0.268  -1.865  26.895  0.00  0.00     0.139 C 
HETATM   48  O   UNK     0      -0.331  -1.331  27.839  0.00  0.00    -0.650 OA
BRANCH  47  49
HETATM   49  O   UNK     0       1.616  -2.109  26.970  0.00  0.00    -0.776 OA
HETATM   50  H   UNK     0       2.014  -3.036  26.781  0.00  0.00     0.167 HD
ENDBRANCH  47  49
ENDBRANCH  46  47
ENDBRANCH  45  46
ENDBRANCH  11  45
BRANCH  18  51
HETATM   51  C   UNK     0       3.739   4.520  24.157  0.00  0.00     0.051 C 
BRANCH  51  52
HETATM   52  C   UNK     0       4.326   3.392  23.321  0.00  0.00     0.114 C 
BRANCH  52  53
HETATM   53  C   UNK     0       5.798   3.344  23.418  0.00  0.00     0.139 C 
HETATM   54  O   UNK     0       6.496   3.952  22.591  0.00  0.00    -0.650 OA
BRANCH  53  55
HETATM   55  O   UNK     0       6.389   2.621  24.426  0.00  0.00    -0.776 OA
HETATM   56  H   UNK     0       6.317   1.640  24.560  0.00  0.00     0.167 HD
ENDBRANCH  53  55
ENDBRANCH  52  53
ENDBRANCH  51  52
ENDBRANCH  18  51
TORSDOF 16
ENDMDL
MODEL 17
REMARK VINA RESULT:      -9.0      2.375      9.918
REMARK  16 active torsions:
REMARK  status: ('A' for Active; 'I' for Inactive)
REMARK    1  A    between atoms: C_6  and  C_7 
REMARK    2  A    between atoms: C_7  and  C_8 
REMARK    3  A    between atoms: C_8  and  C_9 
REMARK    4  A    between atoms: C_9  and  O_11 
REMARK    5  A    between atoms: C_16  and  C_17 
REMARK    6  A    between atoms: C_17  and  C_18 
REMARK    7  A    between atoms: C_18  and  C_19 
REMARK    8  A    between atoms: C_19  and  O_21 
REMARK    9  A    between atoms: C_28  and  C_29 
REMARK   10  A    between atoms: C_29  and  C_30 
REMARK   11  A    between atoms: C_30  and  C_31 
REMARK   12  A    between atoms: C_31  and  O_33 
REMARK   13  A    between atoms: C_42  and  C_43 
REMARK   14  A    between atoms: C_43  and  C_44 
REMARK   15  A    between atoms: C_44  and  C_45 
REMARK   16  A    between atoms: C_45  and  O_47 
ROOT
HETATM    1  C   UNK     0       0.831  11.074  21.826  0.00  0.00     0.051 C 
HETATM    2  C   UNK     0       2.342  11.101  21.943  0.00  0.00    -0.031 A 
HETATM    3  C   UNK     0       3.160  10.516  22.896  0.00  0.00     0.021 A 
HETATM    4  N   UNK     0       4.449  10.828  22.623  0.00  0.00    -0.361 N 
HETATM    5  C   UNK     0       4.470  11.593  21.511  0.00  0.00     0.022 A 
HETATM    6  C   UNK     0       3.168  11.785  21.061  0.00  0.00    -0.027 A 
HETATM    7  C   UNK     0       5.640  12.122  20.742  0.00  0.00     0.115 C 
HETATM    8  C   UNK     0       6.802  11.167  20.526  0.00  0.00     0.021 A 
HETATM    9  N   UNK     0       6.768   9.842  20.318  0.00  0.00    -0.361 N 
HETATM   10  C   UNK     0       8.039   9.392  20.272  0.00  0.00     0.022 A 
HETATM   11  C   UNK     0       8.917  10.458  20.446  0.00  0.00    -0.027 A 
HETATM   12  C   UNK     0       8.144  11.580  20.607  0.00  0.00    -0.031 A 
HETATM   13  C   UNK     0       8.671  12.981  20.822  0.00  0.00     0.051 C 
HETATM   14  C   UNK     0       8.476   7.938  20.116  0.00  0.00     0.115 C 
HETATM   15  C   UNK     0       7.997   7.028  21.236  0.00  0.00     0.021 A 
HETATM   16  N   UNK     0       6.727   6.791  21.615  0.00  0.00    -0.361 N 
HETATM   17  C   UNK     0       6.731   5.989  22.682  0.00  0.00     0.022 A 
HETATM   18  C   UNK     0       8.066   5.680  23.008  0.00  0.00    -0.027 A 
HETATM   19  C   UNK     0       8.849   6.336  22.094  0.00  0.00    -0.031 A 
HETATM   20  C   UNK     0      10.364   6.246  22.061  0.00  0.00     0.051 C 
HETATM   21  C   UNK     0       5.580   5.487  23.525  0.00  0.00     0.115 C 
HETATM   22  C   UNK     0       4.398   6.410  23.711  0.00  0.00     0.022 A 
HETATM   23  N   UNK     0       4.402   7.733  23.916  0.00  0.00    -0.361 N 
HETATM   24  C   UNK     0       3.128   8.171  23.881  0.00  0.00     0.021 A 
HETATM   25  C   UNK     0       2.281   7.102  23.657  0.00  0.00    -0.031 A 
HETATM   26  C   UNK     0       0.769   7.085  23.577  0.00  0.00     0.051 C 
HETATM   27  C   UNK     0       3.071   5.964  23.546  0.00  0.00    -0.027 A 
HETATM   28  C   UNK     0       2.635   9.605  23.970  0.00  0.00     0.115 C 
HETATM   29  H   UNK     0       5.332  10.540  23.239  0.00  0.00     0.165 HD
HETATM   30  H   UNK     0       5.848   9.229  20.153  0.00  0.00     0.165 HD
HETATM   31  H   UNK     0       5.807   7.159  21.091  0.00  0.00     0.165 HD
HETATM   32  H   UNK     0       5.303   8.365  24.132  0.00  0.00     0.165 HD
ENDROOT
BRANCH   6  33
HETATM   33  C   UNK     0       2.657  12.561  19.874  0.00  0.00     0.051 C 
BRANCH  33  34
HETATM   34  C   UNK     0       3.184  13.976  19.893  0.00  0.00     0.114 C 
BRANCH  34  35
HETATM   35  C   UNK     0       2.166  14.824  20.577  0.00  0.00     0.139 C 
HETATM   36  O   UNK     0       1.437  15.611  19.906  0.00  0.00    -0.650 OA
BRANCH  35  37
HETATM   37  O   UNK     0       1.966  14.792  21.952  0.00  0.00    -0.776 OA
HETATM   38  H   UNK     0       1.479  14.036  22.404  0.00  0.00     0.167 HD
ENDBRANCH  35  37
ENDBRANCH  34  35
ENDBRANCH  33  34
ENDBRANCH   6  33
BRANCH  27  39
HETATM   39  C   UNK     0       2.505   4.598  23.372  0.00  0.00     0.051 C 
BRANCH  39  40
HETATM   40  C   UNK     0       2.361   3.751  24.555  0.00  0.00     0.114 C 
BRANCH  40  41
HETATM   41  C   UNK     0       3.072   2.500  24.698  0.00  0.00     0.139 C 
HETATM   42  O   UNK     0       3.447   1.814  23.738  0.00  0.00    -0.650 OA
BRANCH  41  43
HETATM   43  O   UNK     0       3.364   2.016  26.005  0.00  0.00    -0.776 OA
HETATM   44  H   UNK     0       4.114   2.508  26.476  0.00  0.00     0.167 HD
ENDBRANCH  41  43
ENDBRANCH  40  41
ENDBRANCH  39  40
ENDBRANCH  27  39
BRANCH  11  45
HETATM   45  C   UNK     0      10.422  10.446  20.462  0.00  0.00     0.051 C 
BRANCH  45  46
HETATM   46  C   UNK     0      11.011   9.390  21.324  0.00  0.00     0.114 C 
BRANCH  46  47
HETATM   47  C   UNK     0      11.014   9.911  22.721  0.00  0.00     0.139 C 
HETATM   48  O   UNK     0      11.326   9.141  23.640  0.00  0.00    -0.650 OA
BRANCH  47  49
HETATM   49  O   UNK     0      10.679  11.215  22.985  0.00  0.00    -0.776 OA
HETATM   50  H   UNK     0      10.584  11.570  23.944  0.00  0.00     0.167 HD
ENDBRANCH  47  49
ENDBRANCH  46  47
ENDBRANCH  45  46
ENDBRANCH  11  45
BRANCH  18  51
HETATM   51  C   UNK     0       8.568   4.792  24.116  0.00  0.00     0.051 C 
BRANCH  51  52
HETATM   52  C   UNK     0       8.523   5.628  25.386  0.00  0.00     0.114 C 
BRANCH  52  53
HETATM   53  C   UNK     0       9.858   6.133  25.760  0.00  0.00     0.139 C 
HETATM   54  O   UNK     0      10.810   6.016  24.971  0.00  0.00    -0.650 OA
BRANCH  53  55
HETATM   55  O   UNK     0      10.042   6.730  26.983  0.00  0.00    -0.776 OA
HETATM   56  H   UNK     0      10.914   6.977  27.388  0.00  0.00     0.167 HD
ENDBRANCH  53  55
ENDBRANCH  52  53
ENDBRANCH  51  52
ENDBRANCH  18  51
TORSDOF 16
ENDMDL
MODEL 18
REMARK VINA RESULT:      -8.8      4.431      7.138
REMARK  16 active torsions:
REMARK  status: ('A' for Active; 'I' for Inactive)
REMARK    1  A    between atoms: C_6  and  C_7 
REMARK    2  A    between atoms: C_7  and  C_8 
REMARK    3  A    between atoms: C_8  and  C_9 
REMARK    4  A    between atoms: C_9  and  O_11 
REMARK    5  A    between atoms: C_16  and  C_17 
REMARK    6  A    between atoms: C_17  and  C_18 
REMARK    7  A    between atoms: C_18  and  C_19 
REMARK    8  A    between atoms: C_19  and  O_21 
REMARK    9  A    between atoms: C_28  and  C_29 
REMARK   10  A    between atoms: C_29  and  C_30 
REMARK   11  A    between atoms: C_30  and  C_31 
REMARK   12  A    between atoms: C_31  and  O_33 
REMARK   13  A    between atoms: C_42  and  C_43 
REMARK   14  A    between atoms: C_43  and  C_44 
REMARK   15  A    between atoms: C_44  and  C_45 
REMARK   16  A    between atoms: C_45  and  O_47 
ROOT
HETATM    1  C   UNK     0       1.771  -1.591  24.232  0.00  0.00     0.051 C 
HETATM    2  C   UNK     0       0.723  -0.512  24.414  0.00  0.00    -0.031 A 
HETATM    3  C   UNK     0       0.807   0.689  25.099  0.00  0.00     0.021 A 
HETATM    4  N   UNK     0      -0.386   1.325  25.024  0.00  0.00    -0.361 N 
HETATM    5  C   UNK     0      -1.226   0.559  24.298  0.00  0.00     0.022 A 
HETATM    6  C   UNK     0      -0.566  -0.600  23.903  0.00  0.00    -0.027 A 
HETATM    7  C   UNK     0      -2.624   0.845  23.845  0.00  0.00     0.115 C 
HETATM    8  C   UNK     0      -2.899   2.245  23.326  0.00  0.00     0.021 A 
HETATM    9  N   UNK     0      -2.090   3.048  22.618  0.00  0.00    -0.361 N 
HETATM   10  C   UNK     0      -2.714   4.234  22.455  0.00  0.00     0.022 A 
HETATM   11  C   UNK     0      -3.963   4.190  23.067  0.00  0.00    -0.027 A 
HETATM   12  C   UNK     0      -4.087   2.940  23.617  0.00  0.00    -0.031 A 
HETATM   13  C   UNK     0      -5.290   2.436  24.381  0.00  0.00     0.051 C 
HETATM   14  C   UNK     0      -2.139   5.468  21.766  0.00  0.00     0.115 C 
HETATM   15  C   UNK     0      -0.879   6.010  22.423  0.00  0.00     0.021 A 
HETATM   16  N   UNK     0       0.284   5.363  22.627  0.00  0.00    -0.361 N 
HETATM   17  C   UNK     0       1.118   6.161  23.298  0.00  0.00     0.022 A 
HETATM   18  C   UNK     0       0.470   7.390  23.534  0.00  0.00    -0.027 A 
HETATM   19  C   UNK     0      -0.779   7.283  22.981  0.00  0.00    -0.031 A 
HETATM   20  C   UNK     0      -1.801   8.405  22.980  0.00  0.00     0.051 C 
HETATM   21  C   UNK     0       2.506   5.889  23.830  0.00  0.00     0.115 C 
HETATM   22  C   UNK     0       2.807   4.488  24.309  0.00  0.00     0.022 A 
HETATM   23  N   UNK     0       2.019   3.664  25.012  0.00  0.00    -0.361 N 
HETATM   24  C   UNK     0       2.628   2.464  25.094  0.00  0.00     0.021 A 
HETATM   25  C   UNK     0       3.843   2.520  24.438  0.00  0.00    -0.031 A 
HETATM   26  C   UNK     0       4.898   1.443  24.292  0.00  0.00     0.051 C 
HETATM   27  C   UNK     0       3.980   3.805  23.927  0.00  0.00    -0.027 A 
HETATM   28  C   UNK     0       2.085   1.187  25.712  0.00  0.00     0.115 C 
HETATM   29  H   UNK     0      -0.638   2.292  25.517  0.00  0.00     0.165 HD
HETATM   30  H   UNK     0      -1.098   2.764  22.189  0.00  0.00     0.165 HD
HETATM   31  H   UNK     0       0.540   4.340  22.248  0.00  0.00     0.165 HD
HETATM   32  H   UNK     0       1.044   3.935  25.493  0.00  0.00     0.165 HD
ENDROOT
BRANCH   6  33
HETATM   33  C   UNK     0      -1.061  -1.769  23.090  0.00  0.00     0.051 C 
BRANCH  33  34
HETATM   34  C   UNK     0      -1.842  -2.730  23.955  0.00  0.00     0.114 C 
BRANCH  34  35
HETATM   35  C   UNK     0      -1.004  -3.951  24.135  0.00  0.00     0.139 C 
HETATM   36  O   UNK     0      -0.447  -4.182  25.247  0.00  0.00    -0.650 OA
BRANCH  35  37
HETATM   37  O   UNK     0      -0.799  -4.875  23.118  0.00  0.00    -0.776 OA
HETATM   38  H   UNK     0      -0.201  -5.677  23.237  0.00  0.00     0.167 HD
ENDBRANCH  35  37
ENDBRANCH  34  35
ENDBRANCH  33  34
ENDBRANCH   6  33
BRANCH  27  39
HETATM   39  C   UNK     0       5.201   4.268  23.213  0.00  0.00     0.051 C 
BRANCH  39  40
HETATM   40  C   UNK     0       5.965   5.373  23.790  0.00  0.00     0.114 C 
BRANCH  40  41
HETATM   41  C   UNK     0       7.409   5.419  23.742  0.00  0.00     0.139 C 
HETATM   42  O   UNK     0       8.088   4.766  22.938  0.00  0.00    -0.650 OA
BRANCH  41  43
HETATM   43  O   UNK     0       8.105   6.254  24.662  0.00  0.00    -0.776 OA
HETATM   44  H   UNK     0       8.164   7.226  24.384  0.00  0.00     0.167 HD
ENDBRANCH  41  43
ENDBRANCH  40  41
ENDBRANCH  39  40
ENDBRANCH  27  39
BRANCH  11  45
HETATM   45  C   UNK     0      -5.014   5.266  23.141  0.00  0.00     0.051 C 
BRANCH  45  46
HETATM   46  C   UNK     0      -5.987   5.241  22.019  0.00  0.00     0.114 C 
BRANCH  46  47
HETATM   47  C   UNK     0      -6.228   6.655  21.612  0.00  0.00     0.139 C 
HETATM   48  O   UNK     0      -5.253   7.365  21.330  0.00  0.00    -0.650 OA
BRANCH  47  49
HETATM   49  O   UNK     0      -7.502   7.161  21.553  0.00  0.00    -0.776 OA
HETATM   50  H   UNK     0      -8.062   7.328  22.397  0.00  0.00     0.167 HD
ENDBRANCH  47  49
ENDBRANCH  46  47
ENDBRANCH  45  46
ENDBRANCH  11  45
BRANCH  18  51
HETATM   51  C   UNK     0       1.020   8.607  24.232  0.00  0.00     0.051 C 
BRANCH  51  52
HETATM   52  C   UNK     0       1.248   8.202  25.680  0.00  0.00     0.114 C 
BRANCH  52  53
HETATM   53  C   UNK     0       0.145   8.645  26.555  0.00  0.00     0.139 C 
HETATM   54  O   UNK     0      -0.526   9.644  26.251  0.00  0.00    -0.650 OA
BRANCH  53  55
HETATM   55  O   UNK     0      -0.131   7.948  27.706  0.00  0.00    -0.776 OA
HETATM   56  H   UNK     0      -0.762   8.226  28.420  0.00  0.00     0.167 HD
ENDBRANCH  53  55
ENDBRANCH  52  53
ENDBRANCH  51  52
ENDBRANCH  18  51
TORSDOF 16
ENDMDL
MODEL 19
REMARK VINA RESULT:      -8.5      7.124     11.901
REMARK  16 active torsions:
REMARK  status: ('A' for Active; 'I' for Inactive)
REMARK    1  A    between atoms: C_6  and  C_7 
REMARK    2  A    between atoms: C_7  and  C_8 
REMARK    3  A    between atoms: C_8  and  C_9 
REMARK    4  A    between atoms: C_9  and  O_11 
REMARK    5  A    between atoms: C_16  and  C_17 
REMARK    6  A    between atoms: C_17  and  C_18 
REMARK    7  A    between atoms: C_18  and  C_19 
REMARK    8  A    between atoms: C_19  and  O_21 
REMARK    9  A    between atoms: C_28  and  C_29 
REMARK   10  A    between atoms: C_29  and  C_30 
REMARK   11  A    between atoms: C_30  and  C_31 
REMARK   12  A    between atoms: C_31  and  O_33 
REMARK   13  A    between atoms: C_42  and  C_43 
REMARK   14  A    between atoms: C_43  and  C_44 
REMARK   15  A    between atoms: C_44  and  C_45 
REMARK   16  A    between atoms: C_45  and  O_47 
ROOT
HETATM    1  C   UNK     0      -2.740   8.613  22.603  0.00  0.00     0.051 C 
HETATM    2  C   UNK     0      -2.921   7.262  21.943  0.00  0.00    -0.031 A 
HETATM    3  C   UNK     0      -1.994   6.252  21.737  0.00  0.00     0.021 A 
HETATM    4  N   UNK     0      -2.592   5.232  21.077  0.00  0.00    -0.361 N 
HETATM    5  C   UNK     0      -3.882   5.566  20.865  0.00  0.00     0.022 A 
HETATM    6  C   UNK     0      -4.121   6.831  21.392  0.00  0.00    -0.027 A 
HETATM    7  C   UNK     0      -4.989   4.756  20.266  0.00  0.00     0.115 C 
HETATM    8  C   UNK     0      -5.074   3.300  20.688  0.00  0.00     0.021 A 
HETATM    9  N   UNK     0      -4.804   2.760  21.887  0.00  0.00    -0.361 N 
HETATM   10  C   UNK     0      -4.927   1.420  21.780  0.00  0.00     0.022 A 
HETATM   11  C   UNK     0      -5.295   1.088  20.479  0.00  0.00    -0.027 A 
HETATM   12  C   UNK     0      -5.390   2.268  19.786  0.00  0.00    -0.031 A 
HETATM   13  C   UNK     0      -5.771   2.398  18.329  0.00  0.00     0.051 C 
HETATM   14  C   UNK     0      -4.651   0.399  22.880  0.00  0.00     0.115 C 
HETATM   15  C   UNK     0      -3.219   0.414  23.389  0.00  0.00     0.021 A 
HETATM   16  N   UNK     0      -2.553   1.448  23.937  0.00  0.00    -0.361 N 
HETATM   17  C   UNK     0      -1.295   1.076  24.188  0.00  0.00     0.022 A 
HETATM   18  C   UNK     0      -1.137  -0.267  23.793  0.00  0.00    -0.027 A 
HETATM   19  C   UNK     0      -2.349  -0.670  23.296  0.00  0.00    -0.031 A 
HETATM   20  C   UNK     0      -2.629  -2.074  22.790  0.00  0.00     0.051 C 
HETATM   21  C   UNK     0      -0.134   1.879  24.729  0.00  0.00     0.115 C 
HETATM   22  C   UNK     0      -0.060   3.340  24.352  0.00  0.00     0.022 A 
HETATM   23  N   UNK     0      -0.328   3.907  23.168  0.00  0.00    -0.361 N 
HETATM   24  C   UNK     0      -0.275   5.245  23.318  0.00  0.00     0.021 A 
HETATM   25  C   UNK     0       0.044   5.549  24.627  0.00  0.00    -0.031 A 
HETATM   26  C   UNK     0       0.255   6.905  25.268  0.00  0.00     0.051 C 
HETATM   27  C   UNK     0       0.186   4.345  25.309  0.00  0.00    -0.027 A 
HETATM   28  C   UNK     0      -0.595   6.310  22.282  0.00  0.00     0.115 C 
HETATM   29  H   UNK     0      -2.088   4.300  20.730  0.00  0.00     0.165 HD
HETATM   30  H   UNK     0      -4.575   3.325  22.823  0.00  0.00     0.165 HD
HETATM   31  H   UNK     0      -2.991   2.447  24.197  0.00  0.00     0.165 HD
HETATM   32  H   UNK     0      -0.514   3.365  22.204  0.00  0.00     0.165 HD
ENDROOT
BRANCH   6  33
HETATM   33  C   UNK     0      -5.385   7.651  21.409  0.00  0.00     0.051 C 
BRANCH  33  34
HETATM   34  C   UNK     0      -6.481   6.930  22.158  0.00  0.00     0.114 C 
BRANCH  34  35
HETATM   35  C   UNK     0      -7.753   7.153  21.413  0.00  0.00     0.139 C 
HETATM   36  O   UNK     0      -8.120   8.327  21.115  0.00  0.00    -0.650 OA
BRANCH  35  37
HETATM   37  O   UNK     0      -8.580   6.110  21.013  0.00  0.00    -0.776 OA
HETATM   38  H   UNK     0      -8.633   5.807  20.054  0.00  0.00     0.167 HD
ENDBRANCH  35  37
ENDBRANCH  34  35
ENDBRANCH  33  34
ENDBRANCH   6  33
BRANCH  27  39
HETATM   39  C   UNK     0       0.600   4.266  26.736  0.00  0.00     0.051 C 
BRANCH  39  40
HETATM   40  C   UNK     0      -0.315   4.781  27.754  0.00  0.00     0.114 C 
BRANCH  40  41
HETATM   41  C   UNK     0       0.136   5.611  28.848  0.00  0.00     0.139 C 
HETATM   42  O   UNK     0       0.765   5.176  29.822  0.00  0.00    -0.650 OA
BRANCH  41  43
HETATM   43  O   UNK     0      -0.148   7.006  28.820  0.00  0.00    -0.776 OA
HETATM   44  H   UNK     0      -0.004   7.481  29.703  0.00  0.00     0.167 HD
ENDBRANCH  41  43
ENDBRANCH  40  41
ENDBRANCH  39  40
ENDBRANCH  27  39
BRANCH  11  45
HETATM   45  C   UNK     0      -5.556  -0.273  19.892  0.00  0.00     0.051 C 
BRANCH  45  46
HETATM   46  C   UNK     0      -4.556  -0.697  18.879  0.00  0.00     0.114 C 
BRANCH  46  47
HETATM   47  C   UNK     0      -4.500  -2.186  18.910  0.00  0.00     0.139 C 
HETATM   48  O   UNK     0      -3.530  -2.731  19.458  0.00  0.00    -0.650 OA
BRANCH  47  49
HETATM   49  O   UNK     0      -5.497  -2.940  18.345  0.00  0.00    -0.776 OA
HETATM   50  H   UNK     0      -6.321  -3.241  18.879  0.00  0.00     0.167 HD
ENDBRANCH  47  49
ENDBRANCH  46  47
ENDBRANCH  45  46
ENDBRANCH  11  45
BRANCH  18  51
HETATM   51  C   UNK     0       0.096  -1.126  23.904  0.00  0.00     0.051 C 
BRANCH  51  52
HETATM   52  C   UNK     0      -0.124  -2.036  25.103  0.00  0.00     0.114 C 
BRANCH  52  53
HETATM   53  C   UNK     0       0.595  -1.554  26.298  0.00  0.00     0.139 C 
HETATM   54  O   UNK     0       0.103  -0.657  27.001  0.00  0.00    -0.650 OA
BRANCH  53  55
HETATM   55  O   UNK     0       1.812  -2.101  26.625  0.00  0.00    -0.776 OA
HETATM   56  H   UNK     0       2.662  -1.974  26.127  0.00  0.00     0.167 HD
ENDBRANCH  53  55
ENDBRANCH  52  53
ENDBRANCH  51  52
ENDBRANCH  18  51
TORSDOF 16
ENDMDL
MODEL 20
REMARK VINA RESULT:      -8.4      6.121     11.019
REMARK  16 active torsions:
REMARK  status: ('A' for Active; 'I' for Inactive)
REMARK    1  A    between atoms: C_6  and  C_7 
REMARK    2  A    between atoms: C_7  and  C_8 
REMARK    3  A    between atoms: C_8  and  C_9 
REMARK    4  A    between atoms: C_9  and  O_11 
REMARK    5  A    between atoms: C_16  and  C_17 
REMARK    6  A    between atoms: C_17  and  C_18 
REMARK    7  A    between atoms: C_18  and  C_19 
REMARK    8  A    between atoms: C_19  and  O_21 
REMARK    9  A    between atoms: C_28  and  C_29 
REMARK   10  A    between atoms: C_29  and  C_30 
REMARK   11  A    between atoms: C_30  and  C_31 
REMARK   12  A    between atoms: C_31  and  O_33 
REMARK   13  A    between atoms: C_42  and  C_43 
REMARK   14  A    between atoms: C_43  and  C_44 
REMARK   15  A    between atoms: C_44  and  C_45 
REMARK   16  A    between atoms: C_45  and  O_47 
ROOT
HETATM    1  C   UNK     0      -5.498   6.152  22.213  0.00  0.00     0.051 C 
HETATM    2  C   UNK     0      -4.706   4.864  22.111  0.00  0.00    -0.031 A 
HETATM    3  C   UNK     0      -3.366   4.677  21.811  0.00  0.00     0.021 A 
HETATM    4  N   UNK     0      -3.098   3.350  21.800  0.00  0.00    -0.361 N 
HETATM    5  C   UNK     0      -4.235   2.688  22.096  0.00  0.00     0.022 A 
HETATM    6  C   UNK     0      -5.262   3.605  22.293  0.00  0.00    -0.027 A 
HETATM    7  C   UNK     0      -4.457   1.222  22.302  0.00  0.00     0.115 C 
HETATM    8  C   UNK     0      -3.407   0.480  23.110  0.00  0.00     0.021 A 
HETATM    9  N   UNK     0      -2.700   0.918  24.164  0.00  0.00    -0.361 N 
HETATM   10  C   UNK     0      -1.817  -0.045  24.504  0.00  0.00     0.022 A 
HETATM   11  C   UNK     0      -1.965  -1.136  23.653  0.00  0.00    -0.027 A 
HETATM   12  C   UNK     0      -2.965  -0.812  22.772  0.00  0.00    -0.031 A 
HETATM   13  C   UNK     0      -3.476  -1.703  21.662  0.00  0.00     0.051 C 
HETATM   14  C   UNK     0      -0.766   0.046  25.608  0.00  0.00     0.115 C 
HETATM   15  C   UNK     0       0.245   1.162  25.405  0.00  0.00     0.021 A 
HETATM   16  N   UNK     0       0.000   2.481  25.286  0.00  0.00    -0.361 N 
HETATM   17  C   UNK     0       1.147   3.120  25.049  0.00  0.00     0.022 A 
HETATM   18  C   UNK     0       2.192   2.175  25.022  0.00  0.00    -0.027 A 
HETATM   19  C   UNK     0       1.613   0.952  25.247  0.00  0.00    -0.031 A 
HETATM   20  C   UNK     0       2.393  -0.347  25.335  0.00  0.00     0.051 C 
HETATM   21  C   UNK     0       1.405   4.584  24.771  0.00  0.00     0.115 C 
HETATM   22  C   UNK     0       0.348   5.345  24.006  0.00  0.00     0.022 A 
HETATM   23  N   UNK     0      -0.375   4.933  22.956  0.00  0.00    -0.361 N 
HETATM   24  C   UNK     0      -1.300   5.875  22.683  0.00  0.00     0.021 A 
HETATM   25  C   UNK     0      -1.163   6.924  23.572  0.00  0.00    -0.031 A 
HETATM   26  C   UNK     0      -1.940   8.222  23.642  0.00  0.00     0.051 C 
HETATM   27  C   UNK     0      -0.115   6.607  24.429  0.00  0.00    -0.027 A 
HETATM   28  C   UNK     0      -2.404   5.819  21.641  0.00  0.00     0.115 C 
HETATM   29  H   UNK     0      -2.116   2.889  21.545  0.00  0.00     0.165 HD
HETATM   30  H   UNK     0      -2.856   1.885  24.701  0.00  0.00     0.165 HD
HETATM   31  H   UNK     0      -0.996   2.977  25.420  0.00  0.00     0.165 HD
HETATM   32  H   UNK     0      -0.210   3.992  22.369  0.00  0.00     0.165 HD
ENDROOT
BRANCH   6  33
HETATM   33  C   UNK     0      -6.713   3.377  22.635  0.00  0.00     0.051 C 
BRANCH  33  34
HETATM   34  C   UNK     0      -7.516   3.079  21.391  0.00  0.00     0.114 C 
BRANCH  34  35
HETATM   35  C   UNK     0      -8.731   3.942  21.426  0.00  0.00     0.139 C 
HETATM   36  O   UNK     0      -8.648   5.171  21.137  0.00  0.00    -0.650 OA
BRANCH  35  37
HETATM   37  O   UNK     0      -9.987   3.454  21.767  0.00  0.00    -0.776 OA
HETATM   38  H   UNK     0     -10.691   4.039  22.189  0.00  0.00     0.167 HD
ENDBRANCH  35  37
ENDBRANCH  34  35
ENDBRANCH  33  34
ENDBRANCH   6  33
BRANCH  27  39
HETATM   39  C   UNK     0       0.377   7.534  25.484  0.00  0.00     0.051 C 
BRANCH  39  40
HETATM   40  C   UNK     0      -0.357   7.600  26.747  0.00  0.00     0.114 C 
BRANCH  40  41
HETATM   41  C   UNK     0      -0.100   6.685  27.836  0.00  0.00     0.139 C 
HETATM   42  O   UNK     0      -0.084   5.454  27.705  0.00  0.00    -0.650 OA
BRANCH  41  43
HETATM   43  O   UNK     0       0.148   7.210  29.136  0.00  0.00    -0.776 OA
HETATM   44  H   UNK     0       0.791   6.661  29.694  0.00  0.00     0.167 HD
ENDBRANCH  41  43
ENDBRANCH  40  41
ENDBRANCH  39  40
ENDBRANCH  27  39
BRANCH  11  45
HETATM   45  C   UNK     0      -1.212  -2.439  23.651  0.00  0.00     0.051 C 
BRANCH  45  46
HETATM   46  C   UNK     0       0.141  -2.355  23.044  0.00  0.00     0.114 C 
BRANCH  46  47
HETATM   47  C   UNK     0       0.742  -3.718  23.116  0.00  0.00     0.139 C 
HETATM   48  O   UNK     0       1.837  -3.854  23.679  0.00  0.00    -0.650 OA
BRANCH  47  49
HETATM   49  O   UNK     0       0.098  -4.800  22.570  0.00  0.00    -0.776 OA
HETATM   50  H   UNK     0      -0.878  -4.750  22.254  0.00  0.00     0.167 HD
ENDBRANCH  47  49
ENDBRANCH  46  47
ENDBRANCH  45  46
ENDBRANCH  11  45
BRANCH  18  51
HETATM   51  C   UNK     0       3.663   2.425  24.813  0.00  0.00     0.051 C 
BRANCH  51  52
HETATM   52  C   UNK     0       3.939   2.140  23.345  0.00  0.00     0.114 C 
BRANCH  52  53
HETATM   53  C   UNK     0       5.382   2.186  23.038  0.00  0.00     0.139 C 
HETATM   54  O   UNK     0       5.807   1.707  21.975  0.00  0.00    -0.650 OA
BRANCH  53  55
HETATM   55  O   UNK     0       6.250   2.759  23.937  0.00  0.00    -0.776 OA
HETATM   56  H   UNK     0       6.016   3.093  24.842  0.00  0.00     0.167 HD
ENDBRANCH  53  55
ENDBRANCH  52  53
ENDBRANCH  51  52
ENDBRANCH  18  51
TORSDOF 16
ENDMDL
