MODEL 1
REMARK VINA RESULT:     -10.3      0.000      0.000
REMARK  16 active torsions:
REMARK  status: ('A' for Active; 'I' for Inactive)
REMARK    1  A    between atoms: C_6  and  C_7 
REMARK    2  A    between atoms: C_7  and  C_8 
REMARK    3  A    between atoms: C_8  and  C_9 
REMARK    4  A    between atoms: C_9  and  O_11 
REMARK    5  A    between atoms: C_16  and  C_17 
REMARK    6  A    between atoms: C_17  and  C_18 
REMARK    7  A    between atoms: C_18  and  C_19 
REMARK    8  A    between atoms: C_19  and  O_21 
REMARK    9  A    between atoms: C_28  and  C_29 
REMARK   10  A    between atoms: C_29  and  C_30 
REMARK   11  A    between atoms: C_30  and  C_31 
REMARK   12  A    between atoms: C_31  and  O_33 
REMARK   13  A    between atoms: C_42  and  C_43 
REMARK   14  A    between atoms: C_43  and  C_44 
REMARK   15  A    between atoms: C_44  and  C_45 
REMARK   16  A    between atoms: C_45  and  O_47 
ROOT
HETATM    1  C   UNK     0     -38.904 -16.535  10.726  0.00  0.00     0.051 C 
HETATM    2  C   UNK     0     -38.051 -17.591  11.398  0.00  0.00    -0.031 A 
HETATM    3  C   UNK     0     -38.431 -18.794  11.973  0.00  0.00     0.021 A 
HETATM    4  N   UNK     0     -37.335 -19.404  12.483  0.00  0.00    -0.361 N 
HETATM    5  C   UNK     0     -36.264 -18.621  12.238  0.00  0.00     0.022 A 
HETATM    6  C   UNK     0     -36.676 -17.477  11.563  0.00  0.00    -0.027 A 
HETATM    7  C   UNK     0     -34.815 -18.878  12.510  0.00  0.00     0.115 C 
HETATM    8  C   UNK     0     -34.300 -20.273  12.201  0.00  0.00     0.021 A 
HETATM    9  N   UNK     0     -34.658 -21.094  11.201  0.00  0.00    -0.361 N 
HETATM   10  C   UNK     0     -34.011 -22.266  11.369  0.00  0.00     0.022 A 
HETATM   11  C   UNK     0     -33.206 -22.196  12.503  0.00  0.00    -0.027 A 
HETATM   12  C   UNK     0     -33.383 -20.942  13.031  0.00  0.00    -0.031 A 
HETATM   13  C   UNK     0     -32.700 -20.412  14.272  0.00  0.00     0.051 C 
HETATM   14  C   UNK     0     -34.165 -23.513  10.503  0.00  0.00     0.115 C 
HETATM   15  C   UNK     0     -35.576 -24.080  10.485  0.00  0.00     0.021 A 
HETATM   16  N   UNK     0     -36.706 -23.458  10.101  0.00  0.00    -0.361 N 
HETATM   17  C   UNK     0     -37.745 -24.273  10.302  0.00  0.00     0.022 A 
HETATM   18  C   UNK     0     -37.267 -25.487  10.832  0.00  0.00    -0.027 A 
HETATM   19  C   UNK     0     -35.907 -25.354  10.941  0.00  0.00    -0.031 A 
HETATM   20  C   UNK     0     -34.988 -26.455  11.440  0.00  0.00     0.051 C 
HETATM   21  C   UNK     0     -39.223 -24.029  10.103  0.00  0.00     0.115 C 
HETATM   22  C   UNK     0     -39.742 -22.635  10.366  0.00  0.00     0.022 A 
HETATM   23  N   UNK     0     -39.400 -21.793  11.350  0.00  0.00    -0.361 N 
HETATM   24  C   UNK     0     -39.996 -20.606  11.119  0.00  0.00     0.021 A 
HETATM   25  C   UNK     0     -40.748 -20.688   9.963  0.00  0.00    -0.031 A 
HETATM   26  C   UNK     0     -41.625 -19.634   9.320  0.00  0.00     0.051 C 
HETATM   27  C   UNK     0     -40.602 -21.977   9.463  0.00  0.00    -0.027 A 
HETATM   28  C   UNK     0     -39.837 -19.317  11.907  0.00  0.00     0.115 C 
HETATM   29  H   UNK     0     -37.331 -20.365  13.048  0.00  0.00     0.165 HD
HETATM   30  H   UNK     0     -35.330 -20.831  10.348  0.00  0.00     0.165 HD
HETATM   31  H   UNK     0     -36.769 -22.441   9.635  0.00  0.00     0.165 HD
HETATM   32  H   UNK     0     -38.768 -22.043  12.242  0.00  0.00     0.165 HD
ENDROOT
BRANCH   6  33
HETATM   33  C   UNK     0     -35.875 -16.298  11.072  0.00  0.00     0.051 C 
BRANCH  33  34
HETATM   34  C   UNK     0     -35.128 -16.649   9.807  0.00  0.00     0.114 C 
BRANCH  34  35
HETATM   35  C   UNK     0     -33.727 -16.165   9.967  0.00  0.00     0.139 C 
HETATM   36  O   UNK     0     -32.869 -16.883  10.559  0.00  0.00    -0.650 OA
BRANCH  35  37
HETATM   37  O   UNK     0     -33.299 -14.935   9.484  0.00  0.00    -0.776 OA
HETATM   38  H   UNK     0     -32.340 -14.765   9.227  0.00  0.00     0.167 HD
ENDBRANCH  35  37
ENDBRANCH  34  35
ENDBRANCH  33  34
ENDBRANCH   6  33
BRANCH  27  39
HETATM   39  C   UNK     0     -41.325 -22.466   8.258  0.00  0.00     0.051 C 
BRANCH  39  40
HETATM   40  C   UNK     0     -40.566 -22.653   7.021  0.00  0.00     0.114 C 
BRANCH  40  41
HETATM   41  C   UNK     0     -40.962 -23.609   6.012  0.00  0.00     0.139 C 
HETATM   42  O   UNK     0     -42.094 -24.107   5.948  0.00  0.00    -0.650 OA
BRANCH  41  43
HETATM   43  O   UNK     0     -40.011 -24.012   5.031  0.00  0.00    -0.776 OA
HETATM   44  H   UNK     0     -39.551 -24.892   5.229  0.00  0.00     0.167 HD
ENDBRANCH  41  43
ENDBRANCH  40  41
ENDBRANCH  39  40
ENDBRANCH  27  39
BRANCH  11  45
HETATM   45  C   UNK     0     -32.299 -23.248  13.081  0.00  0.00     0.051 C 
BRANCH  45  46
HETATM   46  C   UNK     0     -31.170 -23.629  12.194  0.00  0.00     0.114 C 
BRANCH  46  47
HETATM   47  C   UNK     0     -30.837 -25.052  12.489  0.00  0.00     0.139 C 
HETATM   48  O   UNK     0     -30.100 -25.300  13.453  0.00  0.00    -0.650 OA
BRANCH  47  49
HETATM   49  O   UNK     0     -31.335 -26.066  11.710  0.00  0.00    -0.776 OA
HETATM   50  H   UNK     0     -32.343 -26.235  11.615  0.00  0.00     0.167 HD
ENDBRANCH  47  49
ENDBRANCH  46  47
ENDBRANCH  45  46
ENDBRANCH  11  45
BRANCH  18  51
HETATM   51  C   UNK     0     -38.060 -26.715  11.196  0.00  0.00     0.051 C 
BRANCH  51  52
HETATM   52  C   UNK     0     -39.103 -26.265  12.208  0.00  0.00     0.114 C 
BRANCH  52  53
HETATM   53  C   UNK     0     -38.837 -26.813  13.552  0.00  0.00     0.139 C 
HETATM   54  O   UNK     0     -39.774 -26.994  14.346  0.00  0.00    -0.650 OA
BRANCH  53  55
HETATM   55  O   UNK     0     -37.549 -27.118  13.919  0.00  0.00    -0.776 OA
HETATM   56  H   UNK     0     -36.781 -26.489  13.934  0.00  0.00     0.167 HD
ENDBRANCH  53  55
ENDBRANCH  52  53
ENDBRANCH  51  52
ENDBRANCH  18  51
TORSDOF 16
ENDMDL
MODEL 2
REMARK VINA RESULT:     -10.2      1.949      7.342
REMARK  16 active torsions:
REMARK  status: ('A' for Active; 'I' for Inactive)
REMARK    1  A    between atoms: C_6  and  C_7 
REMARK    2  A    between atoms: C_7  and  C_8 
REMARK    3  A    between atoms: C_8  and  C_9 
REMARK    4  A    between atoms: C_9  and  O_11 
REMARK    5  A    between atoms: C_16  and  C_17 
REMARK    6  A    between atoms: C_17  and  C_18 
REMARK    7  A    between atoms: C_18  and  C_19 
REMARK    8  A    between atoms: C_19  and  O_21 
REMARK    9  A    between atoms: C_28  and  C_29 
REMARK   10  A    between atoms: C_29  and  C_30 
REMARK   11  A    between atoms: C_30  and  C_31 
REMARK   12  A    between atoms: C_31  and  O_33 
REMARK   13  A    between atoms: C_42  and  C_43 
REMARK   14  A    between atoms: C_43  and  C_44 
REMARK   15  A    between atoms: C_44  and  C_45 
REMARK   16  A    between atoms: C_45  and  O_47 
ROOT
HETATM    1  C   UNK     0     -32.323 -23.337  12.992  0.00  0.00     0.051 C 
HETATM    2  C   UNK     0     -33.209 -22.285  12.356  0.00  0.00    -0.031 A 
HETATM    3  C   UNK     0     -33.987 -22.365  11.212  0.00  0.00     0.021 A 
HETATM    4  N   UNK     0     -34.587 -21.169  11.002  0.00  0.00    -0.361 N 
HETATM    5  C   UNK     0     -34.215 -20.332  11.992  0.00  0.00     0.022 A 
HETATM    6  C   UNK     0     -33.350 -20.997  12.855  0.00  0.00    -0.027 A 
HETATM    7  C   UNK     0     -34.666 -18.933  12.276  0.00  0.00     0.115 C 
HETATM    8  C   UNK     0     -36.151 -18.652  12.127  0.00  0.00     0.021 A 
HETATM    9  N   UNK     0     -37.186 -19.458  12.409  0.00  0.00    -0.361 N 
HETATM   10  C   UNK     0     -38.321 -18.830  12.035  0.00  0.00     0.022 A 
HETATM   11  C   UNK     0     -38.008 -17.580  11.507  0.00  0.00    -0.027 A 
HETATM   12  C   UNK     0     -36.643 -17.462  11.562  0.00  0.00    -0.031 A 
HETATM   13  C   UNK     0     -35.850 -16.261  11.099  0.00  0.00     0.051 C 
HETATM   14  C   UNK     0     -39.734 -19.400  12.111  0.00  0.00     0.115 C 
HETATM   15  C   UNK     0     -39.936 -20.657  11.281  0.00  0.00     0.021 A 
HETATM   16  N   UNK     0     -39.271 -21.823  11.381  0.00  0.00    -0.361 N 
HETATM   17  C   UNK     0     -39.696 -22.654  10.426  0.00  0.00     0.022 A 
HETATM   18  C   UNK     0     -40.693 -22.001   9.674  0.00  0.00    -0.027 A 
HETATM   19  C   UNK     0     -40.835 -20.752  10.221  0.00  0.00    -0.031 A 
HETATM   20  C   UNK     0     -41.840 -19.726   9.730  0.00  0.00     0.051 C 
HETATM   21  C   UNK     0     -39.222 -24.044  10.066  0.00  0.00     0.115 C 
HETATM   22  C   UNK     0     -37.754 -24.350  10.250  0.00  0.00     0.022 A 
HETATM   23  N   UNK     0     -36.703 -23.565   9.982  0.00  0.00    -0.361 N 
HETATM   24  C   UNK     0     -35.590 -24.179  10.434  0.00  0.00     0.021 A 
HETATM   25  C   UNK     0     -35.933 -25.393  10.997  0.00  0.00    -0.031 A 
HETATM   26  C   UNK     0     -35.034 -26.452  11.600  0.00  0.00     0.051 C 
HETATM   27  C   UNK     0     -37.313 -25.525  10.891  0.00  0.00    -0.027 A 
HETATM   28  C   UNK     0     -34.170 -23.641  10.440  0.00  0.00     0.115 C 
HETATM   29  H   UNK     0     -35.238 -20.913  10.134  0.00  0.00     0.165 HD
HETATM   30  H   UNK     0     -37.123 -20.451  12.918  0.00  0.00     0.165 HD
HETATM   31  H   UNK     0     -38.518 -22.083  12.170  0.00  0.00     0.165 HD
HETATM   32  H   UNK     0     -36.731 -22.589   9.432  0.00  0.00     0.165 HD
ENDROOT
BRANCH   6  33
HETATM   33  C   UNK     0     -32.655 -20.506  14.100  0.00  0.00     0.051 C 
BRANCH  33  34
HETATM   34  C   UNK     0     -31.296 -19.938  13.765  0.00  0.00     0.114 C 
BRANCH  34  35
HETATM   35  C   UNK     0     -31.313 -18.494  14.136  0.00  0.00     0.139 C 
HETATM   36  O   UNK     0     -31.273 -18.148  15.352  0.00  0.00    -0.650 OA
BRANCH  35  37
HETATM   37  O   UNK     0     -31.368 -17.478  13.189  0.00  0.00    -0.776 OA
HETATM   38  H   UNK     0     -31.535 -16.518  13.445  0.00  0.00     0.167 HD
ENDBRANCH  35  37
ENDBRANCH  34  35
ENDBRANCH  33  34
ENDBRANCH   6  33
BRANCH  27  39
HETATM   39  C   UNK     0     -38.046 -26.744  11.328  0.00  0.00     0.051 C 
BRANCH  39  40
HETATM   40  C   UNK     0     -39.117 -26.594  12.312  0.00  0.00     0.114 C 
BRANCH  40  41
HETATM   41  C   UNK     0     -38.914 -26.862  13.718  0.00  0.00     0.139 C 
HETATM   42  O   UNK     0     -39.841 -27.002  14.528  0.00  0.00    -0.650 OA
BRANCH  41  43
HETATM   43  O   UNK     0     -37.585 -26.973  14.216  0.00  0.00    -0.776 OA
HETATM   44  H   UNK     0     -37.183 -26.101  14.536  0.00  0.00     0.167 HD
ENDBRANCH  41  43
ENDBRANCH  40  41
ENDBRANCH  39  40
ENDBRANCH  27  39
BRANCH  11  45
HETATM   45  C   UNK     0     -38.938 -16.526  10.970  0.00  0.00     0.051 C 
BRANCH  45  46
HETATM   46  C   UNK     0     -39.488 -16.831   9.624  0.00  0.00     0.114 C 
BRANCH  46  47
HETATM   47  C   UNK     0     -40.674 -15.950   9.422  0.00  0.00     0.139 C 
HETATM   48  O   UNK     0     -40.566 -14.977   8.663  0.00  0.00    -0.650 OA
BRANCH  47  49
HETATM   49  O   UNK     0     -41.859 -16.209  10.062  0.00  0.00    -0.776 OA
HETATM   50  H   UNK     0     -42.043 -15.886  11.020  0.00  0.00     0.167 HD
ENDBRANCH  47  49
ENDBRANCH  46  47
ENDBRANCH  45  46
ENDBRANCH  11  45
BRANCH  18  51
HETATM   51  C   UNK     0     -41.482 -22.546   8.512  0.00  0.00     0.051 C 
BRANCH  51  52
HETATM   52  C   UNK     0     -40.569 -22.460   7.299  0.00  0.00     0.114 C 
BRANCH  52  53
HETATM   53  C   UNK     0     -40.963 -23.415   6.245  0.00  0.00     0.139 C 
HETATM   54  O   UNK     0     -42.148 -23.768   6.137  0.00  0.00    -0.650 OA
BRANCH  53  55
HETATM   55  O   UNK     0     -40.010 -23.914   5.390  0.00  0.00    -0.776 OA
HETATM   56  H   UNK     0     -39.388 -23.378   4.832  0.00  0.00     0.167 HD
ENDBRANCH  53  55
ENDBRANCH  52  53
ENDBRANCH  51  52
ENDBRANCH  18  51
TORSDOF 16
ENDMDL
MODEL 3
REMARK VINA RESULT:      -9.8      3.099      9.662
REMARK  16 active torsions:
REMARK  status: ('A' for Active; 'I' for Inactive)
REMARK    1  A    between atoms: C_6  and  C_7 
REMARK    2  A    between atoms: C_7  and  C_8 
REMARK    3  A    between atoms: C_8  and  C_9 
REMARK    4  A    between atoms: C_9  and  O_11 
REMARK    5  A    between atoms: C_16  and  C_17 
REMARK    6  A    between atoms: C_17  and  C_18 
REMARK    7  A    between atoms: C_18  and  C_19 
REMARK    8  A    between atoms: C_19  and  O_21 
REMARK    9  A    between atoms: C_28  and  C_29 
REMARK   10  A    between atoms: C_29  and  C_30 
REMARK   11  A    between atoms: C_30  and  C_31 
REMARK   12  A    between atoms: C_31  and  O_33 
REMARK   13  A    between atoms: C_42  and  C_43 
REMARK   14  A    between atoms: C_43  and  C_44 
REMARK   15  A    between atoms: C_44  and  C_45 
REMARK   16  A    between atoms: C_45  and  O_47 
ROOT
HETATM    1  C   UNK     0     -32.716 -22.340  11.959  0.00  0.00     0.051 C 
HETATM    2  C   UNK     0     -34.198 -22.121  11.729  0.00  0.00    -0.031 A 
HETATM    3  C   UNK     0     -35.016 -21.097  12.180  0.00  0.00     0.021 A 
HETATM    4  N   UNK     0     -36.282 -21.325  11.757  0.00  0.00    -0.361 N 
HETATM    5  C   UNK     0     -36.287 -22.467  11.039  0.00  0.00     0.022 A 
HETATM    6  C   UNK     0     -34.999 -22.992  11.003  0.00  0.00    -0.027 A 
HETATM    7  C   UNK     0     -37.405 -23.108  10.277  0.00  0.00     0.115 C 
HETATM    8  C   UNK     0     -38.292 -22.183   9.462  0.00  0.00     0.021 A 
HETATM    9  N   UNK     0     -37.948 -21.075   8.787  0.00  0.00    -0.361 N 
HETATM   10  C   UNK     0     -39.074 -20.523   8.287  0.00  0.00     0.022 A 
HETATM   11  C   UNK     0     -40.172 -21.301   8.642  0.00  0.00    -0.027 A 
HETATM   12  C   UNK     0     -39.686 -22.349   9.382  0.00  0.00    -0.031 A 
HETATM   13  C   UNK     0     -40.522 -23.459   9.979  0.00  0.00     0.051 C 
HETATM   14  C   UNK     0     -39.166 -19.216   7.504  0.00  0.00     0.115 C 
HETATM   15  C   UNK     0     -38.690 -17.999   8.280  0.00  0.00     0.021 A 
HETATM   16  N   UNK     0     -37.475 -17.794   8.822  0.00  0.00    -0.361 N 
HETATM   17  C   UNK     0     -37.479 -16.633   9.481  0.00  0.00     0.022 A 
HETATM   18  C   UNK     0     -38.755 -16.048   9.353  0.00  0.00    -0.027 A 
HETATM   19  C   UNK     0     -39.503 -16.913   8.598  0.00  0.00    -0.031 A 
HETATM   20  C   UNK     0     -40.941 -16.649   8.188  0.00  0.00     0.051 C 
HETATM   21  C   UNK     0     -36.397 -15.984  10.314  0.00  0.00     0.115 C 
HETATM   22  C   UNK     0     -35.479 -16.894  11.096  0.00  0.00     0.022 A 
HETATM   23  N   UNK     0     -35.793 -18.005  11.774  0.00  0.00    -0.361 N 
HETATM   24  C   UNK     0     -34.649 -18.581  12.197  0.00  0.00     0.021 A 
HETATM   25  C   UNK     0     -33.573 -17.815  11.790  0.00  0.00    -0.031 A 
HETATM   26  C   UNK     0     -32.097 -18.028  12.056  0.00  0.00     0.051 C 
HETATM   27  C   UNK     0     -34.079 -16.730  11.084  0.00  0.00    -0.027 A 
HETATM   28  C   UNK     0     -34.488 -19.904  12.925  0.00  0.00     0.115 C 
HETATM   29  H   UNK     0     -37.170 -20.698  12.002  0.00  0.00     0.165 HD
HETATM   30  H   UNK     0     -36.906 -20.707   8.619  0.00  0.00     0.165 HD
HETATM   31  H   UNK     0     -36.581 -18.459   8.699  0.00  0.00     0.165 HD
HETATM   32  H   UNK     0     -36.828 -18.372  11.998  0.00  0.00     0.165 HD
ENDROOT
BRANCH   6  33
HETATM   33  C   UNK     0     -34.481 -24.245  10.343  0.00  0.00     0.051 C 
BRANCH  33  34
HETATM   34  C   UNK     0     -35.078 -25.475  10.986  0.00  0.00     0.114 C 
BRANCH  34  35
HETATM   35  C   UNK     0     -35.202 -26.516   9.926  0.00  0.00     0.139 C 
HETATM   36  O   UNK     0     -36.329 -27.030   9.666  0.00  0.00    -0.650 OA
BRANCH  35  37
HETATM   37  O   UNK     0     -34.115 -26.964   9.185  0.00  0.00    -0.776 OA
HETATM   38  H   UNK     0     -33.811 -27.924   9.209  0.00  0.00     0.167 HD
ENDBRANCH  35  37
ENDBRANCH  34  35
ENDBRANCH  33  34
ENDBRANCH   6  33
BRANCH  27  39
HETATM   39  C   UNK     0     -33.219 -15.641  10.546  0.00  0.00     0.051 C 
BRANCH  39  40
HETATM   40  C   UNK     0     -32.902 -14.512  11.420  0.00  0.00     0.114 C 
BRANCH  40  41
HETATM   41  C   UNK     0     -31.649 -14.418  12.135  0.00  0.00     0.139 C 
HETATM   42  O   UNK     0     -30.543 -14.413  11.577  0.00  0.00    -0.650 OA
BRANCH  41  43
HETATM   43  O   UNK     0     -31.669 -14.327  13.556  0.00  0.00    -0.776 OA
HETATM   44  H   UNK     0     -30.770 -14.120  13.975  0.00  0.00     0.167 HD
ENDBRANCH  41  43
ENDBRANCH  40  41
ENDBRANCH  39  40
ENDBRANCH  27  39
BRANCH  11  45
HETATM   45  C   UNK     0     -41.624 -21.090   8.308  0.00  0.00     0.051 C 
BRANCH  45  46
HETATM   46  C   UNK     0     -42.112 -19.713   8.574  0.00  0.00     0.114 C 
BRANCH  46  47
HETATM   47  C   UNK     0     -42.139 -19.532  10.054  0.00  0.00     0.139 C 
HETATM   48  O   UNK     0     -41.812 -20.486  10.773  0.00  0.00    -0.650 OA
BRANCH  47  49
HETATM   49  O   UNK     0     -42.517 -18.335  10.609  0.00  0.00    -0.776 OA
HETATM   50  H   UNK     0     -43.462 -18.182  10.980  0.00  0.00     0.167 HD
ENDBRANCH  47  49
ENDBRANCH  46  47
ENDBRANCH  45  46
ENDBRANCH  11  45
BRANCH  18  51
HETATM   51  C   UNK     0     -39.228 -14.728   9.903  0.00  0.00     0.051 C 
BRANCH  51  52
HETATM   52  C   UNK     0     -39.747 -15.011  11.305  0.00  0.00     0.114 C 
BRANCH  52  53
HETATM   53  C   UNK     0     -41.218 -15.121  11.335  0.00  0.00     0.139 C 
HETATM   54  O   UNK     0     -41.909 -14.423  10.576  0.00  0.00    -0.650 OA
BRANCH  53  55
HETATM   55  O   UNK     0     -41.816 -15.996  12.208  0.00  0.00    -0.776 OA
HETATM   56  H   UNK     0     -41.350 -16.581  12.861  0.00  0.00     0.167 HD
ENDBRANCH  53  55
ENDBRANCH  52  53
ENDBRANCH  51  52
ENDBRANCH  18  51
TORSDOF 16
ENDMDL
MODEL 4
REMARK VINA RESULT:      -9.5     28.281     31.846
REMARK  16 active torsions:
REMARK  status: ('A' for Active; 'I' for Inactive)
REMARK    1  A    between atoms: C_6  and  C_7 
REMARK    2  A    between atoms: C_7  and  C_8 
REMARK    3  A    between atoms: C_8  and  C_9 
REMARK    4  A    between atoms: C_9  and  O_11 
REMARK    5  A    between atoms: C_16  and  C_17 
REMARK    6  A    between atoms: C_17  and  C_18 
REMARK    7  A    between atoms: C_18  and  C_19 
REMARK    8  A    between atoms: C_19  and  O_21 
REMARK    9  A    between atoms: C_28  and  C_29 
REMARK   10  A    between atoms: C_29  and  C_30 
REMARK   11  A    between atoms: C_30  and  C_31 
REMARK   12  A    between atoms: C_31  and  O_33 
REMARK   13  A    between atoms: C_42  and  C_43 
REMARK   14  A    between atoms: C_43  and  C_44 
REMARK   15  A    between atoms: C_44  and  C_45 
REMARK   16  A    between atoms: C_45  and  O_47 
ROOT
HETATM    1  C   UNK     0     -15.916 -14.463  -6.622  0.00  0.00     0.051 C 
HETATM    2  C   UNK     0     -14.402 -14.515  -6.577  0.00  0.00    -0.031 A 
HETATM    3  C   UNK     0     -13.485 -13.476  -6.584  0.00  0.00     0.021 A 
HETATM    4  N   UNK     0     -12.233 -13.991  -6.564  0.00  0.00    -0.361 N 
HETATM    5  C   UNK     0     -12.332 -15.336  -6.538  0.00  0.00     0.022 A 
HETATM    6  C   UNK     0     -13.675 -15.698  -6.548  0.00  0.00    -0.027 A 
HETATM    7  C   UNK     0     -11.254 -16.368  -6.416  0.00  0.00     0.115 C 
HETATM    8  C   UNK     0     -10.148 -16.083  -5.416  0.00  0.00     0.021 A 
HETATM    9  N   UNK     0     -10.235 -15.471  -4.224  0.00  0.00    -0.361 N 
HETATM   10  C   UNK     0      -8.988 -15.355  -3.721  0.00  0.00     0.022 A 
HETATM   11  C   UNK     0      -8.074 -15.916  -4.608  0.00  0.00    -0.027 A 
HETATM   12  C   UNK     0      -8.798 -16.376  -5.677  0.00  0.00    -0.031 A 
HETATM   13  C   UNK     0      -8.220 -17.070  -6.891  0.00  0.00     0.051 C 
HETATM   14  C   UNK     0      -8.605 -14.666  -2.414  0.00  0.00     0.115 C 
HETATM   15  C   UNK     0      -8.962 -13.189  -2.368  0.00  0.00     0.021 A 
HETATM   16  N   UNK     0     -10.181 -12.635  -2.509  0.00  0.00    -0.361 N 
HETATM   17  C   UNK     0     -10.064 -11.305  -2.477  0.00  0.00     0.022 A 
HETATM   18  C   UNK     0      -8.705 -10.978  -2.297  0.00  0.00    -0.027 A 
HETATM   19  C   UNK     0      -8.026 -12.167  -2.230  0.00  0.00    -0.031 A 
HETATM   20  C   UNK     0      -6.529 -12.272  -2.003  0.00  0.00     0.051 C 
HETATM   21  C   UNK     0     -11.113 -10.233  -2.661  0.00  0.00     0.115 C 
HETATM   22  C   UNK     0     -12.244 -10.520  -3.621  0.00  0.00     0.022 A 
HETATM   23  N   UNK     0     -12.186 -11.131  -4.811  0.00  0.00    -0.361 N 
HETATM   24  C   UNK     0     -13.446 -11.306  -5.258  0.00  0.00     0.021 A 
HETATM   25  C   UNK     0     -14.336 -10.786  -4.338  0.00  0.00    -0.031 A 
HETATM   26  C   UNK     0     -15.847 -10.709  -4.410  0.00  0.00     0.051 C 
HETATM   27  C   UNK     0     -13.590 -10.277  -3.281  0.00  0.00    -0.027 A 
HETATM   28  C   UNK     0     -13.894 -12.031  -6.515  0.00  0.00     0.115 C 
HETATM   29  H   UNK     0     -11.288 -13.402  -6.610  0.00  0.00     0.165 HD
HETATM   30  H   UNK     0     -11.181 -15.165  -3.713  0.00  0.00     0.165 HD
HETATM   31  H   UNK     0     -11.150 -13.193  -2.584  0.00  0.00     0.165 HD
HETATM   32  H   UNK     0     -11.253 -11.406  -5.368  0.00  0.00     0.165 HD
ENDROOT
BRANCH   6  33
HETATM   33  C   UNK     0     -14.312 -17.065  -6.534  0.00  0.00     0.051 C 
BRANCH  33  34
HETATM   34  C   UNK     0     -14.658 -17.508  -7.936  0.00  0.00     0.114 C 
BRANCH  34  35
HETATM   35  C   UNK     0     -16.039 -18.070  -7.898  0.00  0.00     0.139 C 
HETATM   36  O   UNK     0     -17.028 -17.349  -8.220  0.00  0.00    -0.650 OA
BRANCH  35  37
HETATM   37  O   UNK     0     -16.305 -19.380  -7.520  0.00  0.00    -0.776 OA
HETATM   38  H   UNK     0     -17.110 -19.624  -6.966  0.00  0.00     0.167 HD
ENDBRANCH  35  37
ENDBRANCH  34  35
ENDBRANCH  33  34
ENDBRANCH   6  33
BRANCH  27  39
HETATM   39  C   UNK     0     -14.201  -9.568  -2.124  0.00  0.00     0.051 C 
BRANCH  39  40
HETATM   40  C   UNK     0     -14.644  -8.187  -2.312  0.00  0.00     0.114 C 
BRANCH  40  41
HETATM   41  C   UNK     0     -15.998  -7.766  -2.029  0.00  0.00     0.139 C 
HETATM   42  O   UNK     0     -16.373  -6.587  -2.083  0.00  0.00    -0.650 OA
BRANCH  41  43
HETATM   43  O   UNK     0     -16.965  -8.747  -1.668  0.00  0.00    -0.776 OA
HETATM   44  H   UNK     0     -16.660  -9.391  -0.948  0.00  0.00     0.167 HD
ENDBRANCH  41  43
ENDBRANCH  40  41
ENDBRANCH  39  40
ENDBRANCH  27  39
BRANCH  11  45
HETATM   45  C   UNK     0      -6.579 -16.027  -4.474  0.00  0.00     0.051 C 
BRANCH  45  46
HETATM   46  C   UNK     0      -6.130 -16.699  -3.227  0.00  0.00     0.114 C 
BRANCH  46  47
HETATM   47  C   UNK     0      -5.183 -15.772  -2.543  0.00  0.00     0.139 C 
HETATM   48  O   UNK     0      -5.220 -15.695  -1.307  0.00  0.00    -0.650 OA
BRANCH  47  49
HETATM   49  O   UNK     0      -4.291 -15.020  -3.264  0.00  0.00    -0.776 OA
HETATM   50  H   UNK     0      -3.290 -14.993  -3.035  0.00  0.00     0.167 HD
ENDBRANCH  47  49
ENDBRANCH  46  47
ENDBRANCH  45  46
ENDBRANCH  11  45
BRANCH  18  51
HETATM   51  C   UNK     0      -8.090  -9.608  -2.176  0.00  0.00     0.051 C 
BRANCH  51  52
HETATM   52  C   UNK     0      -7.856  -9.376  -0.690  0.00  0.00     0.114 C 
BRANCH  52  53
HETATM   53  C   UNK     0      -6.452  -9.026  -0.403  0.00  0.00     0.139 C 
HETATM   54  O   UNK     0      -6.026  -9.071   0.762  0.00  0.00    -0.650 OA
BRANCH  53  55
HETATM   55  O   UNK     0      -5.622  -8.646  -1.431  0.00  0.00    -0.776 OA
HETATM   56  H   UNK     0      -4.894  -7.974  -1.375  0.00  0.00     0.167 HD
ENDBRANCH  53  55
ENDBRANCH  52  53
ENDBRANCH  51  52
ENDBRANCH  18  51
TORSDOF 16
ENDMDL
MODEL 5
REMARK VINA RESULT:      -9.3      2.578      7.099
REMARK  16 active torsions:
REMARK  status: ('A' for Active; 'I' for Inactive)
REMARK    1  A    between atoms: C_6  and  C_7 
REMARK    2  A    between atoms: C_7  and  C_8 
REMARK    3  A    between atoms: C_8  and  C_9 
REMARK    4  A    between atoms: C_9  and  O_11 
REMARK    5  A    between atoms: C_16  and  C_17 
REMARK    6  A    between atoms: C_17  and  C_18 
REMARK    7  A    between atoms: C_18  and  C_19 
REMARK    8  A    between atoms: C_19  and  O_21 
REMARK    9  A    between atoms: C_28  and  C_29 
REMARK   10  A    between atoms: C_29  and  C_30 
REMARK   11  A    between atoms: C_30  and  C_31 
REMARK   12  A    between atoms: C_31  and  O_33 
REMARK   13  A    between atoms: C_42  and  C_43 
REMARK   14  A    between atoms: C_43  and  C_44 
REMARK   15  A    between atoms: C_44  and  C_45 
REMARK   16  A    between atoms: C_45  and  O_47 
ROOT
HETATM    1  C   UNK     0     -32.065 -23.672  14.025  0.00  0.00     0.051 C 
HETATM    2  C   UNK     0     -32.394 -22.328  13.408  0.00  0.00    -0.031 A 
HETATM    3  C   UNK     0     -32.823 -22.031  12.124  0.00  0.00     0.021 A 
HETATM    4  N   UNK     0     -32.963 -20.689  12.004  0.00  0.00    -0.361 N 
HETATM    5  C   UNK     0     -32.640 -20.126  13.187  0.00  0.00     0.022 A 
HETATM    6  C   UNK     0     -32.277 -21.122  14.087  0.00  0.00    -0.027 A 
HETATM    7  C   UNK     0     -32.716 -18.692  13.610  0.00  0.00     0.115 C 
HETATM    8  C   UNK     0     -33.954 -17.921  13.187  0.00  0.00     0.021 A 
HETATM    9  N   UNK     0     -35.217 -18.361  13.080  0.00  0.00    -0.361 N 
HETATM   10  C   UNK     0     -35.970 -17.358  12.582  0.00  0.00     0.022 A 
HETATM   11  C   UNK     0     -35.172 -16.237  12.371  0.00  0.00    -0.027 A 
HETATM   12  C   UNK     0     -33.901 -16.585  12.750  0.00  0.00    -0.031 A 
HETATM   13  C   UNK     0     -32.694 -15.676  12.700  0.00  0.00     0.051 C 
HETATM   14  C   UNK     0     -37.455 -17.431  12.236  0.00  0.00     0.115 C 
HETATM   15  C   UNK     0     -37.788 -18.461  11.169  0.00  0.00     0.021 A 
HETATM   16  N   UNK     0     -37.550 -19.786  11.203  0.00  0.00    -0.361 N 
HETATM   17  C   UNK     0     -37.928 -20.329  10.043  0.00  0.00     0.022 A 
HETATM   18  C   UNK     0     -38.447 -19.311   9.218  0.00  0.00    -0.027 A 
HETATM   19  C   UNK     0     -38.355 -18.147   9.935  0.00  0.00    -0.031 A 
HETATM   20  C   UNK     0     -38.840 -16.802   9.426  0.00  0.00     0.051 C 
HETATM   21  C   UNK     0     -37.808 -21.754   9.553  0.00  0.00     0.115 C 
HETATM   22  C   UNK     0     -36.603 -22.547  10.002  0.00  0.00     0.022 A 
HETATM   23  N   UNK     0     -35.335 -22.134  10.122  0.00  0.00    -0.361 N 
HETATM   24  C   UNK     0     -34.619 -23.124  10.693  0.00  0.00     0.021 A 
HETATM   25  C   UNK     0     -35.444 -24.205  10.937  0.00  0.00    -0.031 A 
HETATM   26  C   UNK     0     -35.096 -25.557  11.524  0.00  0.00     0.051 C 
HETATM   27  C   UNK     0     -36.719 -23.860  10.503  0.00  0.00    -0.027 A 
HETATM   28  C   UNK     0     -33.160 -23.092  11.114  0.00  0.00     0.115 C 
HETATM   29  H   UNK     0     -33.250 -20.147  11.074  0.00  0.00     0.165 HD
HETATM   30  H   UNK     0     -35.591 -19.364  13.402  0.00  0.00     0.165 HD
HETATM   31  H   UNK     0     -37.151 -20.358  12.080  0.00  0.00     0.165 HD
HETATM   32  H   UNK     0     -34.924 -21.154   9.765  0.00  0.00     0.165 HD
ENDROOT
BRANCH   6  33
HETATM   33  C   UNK     0     -31.830 -21.017  15.523  0.00  0.00     0.051 C 
BRANCH  33  34
HETATM   34  C   UNK     0     -33.021 -20.982  16.452  0.00  0.00     0.114 C 
BRANCH  34  35
HETATM   35  C   UNK     0     -32.840 -19.819  17.367  0.00  0.00     0.139 C 
HETATM   36  O   UNK     0     -32.879 -18.639  16.912  0.00  0.00    -0.650 OA
BRANCH  35  37
HETATM   37  O   UNK     0     -32.626 -19.965  18.732  0.00  0.00    -0.776 OA
HETATM   38  H   UNK     0     -33.387 -20.017  19.390  0.00  0.00     0.167 HD
ENDBRANCH  35  37
ENDBRANCH  34  35
ENDBRANCH  33  34
ENDBRANCH   6  33
BRANCH  27  39
HETATM   39  C   UNK     0     -37.870 -24.803  10.538  0.00  0.00     0.051 C 
BRANCH  39  40
HETATM   40  C   UNK     0     -39.152 -24.355   9.994  0.00  0.00     0.114 C 
BRANCH  40  41
HETATM   41  C   UNK     0     -40.308 -24.131  10.832  0.00  0.00     0.139 C 
HETATM   42  O   UNK     0     -41.032 -23.131  10.746  0.00  0.00    -0.650 OA
BRANCH  41  43
HETATM   43  O   UNK     0     -40.647 -25.104  11.816  0.00  0.00    -0.776 OA
HETATM   44  H   UNK     0     -41.210 -25.871  11.469  0.00  0.00     0.167 HD
ENDBRANCH  41  43
ENDBRANCH  40  41
ENDBRANCH  39  40
ENDBRANCH  27  39
BRANCH  11  45
HETATM   45  C   UNK     0     -35.567 -14.886  11.839  0.00  0.00     0.051 C 
BRANCH  45  46
HETATM   46  C   UNK     0     -35.943 -14.887  10.402  0.00  0.00     0.114 C 
BRANCH  46  47
HETATM   47  C   UNK     0     -34.830 -15.539   9.655  0.00  0.00     0.139 C 
HETATM   48  O   UNK     0     -35.045 -16.627   9.103  0.00  0.00    -0.650 OA
BRANCH  47  49
HETATM   49  O   UNK     0     -33.594 -14.949   9.580  0.00  0.00    -0.776 OA
HETATM   50  H   UNK     0     -33.433 -13.980   9.880  0.00  0.00     0.167 HD
ENDBRANCH  47  49
ENDBRANCH  46  47
ENDBRANCH  45  46
ENDBRANCH  11  45
BRANCH  18  51
HETATM   51  C   UNK     0     -39.018 -19.445   7.831  0.00  0.00     0.051 C 
BRANCH  51  52
HETATM   52  C   UNK     0     -40.522 -19.599   8.002  0.00  0.00     0.114 C 
BRANCH  52  53
HETATM   53  C   UNK     0     -40.942 -21.012   7.931  0.00  0.00     0.139 C 
HETATM   54  O   UNK     0     -40.265 -21.830   7.288  0.00  0.00    -0.650 OA
BRANCH  53  55
HETATM   55  O   UNK     0     -42.086 -21.415   8.575  0.00  0.00    -0.776 OA
HETATM   56  H   UNK     0     -43.004 -21.081   8.399  0.00  0.00     0.167 HD
ENDBRANCH  53  55
ENDBRANCH  52  53
ENDBRANCH  51  52
ENDBRANCH  18  51
TORSDOF 16
ENDMDL
MODEL 6
REMARK VINA RESULT:      -8.6      2.527      9.178
REMARK  16 active torsions:
REMARK  status: ('A' for Active; 'I' for Inactive)
REMARK    1  A    between atoms: C_6  and  C_7 
REMARK    2  A    between atoms: C_7  and  C_8 
REMARK    3  A    between atoms: C_8  and  C_9 
REMARK    4  A    between atoms: C_9  and  O_11 
REMARK    5  A    between atoms: C_16  and  C_17 
REMARK    6  A    between atoms: C_17  and  C_18 
REMARK    7  A    between atoms: C_18  and  C_19 
REMARK    8  A    between atoms: C_19  and  O_21 
REMARK    9  A    between atoms: C_28  and  C_29 
REMARK   10  A    between atoms: C_29  and  C_30 
REMARK   11  A    between atoms: C_30  and  C_31 
REMARK   12  A    between atoms: C_31  and  O_33 
REMARK   13  A    between atoms: C_42  and  C_43 
REMARK   14  A    between atoms: C_43  and  C_44 
REMARK   15  A    between atoms: C_44  and  C_45 
REMARK   16  A    between atoms: C_45  and  O_47 
ROOT
HETATM    1  C   UNK     0     -32.370 -21.827  11.944  0.00  0.00     0.051 C 
HETATM    2  C   UNK     0     -33.877 -21.805  11.785  0.00  0.00    -0.031 A 
HETATM    3  C   UNK     0     -34.795 -20.870  12.238  0.00  0.00     0.021 A 
HETATM    4  N   UNK     0     -36.041 -21.273  11.892  0.00  0.00    -0.361 N 
HETATM    5  C   UNK     0     -35.936 -22.439  11.222  0.00  0.00     0.022 A 
HETATM    6  C   UNK     0     -34.596 -22.802  11.139  0.00  0.00    -0.027 A 
HETATM    7  C   UNK     0     -36.999 -23.249  10.548  0.00  0.00     0.115 C 
HETATM    8  C   UNK     0     -38.033 -22.482   9.744  0.00  0.00     0.021 A 
HETATM    9  N   UNK     0     -37.865 -21.372   9.007  0.00  0.00    -0.361 N 
HETATM   10  C   UNK     0     -39.074 -20.988   8.546  0.00  0.00     0.022 A 
HETATM   11  C   UNK     0     -40.047 -21.879   8.990  0.00  0.00    -0.027 A 
HETATM   12  C   UNK     0     -39.398 -22.823   9.745  0.00  0.00    -0.031 A 
HETATM   13  C   UNK     0     -40.057 -23.999  10.430  0.00  0.00     0.051 C 
HETATM   14  C   UNK     0     -39.368 -19.741   7.717  0.00  0.00     0.115 C 
HETATM   15  C   UNK     0     -39.013 -18.439   8.416  0.00  0.00     0.021 A 
HETATM   16  N   UNK     0     -37.810 -18.059   8.884  0.00  0.00    -0.361 N 
HETATM   17  C   UNK     0     -37.929 -16.878   9.494  0.00  0.00     0.022 A 
HETATM   18  C   UNK     0     -39.273 -16.463   9.411  0.00  0.00    -0.027 A 
HETATM   19  C   UNK     0     -39.941 -17.449   8.733  0.00  0.00    -0.031 A 
HETATM   20  C   UNK     0     -41.419 -17.385   8.390  0.00  0.00     0.051 C 
HETATM   21  C   UNK     0     -36.899 -16.062  10.241  0.00  0.00     0.115 C 
HETATM   22  C   UNK     0     -35.837 -16.813  11.010  0.00  0.00     0.022 A 
HETATM   23  N   UNK     0     -35.975 -17.922  11.748  0.00  0.00    -0.361 N 
HETATM   24  C   UNK     0     -34.749 -18.330  12.132  0.00  0.00     0.021 A 
HETATM   25  C   UNK     0     -33.799 -17.457  11.638  0.00  0.00    -0.031 A 
HETATM   26  C   UNK     0     -32.297 -17.472  11.833  0.00  0.00     0.051 C 
HETATM   27  C   UNK     0     -34.471 -16.477  10.917  0.00  0.00    -0.027 A 
HETATM   28  C   UNK     0     -34.387 -19.587  12.905  0.00  0.00     0.115 C 
HETATM   29  H   UNK     0     -36.989 -20.751  12.158  0.00  0.00     0.165 HD
HETATM   30  H   UNK     0     -36.888 -20.886   8.769  0.00  0.00     0.165 HD
HETATM   31  H   UNK     0     -36.846 -18.614   8.740  0.00  0.00     0.165 HD
HETATM   32  H   UNK     0     -36.944 -18.403  12.042  0.00  0.00     0.165 HD
ENDROOT
BRANCH   6  33
HETATM   33  C   UNK     0     -33.955 -24.010  10.504  0.00  0.00     0.051 C 
BRANCH  33  34
HETATM   34  C   UNK     0     -33.774 -25.115  11.517  0.00  0.00     0.114 C 
BRANCH  34  35
HETATM   35  C   UNK     0     -34.772 -26.178  11.202  0.00  0.00     0.139 C 
HETATM   36  O   UNK     0     -35.807 -26.312  11.916  0.00  0.00    -0.650 OA
BRANCH  35  37
HETATM   37  O   UNK     0     -34.622 -27.052  10.132  0.00  0.00    -0.776 OA
HETATM   38  H   UNK     0     -35.380 -27.262   9.503  0.00  0.00     0.167 HD
ENDBRANCH  35  37
ENDBRANCH  34  35
ENDBRANCH  33  34
ENDBRANCH   6  33
BRANCH  27  39
HETATM   39  C   UNK     0     -33.783 -15.316  10.290  0.00  0.00     0.051 C 
BRANCH  39  40
HETATM   40  C   UNK     0     -33.417 -14.184  11.142  0.00  0.00     0.114 C 
BRANCH  40  41
HETATM   41  C   UNK     0     -34.376 -13.522  11.998  0.00  0.00     0.139 C 
HETATM   42  O   UNK     0     -34.634 -13.895  13.150  0.00  0.00    -0.650 OA
BRANCH  41  43
HETATM   43  O   UNK     0     -35.068 -12.380  11.505  0.00  0.00    -0.776 OA
HETATM   44  H   UNK     0     -35.722 -11.971  12.162  0.00  0.00     0.167 HD
ENDBRANCH  41  43
ENDBRANCH  40  41
ENDBRANCH  39  40
ENDBRANCH  27  39
BRANCH  11  45
HETATM   45  C   UNK     0     -41.528 -21.866   8.725  0.00  0.00     0.051 C 
BRANCH  45  46
HETATM   46  C   UNK     0     -41.887 -21.715   7.292  0.00  0.00     0.114 C 
BRANCH  46  47
HETATM   47  C   UNK     0     -41.528 -22.992   6.611  0.00  0.00     0.139 C 
HETATM   48  O   UNK     0     -42.421 -23.828   6.411  0.00  0.00    -0.650 OA
BRANCH  47  49
HETATM   49  O   UNK     0     -40.238 -23.238   6.214  0.00  0.00    -0.776 OA
HETATM   50  H   UNK     0     -40.007 -23.976   5.537  0.00  0.00     0.167 HD
ENDBRANCH  47  49
ENDBRANCH  46  47
ENDBRANCH  45  46
ENDBRANCH  11  45
BRANCH  18  51
HETATM   51  C   UNK     0     -39.883 -15.187   9.932  0.00  0.00     0.051 C 
BRANCH  51  52
HETATM   52  C   UNK     0     -40.971 -15.603  10.910  0.00  0.00     0.114 C 
BRANCH  52  53
HETATM   53  C   UNK     0     -40.517 -16.679  11.812  0.00  0.00     0.139 C 
HETATM   54  O   UNK     0     -39.487 -16.530  12.488  0.00  0.00    -0.650 OA
BRANCH  53  55
HETATM   55  O   UNK     0     -41.238 -17.845  11.896  0.00  0.00    -0.776 OA
HETATM   56  H   UNK     0     -40.896 -18.723  12.209  0.00  0.00     0.167 HD
ENDBRANCH  53  55
ENDBRANCH  52  53
ENDBRANCH  51  52
ENDBRANCH  18  51
TORSDOF 16
ENDMDL
MODEL 7
REMARK VINA RESULT:      -8.3     29.692     35.467
REMARK  16 active torsions:
REMARK  status: ('A' for Active; 'I' for Inactive)
REMARK    1  A    between atoms: C_6  and  C_7 
REMARK    2  A    between atoms: C_7  and  C_8 
REMARK    3  A    between atoms: C_8  and  C_9 
REMARK    4  A    between atoms: C_9  and  O_11 
REMARK    5  A    between atoms: C_16  and  C_17 
REMARK    6  A    between atoms: C_17  and  C_18 
REMARK    7  A    between atoms: C_18  and  C_19 
REMARK    8  A    between atoms: C_19  and  O_21 
REMARK    9  A    between atoms: C_28  and  C_29 
REMARK   10  A    between atoms: C_29  and  C_30 
REMARK   11  A    between atoms: C_30  and  C_31 
REMARK   12  A    between atoms: C_31  and  O_33 
REMARK   13  A    between atoms: C_42  and  C_43 
REMARK   14  A    between atoms: C_43  and  C_44 
REMARK   15  A    between atoms: C_44  and  C_45 
REMARK   16  A    between atoms: C_45  and  O_47 
ROOT
HETATM    1  C   UNK     0     -21.835  14.689   7.539  0.00  0.00     0.051 C 
HETATM    2  C   UNK     0     -22.500  13.362   7.842  0.00  0.00    -0.031 A 
HETATM    3  C   UNK     0     -22.107  12.080   7.490  0.00  0.00     0.021 A 
HETATM    4  N   UNK     0     -23.025  11.196   7.948  0.00  0.00    -0.361 N 
HETATM    5  C   UNK     0     -23.989  11.885   8.592  0.00  0.00     0.022 A 
HETATM    6  C   UNK     0     -23.694  13.243   8.542  0.00  0.00    -0.027 A 
HETATM    7  C   UNK     0     -25.173  11.378   9.356  0.00  0.00     0.115 C 
HETATM    8  C   UNK     0     -24.938  10.184  10.264  0.00  0.00     0.021 A 
HETATM    9  N   UNK     0     -23.851   9.889  10.993  0.00  0.00    -0.361 N 
HETATM   10  C   UNK     0     -24.048   8.685  11.572  0.00  0.00     0.022 A 
HETATM   11  C   UNK     0     -25.301   8.196  11.213  0.00  0.00    -0.027 A 
HETATM   12  C   UNK     0     -25.867   9.135  10.389  0.00  0.00    -0.031 A 
HETATM   13  C   UNK     0     -27.237   9.032   9.757  0.00  0.00     0.051 C 
HETATM   14  C   UNK     0     -23.048   7.927  12.440  0.00  0.00     0.115 C 
HETATM   15  C   UNK     0     -21.752   7.579  11.724  0.00  0.00     0.021 A 
HETATM   16  N   UNK     0     -20.879   8.426  11.147  0.00  0.00    -0.361 N 
HETATM   17  C   UNK     0     -19.906   7.723  10.565  0.00  0.00     0.022 A 
HETATM   18  C   UNK     0     -20.151   6.352  10.780  0.00  0.00    -0.027 A 
HETATM   19  C   UNK     0     -21.309   6.276  11.509  0.00  0.00    -0.031 A 
HETATM   20  C   UNK     0     -21.918   4.972  11.992  0.00  0.00     0.051 C 
HETATM   21  C   UNK     0     -18.734   8.191   9.732  0.00  0.00     0.115 C 
HETATM   22  C   UNK     0     -18.940   9.405   8.857  0.00  0.00     0.022 A 
HETATM   23  N   UNK     0     -20.013   9.726   8.123  0.00  0.00    -0.361 N 
HETATM   24  C   UNK     0     -19.827  10.963   7.619  0.00  0.00     0.021 A 
HETATM   25  C   UNK     0     -18.599  11.445   8.030  0.00  0.00    -0.031 A 
HETATM   26  C   UNK     0     -17.930  12.761   7.691  0.00  0.00     0.051 C 
HETATM   27  C   UNK     0     -18.013  10.466   8.823  0.00  0.00    -0.027 A 
HETATM   28  C   UNK     0     -20.804  11.790   6.801  0.00  0.00     0.115 C 
HETATM   29  H   UNK     0     -23.005  10.094   7.780  0.00  0.00     0.165 HD
HETATM   30  H   UNK     0     -22.963  10.551  11.142  0.00  0.00     0.165 HD
HETATM   31  H   UNK     0     -20.925   9.546  11.192  0.00  0.00     0.165 HD
HETATM   32  H   UNK     0     -20.895   9.065   7.918  0.00  0.00     0.165 HD
ENDROOT
BRANCH   6  33
HETATM   33  C   UNK     0     -24.451  14.422   9.100  0.00  0.00     0.051 C 
BRANCH  33  34
HETATM   34  C   UNK     0     -25.742  14.633   8.346  0.00  0.00     0.114 C 
BRANCH  34  35
HETATM   35  C   UNK     0     -25.397  15.254   7.035  0.00  0.00     0.139 C 
HETATM   36  O   UNK     0     -24.971  16.445   6.986  0.00  0.00    -0.650 OA
BRANCH  35  37
HETATM   37  O   UNK     0     -25.519  14.574   5.829  0.00  0.00    -0.776 OA
HETATM   38  H   UNK     0     -25.230  14.982   4.954  0.00  0.00     0.167 HD
ENDBRANCH  35  37
ENDBRANCH  34  35
ENDBRANCH  33  34
ENDBRANCH   6  33
BRANCH  27  39
HETATM   39  C   UNK     0     -16.644  10.597   9.394  0.00  0.00     0.051 C 
BRANCH  39  40
HETATM   40  C   UNK     0     -15.568   9.800   8.805  0.00  0.00     0.114 C 
BRANCH  40  41
HETATM   41  C   UNK     0     -14.909   8.738   9.531  0.00  0.00     0.139 C 
HETATM   42  O   UNK     0     -14.199   8.929  10.527  0.00  0.00    -0.650 OA
BRANCH  41  43
HETATM   43  O   UNK     0     -15.075   7.394   9.091  0.00  0.00    -0.776 OA
HETATM   44  H   UNK     0     -16.019   7.036   9.183  0.00  0.00     0.167 HD
ENDBRANCH  41  43
ENDBRANCH  40  41
ENDBRANCH  39  40
ENDBRANCH  27  39
BRANCH  11  45
HETATM   45  C   UNK     0     -25.959   6.905  11.618  0.00  0.00     0.051 C 
BRANCH  45  46
HETATM   46  C   UNK     0     -25.329   5.694  11.033  0.00  0.00     0.114 C 
BRANCH  46  47
HETATM   47  C   UNK     0     -26.340   5.056  10.142  0.00  0.00     0.139 C 
HETATM   48  O   UNK     0     -25.992   4.092   9.446  0.00  0.00    -0.650 OA
BRANCH  47  49
HETATM   49  O   UNK     0     -27.628   5.527  10.091  0.00  0.00    -0.776 OA
HETATM   50  H   UNK     0     -28.435   4.927  10.298  0.00  0.00     0.167 HD
ENDBRANCH  47  49
ENDBRANCH  46  47
ENDBRANCH  45  46
ENDBRANCH  11  45
BRANCH  18  51
HETATM   51  C   UNK     0     -19.315   5.180  10.335  0.00  0.00     0.051 C 
BRANCH  51  52
HETATM   52  C   UNK     0     -18.146   5.098  11.305  0.00  0.00     0.114 C 
BRANCH  52  53
HETATM   53  C   UNK     0     -17.014   4.340  10.738  0.00  0.00     0.139 C 
HETATM   54  O   UNK     0     -16.014   4.941  10.315  0.00  0.00    -0.650 OA
BRANCH  53  55
HETATM   55  O   UNK     0     -17.075   2.969  10.679  0.00  0.00    -0.776 OA
HETATM   56  H   UNK     0     -17.792   2.399  11.063  0.00  0.00     0.167 HD
ENDBRANCH  53  55
ENDBRANCH  52  53
ENDBRANCH  51  52
ENDBRANCH  18  51
TORSDOF 16
ENDMDL
MODEL 8
REMARK VINA RESULT:      -8.2      2.580      8.961
REMARK  16 active torsions:
REMARK  status: ('A' for Active; 'I' for Inactive)
REMARK    1  A    between atoms: C_6  and  C_7 
REMARK    2  A    between atoms: C_7  and  C_8 
REMARK    3  A    between atoms: C_8  and  C_9 
REMARK    4  A    between atoms: C_9  and  O_11 
REMARK    5  A    between atoms: C_16  and  C_17 
REMARK    6  A    between atoms: C_17  and  C_18 
REMARK    7  A    between atoms: C_18  and  C_19 
REMARK    8  A    between atoms: C_19  and  O_21 
REMARK    9  A    between atoms: C_28  and  C_29 
REMARK   10  A    between atoms: C_29  and  C_30 
REMARK   11  A    between atoms: C_30  and  C_31 
REMARK   12  A    between atoms: C_31  and  O_33 
REMARK   13  A    between atoms: C_42  and  C_43 
REMARK   14  A    between atoms: C_43  and  C_44 
REMARK   15  A    between atoms: C_44  and  C_45 
REMARK   16  A    between atoms: C_45  and  O_47 
ROOT
HETATM    1  C   UNK     0     -31.304 -20.687  13.178  0.00  0.00     0.051 C 
HETATM    2  C   UNK     0     -32.744 -21.046  12.871  0.00  0.00    -0.031 A 
HETATM    3  C   UNK     0     -33.914 -20.465  13.335  0.00  0.00     0.021 A 
HETATM    4  N   UNK     0     -34.973 -21.133  12.819  0.00  0.00    -0.361 N 
HETATM    5  C   UNK     0     -34.504 -22.121  12.029  0.00  0.00     0.022 A 
HETATM    6  C   UNK     0     -33.113 -22.097  12.041  0.00  0.00    -0.027 A 
HETATM    7  C   UNK     0     -35.253 -23.081  11.159  0.00  0.00     0.115 C 
HETATM    8  C   UNK     0     -36.406 -22.511  10.351  0.00  0.00     0.021 A 
HETATM    9  N   UNK     0     -36.506 -21.304   9.773  0.00  0.00    -0.361 N 
HETATM   10  C   UNK     0     -37.741 -21.196   9.240  0.00  0.00     0.022 A 
HETATM   11  C   UNK     0     -38.454 -22.368   9.474  0.00  0.00    -0.027 A 
HETATM   12  C   UNK     0     -37.618 -23.201  10.173  0.00  0.00    -0.031 A 
HETATM   13  C   UNK     0     -37.967 -24.596  10.643  0.00  0.00     0.051 C 
HETATM   14  C   UNK     0     -38.316 -19.968   8.539  0.00  0.00     0.115 C 
HETATM   15  C   UNK     0     -38.384 -18.731   9.421  0.00  0.00     0.021 A 
HETATM   16  N   UNK     0     -37.367 -18.115  10.051  0.00  0.00    -0.361 N 
HETATM   17  C   UNK     0     -37.850 -17.107  10.782  0.00  0.00     0.022 A 
HETATM   18  C   UNK     0     -39.248 -17.059  10.612  0.00  0.00    -0.027 A 
HETATM   19  C   UNK     0     -39.570 -18.081   9.757  0.00  0.00    -0.031 A 
HETATM   20  C   UNK     0     -40.981 -18.366   9.276  0.00  0.00     0.051 C 
HETATM   21  C   UNK     0     -37.138 -16.160  11.721  0.00  0.00     0.115 C 
HETATM   22  C   UNK     0     -35.962 -16.702  12.499  0.00  0.00     0.022 A 
HETATM   23  N   UNK     0     -35.833 -17.900  13.082  0.00  0.00    -0.361 N 
HETATM   24  C   UNK     0     -34.570 -18.017  13.538  0.00  0.00     0.021 A 
HETATM   25  C   UNK     0     -33.870 -16.860  13.250  0.00  0.00    -0.031 A 
HETATM   26  C   UNK     0     -32.440 -16.501  13.594  0.00  0.00     0.051 C 
HETATM   27  C   UNK     0     -34.740 -16.003  12.585  0.00  0.00    -0.027 A 
HETATM   28  C   UNK     0     -33.924 -19.228  14.188  0.00  0.00     0.115 C 
HETATM   29  H   UNK     0     -36.044 -20.926  13.048  0.00  0.00     0.165 HD
HETATM   30  H   UNK     0     -35.689 -20.546   9.695  0.00  0.00     0.165 HD
HETATM   31  H   UNK     0     -36.279 -18.365   9.941  0.00  0.00     0.165 HD
HETATM   32  H   UNK     0     -36.647 -18.660  13.216  0.00  0.00     0.165 HD
ENDROOT
BRANCH   6  33
HETATM   33  C   UNK     0     -32.122 -22.986  11.335  0.00  0.00     0.051 C 
BRANCH  33  34
HETATM   34  C   UNK     0     -31.840 -24.226  12.150  0.00  0.00     0.114 C 
BRANCH  34  35
HETATM   35  C   UNK     0     -32.387 -25.390  11.395  0.00  0.00     0.139 C 
HETATM   36  O   UNK     0     -31.745 -25.875  10.418  0.00  0.00    -0.650 OA
BRANCH  35  37
HETATM   37  O   UNK     0     -33.598 -25.991  11.717  0.00  0.00    -0.776 OA
HETATM   38  H   UNK     0     -33.776 -26.966  11.537  0.00  0.00     0.167 HD
ENDBRANCH  35  37
ENDBRANCH  34  35
ENDBRANCH  33  34
ENDBRANCH   6  33
BRANCH  27  39
HETATM   39  C   UNK     0     -34.363 -14.624  12.175  0.00  0.00     0.051 C 
BRANCH  39  40
HETATM   40  C   UNK     0     -34.058 -14.378  10.766  0.00  0.00     0.114 C 
BRANCH  40  41
HETATM   41  C   UNK     0     -34.063 -15.436   9.780  0.00  0.00     0.139 C 
HETATM   42  O   UNK     0     -34.950 -15.571   8.927  0.00  0.00    -0.650 OA
BRANCH  41  43
HETATM   43  O   UNK     0     -32.998 -16.381   9.776  0.00  0.00    -0.776 OA
HETATM   44  H   UNK     0     -32.648 -16.613   8.855  0.00  0.00     0.167 HD
ENDBRANCH  41  43
ENDBRANCH  40  41
ENDBRANCH  39  40
ENDBRANCH  27  39
BRANCH  11  45
HETATM   45  C   UNK     0     -39.860 -22.713   9.064  0.00  0.00     0.051 C 
BRANCH  45  46
HETATM   46  C   UNK     0     -40.900 -21.846   9.675  0.00  0.00     0.114 C 
BRANCH  46  47
HETATM   47  C   UNK     0     -41.964 -21.643   8.650  0.00  0.00     0.139 C 
HETATM   48  O   UNK     0     -41.754 -22.035   7.493  0.00  0.00    -0.650 OA
BRANCH  47  49
HETATM   49  O   UNK     0     -43.149 -21.035   8.978  0.00  0.00    -0.776 OA
HETATM   50  H   UNK     0     -43.752 -21.387   9.731  0.00  0.00     0.167 HD
ENDBRANCH  47  49
ENDBRANCH  46  47
ENDBRANCH  45  46
ENDBRANCH  11  45
BRANCH  18  51
HETATM   51  C   UNK     0     -40.221 -16.080  11.216  0.00  0.00     0.051 C 
BRANCH  51  52
HETATM   52  C   UNK     0     -40.181 -14.841  10.334  0.00  0.00     0.114 C 
BRANCH  52  53
HETATM   53  C   UNK     0     -41.367 -14.750   9.460  0.00  0.00     0.139 C 
HETATM   54  O   UNK     0     -41.269 -15.012   8.251  0.00  0.00    -0.650 OA
BRANCH  53  55
HETATM   55  O   UNK     0     -42.576 -14.373   9.993  0.00  0.00    -0.776 OA
HETATM   56  H   UNK     0     -43.451 -14.810   9.823  0.00  0.00     0.167 HD
ENDBRANCH  53  55
ENDBRANCH  52  53
ENDBRANCH  51  52
ENDBRANCH  18  51
TORSDOF 16
ENDMDL
MODEL 9
REMARK VINA RESULT:      -8.1     30.010     35.840
REMARK  16 active torsions:
REMARK  status: ('A' for Active; 'I' for Inactive)
REMARK    1  A    between atoms: C_6  and  C_7 
REMARK    2  A    between atoms: C_7  and  C_8 
REMARK    3  A    between atoms: C_8  and  C_9 
REMARK    4  A    between atoms: C_9  and  O_11 
REMARK    5  A    between atoms: C_16  and  C_17 
REMARK    6  A    between atoms: C_17  and  C_18 
REMARK    7  A    between atoms: C_18  and  C_19 
REMARK    8  A    between atoms: C_19  and  O_21 
REMARK    9  A    between atoms: C_28  and  C_29 
REMARK   10  A    between atoms: C_29  and  C_30 
REMARK   11  A    between atoms: C_30  and  C_31 
REMARK   12  A    between atoms: C_31  and  O_33 
REMARK   13  A    between atoms: C_42  and  C_43 
REMARK   14  A    between atoms: C_43  and  C_44 
REMARK   15  A    between atoms: C_44  and  C_45 
REMARK   16  A    between atoms: C_45  and  O_47 
ROOT
HETATM    1  C   UNK     0     -15.551   8.718  10.532  0.00  0.00     0.051 C 
HETATM    2  C   UNK     0     -16.671   9.222   9.645  0.00  0.00    -0.031 A 
HETATM    3  C   UNK     0     -17.745   8.531   9.107  0.00  0.00     0.021 A 
HETATM    4  N   UNK     0     -18.480   9.379   8.348  0.00  0.00    -0.361 N 
HETATM    5  C   UNK     0     -17.901  10.597   8.398  0.00  0.00     0.022 A 
HETATM    6  C   UNK     0     -16.766  10.534   9.199  0.00  0.00    -0.027 A 
HETATM    7  C   UNK     0     -18.364  11.895   7.813  0.00  0.00     0.115 C 
HETATM    8  C   UNK     0     -19.844  12.211   7.941  0.00  0.00     0.021 A 
HETATM    9  N   UNK     0     -20.677  11.922   8.953  0.00  0.00    -0.361 N 
HETATM   10  C   UNK     0     -21.920  12.308   8.596  0.00  0.00     0.022 A 
HETATM   11  C   UNK     0     -21.886  12.869   7.323  0.00  0.00    -0.027 A 
HETATM   12  C   UNK     0     -20.581  12.811   6.904  0.00  0.00    -0.031 A 
HETATM   13  C   UNK     0     -20.066  13.314   5.574  0.00  0.00     0.051 C 
HETATM   14  C   UNK     0     -23.193  12.116   9.415  0.00  0.00     0.115 C 
HETATM   15  C   UNK     0     -23.526  10.661   9.704  0.00  0.00     0.021 A 
HETATM   16  N   UNK     0     -22.765   9.757  10.347  0.00  0.00    -0.361 N 
HETATM   17  C   UNK     0     -23.383   8.574  10.332  0.00  0.00     0.022 A 
HETATM   18  C   UNK     0     -24.610   8.717   9.655  0.00  0.00    -0.027 A 
HETATM   19  C   UNK     0     -24.689  10.029   9.268  0.00  0.00    -0.031 A 
HETATM   20  C   UNK     0     -25.877  10.623   8.534  0.00  0.00     0.051 C 
HETATM   21  C   UNK     0     -22.922   7.230  10.850  0.00  0.00     0.115 C 
HETATM   22  C   UNK     0     -21.446   6.920  10.770  0.00  0.00     0.022 A 
HETATM   23  N   UNK     0     -20.592   7.199   9.777  0.00  0.00    -0.361 N 
HETATM   24  C   UNK     0     -19.348   6.877  10.185  0.00  0.00     0.021 A 
HETATM   25  C   UNK     0     -19.404   6.369  11.469  0.00  0.00    -0.031 A 
HETATM   26  C   UNK     0     -18.279   5.837  12.333  0.00  0.00     0.051 C 
HETATM   27  C   UNK     0     -20.736   6.386  11.865  0.00  0.00    -0.027 A 
HETATM   28  C   UNK     0     -18.041   7.097   9.444  0.00  0.00     0.115 C 
HETATM   29  H   UNK     0     -19.379   9.102   7.750  0.00  0.00     0.165 HD
HETATM   30  H   UNK     0     -20.382  11.491   9.941  0.00  0.00     0.165 HD
HETATM   31  H   UNK     0     -21.793   9.967  10.864  0.00  0.00     0.165 HD
HETATM   32  H   UNK     0     -20.865   7.586   8.761  0.00  0.00     0.165 HD
ENDROOT
BRANCH   6  33
HETATM   33  C   UNK     0     -15.776  11.610   9.565  0.00  0.00     0.051 C 
BRANCH  33  34
HETATM   34  C   UNK     0     -14.467  11.403   8.840  0.00  0.00     0.114 C 
BRANCH  34  35
HETATM   35  C   UNK     0     -14.472  12.295   7.645  0.00  0.00     0.139 C 
HETATM   36  O   UNK     0     -15.218  13.317   7.616  0.00  0.00    -0.650 OA
BRANCH  35  37
HETATM   37  O   UNK     0     -13.676  12.060   6.531  0.00  0.00    -0.776 OA
HETATM   38  H   UNK     0     -13.352  12.807   5.938  0.00  0.00     0.167 HD
ENDBRANCH  35  37
ENDBRANCH  34  35
ENDBRANCH  33  34
ENDBRANCH   6  33
BRANCH  27  39
HETATM   39  C   UNK     0     -21.201   5.846  13.171  0.00  0.00     0.051 C 
BRANCH  39  40
HETATM   40  C   UNK     0     -21.950   4.589  13.175  0.00  0.00     0.114 C 
BRANCH  40  41
HETATM   41  C   UNK     0     -23.389   4.550  13.047  0.00  0.00     0.139 C 
HETATM   42  O   UNK     0     -24.142   5.405  13.533  0.00  0.00    -0.650 OA
BRANCH  41  43
HETATM   43  O   UNK     0     -23.990   3.479  12.326  0.00  0.00    -0.776 OA
HETATM   44  H   UNK     0     -23.377   3.029  11.657  0.00  0.00     0.167 HD
ENDBRANCH  41  43
ENDBRANCH  40  41
ENDBRANCH  39  40
ENDBRANCH  27  39
BRANCH  11  45
HETATM   45  C   UNK     0     -23.019  13.445   6.516  0.00  0.00     0.051 C 
BRANCH  45  46
HETATM   46  C   UNK     0     -23.480  14.777   6.984  0.00  0.00     0.114 C 
BRANCH  46  47
HETATM   47  C   UNK     0     -24.923  14.895   6.627  0.00  0.00     0.139 C 
HETATM   48  O   UNK     0     -25.679  13.950   6.896  0.00  0.00    -0.650 OA
BRANCH  47  49
HETATM   49  O   UNK     0     -25.406  16.023   6.014  0.00  0.00    -0.776 OA
HETATM   50  H   UNK     0     -25.398  16.940   6.476  0.00  0.00     0.167 HD
ENDBRANCH  47  49
ENDBRANCH  46  47
ENDBRANCH  45  46
ENDBRANCH  11  45
BRANCH  18  51
HETATM   51  C   UNK     0     -25.661   7.665   9.410  0.00  0.00     0.051 C 
BRANCH  51  52
HETATM   52  C   UNK     0     -26.124   7.197  10.781  0.00  0.00     0.114 C 
BRANCH  52  53
HETATM   53  C   UNK     0     -26.461   5.760  10.787  0.00  0.00     0.139 C 
HETATM   54  O   UNK     0     -27.558   5.381  11.227  0.00  0.00    -0.650 OA
BRANCH  53  55
HETATM   55  O   UNK     0     -25.553   4.848  10.307  0.00  0.00    -0.776 OA
HETATM   56  H   UNK     0     -24.672   5.059   9.901  0.00  0.00     0.167 HD
ENDBRANCH  53  55
ENDBRANCH  52  53
ENDBRANCH  51  52
ENDBRANCH  18  51
TORSDOF 16
ENDMDL
MODEL 10
REMARK VINA RESULT:      -8.0     29.865     35.736
REMARK  16 active torsions:
REMARK  status: ('A' for Active; 'I' for Inactive)
REMARK    1  A    between atoms: C_6  and  C_7 
REMARK    2  A    between atoms: C_7  and  C_8 
REMARK    3  A    between atoms: C_8  and  C_9 
REMARK    4  A    between atoms: C_9  and  O_11 
REMARK    5  A    between atoms: C_16  and  C_17 
REMARK    6  A    between atoms: C_17  and  C_18 
REMARK    7  A    between atoms: C_18  and  C_19 
REMARK    8  A    between atoms: C_19  and  O_21 
REMARK    9  A    between atoms: C_28  and  C_29 
REMARK   10  A    between atoms: C_29  and  C_30 
REMARK   11  A    between atoms: C_30  and  C_31 
REMARK   12  A    between atoms: C_31  and  O_33 
REMARK   13  A    between atoms: C_42  and  C_43 
REMARK   14  A    between atoms: C_43  and  C_44 
REMARK   15  A    between atoms: C_44  and  C_45 
REMARK   16  A    between atoms: C_45  and  O_47 
ROOT
HETATM    1  C   UNK     0     -17.194   7.908  10.884  0.00  0.00     0.051 C 
HETATM    2  C   UNK     0     -18.046   8.702   9.915  0.00  0.00    -0.031 A 
HETATM    3  C   UNK     0     -19.148   8.298   9.177  0.00  0.00     0.021 A 
HETATM    4  N   UNK     0     -19.576   9.335   8.419  0.00  0.00    -0.361 N 
HETATM    5  C   UNK     0     -18.776  10.394   8.664  0.00  0.00     0.022 A 
HETATM    6  C   UNK     0     -17.807  10.032   9.594  0.00  0.00    -0.027 A 
HETATM    7  C   UNK     0     -18.875  11.799   8.159  0.00  0.00     0.115 C 
HETATM    8  C   UNK     0     -20.263  12.415   8.126  0.00  0.00     0.021 A 
HETATM    9  N   UNK     0     -21.276  12.241   8.989  0.00  0.00    -0.361 N 
HETATM   10  C   UNK     0     -22.349  12.910   8.516  0.00  0.00     0.022 A 
HETATM   11  C   UNK     0     -22.016  13.539   7.320  0.00  0.00    -0.027 A 
HETATM   12  C   UNK     0     -20.703  13.232   7.069  0.00  0.00    -0.031 A 
HETATM   13  C   UNK     0     -19.908  13.706   5.872  0.00  0.00     0.051 C 
HETATM   14  C   UNK     0     -23.741  12.938   9.141  0.00  0.00     0.115 C 
HETATM   15  C   UNK     0     -24.400  11.572   9.238  0.00  0.00     0.021 A 
HETATM   16  N   UNK     0     -23.941  10.481   9.880  0.00  0.00    -0.361 N 
HETATM   17  C   UNK     0     -24.777   9.463   9.667  0.00  0.00     0.022 A 
HETATM   18  C   UNK     0     -25.837   9.913   8.856  0.00  0.00    -0.027 A 
HETATM   19  C   UNK     0     -25.590  11.236   8.595  0.00  0.00    -0.031 A 
HETATM   20  C   UNK     0     -26.513  12.122   7.778  0.00  0.00     0.051 C 
HETATM   21  C   UNK     0     -24.679   8.018  10.103  0.00  0.00     0.115 C 
HETATM   22  C   UNK     0     -23.301   7.405  10.183  0.00  0.00     0.022 A 
HETATM   23  N   UNK     0     -22.272   7.564   9.340  0.00  0.00    -0.361 N 
HETATM   24  C   UNK     0     -21.192   6.955   9.870  0.00  0.00     0.021 A 
HETATM   25  C   UNK     0     -21.537   6.381  11.079  0.00  0.00    -0.031 A 
HETATM   26  C   UNK     0     -20.683   5.559  12.022  0.00  0.00     0.051 C 
HETATM   27  C   UNK     0     -22.882   6.655  11.300  0.00  0.00    -0.027 A 
HETATM   28  C   UNK     0     -19.774   6.940   9.328  0.00  0.00     0.115 C 
HETATM   29  H   UNK     0     -20.415   9.301   7.686  0.00  0.00     0.165 HD
HETATM   30  H   UNK     0     -21.222  11.688   9.958  0.00  0.00     0.165 HD
HETATM   31  H   UNK     0     -23.033  10.441  10.536  0.00  0.00     0.165 HD
HETATM   32  H   UNK     0     -22.309   8.072   8.341  0.00  0.00     0.165 HD
ENDROOT
BRANCH   6  33
HETATM   33  C   UNK     0     -16.684  10.842  10.190  0.00  0.00     0.051 C 
BRANCH  33  34
HETATM   34  C   UNK     0     -15.462  10.796   9.304  0.00  0.00     0.114 C 
BRANCH  34  35
HETATM   35  C   UNK     0     -14.341  10.241  10.117  0.00  0.00     0.139 C 
HETATM   36  O   UNK     0     -14.461  10.125  11.371  0.00  0.00    -0.650 OA
BRANCH  35  37
HETATM   37  O   UNK     0     -13.139   9.831   9.554  0.00  0.00    -0.776 OA
HETATM   38  H   UNK     0     -12.287   9.784  10.090  0.00  0.00     0.167 HD
ENDBRANCH  35  37
ENDBRANCH  34  35
ENDBRANCH  33  34
ENDBRANCH   6  33
BRANCH  27  39
HETATM   39  C   UNK     0     -23.633   6.135  12.475  0.00  0.00     0.051 C 
BRANCH  39  40
HETATM   40  C   UNK     0     -24.543   5.008  12.274  0.00  0.00     0.114 C 
BRANCH  40  41
HETATM   41  C   UNK     0     -25.757   5.127  11.498  0.00  0.00     0.139 C 
HETATM   42  O   UNK     0     -26.801   5.629  11.935  0.00  0.00    -0.650 OA
BRANCH  41  43
HETATM   43  O   UNK     0     -25.770   4.646  10.158  0.00  0.00    -0.776 OA
HETATM   44  H   UNK     0     -26.232   3.752  10.038  0.00  0.00     0.167 HD
ENDBRANCH  41  43
ENDBRANCH  40  41
ENDBRANCH  39  40
ENDBRANCH  27  39
BRANCH  11  45
HETATM   45  C   UNK     0     -22.878  14.400   6.437  0.00  0.00     0.051 C 
BRANCH  45  46
HETATM   46  C   UNK     0     -23.129  15.761   6.976  0.00  0.00     0.114 C 
BRANCH  46  47
HETATM   47  C   UNK     0     -24.543  16.110   6.653  0.00  0.00     0.139 C 
HETATM   48  O   UNK     0     -25.450  15.523   7.258  0.00  0.00    -0.650 OA
BRANCH  47  49
HETATM   49  O   UNK     0     -24.833  17.060   5.706  0.00  0.00    -0.776 OA
HETATM   50  H   UNK     0     -24.753  16.870   4.701  0.00  0.00     0.167 HD
ENDBRANCH  47  49
ENDBRANCH  46  47
ENDBRANCH  45  46
ENDBRANCH  11  45
BRANCH  18  51
HETATM   51  C   UNK     0     -27.032   9.132   8.374  0.00  0.00     0.051 C 
BRANCH  51  52
HETATM   52  C   UNK     0     -28.082   9.240   9.469  0.00  0.00     0.114 C 
BRANCH  52  53
HETATM   53  C   UNK     0     -28.497   7.913   9.965  0.00  0.00     0.139 C 
HETATM   54  O   UNK     0     -29.313   7.825  10.897  0.00  0.00    -0.650 OA
BRANCH  53  55
HETATM   55  O   UNK     0     -27.974   6.779   9.393  0.00  0.00    -0.776 OA
HETATM   56  H   UNK     0     -27.018   6.624   9.172  0.00  0.00     0.167 HD
ENDBRANCH  53  55
ENDBRANCH  52  53
ENDBRANCH  51  52
ENDBRANCH  18  51
TORSDOF 16
ENDMDL
MODEL 11
REMARK VINA RESULT:      -7.9      2.137      3.147
REMARK  16 active torsions:
REMARK  status: ('A' for Active; 'I' for Inactive)
REMARK    1  A    between atoms: C_6  and  C_7 
REMARK    2  A    between atoms: C_7  and  C_8 
REMARK    3  A    between atoms: C_8  and  C_9 
REMARK    4  A    between atoms: C_9  and  O_11 
REMARK    5  A    between atoms: C_16  and  C_17 
REMARK    6  A    between atoms: C_17  and  C_18 
REMARK    7  A    between atoms: C_18  and  C_19 
REMARK    8  A    between atoms: C_19  and  O_21 
REMARK    9  A    between atoms: C_28  and  C_29 
REMARK   10  A    between atoms: C_29  and  C_30 
REMARK   11  A    between atoms: C_30  and  C_31 
REMARK   12  A    between atoms: C_31  and  O_33 
REMARK   13  A    between atoms: C_42  and  C_43 
REMARK   14  A    between atoms: C_43  and  C_44 
REMARK   15  A    between atoms: C_44  and  C_45 
REMARK   16  A    between atoms: C_45  and  O_47 
ROOT
HETATM    1  C   UNK     0     -41.407 -17.219  10.286  0.00  0.00     0.051 C 
HETATM    2  C   UNK     0     -40.200 -17.726  11.048  0.00  0.00    -0.031 A 
HETATM    3  C   UNK     0     -40.002 -18.947  11.672  0.00  0.00     0.021 A 
HETATM    4  N   UNK     0     -38.781 -18.951  12.257  0.00  0.00    -0.361 N 
HETATM    5  C   UNK     0     -38.192 -17.762  12.012  0.00  0.00     0.022 A 
HETATM    6  C   UNK     0     -39.054 -16.970  11.260  0.00  0.00    -0.027 A 
HETATM    7  C   UNK     0     -36.812 -17.295  12.354  0.00  0.00     0.115 C 
HETATM    8  C   UNK     0     -35.684 -18.289  12.141  0.00  0.00     0.021 A 
HETATM    9  N   UNK     0     -35.553 -19.211  11.174  0.00  0.00    -0.361 N 
HETATM   10  C   UNK     0     -34.441 -19.932  11.431  0.00  0.00     0.022 A 
HETATM   11  C   UNK     0     -33.834 -19.455  12.589  0.00  0.00    -0.027 A 
HETATM   12  C   UNK     0     -34.612 -18.420  13.041  0.00  0.00    -0.031 A 
HETATM   13  C   UNK     0     -34.335 -17.594  14.277  0.00  0.00     0.051 C 
HETATM   14  C   UNK     0     -33.937 -21.128  10.628  0.00  0.00     0.115 C 
HETATM   15  C   UNK     0     -34.911 -22.295  10.586  0.00  0.00     0.021 A 
HETATM   16  N   UNK     0     -36.176 -22.294  10.125  0.00  0.00    -0.361 N 
HETATM   17  C   UNK     0     -36.718 -23.496  10.329  0.00  0.00     0.022 A 
HETATM   18  C   UNK     0     -35.757 -24.324  10.943  0.00  0.00    -0.027 A 
HETATM   19  C   UNK     0     -34.629 -23.560  11.098  0.00  0.00    -0.031 A 
HETATM   20  C   UNK     0     -33.333 -24.080  11.691  0.00  0.00     0.051 C 
HETATM   21  C   UNK     0     -38.122 -23.987  10.060  0.00  0.00     0.115 C 
HETATM   22  C   UNK     0     -39.251 -22.997  10.226  0.00  0.00     0.022 A 
HETATM   23  N   UNK     0     -39.405 -22.065  11.175  0.00  0.00    -0.361 N 
HETATM   24  C   UNK     0     -40.475 -21.309  10.857  0.00  0.00     0.021 A 
HETATM   25  C   UNK     0     -41.029 -21.771   9.679  0.00  0.00    -0.031 A 
HETATM   26  C   UNK     0     -42.259 -21.277   8.945  0.00  0.00     0.051 C 
HETATM   27  C   UNK     0     -40.263 -22.851   9.256  0.00  0.00    -0.027 A 
HETATM   28  C   UNK     0     -40.990 -20.076  11.580  0.00  0.00     0.115 C 
HETATM   29  H   UNK     0     -38.359 -19.779  12.873  0.00  0.00     0.165 HD
HETATM   30  H   UNK     0     -36.216 -19.322  10.282  0.00  0.00     0.165 HD
HETATM   31  H   UNK     0     -36.682 -21.441   9.602  0.00  0.00     0.165 HD
HETATM   32  H   UNK     0     -38.785 -21.960  12.104  0.00  0.00     0.165 HD
ENDROOT
BRANCH   6  33
HETATM   33  C   UNK     0     -38.874 -15.568  10.737  0.00  0.00     0.051 C 
BRANCH  33  34
HETATM   34  C   UNK     0     -37.956 -15.557   9.538  0.00  0.00     0.114 C 
BRANCH  34  35
HETATM   35  C   UNK     0     -36.659 -14.963   9.973  0.00  0.00     0.139 C 
HETATM   36  O   UNK     0     -36.638 -14.058  10.858  0.00  0.00    -0.650 OA
BRANCH  35  37
HETATM   37  O   UNK     0     -35.437 -15.362   9.445  0.00  0.00    -0.776 OA
HETATM   38  H   UNK     0     -34.644 -15.568  10.030  0.00  0.00     0.167 HD
ENDBRANCH  35  37
ENDBRANCH  34  35
ENDBRANCH  33  34
ENDBRANCH   6  33
BRANCH  27  39
HETATM   39  C   UNK     0     -40.597 -23.659   8.051  0.00  0.00     0.051 C 
BRANCH  39  40
HETATM   40  C   UNK     0     -40.379 -23.064   6.733  0.00  0.00     0.114 C 
BRANCH  40  41
HETATM   41  C   UNK     0     -40.689 -23.767   5.509  0.00  0.00     0.139 C 
HETATM   42  O   UNK     0     -41.836 -24.104   5.186  0.00  0.00    -0.650 OA
BRANCH  41  43
HETATM   43  O   UNK     0     -39.631 -24.098   4.615  0.00  0.00    -0.776 OA
HETATM   44  H   UNK     0     -38.727 -24.210   5.059  0.00  0.00     0.167 HD
ENDBRANCH  41  43
ENDBRANCH  40  41
ENDBRANCH  39  40
ENDBRANCH  27  39
BRANCH  11  45
HETATM   45  C   UNK     0     -32.575 -19.936  13.259  0.00  0.00     0.051 C 
BRANCH  45  46
HETATM   46  C   UNK     0     -32.770 -21.113  14.144  0.00  0.00     0.114 C 
BRANCH  46  47
HETATM   47  C   UNK     0     -32.685 -20.626  15.551  0.00  0.00     0.139 C 
HETATM   48  O   UNK     0     -33.420 -21.145  16.403  0.00  0.00    -0.650 OA
BRANCH  47  49
HETATM   49  O   UNK     0     -31.814 -19.623  15.896  0.00  0.00    -0.776 OA
HETATM   50  H   UNK     0     -31.777 -18.733  15.385  0.00  0.00     0.167 HD
ENDBRANCH  47  49
ENDBRANCH  46  47
ENDBRANCH  45  46
ENDBRANCH  11  45
BRANCH  18  51
HETATM   51  C   UNK     0     -35.899 -25.770  11.342  0.00  0.00     0.051 C 
BRANCH  51  52
HETATM   52  C   UNK     0     -35.613 -26.587  10.090  0.00  0.00     0.114 C 
BRANCH  52  53
HETATM   53  C   UNK     0     -34.197 -26.996  10.014  0.00  0.00     0.139 C 
HETATM   54  O   UNK     0     -33.604 -26.980   8.923  0.00  0.00    -0.650 OA
BRANCH  53  55
HETATM   55  O   UNK     0     -33.543 -27.398  11.153  0.00  0.00    -0.776 OA
HETATM   56  H   UNK     0     -32.761 -28.008  11.193  0.00  0.00     0.167 HD
ENDBRANCH  53  55
ENDBRANCH  52  53
ENDBRANCH  51  52
ENDBRANCH  18  51
TORSDOF 16
ENDMDL
MODEL 12
REMARK VINA RESULT:      -7.9      2.756      7.589
REMARK  16 active torsions:
REMARK  status: ('A' for Active; 'I' for Inactive)
REMARK    1  A    between atoms: C_6  and  C_7 
REMARK    2  A    between atoms: C_7  and  C_8 
REMARK    3  A    between atoms: C_8  and  C_9 
REMARK    4  A    between atoms: C_9  and  O_11 
REMARK    5  A    between atoms: C_16  and  C_17 
REMARK    6  A    between atoms: C_17  and  C_18 
REMARK    7  A    between atoms: C_18  and  C_19 
REMARK    8  A    between atoms: C_19  and  O_21 
REMARK    9  A    between atoms: C_28  and  C_29 
REMARK   10  A    between atoms: C_29  and  C_30 
REMARK   11  A    between atoms: C_30  and  C_31 
REMARK   12  A    between atoms: C_31  and  O_33 
REMARK   13  A    between atoms: C_42  and  C_43 
REMARK   14  A    between atoms: C_43  and  C_44 
REMARK   15  A    between atoms: C_44  and  C_45 
REMARK   16  A    between atoms: C_45  and  O_47 
ROOT
HETATM    1  C   UNK     0     -31.679 -23.403  13.665  0.00  0.00     0.051 C 
HETATM    2  C   UNK     0     -32.327 -22.184  13.039  0.00  0.00    -0.031 A 
HETATM    3  C   UNK     0     -32.950 -22.054  11.808  0.00  0.00     0.021 A 
HETATM    4  N   UNK     0     -33.356 -20.772  11.653  0.00  0.00    -0.361 N 
HETATM    5  C   UNK     0     -33.013 -20.084  12.761  0.00  0.00     0.022 A 
HETATM    6  C   UNK     0     -32.365 -20.937  13.648  0.00  0.00    -0.027 A 
HETATM    7  C   UNK     0     -33.312 -18.665  13.131  0.00  0.00     0.115 C 
HETATM    8  C   UNK     0     -34.714 -18.164  12.836  0.00  0.00     0.021 A 
HETATM    9  N   UNK     0     -35.874 -18.836  12.906  0.00  0.00    -0.361 N 
HETATM   10  C   UNK     0     -36.857 -18.022  12.465  0.00  0.00     0.022 A 
HETATM   11  C   UNK     0     -36.317 -16.789  12.110  0.00  0.00    -0.027 A 
HETATM   12  C   UNK     0     -34.967 -16.872  12.341  0.00  0.00    -0.031 A 
HETATM   13  C   UNK     0     -33.970 -15.760  12.103  0.00  0.00     0.051 C 
HETATM   14  C   UNK     0     -38.330 -18.390  12.312  0.00  0.00     0.115 C 
HETATM   15  C   UNK     0     -38.582 -19.530  11.338  0.00  0.00     0.021 A 
HETATM   16  N   UNK     0     -38.093 -20.782  11.396  0.00  0.00    -0.361 N 
HETATM   17  C   UNK     0     -38.492 -21.459  10.317  0.00  0.00     0.022 A 
HETATM   18  C   UNK     0     -39.286 -20.609   9.522  0.00  0.00    -0.027 A 
HETATM   19  C   UNK     0     -39.336 -19.404  10.173  0.00  0.00    -0.031 A 
HETATM   20  C   UNK     0     -40.125 -18.207   9.674  0.00  0.00     0.051 C 
HETATM   21  C   UNK     0     -38.159 -22.866   9.874  0.00  0.00     0.115 C 
HETATM   22  C   UNK     0     -36.782 -23.393  10.201  0.00  0.00     0.022 A 
HETATM   23  N   UNK     0     -35.610 -22.746  10.144  0.00  0.00    -0.361 N 
HETATM   24  C   UNK     0     -34.658 -23.548  10.660  0.00  0.00     0.021 A 
HETATM   25  C   UNK     0     -35.228 -24.745  11.050  0.00  0.00    -0.031 A 
HETATM   26  C   UNK     0     -34.562 -25.969  11.643  0.00  0.00     0.051 C 
HETATM   27  C   UNK     0     -36.586 -24.670  10.766  0.00  0.00    -0.027 A 
HETATM   28  C   UNK     0     -33.193 -23.221  10.893  0.00  0.00     0.115 C 
HETATM   29  H   UNK     0     -33.847 -20.352  10.744  0.00  0.00     0.165 HD
HETATM   30  H   UNK     0     -36.010 -19.867  13.313  0.00  0.00     0.165 HD
HETATM   31  H   UNK     0     -37.493 -21.214  12.239  0.00  0.00     0.165 HD
HETATM   32  H   UNK     0     -35.438 -21.732   9.698  0.00  0.00     0.165 HD
ENDROOT
BRANCH   6  33
HETATM   33  C   UNK     0     -31.784 -20.659  15.012  0.00  0.00     0.051 C 
BRANCH  33  34
HETATM   34  C   UNK     0     -32.865 -20.666  16.066  0.00  0.00     0.114 C 
BRANCH  34  35
HETATM   35  C   UNK     0     -32.572 -19.554  17.015  0.00  0.00     0.139 C 
HETATM   36  O   UNK     0     -31.660 -18.717  16.752  0.00  0.00    -0.650 OA
BRANCH  35  37
HETATM   37  O   UNK     0     -33.267 -19.382  18.206  0.00  0.00    -0.776 OA
HETATM   38  H   UNK     0     -33.686 -20.156  18.697  0.00  0.00     0.167 HD
ENDBRANCH  35  37
ENDBRANCH  34  35
ENDBRANCH  33  34
ENDBRANCH   6  33
BRANCH  27  39
HETATM   39  C   UNK     0     -37.524 -25.805  10.983  0.00  0.00     0.051 C 
BRANCH  39  40
HETATM   40  C   UNK     0     -37.735 -26.750   9.886  0.00  0.00     0.114 C 
BRANCH  40  41
HETATM   41  C   UNK     0     -36.924 -27.935   9.723  0.00  0.00     0.139 C 
HETATM   42  O   UNK     0     -36.389 -28.532  10.667  0.00  0.00    -0.650 OA
BRANCH  41  43
HETATM   43  O   UNK     0     -36.718 -28.457   8.415  0.00  0.00    -0.776 OA
HETATM   44  H   UNK     0     -36.446 -29.432   8.390  0.00  0.00     0.167 HD
ENDBRANCH  41  43
ENDBRANCH  40  41
ENDBRANCH  39  40
ENDBRANCH  27  39
BRANCH  11  45
HETATM   45  C   UNK     0     -37.021 -15.571  11.577  0.00  0.00     0.051 C 
BRANCH  45  46
HETATM   46  C   UNK     0     -37.402 -15.669  10.145  0.00  0.00     0.114 C 
BRANCH  46  47
HETATM   47  C   UNK     0     -38.471 -14.659   9.902  0.00  0.00     0.139 C 
HETATM   48  O   UNK     0     -39.318 -14.891   9.028  0.00  0.00    -0.650 OA
BRANCH  47  49
HETATM   49  O   UNK     0     -38.517 -13.496  10.629  0.00  0.00    -0.776 OA
HETATM   50  H   UNK     0     -38.496 -12.572  10.181  0.00  0.00     0.167 HD
ENDBRANCH  47  49
ENDBRANCH  46  47
ENDBRANCH  45  46
ENDBRANCH  11  45
BRANCH  18  51
HETATM   51  C   UNK     0     -39.978 -20.935   8.223  0.00  0.00     0.051 C 
BRANCH  51  52
HETATM   52  C   UNK     0     -40.220 -19.605   7.525  0.00  0.00     0.114 C 
BRANCH  52  53
HETATM   53  C   UNK     0     -41.660 -19.328   7.355  0.00  0.00     0.139 C 
HETATM   54  O   UNK     0     -42.032 -18.426   6.587  0.00  0.00    -0.650 OA
BRANCH  53  55
HETATM   55  O   UNK     0     -42.582 -20.069   8.053  0.00  0.00    -0.776 OA
HETATM   56  H   UNK     0     -43.100 -20.839   7.699  0.00  0.00     0.167 HD
ENDBRANCH  53  55
ENDBRANCH  52  53
ENDBRANCH  51  52
ENDBRANCH  18  51
TORSDOF 16
ENDMDL
MODEL 13
REMARK VINA RESULT:      -7.8     30.314     36.542
REMARK  16 active torsions:
REMARK  status: ('A' for Active; 'I' for Inactive)
REMARK    1  A    between atoms: C_6  and  C_7 
REMARK    2  A    between atoms: C_7  and  C_8 
REMARK    3  A    between atoms: C_8  and  C_9 
REMARK    4  A    between atoms: C_9  and  O_11 
REMARK    5  A    between atoms: C_16  and  C_17 
REMARK    6  A    between atoms: C_17  and  C_18 
REMARK    7  A    between atoms: C_18  and  C_19 
REMARK    8  A    between atoms: C_19  and  O_21 
REMARK    9  A    between atoms: C_28  and  C_29 
REMARK   10  A    between atoms: C_29  and  C_30 
REMARK   11  A    between atoms: C_30  and  C_31 
REMARK   12  A    between atoms: C_31  and  O_33 
REMARK   13  A    between atoms: C_42  and  C_43 
REMARK   14  A    between atoms: C_43  and  C_44 
REMARK   15  A    between atoms: C_44  and  C_45 
REMARK   16  A    between atoms: C_45  and  O_47 
ROOT
HETATM    1  C   UNK     0     -16.891   8.995   9.009  0.00  0.00     0.051 C 
HETATM    2  C   UNK     0     -18.056   9.880   8.615  0.00  0.00    -0.031 A 
HETATM    3  C   UNK     0     -19.346   9.526   8.250  0.00  0.00     0.021 A 
HETATM    4  N   UNK     0     -20.043  10.647   7.949  0.00  0.00    -0.361 N 
HETATM    5  C   UNK     0     -19.228  11.709   8.123  0.00  0.00     0.022 A 
HETATM    6  C   UNK     0     -17.977  11.264   8.537  0.00  0.00    -0.027 A 
HETATM    7  C   UNK     0     -19.533  13.170   8.017  0.00  0.00     0.115 C 
HETATM    8  C   UNK     0     -20.844  13.639   8.622  0.00  0.00     0.021 A 
HETATM    9  N   UNK     0     -21.461  13.194   9.728  0.00  0.00    -0.361 N 
HETATM   10  C   UNK     0     -22.645  13.834   9.834  0.00  0.00     0.022 A 
HETATM   11  C   UNK     0     -22.790  14.723   8.773  0.00  0.00    -0.027 A 
HETATM   12  C   UNK     0     -21.660  14.605   8.006  0.00  0.00    -0.031 A 
HETATM   13  C   UNK     0     -21.374  15.387   6.743  0.00  0.00     0.051 C 
HETATM   14  C   UNK     0     -23.705  13.596  10.906  0.00  0.00     0.115 C 
HETATM   15  C   UNK     0     -24.257  12.180  10.922  0.00  0.00     0.021 A 
HETATM   16  N   UNK     0     -23.573  11.034  11.094  0.00  0.00    -0.361 N 
HETATM   17  C   UNK     0     -24.410  10.001  10.972  0.00  0.00     0.022 A 
HETATM   18  C   UNK     0     -25.704  10.499  10.718  0.00  0.00    -0.027 A 
HETATM   19  C   UNK     0     -25.595  11.865  10.690  0.00  0.00    -0.031 A 
HETATM   20  C   UNK     0     -26.771  12.801  10.480  0.00  0.00     0.051 C 
HETATM   21  C   UNK     0     -24.132   8.515  11.007  0.00  0.00     0.115 C 
HETATM   22  C   UNK     0     -22.812   8.039  10.447  0.00  0.00     0.022 A 
HETATM   23  N   UNK     0     -22.173   8.467   9.351  0.00  0.00    -0.361 N 
HETATM   24  C   UNK     0     -20.963   7.873   9.308  0.00  0.00     0.021 A 
HETATM   25  C   UNK     0     -20.824   7.035  10.397  0.00  0.00    -0.031 A 
HETATM   26  C   UNK     0     -19.667   6.129  10.761  0.00  0.00     0.051 C 
HETATM   27  C   UNK     0     -21.995   7.124  11.141  0.00  0.00    -0.027 A 
HETATM   28  C   UNK     0     -19.847   8.110   8.305  0.00  0.00     0.115 C 
HETATM   29  H   UNK     0     -21.093  10.679   7.578  0.00  0.00     0.165 HD
HETATM   30  H   UNK     0     -21.042  12.464  10.463  0.00  0.00     0.165 HD
HETATM   31  H   UNK     0     -22.486  10.952  11.354  0.00  0.00     0.165 HD
HETATM   32  H   UNK     0     -22.587   9.160   8.573  0.00  0.00     0.165 HD
ENDROOT
BRANCH   6  33
HETATM   33  C   UNK     0     -16.727  12.045   8.857  0.00  0.00     0.051 C 
BRANCH  33  34
HETATM   34  C   UNK     0     -15.988  12.413   7.593  0.00  0.00     0.114 C 
BRANCH  34  35
HETATM   35  C   UNK     0     -14.576  11.961   7.754  0.00  0.00     0.139 C 
HETATM   36  O   UNK     0     -14.173  11.515   8.868  0.00  0.00    -0.650 OA
BRANCH  35  37
HETATM   37  O   UNK     0     -13.653  12.003   6.716  0.00  0.00    -0.776 OA
HETATM   38  H   UNK     0     -13.333  11.168   6.251  0.00  0.00     0.167 HD
ENDBRANCH  35  37
ENDBRANCH  34  35
ENDBRANCH  33  34
ENDBRANCH   6  33
BRANCH  27  39
HETATM   39  C   UNK     0     -22.247   6.305  12.358  0.00  0.00     0.051 C 
BRANCH  39  40
HETATM   40  C   UNK     0     -22.993   5.056  12.212  0.00  0.00     0.114 C 
BRANCH  40  41
HETATM   41  C   UNK     0     -24.438   5.021  12.184  0.00  0.00     0.139 C 
HETATM   42  O   UNK     0     -25.095   4.663  11.197  0.00  0.00    -0.650 OA
BRANCH  41  43
HETATM   43  O   UNK     0     -25.162   5.416  13.345  0.00  0.00    -0.776 OA
HETATM   44  H   UNK     0     -25.150   6.412  13.527  0.00  0.00     0.167 HD
ENDBRANCH  41  43
ENDBRANCH  40  41
ENDBRANCH  39  40
ENDBRANCH  27  39
BRANCH  11  45
HETATM   45  C   UNK     0     -23.934  15.654   8.475  0.00  0.00     0.051 C 
BRANCH  45  46
HETATM   46  C   UNK     0     -25.132  14.982   7.909  0.00  0.00     0.114 C 
BRANCH  46  47
HETATM   47  C   UNK     0     -25.187  15.325   6.459  0.00  0.00     0.139 C 
HETATM   48  O   UNK     0     -24.830  16.457   6.104  0.00  0.00    -0.650 OA
BRANCH  47  49
HETATM   49  O   UNK     0     -25.625  14.408   5.537  0.00  0.00    -0.776 OA
HETATM   50  H   UNK     0     -26.196  13.597   5.802  0.00  0.00     0.167 HD
ENDBRANCH  47  49
ENDBRANCH  46  47
ENDBRANCH  45  46
ENDBRANCH  11  45
BRANCH  18  51
HETATM   51  C   UNK     0     -26.978   9.716  10.533  0.00  0.00     0.051 C 
BRANCH  51  52
HETATM   52  C   UNK     0     -26.751   8.810   9.331  0.00  0.00     0.114 C 
BRANCH  52  53
HETATM   53  C   UNK     0     -26.602   9.581   8.082  0.00  0.00     0.139 C 
HETATM   54  O   UNK     0     -25.635   9.370   7.332  0.00  0.00    -0.650 OA
BRANCH  53  55
HETATM   55  O   UNK     0     -27.536  10.535   7.757  0.00  0.00    -0.776 OA
HETATM   56  H   UNK     0     -27.923  10.690   6.856  0.00  0.00     0.167 HD
ENDBRANCH  53  55
ENDBRANCH  52  53
ENDBRANCH  51  52
ENDBRANCH  18  51
TORSDOF 16
ENDMDL
MODEL 14
REMARK VINA RESULT:      -7.6     30.934     35.529
REMARK  16 active torsions:
REMARK  status: ('A' for Active; 'I' for Inactive)
REMARK    1  A    between atoms: C_6  and  C_7 
REMARK    2  A    between atoms: C_7  and  C_8 
REMARK    3  A    between atoms: C_8  and  C_9 
REMARK    4  A    between atoms: C_9  and  O_11 
REMARK    5  A    between atoms: C_16  and  C_17 
REMARK    6  A    between atoms: C_17  and  C_18 
REMARK    7  A    between atoms: C_18  and  C_19 
REMARK    8  A    between atoms: C_19  and  O_21 
REMARK    9  A    between atoms: C_28  and  C_29 
REMARK   10  A    between atoms: C_29  and  C_30 
REMARK   11  A    between atoms: C_30  and  C_31 
REMARK   12  A    between atoms: C_31  and  O_33 
REMARK   13  A    between atoms: C_42  and  C_43 
REMARK   14  A    between atoms: C_43  and  C_44 
REMARK   15  A    between atoms: C_44  and  C_45 
REMARK   16  A    between atoms: C_45  and  O_47 
ROOT
HETATM    1  C   UNK     0     -17.389   7.594  10.993  0.00  0.00     0.051 C 
HETATM    2  C   UNK     0     -18.297   8.319  10.020  0.00  0.00    -0.031 A 
HETATM    3  C   UNK     0     -19.438   7.867   9.377  0.00  0.00     0.021 A 
HETATM    4  N   UNK     0     -19.910   8.848   8.572  0.00  0.00    -0.361 N 
HETATM    5  C   UNK     0     -19.099   9.920   8.696  0.00  0.00     0.022 A 
HETATM    6  C   UNK     0     -18.078   9.622   9.592  0.00  0.00    -0.027 A 
HETATM    7  C   UNK     0     -19.229  11.286   8.098  0.00  0.00     0.115 C 
HETATM    8  C   UNK     0     -20.617  11.902   8.100  0.00  0.00     0.021 A 
HETATM    9  N   UNK     0     -21.579  11.792   9.030  0.00  0.00    -0.361 N 
HETATM   10  C   UNK     0     -22.678  12.428   8.573  0.00  0.00     0.022 A 
HETATM   11  C   UNK     0     -22.415  12.970   7.318  0.00  0.00    -0.027 A 
HETATM   12  C   UNK     0     -21.118  12.642   7.015  0.00  0.00    -0.031 A 
HETATM   13  C   UNK     0     -20.394  13.027   5.744  0.00  0.00     0.051 C 
HETATM   14  C   UNK     0     -24.032  12.504   9.273  0.00  0.00     0.115 C 
HETATM   15  C   UNK     0     -24.683  11.150   9.504  0.00  0.00     0.021 A 
HETATM   16  N   UNK     0     -24.186  10.107  10.195  0.00  0.00    -0.361 N 
HETATM   17  C   UNK     0     -25.031   9.078  10.104  0.00  0.00     0.022 A 
HETATM   18  C   UNK     0     -26.137   9.472   9.324  0.00  0.00    -0.027 A 
HETATM   19  C   UNK     0     -25.907  10.773   8.956  0.00  0.00    -0.031 A 
HETATM   20  C   UNK     0     -26.877  11.600   8.132  0.00  0.00     0.051 C 
HETATM   21  C   UNK     0     -24.907   7.668  10.635  0.00  0.00     0.115 C 
HETATM   22  C   UNK     0     -23.525   7.058  10.679  0.00  0.00     0.022 A 
HETATM   23  N   UNK     0     -22.546   7.154   9.770  0.00  0.00    -0.361 N 
HETATM   24  C   UNK     0     -21.437   6.581  10.279  0.00  0.00     0.021 A 
HETATM   25  C   UNK     0     -21.712   6.095  11.543  0.00  0.00    -0.031 A 
HETATM   26  C   UNK     0     -20.804   5.341  12.492  0.00  0.00     0.051 C 
HETATM   27  C   UNK     0     -23.042   6.389  11.821  0.00  0.00    -0.027 A 
HETATM   28  C   UNK     0     -20.052   6.525   9.660  0.00  0.00     0.115 C 
HETATM   29  H   UNK     0     -20.789   8.764   7.893  0.00  0.00     0.165 HD
HETATM   30  H   UNK     0     -21.469  11.309  10.032  0.00  0.00     0.165 HD
HETATM   31  H   UNK     0     -23.242  10.111  10.799  0.00  0.00     0.165 HD
HETATM   32  H   UNK     0     -22.641   7.590   8.741  0.00  0.00     0.165 HD
ENDROOT
BRANCH   6  33
HETATM   33  C   UNK     0     -16.923  10.470  10.064  0.00  0.00     0.051 C 
BRANCH  33  34
HETATM   34  C   UNK     0     -15.802  10.457   9.053  0.00  0.00     0.114 C 
BRANCH  34  35
HETATM   35  C   UNK     0     -14.570  10.001   9.758  0.00  0.00     0.139 C 
HETATM   36  O   UNK     0     -14.256   8.775   9.766  0.00  0.00    -0.650 OA
BRANCH  35  37
HETATM   37  O   UNK     0     -13.721  10.875  10.426  0.00  0.00    -0.776 OA
HETATM   38  H   UNK     0     -13.288  11.658   9.963  0.00  0.00     0.167 HD
ENDBRANCH  35  37
ENDBRANCH  34  35
ENDBRANCH  33  34
ENDBRANCH   6  33
BRANCH  27  39
HETATM   39  C   UNK     0     -23.724   5.956  13.071  0.00  0.00     0.051 C 
BRANCH  39  40
HETATM   40  C   UNK     0     -23.478   6.718  14.295  0.00  0.00     0.114 C 
BRANCH  40  41
HETATM   41  C   UNK     0     -23.651   6.142  15.610  0.00  0.00     0.139 C 
HETATM   42  O   UNK     0     -24.757   5.961  16.137  0.00  0.00    -0.650 OA
BRANCH  41  43
HETATM   43  O   UNK     0     -22.499   5.755  16.352  0.00  0.00    -0.776 OA
HETATM   44  H   UNK     0     -22.611   4.902  16.886  0.00  0.00     0.167 HD
ENDBRANCH  41  43
ENDBRANCH  40  41
ENDBRANCH  39  40
ENDBRANCH  27  39
BRANCH  11  45
HETATM   45  C   UNK     0     -23.328  13.768   6.426  0.00  0.00     0.051 C 
BRANCH  45  46
HETATM   46  C   UNK     0     -23.486  15.187   6.835  0.00  0.00     0.114 C 
BRANCH  46  47
HETATM   47  C   UNK     0     -24.869  15.602   6.465  0.00  0.00     0.139 C 
HETATM   48  O   UNK     0     -25.803  14.821   6.694  0.00  0.00    -0.650 OA
BRANCH  47  49
HETATM   49  O   UNK     0     -25.105  16.821   5.881  0.00  0.00    -0.776 OA
HETATM   50  H   UNK     0     -25.915  16.987   5.273  0.00  0.00     0.167 HD
ENDBRANCH  47  49
ENDBRANCH  46  47
ENDBRANCH  45  46
ENDBRANCH  11  45
BRANCH  18  51
HETATM   51  C   UNK     0     -27.356   8.661   8.968  0.00  0.00     0.051 C 
BRANCH  51  52
HETATM   52  C   UNK     0     -28.384   8.938  10.054  0.00  0.00     0.114 C 
BRANCH  52  53
HETATM   53  C   UNK     0     -28.782   7.705  10.761  0.00  0.00     0.139 C 
HETATM   54  O   UNK     0     -28.458   6.596  10.306  0.00  0.00    -0.650 OA
BRANCH  53  55
HETATM   55  O   UNK     0     -29.514   7.791  11.920  0.00  0.00    -0.776 OA
HETATM   56  H   UNK     0     -29.398   8.472  12.634  0.00  0.00     0.167 HD
ENDBRANCH  53  55
ENDBRANCH  52  53
ENDBRANCH  51  52
ENDBRANCH  18  51
TORSDOF 16
ENDMDL
MODEL 15
REMARK VINA RESULT:      -7.6      9.647     15.182
REMARK  16 active torsions:
REMARK  status: ('A' for Active; 'I' for Inactive)
REMARK    1  A    between atoms: C_6  and  C_7 
REMARK    2  A    between atoms: C_7  and  C_8 
REMARK    3  A    between atoms: C_8  and  C_9 
REMARK    4  A    between atoms: C_9  and  O_11 
REMARK    5  A    between atoms: C_16  and  C_17 
REMARK    6  A    between atoms: C_17  and  C_18 
REMARK    7  A    between atoms: C_18  and  C_19 
REMARK    8  A    between atoms: C_19  and  O_21 
REMARK    9  A    between atoms: C_28  and  C_29 
REMARK   10  A    between atoms: C_29  and  C_30 
REMARK   11  A    between atoms: C_30  and  C_31 
REMARK   12  A    between atoms: C_31  and  O_33 
REMARK   13  A    between atoms: C_42  and  C_43 
REMARK   14  A    between atoms: C_43  and  C_44 
REMARK   15  A    between atoms: C_44  and  C_45 
REMARK   16  A    between atoms: C_45  and  O_47 
ROOT
HETATM    1  C   UNK     0     -27.770 -28.469   7.397  0.00  0.00     0.051 C 
HETATM    2  C   UNK     0     -26.804 -27.925   8.430  0.00  0.00    -0.031 A 
HETATM    3  C   UNK     0     -25.449 -27.659   8.313  0.00  0.00     0.021 A 
HETATM    4  N   UNK     0     -24.983 -27.211   9.502  0.00  0.00    -0.361 N 
HETATM    5  C   UNK     0     -26.013 -27.177  10.372  0.00  0.00     0.022 A 
HETATM    6  C   UNK     0     -27.167 -27.619   9.735  0.00  0.00    -0.027 A 
HETATM    7  C   UNK     0     -26.053 -26.674  11.782  0.00  0.00     0.115 C 
HETATM    8  C   UNK     0     -25.321 -25.373  12.062  0.00  0.00     0.021 A 
HETATM    9  N   UNK     0     -25.195 -24.297  11.270  0.00  0.00    -0.361 N 
HETATM   10  C   UNK     0     -24.385 -23.413  11.889  0.00  0.00     0.022 A 
HETATM   11  C   UNK     0     -23.985 -23.930  13.118  0.00  0.00    -0.027 A 
HETATM   12  C   UNK     0     -24.572 -25.164  13.233  0.00  0.00    -0.031 A 
HETATM   13  C   UNK     0     -24.423 -26.095  14.415  0.00  0.00     0.051 C 
HETATM   14  C   UNK     0     -23.913 -22.075  11.326  0.00  0.00     0.115 C 
HETATM   15  C   UNK     0     -23.110 -22.196  10.041  0.00  0.00     0.021 A 
HETATM   16  N   UNK     0     -23.500 -22.749   8.878  0.00  0.00    -0.361 N 
HETATM   17  C   UNK     0     -22.481 -22.721   8.016  0.00  0.00     0.022 A 
HETATM   18  C   UNK     0     -21.376 -22.112   8.645  0.00  0.00    -0.027 A 
HETATM   19  C   UNK     0     -21.784 -21.787   9.913  0.00  0.00    -0.031 A 
HETATM   20  C   UNK     0     -20.905 -21.075  10.925  0.00  0.00     0.051 C 
HETATM   21  C   UNK     0     -22.379 -23.275   6.613  0.00  0.00     0.115 C 
HETATM   22  C   UNK     0     -23.138 -24.546   6.308  0.00  0.00     0.022 A 
HETATM   23  N   UNK     0     -23.283 -25.631   7.079  0.00  0.00    -0.361 N 
HETATM   24  C   UNK     0     -24.156 -26.464   6.478  0.00  0.00     0.021 A 
HETATM   25  C   UNK     0     -24.575 -25.906   5.285  0.00  0.00    -0.031 A 
HETATM   26  C   UNK     0     -25.516 -26.477   4.245  0.00  0.00     0.051 C 
HETATM   27  C   UNK     0     -23.936 -24.678   5.154  0.00  0.00    -0.027 A 
HETATM   28  C   UNK     0     -24.707 -27.775   7.011  0.00  0.00     0.115 C 
HETATM   29  H   UNK     0     -23.921 -26.960   9.730  0.00  0.00     0.165 HD
HETATM   30  H   UNK     0     -25.717 -24.137  10.295  0.00  0.00     0.165 HD
HETATM   31  H   UNK     0     -24.530 -23.123   8.643  0.00  0.00     0.165 HD
HETATM   32  H   UNK     0     -22.737 -25.838   8.036  0.00  0.00     0.165 HD
ENDROOT
BRANCH   6  33
HETATM   33  C   UNK     0     -28.570 -27.775  10.266  0.00  0.00     0.051 C 
BRANCH  33  34
HETATM   34  C   UNK     0     -29.375 -26.520  10.023  0.00  0.00     0.114 C 
BRANCH  34  35
HETATM   35  C   UNK     0     -29.883 -26.053  11.345  0.00  0.00     0.139 C 
HETATM   36  O   UNK     0     -29.219 -25.215  12.023  0.00  0.00    -0.650 OA
BRANCH  35  37
HETATM   37  O   UNK     0     -31.081 -26.500  11.888  0.00  0.00    -0.776 OA
HETATM   38  H   UNK     0     -31.854 -25.878  12.062  0.00  0.00     0.167 HD
ENDBRANCH  35  37
ENDBRANCH  34  35
ENDBRANCH  33  34
ENDBRANCH   6  33
BRANCH  27  39
HETATM   39  C   UNK     0     -24.085 -23.812   3.954  0.00  0.00     0.051 C 
BRANCH  39  40
HETATM   40  C   UNK     0     -23.049 -23.871   2.923  0.00  0.00     0.114 C 
BRANCH  40  41
HETATM   41  C   UNK     0     -21.755 -23.248   3.093  0.00  0.00     0.139 C 
HETATM   42  O   UNK     0     -20.728 -23.876   3.383  0.00  0.00    -0.650 OA
BRANCH  41  43
HETATM   43  O   UNK     0     -21.639 -21.840   2.923  0.00  0.00    -0.776 OA
HETATM   44  H   UNK     0     -20.696 -21.516   2.743  0.00  0.00     0.167 HD
ENDBRANCH  41  43
ENDBRANCH  40  41
ENDBRANCH  39  40
ENDBRANCH  27  39
BRANCH  11  45
HETATM   45  C   UNK     0     -23.092 -23.305  14.156  0.00  0.00     0.051 C 
BRANCH  45  46
HETATM   46  C   UNK     0     -21.642 -23.521  13.918  0.00  0.00     0.114 C 
BRANCH  46  47
HETATM   47  C   UNK     0     -20.933 -22.288  14.365  0.00  0.00     0.139 C 
HETATM   48  O   UNK     0     -19.719 -22.189  14.139  0.00  0.00    -0.650 OA
BRANCH  47  49
HETATM   49  O   UNK     0     -21.608 -21.285  15.014  0.00  0.00    -0.776 OA
HETATM   50  H   UNK     0     -22.439 -21.470  15.588  0.00  0.00     0.167 HD
ENDBRANCH  47  49
ENDBRANCH  46  47
ENDBRANCH  45  46
ENDBRANCH  11  45
BRANCH  18  51
HETATM   51  C   UNK     0     -20.014 -21.837   8.063  0.00  0.00     0.051 C 
BRANCH  51  52
HETATM   52  C   UNK     0     -20.063 -20.417   7.519  0.00  0.00     0.114 C 
BRANCH  52  53
HETATM   53  C   UNK     0     -20.653 -20.366   6.167  0.00  0.00     0.139 C 
HETATM   54  O   UNK     0     -20.020 -20.808   5.196  0.00  0.00    -0.650 OA
BRANCH  53  55
HETATM   55  O   UNK     0     -21.903 -19.825   5.992  0.00  0.00    -0.776 OA
HETATM   56  H   UNK     0     -22.497 -19.480   6.709  0.00  0.00     0.167 HD
ENDBRANCH  53  55
ENDBRANCH  52  53
ENDBRANCH  51  52
ENDBRANCH  18  51
TORSDOF 16
ENDMDL
MODEL 16
REMARK VINA RESULT:      -7.6     29.708     34.038
REMARK  16 active torsions:
REMARK  status: ('A' for Active; 'I' for Inactive)
REMARK    1  A    between atoms: C_6  and  C_7 
REMARK    2  A    between atoms: C_7  and  C_8 
REMARK    3  A    between atoms: C_8  and  C_9 
REMARK    4  A    between atoms: C_9  and  O_11 
REMARK    5  A    between atoms: C_16  and  C_17 
REMARK    6  A    between atoms: C_17  and  C_18 
REMARK    7  A    between atoms: C_18  and  C_19 
REMARK    8  A    between atoms: C_19  and  O_21 
REMARK    9  A    between atoms: C_28  and  C_29 
REMARK   10  A    between atoms: C_29  and  C_30 
REMARK   11  A    between atoms: C_30  and  C_31 
REMARK   12  A    between atoms: C_31  and  O_33 
REMARK   13  A    between atoms: C_42  and  C_43 
REMARK   14  A    between atoms: C_43  and  C_44 
REMARK   15  A    between atoms: C_44  and  C_45 
REMARK   16  A    between atoms: C_45  and  O_47 
ROOT
HETATM    1  C   UNK     0     -25.892   7.905  17.702  0.00  0.00     0.051 C 
HETATM    2  C   UNK     0     -24.434   8.101  17.341  0.00  0.00    -0.031 A 
HETATM    3  C   UNK     0     -23.550   7.219  16.739  0.00  0.00     0.021 A 
HETATM    4  N   UNK     0     -22.336   7.811  16.639  0.00  0.00    -0.361 N 
HETATM    5  C   UNK     0     -22.429   9.053  17.155  0.00  0.00     0.022 A 
HETATM    6  C   UNK     0     -23.727   9.267  17.607  0.00  0.00    -0.027 A 
HETATM    7  C   UNK     0     -21.405  10.144  17.201  0.00  0.00     0.115 C 
HETATM    8  C   UNK     0     -20.575  10.354  15.947  0.00  0.00     0.021 A 
HETATM    9  N   UNK     0     -20.952  10.229  14.665  0.00  0.00    -0.361 N 
HETATM   10  C   UNK     0     -19.865  10.419  13.888  0.00  0.00     0.022 A 
HETATM   11  C   UNK     0     -18.759  10.683  14.691  0.00  0.00    -0.027 A 
HETATM   12  C   UNK     0     -19.200  10.643  15.990  0.00  0.00    -0.031 A 
HETATM   13  C   UNK     0     -18.341  10.877  17.212  0.00  0.00     0.051 C 
HETATM   14  C   UNK     0     -19.813  10.308  12.367  0.00  0.00     0.115 C 
HETATM   15  C   UNK     0     -20.182   8.932  11.837  0.00  0.00     0.021 A 
HETATM   16  N   UNK     0     -21.334   8.261  12.024  0.00  0.00    -0.361 N 
HETATM   17  C   UNK     0     -21.237   7.057  11.456  0.00  0.00     0.022 A 
HETATM   18  C   UNK     0     -19.964   6.940  10.863  0.00  0.00    -0.027 A 
HETATM   19  C   UNK     0     -19.313   8.122  11.108  0.00  0.00    -0.031 A 
HETATM   20  C   UNK     0     -17.915   8.434  10.608  0.00  0.00     0.051 C 
HETATM   21  C   UNK     0     -22.219   5.907  11.444  0.00  0.00     0.115 C 
HETATM   22  C   UNK     0     -23.082   5.713  12.669  0.00  0.00     0.022 A 
HETATM   23  N   UNK     0     -22.734   5.835  13.957  0.00  0.00    -0.361 N 
HETATM   24  C   UNK     0     -23.848   5.719  14.708  0.00  0.00     0.021 A 
HETATM   25  C   UNK     0     -24.937   5.507  13.885  0.00  0.00    -0.031 A 
HETATM   26  C   UNK     0     -26.386   5.278  14.261  0.00  0.00     0.051 C 
HETATM   27  C   UNK     0     -24.472   5.500  12.575  0.00  0.00    -0.027 A 
HETATM   28  C   UNK     0     -23.974   5.877  16.214  0.00  0.00     0.115 C 
HETATM   29  H   UNK     0     -21.412   7.332  16.239  0.00  0.00     0.165 HD
HETATM   30  H   UNK     0     -21.995  10.057  14.303  0.00  0.00     0.165 HD
HETATM   31  H   UNK     0     -22.252   8.663  12.525  0.00  0.00     0.165 HD
HETATM   32  H   UNK     0     -21.692   5.960  14.350  0.00  0.00     0.165 HD
ENDROOT
BRANCH   6  33
HETATM   33  C   UNK     0     -24.338  10.478  18.265  0.00  0.00     0.051 C 
BRANCH  33  34
HETATM   34  C   UNK     0     -24.304  10.344  19.769  0.00  0.00     0.114 C 
BRANCH  34  35
HETATM   35  C   UNK     0     -25.591  10.884  20.295  0.00  0.00     0.139 C 
HETATM   36  O   UNK     0     -26.661  10.733  19.637  0.00  0.00    -0.650 OA
BRANCH  35  37
HETATM   37  O   UNK     0     -25.680  11.562  21.504  0.00  0.00    -0.776 OA
HETATM   38  H   UNK     0     -25.609  11.088  22.390  0.00  0.00     0.167 HD
ENDBRANCH  35  37
ENDBRANCH  34  35
ENDBRANCH  33  34
ENDBRANCH   6  33
BRANCH  27  39
HETATM   39  C   UNK     0     -25.350   5.227  11.405  0.00  0.00     0.051 C 
BRANCH  39  40
HETATM   40  C   UNK     0     -26.200   6.308  10.908  0.00  0.00     0.114 C 
BRANCH  40  41
HETATM   41  C   UNK     0     -27.582   6.095  10.539  0.00  0.00     0.139 C 
HETATM   42  O   UNK     0     -28.325   5.286  11.112  0.00  0.00    -0.650 OA
BRANCH  41  43
HETATM   43  O   UNK     0     -28.133   6.845   9.462  0.00  0.00    -0.776 OA
HETATM   44  H   UNK     0     -28.119   6.368   8.568  0.00  0.00     0.167 HD
ENDBRANCH  41  43
ENDBRANCH  40  41
ENDBRANCH  39  40
ENDBRANCH  27  39
BRANCH  11  45
HETATM   45  C   UNK     0     -17.340  10.965  14.277  0.00  0.00     0.051 C 
BRANCH  45  46
HETATM   46  C   UNK     0     -16.493   9.752  14.148  0.00  0.00     0.114 C 
BRANCH  46  47
HETATM   47  C   UNK     0     -15.612   9.952  12.962  0.00  0.00     0.139 C 
HETATM   48  O   UNK     0     -14.711   9.129  12.748  0.00  0.00    -0.650 OA
BRANCH  47  49
HETATM   49  O   UNK     0     -15.793  11.024  12.125  0.00  0.00    -0.776 OA
HETATM   50  H   UNK     0     -16.479  11.010  11.361  0.00  0.00     0.167 HD
ENDBRANCH  47  49
ENDBRANCH  46  47
ENDBRANCH  45  46
ENDBRANCH  11  45
BRANCH  18  51
HETATM   51  C   UNK     0     -19.407   5.775  10.088  0.00  0.00     0.051 C 
BRANCH  51  52
HETATM   52  C   UNK     0     -18.781   4.842  11.113  0.00  0.00     0.114 C 
BRANCH  52  53
HETATM   53  C   UNK     0     -17.438   4.391  10.698  0.00  0.00     0.139 C 
HETATM   54  O   UNK     0     -16.593   5.220  10.324  0.00  0.00    -0.650 OA
BRANCH  53  55
HETATM   55  O   UNK     0     -17.132   3.052  10.726  0.00  0.00    -0.776 OA
HETATM   56  H   UNK     0     -16.220   2.663  10.777  0.00  0.00     0.167 HD
ENDBRANCH  53  55
ENDBRANCH  52  53
ENDBRANCH  51  52
ENDBRANCH  18  51
TORSDOF 16
ENDMDL
MODEL 17
REMARK VINA RESULT:      -7.6     16.241     20.230
REMARK  16 active torsions:
REMARK  status: ('A' for Active; 'I' for Inactive)
REMARK    1  A    between atoms: C_6  and  C_7 
REMARK    2  A    between atoms: C_7  and  C_8 
REMARK    3  A    between atoms: C_8  and  C_9 
REMARK    4  A    between atoms: C_9  and  O_11 
REMARK    5  A    between atoms: C_16  and  C_17 
REMARK    6  A    between atoms: C_17  and  C_18 
REMARK    7  A    between atoms: C_18  and  C_19 
REMARK    8  A    between atoms: C_19  and  O_21 
REMARK    9  A    between atoms: C_28  and  C_29 
REMARK   10  A    between atoms: C_29  and  C_30 
REMARK   11  A    between atoms: C_30  and  C_31 
REMARK   12  A    between atoms: C_31  and  O_33 
REMARK   13  A    between atoms: C_42  and  C_43 
REMARK   14  A    between atoms: C_43  and  C_44 
REMARK   15  A    between atoms: C_44  and  C_45 
REMARK   16  A    between atoms: C_45  and  O_47 
ROOT
HETATM    1  C   UNK     0     -25.862 -20.563  -0.240  0.00  0.00     0.051 C 
HETATM    2  C   UNK     0     -27.112 -20.004  -0.888  0.00  0.00    -0.031 A 
HETATM    3  C   UNK     0     -27.309 -18.779  -1.507  0.00  0.00     0.021 A 
HETATM    4  N   UNK     0     -28.597 -18.693  -1.915  0.00  0.00    -0.361 N 
HETATM    5  C   UNK     0     -29.224 -19.839  -1.577  0.00  0.00     0.022 A 
HETATM    6  C   UNK     0     -28.324 -20.680  -0.930  0.00  0.00    -0.027 A 
HETATM    7  C   UNK     0     -30.620 -20.287  -1.879  0.00  0.00     0.115 C 
HETATM    8  C   UNK     0     -31.134 -20.014  -3.282  0.00  0.00     0.021 A 
HETATM    9  N   UNK     0     -30.457 -20.043  -4.441  0.00  0.00    -0.361 N 
HETATM   10  C   UNK     0     -31.292 -19.645  -5.424  0.00  0.00     0.022 A 
HETATM   11  C   UNK     0     -32.543 -19.360  -4.885  0.00  0.00    -0.027 A 
HETATM   12  C   UNK     0     -32.451 -19.591  -3.536  0.00  0.00    -0.031 A 
HETATM   13  C   UNK     0     -33.575 -19.418  -2.540  0.00  0.00     0.051 C 
HETATM   14  C   UNK     0     -30.931 -19.466  -6.896  0.00  0.00     0.115 C 
HETATM   15  C   UNK     0     -29.846 -18.430  -7.142  0.00  0.00     0.021 A 
HETATM   16  N   UNK     0     -28.593 -18.420  -6.651  0.00  0.00    -0.361 N 
HETATM   17  C   UNK     0     -27.976 -17.304  -7.045  0.00  0.00     0.022 A 
HETATM   18  C   UNK     0     -28.867 -16.555  -7.839  0.00  0.00    -0.027 A 
HETATM   19  C   UNK     0     -30.034 -17.271  -7.893  0.00  0.00    -0.031 A 
HETATM   20  C   UNK     0     -31.256 -16.836  -8.682  0.00  0.00     0.051 C 
HETATM   21  C   UNK     0     -26.596 -16.786  -6.708  0.00  0.00     0.115 C 
HETATM   22  C   UNK     0     -26.054 -17.087  -5.331  0.00  0.00     0.022 A 
HETATM   23  N   UNK     0     -26.706 -17.070  -4.161  0.00  0.00    -0.361 N 
HETATM   24  C   UNK     0     -25.878 -17.545  -3.208  0.00  0.00     0.021 A 
HETATM   25  C   UNK     0     -24.660 -17.866  -3.777  0.00  0.00    -0.031 A 
HETATM   26  C   UNK     0     -23.406 -18.393  -3.111  0.00  0.00     0.051 C 
HETATM   27  C   UNK     0     -24.749 -17.581  -5.135  0.00  0.00    -0.027 A 
HETATM   28  C   UNK     0     -26.194 -17.800  -1.745  0.00  0.00     0.115 C 
HETATM   29  H   UNK     0     -29.066 -17.808  -2.404  0.00  0.00     0.165 HD
HETATM   30  H   UNK     0     -29.404 -20.393  -4.576  0.00  0.00     0.165 HD
HETATM   31  H   UNK     0     -28.117 -19.241  -6.053  0.00  0.00     0.165 HD
HETATM   32  H   UNK     0     -27.743 -16.682  -3.988  0.00  0.00     0.165 HD
ENDROOT
BRANCH   6  33
HETATM   33  C   UNK     0     -28.527 -22.059  -0.354  0.00  0.00     0.051 C 
BRANCH  33  34
HETATM   34  C   UNK     0     -29.232 -21.983   0.979  0.00  0.00     0.114 C 
BRANCH  34  35
HETATM   35  C   UNK     0     -30.408 -22.899   0.915  0.00  0.00     0.139 C 
HETATM   36  O   UNK     0     -30.783 -23.376  -0.195  0.00  0.00    -0.650 OA
BRANCH  35  37
HETATM   37  O   UNK     0     -31.133 -23.268   2.041  0.00  0.00    -0.776 OA
HETATM   38  H   UNK     0     -31.333 -22.618   2.785  0.00  0.00     0.167 HD
ENDBRANCH  35  37
ENDBRANCH  34  35
ENDBRANCH  33  34
ENDBRANCH   6  33
BRANCH  27  39
HETATM   39  C   UNK     0     -23.602 -17.732  -6.071  0.00  0.00     0.051 C 
BRANCH  39  40
HETATM   40  C   UNK     0     -22.817 -16.544  -6.404  0.00  0.00     0.114 C 
BRANCH  40  41
HETATM   41  C   UNK     0     -23.299 -15.532  -7.317  0.00  0.00     0.139 C 
HETATM   42  O   UNK     0     -23.192 -15.615  -8.548  0.00  0.00    -0.650 OA
BRANCH  41  43
HETATM   43  O   UNK     0     -23.935 -14.372  -6.790  0.00  0.00    -0.776 OA
HETATM   44  H   UNK     0     -24.916 -14.288  -7.025  0.00  0.00     0.167 HD
ENDBRANCH  41  43
ENDBRANCH  40  41
ENDBRANCH  39  40
ENDBRANCH  27  39
BRANCH  11  45
HETATM   45  C   UNK     0     -33.788 -18.893  -5.590  0.00  0.00     0.051 C 
BRANCH  45  46
HETATM   46  C   UNK     0     -33.730 -17.482  -6.051  0.00  0.00     0.114 C 
BRANCH  46  47
HETATM   47  C   UNK     0     -34.920 -16.784  -5.485  0.00  0.00     0.139 C 
HETATM   48  O   UNK     0     -35.743 -17.445  -4.837  0.00  0.00    -0.650 OA
BRANCH  47  49
HETATM   49  O   UNK     0     -35.103 -15.438  -5.679  0.00  0.00    -0.776 OA
HETATM   50  H   UNK     0     -35.977 -15.056  -6.061  0.00  0.00     0.167 HD
ENDBRANCH  47  49
ENDBRANCH  46  47
ENDBRANCH  45  46
ENDBRANCH  11  45
BRANCH  18  51
HETATM   51  C   UNK     0     -28.613 -15.238  -8.526  0.00  0.00     0.051 C 
BRANCH  51  52
HETATM   52  C   UNK     0     -27.726 -15.546  -9.722  0.00  0.00     0.114 C 
BRANCH  52  53
HETATM   53  C   UNK     0     -26.410 -14.886  -9.616  0.00  0.00     0.139 C 
HETATM   54  O   UNK     0     -26.228 -13.997  -8.769  0.00  0.00    -0.650 OA
BRANCH  53  55
HETATM   55  O   UNK     0     -25.393 -15.257 -10.461  0.00  0.00    -0.776 OA
HETATM   56  H   UNK     0     -24.562 -15.733 -10.201  0.00  0.00     0.167 HD
ENDBRANCH  53  55
ENDBRANCH  52  53
ENDBRANCH  51  52
ENDBRANCH  18  51
TORSDOF 16
ENDMDL
MODEL 18
REMARK VINA RESULT:      -7.4     34.484     37.549
REMARK  16 active torsions:
REMARK  status: ('A' for Active; 'I' for Inactive)
REMARK    1  A    between atoms: C_6  and  C_7 
REMARK    2  A    between atoms: C_7  and  C_8 
REMARK    3  A    between atoms: C_8  and  C_9 
REMARK    4  A    between atoms: C_9  and  O_11 
REMARK    5  A    between atoms: C_16  and  C_17 
REMARK    6  A    between atoms: C_17  and  C_18 
REMARK    7  A    between atoms: C_18  and  C_19 
REMARK    8  A    between atoms: C_19  and  O_21 
REMARK    9  A    between atoms: C_28  and  C_29 
REMARK   10  A    between atoms: C_29  and  C_30 
REMARK   11  A    between atoms: C_30  and  C_31 
REMARK   12  A    between atoms: C_31  and  O_33 
REMARK   13  A    between atoms: C_42  and  C_43 
REMARK   14  A    between atoms: C_43  and  C_44 
REMARK   15  A    between atoms: C_44  and  C_45 
REMARK   16  A    between atoms: C_45  and  O_47 
ROOT
HETATM    1  C   UNK     0     -12.680 -24.306 -14.980  0.00  0.00     0.051 C 
HETATM    2  C   UNK     0     -12.806 -23.544 -16.284  0.00  0.00    -0.031 A 
HETATM    3  C   UNK     0     -13.946 -23.155 -16.969  0.00  0.00     0.021 A 
HETATM    4  N   UNK     0     -13.582 -22.521 -18.109  0.00  0.00    -0.361 N 
HETATM    5  C   UNK     0     -12.234 -22.490 -18.161  0.00  0.00     0.022 A 
HETATM    6  C   UNK     0     -11.716 -23.124 -17.036  0.00  0.00    -0.027 A 
HETATM    7  C   UNK     0     -11.335 -21.829 -19.158  0.00  0.00     0.115 C 
HETATM    8  C   UNK     0     -11.729 -20.434 -19.612  0.00  0.00     0.021 A 
HETATM    9  N   UNK     0     -12.304 -19.454 -18.899  0.00  0.00    -0.361 N 
HETATM   10  C   UNK     0     -12.558 -18.423 -19.732  0.00  0.00     0.022 A 
HETATM   11  C   UNK     0     -12.125 -18.744 -21.015  0.00  0.00    -0.027 A 
HETATM   12  C   UNK     0     -11.602 -20.010 -20.947  0.00  0.00    -0.031 A 
HETATM   13  C   UNK     0     -11.004 -20.772 -22.108  0.00  0.00     0.051 C 
HETATM   14  C   UNK     0     -13.263 -17.120 -19.365  0.00  0.00     0.115 C 
HETATM   15  C   UNK     0     -14.686 -17.310 -18.866  0.00  0.00     0.021 A 
HETATM   16  N   UNK     0     -15.096 -18.036 -17.809  0.00  0.00    -0.361 N 
HETATM   17  C   UNK     0     -16.429 -18.005 -17.747  0.00  0.00     0.022 A 
HETATM   18  C   UNK     0     -16.911 -17.214 -18.808  0.00  0.00    -0.027 A 
HETATM   19  C   UNK     0     -15.809 -16.783 -19.501  0.00  0.00    -0.031 A 
HETATM   20  C   UNK     0     -15.877 -15.867 -20.709  0.00  0.00     0.051 C 
HETATM   21  C   UNK     0     -17.374 -18.710 -16.800  0.00  0.00     0.115 C 
HETATM   22  C   UNK     0     -16.973 -20.080 -16.305  0.00  0.00     0.022 A 
HETATM   23  N   UNK     0     -16.395 -21.074 -16.992  0.00  0.00    -0.361 N 
HETATM   24  C   UNK     0     -16.081 -22.059 -16.127  0.00  0.00     0.021 A 
HETATM   25  C   UNK     0     -16.476 -21.695 -14.854  0.00  0.00    -0.031 A 
HETATM   26  C   UNK     0     -16.375 -22.482 -13.563  0.00  0.00     0.051 C 
HETATM   27  C   UNK     0     -17.050 -20.432 -14.942  0.00  0.00    -0.027 A 
HETATM   28  C   UNK     0     -15.331 -23.348 -16.418  0.00  0.00     0.115 C 
HETATM   29  H   UNK     0     -14.279 -22.135 -18.888  0.00  0.00     0.165 HD
HETATM   30  H   UNK     0     -12.488 -19.468 -17.797  0.00  0.00     0.165 HD
HETATM   31  H   UNK     0     -14.429 -18.541 -17.063  0.00  0.00     0.165 HD
HETATM   32  H   UNK     0     -16.242 -21.107 -18.102  0.00  0.00     0.165 HD
ENDROOT
BRANCH   6  33
HETATM   33  C   UNK     0     -10.284 -23.359 -16.628  0.00  0.00     0.051 C 
BRANCH  33  34
HETATM   34  C   UNK     0      -9.786 -24.681 -17.163  0.00  0.00     0.114 C 
BRANCH  34  35
HETATM   35  C   UNK     0      -8.454 -24.940 -16.544  0.00  0.00     0.139 C 
HETATM   36  O   UNK     0      -8.355 -25.104 -15.293  0.00  0.00    -0.650 OA
BRANCH  35  37
HETATM   37  O   UNK     0      -7.284 -25.015 -17.289  0.00  0.00    -0.776 OA
HETATM   38  H   UNK     0      -6.791 -24.192 -17.594  0.00  0.00     0.167 HD
ENDBRANCH  35  37
ENDBRANCH  34  35
ENDBRANCH  33  34
ENDBRANCH   6  33
BRANCH  27  39
HETATM   39  C   UNK     0     -17.660 -19.736 -13.778  0.00  0.00     0.051 C 
BRANCH  39  40
HETATM   40  C   UNK     0     -16.819 -18.838 -12.987  0.00  0.00     0.114 C 
BRANCH  40  41
HETATM   41  C   UNK     0     -16.438 -19.140 -11.625  0.00  0.00     0.139 C 
HETATM   42  O   UNK     0     -17.031 -19.963 -10.915  0.00  0.00    -0.650 OA
BRANCH  41  43
HETATM   43  O   UNK     0     -15.323 -18.463 -11.054  0.00  0.00    -0.776 OA
HETATM   44  H   UNK     0     -14.484 -18.483 -11.622  0.00  0.00     0.167 HD
ENDBRANCH  41  43
ENDBRANCH  40  41
ENDBRANCH  39  40
ENDBRANCH  27  39
BRANCH  11  45
HETATM   45  C   UNK     0     -12.189 -17.910 -22.267  0.00  0.00     0.051 C 
BRANCH  45  46
HETATM   46  C   UNK     0     -11.252 -16.757 -22.275  0.00  0.00     0.114 C 
BRANCH  46  47
HETATM   47  C   UNK     0      -9.973 -17.231 -22.876  0.00  0.00     0.139 C 
HETATM   48  O   UNK     0     -10.023 -17.951 -23.883  0.00  0.00    -0.650 OA
BRANCH  47  49
HETATM   49  O   UNK     0      -8.766 -16.881 -22.326  0.00  0.00    -0.776 OA
HETATM   50  H   UNK     0      -7.949 -16.650 -22.904  0.00  0.00     0.167 HD
ENDBRANCH  47  49
ENDBRANCH  46  47
ENDBRANCH  45  46
ENDBRANCH  11  45
BRANCH  18  51
HETATM   51  C   UNK     0     -18.341 -16.870 -19.132  0.00  0.00     0.051 C 
BRANCH  51  52
HETATM   52  C   UNK     0     -18.756 -15.795 -18.139  0.00  0.00     0.114 C 
BRANCH  52  53
HETATM   53  C   UNK     0     -19.322 -14.611 -18.814  0.00  0.00     0.139 C 
HETATM   54  O   UNK     0     -20.501 -14.281 -18.607  0.00  0.00    -0.650 OA
BRANCH  53  55
HETATM   55  O   UNK     0     -18.539 -13.881 -19.675  0.00  0.00    -0.776 OA
HETATM   56  H   UNK     0     -17.548 -13.907 -19.728  0.00  0.00     0.167 HD
ENDBRANCH  53  55
ENDBRANCH  52  53
ENDBRANCH  51  52
ENDBRANCH  18  51
TORSDOF 16
ENDMDL
MODEL 19
REMARK VINA RESULT:      -7.3     30.601     35.287
REMARK  16 active torsions:
REMARK  status: ('A' for Active; 'I' for Inactive)
REMARK    1  A    between atoms: C_6  and  C_7 
REMARK    2  A    between atoms: C_7  and  C_8 
REMARK    3  A    between atoms: C_8  and  C_9 
REMARK    4  A    between atoms: C_9  and  O_11 
REMARK    5  A    between atoms: C_16  and  C_17 
REMARK    6  A    between atoms: C_17  and  C_18 
REMARK    7  A    between atoms: C_18  and  C_19 
REMARK    8  A    between atoms: C_19  and  O_21 
REMARK    9  A    between atoms: C_28  and  C_29 
REMARK   10  A    between atoms: C_29  and  C_30 
REMARK   11  A    between atoms: C_30  and  C_31 
REMARK   12  A    between atoms: C_31  and  O_33 
REMARK   13  A    between atoms: C_42  and  C_43 
REMARK   14  A    between atoms: C_43  and  C_44 
REMARK   15  A    between atoms: C_44  and  C_45 
REMARK   16  A    between atoms: C_45  and  O_47 
ROOT
HETATM    1  C   UNK     0     -16.080   8.376   9.435  0.00  0.00     0.051 C 
HETATM    2  C   UNK     0     -17.329   8.153  10.264  0.00  0.00    -0.031 A 
HETATM    3  C   UNK     0     -18.235   9.078  10.756  0.00  0.00     0.021 A 
HETATM    4  N   UNK     0     -19.184   8.429  11.473  0.00  0.00    -0.361 N 
HETATM    5  C   UNK     0     -18.906   7.109  11.440  0.00  0.00     0.022 A 
HETATM    6  C   UNK     0     -17.751   6.901  10.695  0.00  0.00    -0.027 A 
HETATM    7  C   UNK     0     -19.689   5.958  11.991  0.00  0.00     0.115 C 
HETATM    8  C   UNK     0     -21.193   5.999  11.791  0.00  0.00     0.021 A 
HETATM    9  N   UNK     0     -21.885   6.472  10.743  0.00  0.00    -0.361 N 
HETATM   10  C   UNK     0     -23.200   6.390  11.037  0.00  0.00     0.022 A 
HETATM   11  C   UNK     0     -23.360   5.841  12.306  0.00  0.00    -0.027 A 
HETATM   12  C   UNK     0     -22.100   5.592  12.786  0.00  0.00    -0.031 A 
HETATM   13  C   UNK     0     -21.783   4.987  14.136  0.00  0.00     0.051 C 
HETATM   14  C   UNK     0     -24.352   6.873  10.160  0.00  0.00     0.115 C 
HETATM   15  C   UNK     0     -24.319   8.365   9.868  0.00  0.00     0.021 A 
HETATM   16  N   UNK     0     -23.336   9.063   9.269  0.00  0.00    -0.361 N 
HETATM   17  C   UNK     0     -23.659  10.359   9.264  0.00  0.00     0.022 A 
HETATM   18  C   UNK     0     -24.917  10.510   9.881  0.00  0.00    -0.027 A 
HETATM   19  C   UNK     0     -25.320   9.254  10.253  0.00  0.00    -0.031 A 
HETATM   20  C   UNK     0     -26.649   8.959  10.925  0.00  0.00     0.051 C 
HETATM   21  C   UNK     0     -22.872  11.555   8.780  0.00  0.00     0.115 C 
HETATM   22  C   UNK     0     -21.369  11.509   8.932  0.00  0.00     0.022 A 
HETATM   23  N   UNK     0     -20.654  11.040   9.963  0.00  0.00    -0.361 N 
HETATM   24  C   UNK     0     -19.351  11.059   9.617  0.00  0.00     0.021 A 
HETATM   25  C   UNK     0     -19.223  11.562   8.336  0.00  0.00    -0.031 A 
HETATM   26  C   UNK     0     -17.965  11.813   7.531  0.00  0.00     0.051 C 
HETATM   27  C   UNK     0     -20.502  11.857   7.877  0.00  0.00    -0.027 A 
HETATM   28  C   UNK     0     -18.169  10.541  10.418  0.00  0.00     0.115 C 
HETATM   29  H   UNK     0     -20.020   8.912  12.029  0.00  0.00     0.165 HD
HETATM   30  H   UNK     0     -21.450   6.818   9.774  0.00  0.00     0.165 HD
HETATM   31  H   UNK     0     -22.417   8.629   8.797  0.00  0.00     0.165 HD
HETATM   32  H   UNK     0     -21.059  10.731  10.961  0.00  0.00     0.165 HD
ENDROOT
BRANCH   6  33
HETATM   33  C   UNK     0     -17.025   5.621  10.367  0.00  0.00     0.051 C 
BRANCH  33  34
HETATM   34  C   UNK     0     -15.758   5.501  11.181  0.00  0.00     0.114 C 
BRANCH  34  35
HETATM   35  C   UNK     0     -14.864   4.538  10.476  0.00  0.00     0.139 C 
HETATM   36  O   UNK     0     -14.527   3.454  11.036  0.00  0.00    -0.650 OA
BRANCH  35  37
HETATM   37  O   UNK     0     -14.369   4.773   9.199  0.00  0.00    -0.776 OA
HETATM   38  H   UNK     0     -13.715   5.514   9.008  0.00  0.00     0.167 HD
ENDBRANCH  35  37
ENDBRANCH  34  35
ENDBRANCH  33  34
ENDBRANCH   6  33
BRANCH  27  39
HETATM   39  C   UNK     0     -20.763  12.488   6.555  0.00  0.00     0.051 C 
BRANCH  39  40
HETATM   40  C   UNK     0     -20.956  13.937   6.503  0.00  0.00     0.114 C 
BRANCH  40  41
HETATM   41  C   UNK     0     -19.846  14.863   6.505  0.00  0.00     0.139 C 
HETATM   42  O   UNK     0     -19.501  15.518   5.512  0.00  0.00    -0.650 OA
BRANCH  41  43
HETATM   43  O   UNK     0     -19.098  15.044   7.703  0.00  0.00    -0.776 OA
HETATM   44  H   UNK     0     -19.329  14.392   8.443  0.00  0.00     0.167 HD
ENDBRANCH  41  43
ENDBRANCH  40  41
ENDBRANCH  39  40
ENDBRANCH  27  39
BRANCH  11  45
HETATM   45  C   UNK     0     -24.634   5.550  13.053  0.00  0.00     0.051 C 
BRANCH  45  46
HETATM   46  C   UNK     0     -25.052   6.631  13.981  0.00  0.00     0.114 C 
BRANCH  46  47
HETATM   47  C   UNK     0     -25.300   6.001  15.309  0.00  0.00     0.139 C 
HETATM   48  O   UNK     0     -26.378   5.420  15.497  0.00  0.00    -0.650 OA
BRANCH  47  49
HETATM   49  O   UNK     0     -24.358   6.064  16.304  0.00  0.00    -0.776 OA
HETATM   50  H   UNK     0     -24.384   5.441  17.120  0.00  0.00     0.167 HD
ENDBRANCH  47  49
ENDBRANCH  46  47
ENDBRANCH  45  46
ENDBRANCH  11  45
BRANCH  18  51
HETATM   51  C   UNK     0     -25.702  11.780  10.085  0.00  0.00     0.051 C 
BRANCH  51  52
HETATM   52  C   UNK     0     -26.629  11.905   8.885  0.00  0.00     0.114 C 
BRANCH  52  53
HETATM   53  C   UNK     0     -28.032  12.112   9.295  0.00  0.00     0.139 C 
HETATM   54  O   UNK     0     -28.303  12.915  10.201  0.00  0.00    -0.650 OA
BRANCH  53  55
HETATM   55  O   UNK     0     -29.033  11.407   8.670  0.00  0.00    -0.776 OA
HETATM   56  H   UNK     0     -29.066  11.170   7.707  0.00  0.00     0.167 HD
ENDBRANCH  53  55
ENDBRANCH  52  53
ENDBRANCH  51  52
ENDBRANCH  18  51
TORSDOF 16
ENDMDL
MODEL 20
REMARK VINA RESULT:      -7.3     28.009     32.162
REMARK  16 active torsions:
REMARK  status: ('A' for Active; 'I' for Inactive)
REMARK    1  A    between atoms: C_6  and  C_7 
REMARK    2  A    between atoms: C_7  and  C_8 
REMARK    3  A    between atoms: C_8  and  C_9 
REMARK    4  A    between atoms: C_9  and  O_11 
REMARK    5  A    between atoms: C_16  and  C_17 
REMARK    6  A    between atoms: C_17  and  C_18 
REMARK    7  A    between atoms: C_18  and  C_19 
REMARK    8  A    between atoms: C_19  and  O_21 
REMARK    9  A    between atoms: C_28  and  C_29 
REMARK   10  A    between atoms: C_29  and  C_30 
REMARK   11  A    between atoms: C_30  and  C_31 
REMARK   12  A    between atoms: C_31  and  O_33 
REMARK   13  A    between atoms: C_42  and  C_43 
REMARK   14  A    between atoms: C_43  and  C_44 
REMARK   15  A    between atoms: C_44  and  C_45 
REMARK   16  A    between atoms: C_45  and  O_47 
ROOT
HETATM    1  C   UNK     0     -33.009  11.394  14.766  0.00  0.00     0.051 C 
HETATM    2  C   UNK     0     -31.768  11.286  13.905  0.00  0.00    -0.031 A 
HETATM    3  C   UNK     0     -30.473  10.947  14.266  0.00  0.00     0.021 A 
HETATM    4  N   UNK     0     -29.679  11.010  13.171  0.00  0.00    -0.361 N 
HETATM    5  C   UNK     0     -30.441  11.373  12.118  0.00  0.00     0.022 A 
HETATM    6  C   UNK     0     -31.752  11.557  12.543  0.00  0.00    -0.027 A 
HETATM    7  C   UNK     0     -30.071  11.495  10.673  0.00  0.00     0.115 C 
HETATM    8  C   UNK     0     -29.192  10.398  10.099  0.00  0.00     0.021 A 
HETATM    9  N   UNK     0     -29.193   9.088  10.390  0.00  0.00    -0.361 N 
HETATM   10  C   UNK     0     -28.181   8.507   9.711  0.00  0.00     0.022 A 
HETATM   11  C   UNK     0     -27.517   9.468   8.954  0.00  0.00    -0.027 A 
HETATM   12  C   UNK     0     -28.149  10.661   9.194  0.00  0.00    -0.031 A 
HETATM   13  C   UNK     0     -27.770  11.990   8.578  0.00  0.00     0.051 C 
HETATM   14  C   UNK     0     -27.769   7.040   9.788  0.00  0.00     0.115 C 
HETATM   15  C   UNK     0     -27.340   6.593  11.177  0.00  0.00     0.021 A 
HETATM   16  N   UNK     0     -28.063   6.633  12.312  0.00  0.00    -0.361 N 
HETATM   17  C   UNK     0     -27.305   6.217  13.329  0.00  0.00     0.022 A 
HETATM   18  C   UNK     0     -26.031   5.881  12.831  0.00  0.00    -0.027 A 
HETATM   19  C   UNK     0     -26.066   6.119  11.482  0.00  0.00    -0.031 A 
HETATM   20  C   UNK     0     -24.900   5.854  10.547  0.00  0.00     0.051 C 
HETATM   21  C   UNK     0     -27.617   6.142  14.806  0.00  0.00     0.115 C 
HETATM   22  C   UNK     0     -28.527   7.202  15.382  0.00  0.00     0.022 A 
HETATM   23  N   UNK     0     -28.551   8.513  15.107  0.00  0.00    -0.361 N 
HETATM   24  C   UNK     0     -29.614   9.057  15.734  0.00  0.00     0.021 A 
HETATM   25  C   UNK     0     -30.284   8.075  16.437  0.00  0.00    -0.031 A 
HETATM   26  C   UNK     0     -31.506   8.202  17.323  0.00  0.00     0.051 C 
HETATM   27  C   UNK     0     -29.607   6.879  16.228  0.00  0.00    -0.027 A 
HETATM   28  C   UNK     0     -30.109  10.491  15.650  0.00  0.00     0.115 C 
HETATM   29  H   UNK     0     -28.578  10.836  13.157  0.00  0.00     0.165 HD
HETATM   30  H   UNK     0     -29.937   8.561  11.036  0.00  0.00     0.165 HD
HETATM   31  H   UNK     0     -29.145   6.916  12.390  0.00  0.00     0.165 HD
HETATM   32  H   UNK     0     -27.793   9.075  14.503  0.00  0.00     0.165 HD
ENDROOT
BRANCH   6  33
HETATM   33  C   UNK     0     -32.976  11.968  11.763  0.00  0.00     0.051 C 
BRANCH  33  34
HETATM   34  C   UNK     0     -33.644  10.764  11.143  0.00  0.00     0.114 C 
BRANCH  34  35
HETATM   35  C   UNK     0     -34.925  11.227  10.536  0.00  0.00     0.139 C 
HETATM   36  O   UNK     0     -34.920  11.840   9.428  0.00  0.00    -0.650 OA
BRANCH  35  37
HETATM   37  O   UNK     0     -36.159  11.015  11.137  0.00  0.00    -0.776 OA
HETATM   38  H   UNK     0     -36.811  10.329  10.791  0.00  0.00     0.167 HD
ENDBRANCH  35  37
ENDBRANCH  34  35
ENDBRANCH  33  34
ENDBRANCH   6  33
BRANCH  27  39
HETATM   39  C   UNK     0     -29.994   5.602  16.886  0.00  0.00     0.051 C 
BRANCH  39  40
HETATM   40  C   UNK     0     -28.988   4.897  17.680  0.00  0.00     0.114 C 
BRANCH  40  41
HETATM   41  C   UNK     0     -28.618   3.525  17.414  0.00  0.00     0.139 C 
HETATM   42  O   UNK     0     -28.681   3.006  16.291  0.00  0.00    -0.650 OA
BRANCH  41  43
HETATM   43  O   UNK     0     -28.154   2.714  18.488  0.00  0.00    -0.776 OA
HETATM   44  H   UNK     0     -27.568   1.938  18.203  0.00  0.00     0.167 HD
ENDBRANCH  41  43
ENDBRANCH  40  41
ENDBRANCH  39  40
ENDBRANCH  27  39
BRANCH  11  45
HETATM   45  C   UNK     0     -26.338   9.293   8.035  0.00  0.00     0.051 C 
BRANCH  45  46
HETATM   46  C   UNK     0     -25.045   9.095   8.739  0.00  0.00     0.114 C 
BRANCH  46  47
HETATM   47  C   UNK     0     -24.567  10.440   9.170  0.00  0.00     0.139 C 
HETATM   48  O   UNK     0     -24.492  10.680  10.383  0.00  0.00    -0.650 OA
BRANCH  47  49
HETATM   49  O   UNK     0     -24.219  11.392   8.246  0.00  0.00    -0.776 OA
HETATM   50  H   UNK     0     -23.513  12.111   8.444  0.00  0.00     0.167 HD
ENDBRANCH  47  49
ENDBRANCH  46  47
ENDBRANCH  45  46
ENDBRANCH  11  45
BRANCH  18  51
HETATM   51  C   UNK     0     -24.850   5.341  13.596  0.00  0.00     0.051 C 
BRANCH  51  52
HETATM   52  C   UNK     0     -24.303   6.503  14.411  0.00  0.00     0.114 C 
BRANCH  52  53
HETATM   53  C   UNK     0     -23.776   6.059  15.716  0.00  0.00     0.139 C 
HETATM   54  O   UNK     0     -22.551   6.014  15.909  0.00  0.00    -0.650 OA
BRANCH  53  55
HETATM   55  O   UNK     0     -24.649   5.694  16.712  0.00  0.00    -0.776 OA
HETATM   56  H   UNK     0     -24.552   4.911  17.315  0.00  0.00     0.167 HD
ENDBRANCH  53  55
ENDBRANCH  52  53
ENDBRANCH  51  52
ENDBRANCH  18  51
TORSDOF 16
ENDMDL
