MODEL 1
REMARK VINA RESULT:     -10.1      0.000      0.000
REMARK  28 active torsions:
REMARK  status: ('A' for Active; 'I' for Inactive)
REMARK    1  A    between atoms: C_2  and  O_3 
REMARK    2  A    between atoms: C_2  and  C_4 
REMARK    3  A    between atoms: C_4  and  C_5 
REMARK    4  A    between atoms: C_5  and  C_6 
REMARK    5  A    between atoms: C_7  and  C_8 
REMARK    6  A    between atoms: C_8  and  C_9 
REMARK    7  A    between atoms: C_9  and  O_11 
REMARK    8  A    between atoms: C_28  and  C_29 
REMARK    9  A    between atoms: C_29  and  C_30 
REMARK   10  A    between atoms: C_30  and  O_32 
REMARK   11  A    between atoms: C_33  and  C_34 
REMARK   12  A    between atoms: C_34  and  C_35 
REMARK   13  A    between atoms: C_35  and  C_36 
REMARK   14  A    between atoms: C_36  and  O_38 
REMARK   15  A    between atoms: C_39  and  C_40 
REMARK   16  A    between atoms: C_40  and  C_41 
REMARK   17  A    between atoms: C_41  and  C_42 
REMARK   18  A    between atoms: C_42  and  O_44 
REMARK   19  A    between atoms: C_45  and  C_46 
REMARK   20  A    between atoms: C_46  and  C_47 
REMARK   21  A    between atoms: C_47  and  O_49 
REMARK   22  A    between atoms: C_50  and  C_51 
REMARK   23  A    between atoms: C_51  and  C_52 
REMARK   24  A    between atoms: C_52  and  O_54 
REMARK   25  A    between atoms: C_55  and  C_56 
REMARK   26  A    between atoms: C_56  and  C_57 
REMARK   27  A    between atoms: C_57  and  C_58 
REMARK   28  A    between atoms: C_58  and  O_60 
ROOT
ATOM      1  O   UNK d   0     -22.987  -4.931 -18.434  0.00  0.00    -0.650 OA
ATOM      2  C   UNK d   0     -22.951  -4.081 -19.351  0.00  0.00     0.139 C 
ENDROOT
BRANCH   2   3
ATOM      3  O   UNK d   0     -23.287  -2.777 -19.074  0.00  0.00    -0.776 OA
ATOM      4  H   UNK d   0     -24.029  -2.303 -19.593  0.00  0.00     0.167 HD
ENDBRANCH   2   3
BRANCH   2   5
ATOM      5  C   UNK d   0     -22.548  -4.483 -20.728  0.00  0.00     0.115 C 
BRANCH   5   6
ATOM      6  C   UNK d   0     -22.124  -5.927 -20.743  0.00  0.00     0.052 C 
BRANCH   6   7
ATOM      7  C   UNK d   0     -22.466  -6.619 -22.040  0.00  0.00    -0.020 A 
ATOM      8  C   UNK d   0     -23.390  -7.524 -22.243  0.00  0.00    -0.011 A 
ATOM      9  C   UNK d   0     -23.342  -7.903 -23.645  0.00  0.00     0.067 A 
ATOM     10  C   UNK d   0     -24.053  -8.776 -24.483  0.00  0.00     0.062 C 
ATOM     11  N   UNK d   0     -22.355  -7.184 -24.221  0.00  0.00    -0.248 NA
ATOM     12  C   UNK d   0     -24.044  -8.803 -25.882  0.00  0.00     0.041 A 
ATOM     13  N   UNK d   0     -23.033  -8.691 -26.764  0.00  0.00    -0.355 N 
ATOM     14  C   UNK d   0     -25.267  -8.909 -26.568  0.00  0.00    -0.022 A 
ATOM     15  C   UNK d   0     -23.584  -8.715 -27.992  0.00  0.00     0.042 A 
ATOM     16  H   UNK d   0     -21.950  -8.616 -26.524  0.00  0.00     0.166 HD
ATOM     17  C   UNK d   0     -22.984  -8.634 -29.265  0.00  0.00     0.062 C 
ATOM     18  C   UNK d   0     -24.984  -8.850 -27.910  0.00  0.00    -0.013 A 
ATOM     19  C   UNK d   0     -22.002  -7.783 -29.702  0.00  0.00     0.067 A 
ATOM     20  N   UNK d   0     -21.374  -7.055 -28.774  0.00  0.00    -0.248 NA
ATOM     21  C   UNK d   0     -21.429  -7.421 -30.988  0.00  0.00    -0.011 A 
ATOM     22  C   UNK d   0     -20.434  -6.244 -29.360  0.00  0.00     0.066 A 
ATOM     23  C   UNK d   0     -19.678  -5.457 -28.503  0.00  0.00     0.062 C 
ATOM     24  C   UNK d   0     -20.515  -6.517 -30.782  0.00  0.00    -0.020 A 
ATOM     25  C   UNK d   0     -19.694  -5.455 -27.100  0.00  0.00     0.041 A 
ATOM     26  N   UNK d   0     -20.700  -5.551 -26.223  0.00  0.00    -0.355 N 
ATOM     27  C   UNK d   0     -18.465  -5.353 -26.412  0.00  0.00    -0.022 A 
ATOM     28  C   UNK d   0     -20.154  -5.518 -24.997  0.00  0.00     0.042 A 
ATOM     29  H   UNK d   0     -21.789  -5.615 -26.465  0.00  0.00     0.166 HD
ATOM     30  C   UNK d   0     -20.740  -5.589 -23.723  0.00  0.00     0.062 C 
ATOM     31  C   UNK d   0     -18.747  -5.393 -25.081  0.00  0.00    -0.013 A 
ATOM     32  C   UNK d   0     -21.790  -6.392 -23.309  0.00  0.00     0.066 A 
BRANCH   8  33
ATOM     33  C   UNK d   0     -24.320  -8.078 -21.242  0.00  0.00     0.151 C 
BRANCH  33  34
ATOM     34  C   UNK d   0     -25.029  -7.033 -20.481  0.00  0.00     0.143 C 
ATOM     35  O   UNK d   0     -25.121  -7.096 -19.247  0.00  0.00    -0.650 OA
BRANCH  34  36
ATOM     36  O   UNK d   0     -25.597  -5.976 -21.154  0.00  0.00    -0.776 OA
ATOM     37  H   UNK d   0     -25.367  -5.003 -20.911  0.00  0.00     0.167 HD
ENDBRANCH  34  36
ENDBRANCH  33  34
ENDBRANCH   8  33
BRANCH  31  38
ATOM     38  C   UNK d   0     -17.741  -5.330 -23.955  0.00  0.00     0.151 C 
BRANCH  38  39
ATOM     39  C   UNK d   0     -17.658  -4.018 -23.349  0.00  0.00     0.143 C 
ATOM     40  O   UNK d   0     -17.307  -3.011 -23.989  0.00  0.00    -0.650 OA
BRANCH  39  41
ATOM     41  O   UNK d   0     -17.980  -3.862 -22.002  0.00  0.00    -0.776 OA
ATOM     42  H   UNK d   0     -17.988  -4.711 -21.428  0.00  0.00     0.167 HD
ENDBRANCH  39  41
ENDBRANCH  38  39
ENDBRANCH  31  38
BRANCH  27  43
ATOM     43  C   UNK d   0     -17.067  -5.220 -26.962  0.00  0.00     0.052 C 
BRANCH  43  44
ATOM     44  C   UNK d   0     -16.260  -6.471 -26.833  0.00  0.00     0.115 C 
BRANCH  44  45
ATOM     45  C   UNK d   0     -15.588  -6.680 -28.142  0.00  0.00     0.139 C 
ATOM     46  O   UNK d   0     -16.288  -7.066 -29.111  0.00  0.00    -0.650 OA
BRANCH  45  47
ATOM     47  O   UNK d   0     -14.241  -6.462 -28.335  0.00  0.00    -0.776 OA
ATOM     48  H   UNK d   0     -13.529  -7.195 -28.189  0.00  0.00     0.167 HD
ENDBRANCH  45  47
ENDBRANCH  44  45
ENDBRANCH  43  44
ENDBRANCH  27  43
BRANCH  24  49
ATOM     49  C   UNK d   0     -19.658  -5.899 -31.807  0.00  0.00     0.052 C 
BRANCH  49  50
ATOM     50  C   UNK d   0     -18.347  -6.637 -31.909  0.00  0.00     0.115 C 
BRANCH  50  51
ATOM     51  C   UNK d   0     -17.923  -7.058 -33.238  0.00  0.00     0.139 C 
ATOM     52  O   UNK d   0     -18.733  -7.279 -34.168  0.00  0.00    -0.650 OA
BRANCH  51  53
ATOM     53  O   UNK d   0     -16.573  -7.229 -33.505  0.00  0.00    -0.776 OA
ATOM     54  H   UNK d   0     -15.932  -7.231 -32.731  0.00  0.00     0.167 HD
ENDBRANCH  51  53
ENDBRANCH  50  51
ENDBRANCH  49  50
ENDBRANCH  24  49
BRANCH  21  55
ATOM     55  C   UNK d   0     -21.852  -8.020 -32.289  0.00  0.00     0.151 C 
BRANCH  55  56
ATOM     56  C   UNK d   0     -21.383  -9.407 -32.435  0.00  0.00     0.143 C 
ATOM     57  O   UNK d   0     -22.126 -10.392 -32.258  0.00  0.00    -0.650 OA
BRANCH  56  58
ATOM     58  O   UNK d   0     -20.050  -9.607 -32.789  0.00  0.00    -0.776 OA
ATOM     59  H   UNK d   0     -19.371  -9.484 -32.017  0.00  0.00     0.167 HD
ENDBRANCH  56  58
ENDBRANCH  55  56
ENDBRANCH  21  55
BRANCH  18  60
ATOM     60  C   UNK d   0     -26.009  -8.919 -29.014  0.00  0.00     0.151 C 
BRANCH  60  61
ATOM     61  C   UNK d   0     -26.295  -7.525 -29.387  0.00  0.00     0.143 C 
ATOM     62  O   UNK d   0     -26.852  -6.672 -28.697  0.00  0.00    -0.650 OA
BRANCH  61  63
ATOM     63  O   UNK d   0     -25.872  -7.150 -30.685  0.00  0.00    -0.776 OA
ATOM     64  H   UNK d   0     -26.524  -6.793 -31.360  0.00  0.00     0.167 HD
ENDBRANCH  61  63
ENDBRANCH  60  61
ENDBRANCH  18  60
BRANCH  14  65
ATOM     65  C   UNK d   0     -26.659  -9.158 -26.060  0.00  0.00     0.052 C 
BRANCH  65  66
ATOM     66  C   UNK d   0     -27.314  -7.930 -25.534  0.00  0.00     0.115 C 
BRANCH  66  67
ATOM     67  C   UNK d   0     -27.639  -7.838 -24.139  0.00  0.00     0.139 C 
ATOM     68  O   UNK d   0     -28.729  -8.382 -23.725  0.00  0.00    -0.650 OA
BRANCH  67  69
ATOM     69  O   UNK d   0     -26.905  -7.215 -23.131  0.00  0.00    -0.776 OA
ATOM     70  H   UNK d   0     -25.882  -7.317 -23.193  0.00  0.00     0.167 HD
ENDBRANCH  67  69
ENDBRANCH  66  67
ENDBRANCH  65  66
ENDBRANCH  14  65
ENDBRANCH   6   7
ENDBRANCH   5   6
ENDBRANCH   2   5
TORSDOF 28
ENDMDL
MODEL 2
REMARK VINA RESULT:      -9.8      1.550      7.208
REMARK  28 active torsions:
REMARK  status: ('A' for Active; 'I' for Inactive)
REMARK    1  A    between atoms: C_2  and  O_3 
REMARK    2  A    between atoms: C_2  and  C_4 
REMARK    3  A    between atoms: C_4  and  C_5 
REMARK    4  A    between atoms: C_5  and  C_6 
REMARK    5  A    between atoms: C_7  and  C_8 
REMARK    6  A    between atoms: C_8  and  C_9 
REMARK    7  A    between atoms: C_9  and  O_11 
REMARK    8  A    between atoms: C_28  and  C_29 
REMARK    9  A    between atoms: C_29  and  C_30 
REMARK   10  A    between atoms: C_30  and  O_32 
REMARK   11  A    between atoms: C_33  and  C_34 
REMARK   12  A    between atoms: C_34  and  C_35 
REMARK   13  A    between atoms: C_35  and  C_36 
REMARK   14  A    between atoms: C_36  and  O_38 
REMARK   15  A    between atoms: C_39  and  C_40 
REMARK   16  A    between atoms: C_40  and  C_41 
REMARK   17  A    between atoms: C_41  and  C_42 
REMARK   18  A    between atoms: C_42  and  O_44 
REMARK   19  A    between atoms: C_45  and  C_46 
REMARK   20  A    between atoms: C_46  and  C_47 
REMARK   21  A    between atoms: C_47  and  O_49 
REMARK   22  A    between atoms: C_50  and  C_51 
REMARK   23  A    between atoms: C_51  and  C_52 
REMARK   24  A    between atoms: C_52  and  O_54 
REMARK   25  A    between atoms: C_55  and  C_56 
REMARK   26  A    between atoms: C_56  and  C_57 
REMARK   27  A    between atoms: C_57  and  C_58 
REMARK   28  A    between atoms: C_58  and  O_60 
ROOT
ATOM      1  O   UNK d   0     -26.506  -9.292 -22.070  0.00  0.00    -0.650 OA
ATOM      2  C   UNK d   0     -26.389  -8.064 -22.275  0.00  0.00     0.139 C 
ENDROOT
BRANCH   2   3
ATOM      3  O   UNK d   0     -27.166  -7.464 -23.236  0.00  0.00    -0.776 OA
ATOM      4  H   UNK d   0     -27.156  -6.450 -23.366  0.00  0.00     0.167 HD
ENDBRANCH   2   3
BRANCH   2   5
ATOM      5  C   UNK d   0     -25.412  -7.263 -21.483  0.00  0.00     0.115 C 
BRANCH   5   6
ATOM      6  C   UNK d   0     -24.069  -7.940 -21.480  0.00  0.00     0.052 C 
BRANCH   6   7
ATOM      7  C   UNK d   0     -23.105  -7.325 -22.466  0.00  0.00    -0.020 A 
ATOM      8  C   UNK d   0     -22.239  -6.370 -22.246  0.00  0.00    -0.011 A 
ATOM      9  C   UNK d   0     -21.542  -6.104 -23.493  0.00  0.00     0.067 A 
ATOM     10  C   UNK d   0     -20.516  -5.245 -23.917  0.00  0.00     0.062 C 
ATOM     11  N   UNK d   0     -22.052  -6.939 -24.423  0.00  0.00    -0.248 NA
ATOM     12  C   UNK d   0     -19.778  -5.327 -25.103  0.00  0.00     0.041 A 
ATOM     13  N   UNK d   0     -20.161  -5.584 -26.368  0.00  0.00    -0.355 N 
ATOM     14  C   UNK d   0     -18.380  -5.180 -25.047  0.00  0.00    -0.022 A 
ATOM     15  C   UNK d   0     -19.041  -5.612 -27.115  0.00  0.00     0.042 A 
ATOM     16  H   UNK d   0     -21.203  -5.724 -26.730  0.00  0.00     0.166 HD
ATOM     17  C   UNK d   0     -18.869  -5.836 -28.496  0.00  0.00     0.062 C 
ATOM     18  C   UNK d   0     -17.904  -5.363 -26.322  0.00  0.00    -0.013 A 
ATOM     19  C   UNK d   0     -19.445  -6.793 -29.292  0.00  0.00     0.067 A 
ATOM     20  N   UNK d   0     -20.452  -7.493 -28.764  0.00  0.00    -0.248 NA
ATOM     21  C   UNK d   0     -19.236  -7.295 -30.640  0.00  0.00    -0.011 A 
ATOM     22  C   UNK d   0     -20.915  -8.417 -29.668  0.00  0.00     0.066 A 
ATOM     23  C   UNK d   0     -21.992  -9.192 -29.261  0.00  0.00     0.062 C 
ATOM     24  C   UNK d   0     -20.096  -8.248 -30.852  0.00  0.00    -0.020 A 
ATOM     25  C   UNK d   0     -22.727  -9.085 -28.070  0.00  0.00     0.041 A 
ATOM     26  N   UNK d   0     -22.345  -8.844 -26.810  0.00  0.00    -0.355 N 
ATOM     27  C   UNK d   0     -24.130  -9.229 -28.128  0.00  0.00    -0.022 A 
ATOM     28  C   UNK d   0     -23.460  -8.825 -26.062  0.00  0.00     0.042 A 
ATOM     29  H   UNK d   0     -21.296  -8.715 -26.447  0.00  0.00     0.166 HD
ATOM     30  C   UNK d   0     -23.644  -8.612 -24.687  0.00  0.00     0.062 C 
ATOM     31  C   UNK d   0     -24.602  -9.065 -26.862  0.00  0.00    -0.013 A 
ATOM     32  C   UNK d   0     -22.996  -7.700 -23.868  0.00  0.00     0.066 A 
BRANCH   8  33
ATOM     33  C   UNK d   0     -21.999  -5.670 -20.970  0.00  0.00     0.151 C 
BRANCH  33  34
ATOM     34  C   UNK d   0     -22.863  -4.488 -20.796  0.00  0.00     0.143 C 
ATOM     35  O   UNK d   0     -23.408  -3.949 -21.770  0.00  0.00    -0.650 OA
BRANCH  34  36
ATOM     36  O   UNK d   0     -23.064  -3.979 -19.534  0.00  0.00    -0.776 OA
ATOM     37  H   UNK d   0     -22.581  -3.126 -19.219  0.00  0.00     0.167 HD
ENDBRANCH  34  36
ENDBRANCH  33  34
ENDBRANCH   8  33
BRANCH  31  38
ATOM     38  C   UNK d   0     -26.051  -9.119 -26.436  0.00  0.00     0.151 C 
BRANCH  38  39
ATOM     39  C   UNK d   0     -26.776  -7.908 -26.758  0.00  0.00     0.143 C 
ATOM     40  O   UNK d   0     -27.498  -7.325 -25.930  0.00  0.00    -0.650 OA
BRANCH  39  41
ATOM     41  O   UNK d   0     -26.670  -7.364 -28.037  0.00  0.00    -0.776 OA
ATOM     42  H   UNK d   0     -26.507  -8.021 -28.806  0.00  0.00     0.167 HD
ENDBRANCH  39  41
ENDBRANCH  38  39
ENDBRANCH  31  38
BRANCH  27  43
ATOM     43  C   UNK d   0     -25.017  -9.511 -29.315  0.00  0.00     0.052 C 
BRANCH  43  44
ATOM     44  C   UNK d   0     -25.658 -10.860 -29.266  0.00  0.00     0.115 C 
BRANCH  44  45
ATOM     45  C   UNK d   0     -24.577 -11.853 -29.499  0.00  0.00     0.139 C 
ATOM     46  O   UNK d   0     -24.425 -12.772 -28.656  0.00  0.00    -0.650 OA
BRANCH  45  47
ATOM     47  O   UNK d   0     -23.745 -11.808 -30.596  0.00  0.00    -0.776 OA
ATOM     48  H   UNK d   0     -23.226 -10.959 -30.872  0.00  0.00     0.167 HD
ENDBRANCH  45  47
ENDBRANCH  44  45
ENDBRANCH  43  44
ENDBRANCH  27  43
BRANCH  24  49
ATOM     49  C   UNK d   0     -20.260  -9.008 -32.103  0.00  0.00     0.052 C 
BRANCH  49  50
ATOM     50  C   UNK d   0     -21.368  -8.415 -32.936  0.00  0.00     0.115 C 
BRANCH  50  51
ATOM     51  C   UNK d   0     -22.686  -9.025 -32.819  0.00  0.00     0.139 C 
ATOM     52  O   UNK d   0     -22.891 -10.241 -33.045  0.00  0.00    -0.650 OA
BRANCH  51  53
ATOM     53  O   UNK d   0     -23.771  -8.246 -32.447  0.00  0.00    -0.776 OA
ATOM     54  H   UNK d   0     -24.407  -8.613 -31.760  0.00  0.00     0.167 HD
ENDBRANCH  51  53
ENDBRANCH  50  51
ENDBRANCH  49  50
ENDBRANCH  24  49
BRANCH  21  55
ATOM     55  C   UNK d   0     -18.200  -6.767 -31.576  0.00  0.00     0.151 C 
BRANCH  55  56
ATOM     56  C   UNK d   0     -17.031  -7.655 -31.664  0.00  0.00     0.143 C 
ATOM     57  O   UNK d   0     -16.387  -7.822 -32.719  0.00  0.00    -0.650 OA
BRANCH  56  58
ATOM     58  O   UNK d   0     -16.641  -8.331 -30.509  0.00  0.00    -0.776 OA
ATOM     59  H   UNK d   0     -15.618  -8.369 -30.350  0.00  0.00     0.167 HD
ENDBRANCH  56  58
ENDBRANCH  55  56
ENDBRANCH  21  55
BRANCH  18  60
ATOM     60  C   UNK d   0     -16.450  -5.300 -26.719  0.00  0.00     0.151 C 
BRANCH  60  61
ATOM     61  C   UNK d   0     -15.998  -6.696 -26.818  0.00  0.00     0.143 C 
ATOM     62  O   UNK d   0     -15.984  -7.538 -25.919  0.00  0.00    -0.650 OA
BRANCH  61  63
ATOM     63  O   UNK d   0     -15.534  -7.089 -28.096  0.00  0.00    -0.776 OA
ATOM     64  H   UNK d   0     -15.763  -6.557 -28.917  0.00  0.00     0.167 HD
ENDBRANCH  61  63
ENDBRANCH  60  61
ENDBRANCH  18  60
BRANCH  14  65
ATOM     65  C   UNK d   0     -17.480  -4.786 -23.911  0.00  0.00     0.052 C 
BRANCH  65  66
ATOM     66  C   UNK d   0     -17.412  -3.314 -23.706  0.00  0.00     0.115 C 
BRANCH  66  67
ATOM     67  C   UNK d   0     -16.400  -2.760 -22.851  0.00  0.00     0.139 C 
ATOM     68  O   UNK d   0     -15.867  -1.637 -23.179  0.00  0.00    -0.650 OA
BRANCH  67  69
ATOM     69  O   UNK d   0     -15.897  -3.297 -21.666  0.00  0.00    -0.776 OA
ATOM     70  H   UNK d   0     -15.219  -2.709 -21.161  0.00  0.00     0.167 HD
ENDBRANCH  67  69
ENDBRANCH  66  67
ENDBRANCH  65  66
ENDBRANCH  14  65
ENDBRANCH   6   7
ENDBRANCH   5   6
ENDBRANCH   2   5
TORSDOF 28
ENDMDL
MODEL 3
REMARK VINA RESULT:      -9.4      1.539      6.987
REMARK  28 active torsions:
REMARK  status: ('A' for Active; 'I' for Inactive)
REMARK    1  A    between atoms: C_2  and  O_3 
REMARK    2  A    between atoms: C_2  and  C_4 
REMARK    3  A    between atoms: C_4  and  C_5 
REMARK    4  A    between atoms: C_5  and  C_6 
REMARK    5  A    between atoms: C_7  and  C_8 
REMARK    6  A    between atoms: C_8  and  C_9 
REMARK    7  A    between atoms: C_9  and  O_11 
REMARK    8  A    between atoms: C_28  and  C_29 
REMARK    9  A    between atoms: C_29  and  C_30 
REMARK   10  A    between atoms: C_30  and  O_32 
REMARK   11  A    between atoms: C_33  and  C_34 
REMARK   12  A    between atoms: C_34  and  C_35 
REMARK   13  A    between atoms: C_35  and  C_36 
REMARK   14  A    between atoms: C_36  and  O_38 
REMARK   15  A    between atoms: C_39  and  C_40 
REMARK   16  A    between atoms: C_40  and  C_41 
REMARK   17  A    between atoms: C_41  and  C_42 
REMARK   18  A    between atoms: C_42  and  O_44 
REMARK   19  A    between atoms: C_45  and  C_46 
REMARK   20  A    between atoms: C_46  and  C_47 
REMARK   21  A    between atoms: C_47  and  O_49 
REMARK   22  A    between atoms: C_50  and  C_51 
REMARK   23  A    between atoms: C_51  and  C_52 
REMARK   24  A    between atoms: C_52  and  O_54 
REMARK   25  A    between atoms: C_55  and  C_56 
REMARK   26  A    between atoms: C_56  and  C_57 
REMARK   27  A    between atoms: C_57  and  C_58 
REMARK   28  A    between atoms: C_58  and  O_60 
ROOT
ATOM      1  O   UNK d   0     -24.532  -7.486 -18.552  0.00  0.00    -0.650 OA
ATOM      2  C   UNK d   0     -24.198  -8.642 -18.892  0.00  0.00     0.139 C 
ENDROOT
BRANCH   2   3
ATOM      3  O   UNK d   0     -24.255  -9.659 -17.969  0.00  0.00    -0.776 OA
ATOM      4  H   UNK d   0     -25.065  -9.770 -17.356  0.00  0.00     0.167 HD
ENDBRANCH   2   3
BRANCH   2   5
ATOM      5  C   UNK d   0     -23.743  -8.910 -20.286  0.00  0.00     0.115 C 
BRANCH   5   6
ATOM      6  C   UNK d   0     -24.381  -7.933 -21.235  0.00  0.00     0.052 C 
BRANCH   6   7
ATOM      7  C   UNK d   0     -23.387  -7.321 -22.193  0.00  0.00    -0.020 A 
ATOM      8  C   UNK d   0     -22.515  -6.377 -21.944  0.00  0.00    -0.011 A 
ATOM      9  C   UNK d   0     -21.785  -6.110 -23.173  0.00  0.00     0.067 A 
ATOM     10  C   UNK d   0     -20.739  -5.260 -23.565  0.00  0.00     0.062 C 
ATOM     11  N   UNK d   0     -22.282  -6.933 -24.120  0.00  0.00    -0.248 NA
ATOM     12  C   UNK d   0     -19.975  -5.341 -24.733  0.00  0.00     0.041 A 
ATOM     13  N   UNK d   0     -20.329  -5.585 -26.010  0.00  0.00    -0.355 N 
ATOM     14  C   UNK d   0     -18.577  -5.210 -24.643  0.00  0.00    -0.022 A 
ATOM     15  C   UNK d   0     -19.192  -5.619 -26.729  0.00  0.00     0.042 A 
ATOM     16  H   UNK d   0     -21.364  -5.710 -26.397  0.00  0.00     0.166 HD
ATOM     17  C   UNK d   0     -18.989  -5.836 -28.107  0.00  0.00     0.062 C 
ATOM     18  C   UNK d   0     -18.072  -5.389 -25.907  0.00  0.00    -0.013 A 
ATOM     19  C   UNK d   0     -19.557  -6.779 -28.924  0.00  0.00     0.067 A 
ATOM     20  N   UNK d   0     -20.584  -7.472 -28.426  0.00  0.00    -0.248 NA
ATOM     21  C   UNK d   0     -19.320  -7.274 -30.271  0.00  0.00    -0.011 A 
ATOM     22  C   UNK d   0     -21.035  -8.384 -29.348  0.00  0.00     0.066 A 
ATOM     23  C   UNK d   0     -22.130  -9.149 -28.973  0.00  0.00     0.062 C 
ATOM     24  C   UNK d   0     -20.186  -8.216 -30.511  0.00  0.00    -0.020 A 
ATOM     25  C   UNK d   0     -22.892  -9.044 -27.800  0.00  0.00     0.041 A 
ATOM     26  N   UNK d   0     -22.539  -8.816 -26.529  0.00  0.00    -0.355 N 
ATOM     27  C   UNK d   0     -24.295  -9.170 -27.892  0.00  0.00    -0.022 A 
ATOM     28  C   UNK d   0     -23.670  -8.790 -25.808  0.00  0.00     0.042 A 
ATOM     29  H   UNK d   0     -21.497  -8.701 -26.139  0.00  0.00     0.166 HD
ATOM     30  C   UNK d   0     -23.886  -8.585 -24.436  0.00  0.00     0.062 C 
ATOM     31  C   UNK d   0     -24.796  -9.011 -26.637  0.00  0.00    -0.013 A 
ATOM     32  C   UNK d   0     -23.248  -7.687 -23.595  0.00  0.00     0.066 A 
BRANCH   8  33
ATOM     33  C   UNK d   0     -22.298  -5.690 -20.658  0.00  0.00     0.151 C 
BRANCH  33  34
ATOM     34  C   UNK d   0     -23.018  -4.407 -20.568  0.00  0.00     0.143 C 
ATOM     35  O   UNK d   0     -23.534  -3.895 -21.572  0.00  0.00    -0.650 OA
BRANCH  34  36
ATOM     36  O   UNK d   0     -23.114  -3.770 -19.353  0.00  0.00    -0.776 OA
ATOM     37  H   UNK d   0     -23.835  -3.056 -19.179  0.00  0.00     0.167 HD
ENDBRANCH  34  36
ENDBRANCH  33  34
ENDBRANCH   8  33
BRANCH  31  38
ATOM     38  C   UNK d   0     -26.255  -9.051 -26.247  0.00  0.00     0.151 C 
BRANCH  38  39
ATOM     39  C   UNK d   0     -26.861  -7.738 -26.201  0.00  0.00     0.143 C 
ATOM     40  O   UNK d   0     -26.913  -6.994 -27.197  0.00  0.00    -0.650 OA
BRANCH  39  41
ATOM     41  O   UNK d   0     -27.411  -7.277 -25.006  0.00  0.00    -0.776 OA
ATOM     42  H   UNK d   0     -27.445  -6.261 -24.875  0.00  0.00     0.167 HD
ENDBRANCH  39  41
ENDBRANCH  38  39
ENDBRANCH  31  38
BRANCH  27  43
ATOM     43  C   UNK d   0     -25.156  -9.434 -29.103  0.00  0.00     0.052 C 
BRANCH  43  44
ATOM     44  C   UNK d   0     -25.424  -8.209 -29.916  0.00  0.00     0.115 C 
BRANCH  44  45
ATOM     45  C   UNK d   0     -24.540  -8.290 -31.108  0.00  0.00     0.139 C 
ATOM     46  O   UNK d   0     -24.571  -9.339 -31.797  0.00  0.00    -0.650 OA
BRANCH  45  47
ATOM     47  O   UNK d   0     -23.701  -7.265 -31.487  0.00  0.00    -0.776 OA
ATOM     48  H   UNK d   0     -23.706  -6.857 -32.436  0.00  0.00     0.167 HD
ENDBRANCH  45  47
ENDBRANCH  44  45
ENDBRANCH  43  44
ENDBRANCH  27  43
BRANCH  24  49
ATOM     49  C   UNK d   0     -20.328  -8.964 -31.772  0.00  0.00     0.052 C 
BRANCH  49  50
ATOM     50  C   UNK d   0     -19.908 -10.399 -31.580  0.00  0.00     0.115 C 
BRANCH  50  51
ATOM     51  C   UNK d   0     -18.544 -10.748 -31.953  0.00  0.00     0.139 C 
ATOM     52  O   UNK d   0     -18.136 -10.711 -33.138  0.00  0.00    -0.650 OA
BRANCH  51  53
ATOM     53  O   UNK d   0     -17.644 -11.142 -30.974  0.00  0.00    -0.776 OA
ATOM     54  H   UNK d   0     -17.637 -10.638 -30.105  0.00  0.00     0.167 HD
ENDBRANCH  51  53
ENDBRANCH  50  51
ENDBRANCH  49  50
ENDBRANCH  24  49
BRANCH  21  55
ATOM     55  C   UNK d   0     -18.256  -6.750 -31.178  0.00  0.00     0.151 C 
BRANCH  55  56
ATOM     56  C   UNK d   0     -17.096  -7.653 -31.245  0.00  0.00     0.143 C 
ATOM     57  O   UNK d   0     -16.445  -7.838 -32.293  0.00  0.00    -0.650 OA
BRANCH  56  58
ATOM     58  O   UNK d   0     -16.724  -8.320 -30.080  0.00  0.00    -0.776 OA
ATOM     59  H   UNK d   0     -15.709  -8.504 -29.988  0.00  0.00     0.167 HD
ENDBRANCH  56  58
ENDBRANCH  55  56
ENDBRANCH  21  55
BRANCH  18  60
ATOM     60  C   UNK d   0     -16.608  -5.340 -26.268  0.00  0.00     0.151 C 
BRANCH  60  61
ATOM     61  C   UNK d   0     -16.190  -6.739 -26.449  0.00  0.00     0.143 C 
ATOM     62  O   UNK d   0     -15.719  -7.246 -27.468  0.00  0.00    -0.650 OA
BRANCH  61  63
ATOM     63  O   UNK d   0     -16.357  -7.570 -25.316  0.00  0.00    -0.776 OA
ATOM     64  H   UNK d   0     -17.010  -8.333 -25.325  0.00  0.00     0.167 HD
ENDBRANCH  61  63
ENDBRANCH  60  61
ENDBRANCH  18  60
BRANCH  14  65
ATOM     65  C   UNK d   0     -17.700  -4.835 -23.482  0.00  0.00     0.052 C 
BRANCH  65  66
ATOM     66  C   UNK d   0     -17.511  -3.366 -23.346  0.00  0.00     0.115 C 
BRANCH  66  67
ATOM     67  C   UNK d   0     -16.197  -2.803 -23.473  0.00  0.00     0.139 C 
ATOM     68  O   UNK d   0     -16.058  -1.531 -23.337  0.00  0.00    -0.650 OA
BRANCH  67  69
ATOM     69  O   UNK d   0     -15.003  -3.473 -23.734  0.00  0.00    -0.776 OA
ATOM     70  H   UNK d   0     -14.211  -2.882 -24.024  0.00  0.00     0.167 HD
ENDBRANCH  67  69
ENDBRANCH  66  67
ENDBRANCH  65  66
ENDBRANCH  14  65
ENDBRANCH   6   7
ENDBRANCH   5   6
ENDBRANCH   2   5
TORSDOF 28
ENDMDL
MODEL 4
REMARK VINA RESULT:      -9.3      1.725      8.749
REMARK  28 active torsions:
REMARK  status: ('A' for Active; 'I' for Inactive)
REMARK    1  A    between atoms: C_2  and  O_3 
REMARK    2  A    between atoms: C_2  and  C_4 
REMARK    3  A    between atoms: C_4  and  C_5 
REMARK    4  A    between atoms: C_5  and  C_6 
REMARK    5  A    between atoms: C_7  and  C_8 
REMARK    6  A    between atoms: C_8  and  C_9 
REMARK    7  A    between atoms: C_9  and  O_11 
REMARK    8  A    between atoms: C_28  and  C_29 
REMARK    9  A    between atoms: C_29  and  C_30 
REMARK   10  A    between atoms: C_30  and  O_32 
REMARK   11  A    between atoms: C_33  and  C_34 
REMARK   12  A    between atoms: C_34  and  C_35 
REMARK   13  A    between atoms: C_35  and  C_36 
REMARK   14  A    between atoms: C_36  and  O_38 
REMARK   15  A    between atoms: C_39  and  C_40 
REMARK   16  A    between atoms: C_40  and  C_41 
REMARK   17  A    between atoms: C_41  and  C_42 
REMARK   18  A    between atoms: C_42  and  O_44 
REMARK   19  A    between atoms: C_45  and  C_46 
REMARK   20  A    between atoms: C_46  and  C_47 
REMARK   21  A    between atoms: C_47  and  O_49 
REMARK   22  A    between atoms: C_50  and  C_51 
REMARK   23  A    between atoms: C_51  and  C_52 
REMARK   24  A    between atoms: C_52  and  O_54 
REMARK   25  A    between atoms: C_55  and  C_56 
REMARK   26  A    between atoms: C_56  and  C_57 
REMARK   27  A    between atoms: C_57  and  C_58 
REMARK   28  A    between atoms: C_58  and  O_60 
ROOT
ATOM      1  O   UNK d   0     -13.765  -5.557 -28.076  0.00  0.00    -0.650 OA
ATOM      2  C   UNK d   0     -14.803  -5.848 -27.442  0.00  0.00     0.139 C 
ENDROOT
BRANCH   2   3
ATOM      3  O   UNK d   0     -15.093  -5.176 -26.279  0.00  0.00    -0.776 OA
ATOM      4  H   UNK d   0     -15.382  -5.678 -25.437  0.00  0.00     0.167 HD
ENDBRANCH   2   3
BRANCH   2   5
ATOM      5  C   UNK d   0     -15.712  -6.916 -27.945  0.00  0.00     0.115 C 
BRANCH   5   6
ATOM      6  C   UNK d   0     -16.450  -6.436 -29.165  0.00  0.00     0.052 C 
BRANCH   6   7
ATOM      7  C   UNK d   0     -17.913  -6.806 -29.144  0.00  0.00    -0.020 A 
ATOM      8  C   UNK d   0     -18.666  -7.143 -30.159  0.00  0.00    -0.011 A 
ATOM      9  C   UNK d   0     -20.004  -7.403 -29.654  0.00  0.00     0.067 A 
ATOM     10  C   UNK d   0     -21.231  -7.811 -30.200  0.00  0.00     0.062 C 
ATOM     11  N   UNK d   0     -19.976  -7.195 -28.321  0.00  0.00    -0.248 NA
ATOM     12  C   UNK d   0     -22.353  -8.280 -29.507  0.00  0.00     0.041 A 
ATOM     13  N   UNK d   0     -22.937  -7.851 -28.372  0.00  0.00    -0.355 N 
ATOM     14  C   UNK d   0     -23.013  -9.429 -29.980  0.00  0.00    -0.022 A 
ATOM     15  C   UNK d   0     -23.947  -8.702 -28.109  0.00  0.00     0.042 A 
ATOM     16  H   UNK d   0     -22.654  -6.953 -27.780  0.00  0.00     0.166 HD
ATOM     17  C   UNK d   0     -24.876  -8.717 -27.050  0.00  0.00     0.062 C 
ATOM     18  C   UNK d   0     -24.025  -9.705 -29.095  0.00  0.00    -0.013 A 
ATOM     19  C   UNK d   0     -24.658  -8.531 -25.709  0.00  0.00     0.067 A 
ATOM     20  N   UNK d   0     -23.453  -8.083 -25.348  0.00  0.00    -0.248 NA
ATOM     21  C   UNK d   0     -25.429  -8.715 -24.490  0.00  0.00    -0.011 A 
ATOM     22  C   UNK d   0     -23.379  -7.962 -23.982  0.00  0.00     0.066 A 
ATOM     23  C   UNK d   0     -22.188  -7.468 -23.471  0.00  0.00     0.062 C 
ATOM     24  C   UNK d   0     -24.673  -8.384 -23.483  0.00  0.00    -0.020 A 
ATOM     25  C   UNK d   0     -21.078  -6.990 -24.184  0.00  0.00     0.041 A 
ATOM     26  N   UNK d   0     -20.488  -7.425 -25.304  0.00  0.00    -0.355 N 
ATOM     27  C   UNK d   0     -20.418  -5.834 -23.712  0.00  0.00    -0.022 A 
ATOM     28  C   UNK d   0     -19.475  -6.583 -25.564  0.00  0.00     0.042 A 
ATOM     29  H   UNK d   0     -20.767  -8.334 -25.892  0.00  0.00     0.166 HD
ATOM     30  C   UNK d   0     -18.537  -6.562 -26.608  0.00  0.00     0.062 C 
ATOM     31  C   UNK d   0     -19.403  -5.569 -24.579  0.00  0.00    -0.013 A 
ATOM     32  C   UNK d   0     -18.747  -6.834 -27.951  0.00  0.00     0.066 A 
BRANCH   8  33
ATOM     33  C   UNK d   0     -18.255  -7.242 -31.572  0.00  0.00     0.151 C 
BRANCH  33  34
ATOM     34  C   UNK d   0     -18.907  -6.235 -32.428  0.00  0.00     0.143 C 
ATOM     35  O   UNK d   0     -19.556  -5.303 -31.933  0.00  0.00    -0.650 OA
BRANCH  34  36
ATOM     36  O   UNK d   0     -18.794  -6.335 -33.795  0.00  0.00    -0.776 OA
ATOM     37  H   UNK d   0     -18.960  -5.524 -34.406  0.00  0.00     0.167 HD
ENDBRANCH  34  36
ENDBRANCH  33  34
ENDBRANCH   8  33
BRANCH  31  38
ATOM     38  C   UNK d   0     -18.431  -4.417 -24.488  0.00  0.00     0.151 C 
BRANCH  38  39
ATOM     39  C   UNK d   0     -17.304  -4.700 -23.624  0.00  0.00     0.143 C 
ATOM     40  O   UNK d   0     -16.406  -5.500 -23.942  0.00  0.00    -0.650 OA
BRANCH  39  41
ATOM     41  O   UNK d   0     -17.208  -4.059 -22.389  0.00  0.00    -0.776 OA
ATOM     42  H   UNK d   0     -17.691  -3.160 -22.297  0.00  0.00     0.167 HD
ENDBRANCH  39  41
ENDBRANCH  38  39
ENDBRANCH  31  38
BRANCH  27  43
ATOM     43  C   UNK d   0     -20.710  -4.995 -22.493  0.00  0.00     0.052 C 
BRANCH  43  44
ATOM     44  C   UNK d   0     -21.844  -4.042 -22.690  0.00  0.00     0.115 C 
BRANCH  44  45
ATOM     45  C   UNK d   0     -22.710  -4.158 -21.487  0.00  0.00     0.139 C 
ATOM     46  O   UNK d   0     -22.171  -4.482 -20.399  0.00  0.00    -0.650 OA
BRANCH  45  47
ATOM     47  O   UNK d   0     -24.067  -3.921 -21.517  0.00  0.00    -0.776 OA
ATOM     48  H   UNK d   0     -24.497  -3.203 -22.122  0.00  0.00     0.167 HD
ENDBRANCH  45  47
ENDBRANCH  44  45
ENDBRANCH  43  44
ENDBRANCH  27  43
BRANCH  24  49
ATOM     49  C   UNK d   0     -25.068  -8.383 -22.064  0.00  0.00     0.052 C 
BRANCH  49  50
ATOM     50  C   UNK d   0     -24.103  -7.558 -21.251  0.00  0.00     0.115 C 
BRANCH  50  51
ATOM     51  C   UNK d   0     -24.430  -7.345 -19.848  0.00  0.00     0.139 C 
ATOM     52  O   UNK d   0     -24.613  -8.290 -19.045  0.00  0.00    -0.650 OA
BRANCH  51  53
ATOM     53  O   UNK d   0     -24.549  -6.052 -19.360  0.00  0.00    -0.776 OA
ATOM     54  H   UNK d   0     -24.449  -5.907 -18.371  0.00  0.00     0.167 HD
ENDBRANCH  51  53
ENDBRANCH  50  51
ENDBRANCH  49  50
ENDBRANCH  24  49
BRANCH  21  55
ATOM     55  C   UNK d   0     -26.841  -9.198 -24.459  0.00  0.00     0.151 C 
BRANCH  55  56
ATOM     56  C   UNK d   0     -27.805  -8.089 -24.529  0.00  0.00     0.143 C 
ATOM     57  O   UNK d   0     -27.893  -7.332 -25.515  0.00  0.00    -0.650 OA
BRANCH  56  58
ATOM     58  O   UNK d   0     -28.646  -7.891 -23.435  0.00  0.00    -0.776 OA
ATOM     59  H   UNK d   0     -29.434  -8.560 -23.365  0.00  0.00     0.167 HD
ENDBRANCH  56  58
ENDBRANCH  55  56
ENDBRANCH  21  55
BRANCH  18  60
ATOM     60  C   UNK d   0     -24.985 -10.863 -29.213  0.00  0.00     0.151 C 
BRANCH  60  61
ATOM     61  C   UNK d   0     -24.176 -12.078 -29.033  0.00  0.00     0.143 C 
ATOM     62  O   UNK d   0     -23.239 -12.237 -28.249  0.00  0.00    -0.650 OA
BRANCH  61  63
ATOM     63  O   UNK d   0     -24.533 -13.168 -29.863  0.00  0.00    -0.776 OA
ATOM     64  H   UNK d   0     -24.073 -13.323 -30.742  0.00  0.00     0.167 HD
ENDBRANCH  61  63
ENDBRANCH  60  61
ENDBRANCH  18  60
BRANCH  14  65
ATOM     65  C   UNK d   0     -22.825 -10.218 -31.244  0.00  0.00     0.052 C 
BRANCH  65  66
ATOM     66  C   UNK d   0     -22.842  -9.372 -32.467  0.00  0.00     0.115 C 
BRANCH  66  67
ATOM     67  C   UNK d   0     -21.606  -8.892 -33.018  0.00  0.00     0.139 C 
ATOM     68  O   UNK d   0     -20.550  -9.611 -32.874  0.00  0.00    -0.650 OA
BRANCH  67  69
ATOM     69  O   UNK d   0     -21.387  -7.705 -33.716  0.00  0.00    -0.776 OA
ATOM     70  H   UNK d   0     -21.365  -6.847 -33.145  0.00  0.00     0.167 HD
ENDBRANCH  67  69
ENDBRANCH  66  67
ENDBRANCH  65  66
ENDBRANCH  14  65
ENDBRANCH   6   7
ENDBRANCH   5   6
ENDBRANCH   2   5
TORSDOF 28
ENDMDL
MODEL 5
REMARK VINA RESULT:      -9.2      2.075     10.473
REMARK  28 active torsions:
REMARK  status: ('A' for Active; 'I' for Inactive)
REMARK    1  A    between atoms: C_2  and  O_3 
REMARK    2  A    between atoms: C_2  and  C_4 
REMARK    3  A    between atoms: C_4  and  C_5 
REMARK    4  A    between atoms: C_5  and  C_6 
REMARK    5  A    between atoms: C_7  and  C_8 
REMARK    6  A    between atoms: C_8  and  C_9 
REMARK    7  A    between atoms: C_9  and  O_11 
REMARK    8  A    between atoms: C_28  and  C_29 
REMARK    9  A    between atoms: C_29  and  C_30 
REMARK   10  A    between atoms: C_30  and  O_32 
REMARK   11  A    between atoms: C_33  and  C_34 
REMARK   12  A    between atoms: C_34  and  C_35 
REMARK   13  A    between atoms: C_35  and  C_36 
REMARK   14  A    between atoms: C_36  and  O_38 
REMARK   15  A    between atoms: C_39  and  C_40 
REMARK   16  A    between atoms: C_40  and  C_41 
REMARK   17  A    between atoms: C_41  and  C_42 
REMARK   18  A    between atoms: C_42  and  O_44 
REMARK   19  A    between atoms: C_45  and  C_46 
REMARK   20  A    between atoms: C_46  and  C_47 
REMARK   21  A    between atoms: C_47  and  O_49 
REMARK   22  A    between atoms: C_50  and  C_51 
REMARK   23  A    between atoms: C_51  and  C_52 
REMARK   24  A    between atoms: C_52  and  O_54 
REMARK   25  A    between atoms: C_55  and  C_56 
REMARK   26  A    between atoms: C_56  and  C_57 
REMARK   27  A    between atoms: C_57  and  C_58 
REMARK   28  A    between atoms: C_58  and  O_60 
ROOT
ATOM      1  O   UNK d   0     -20.153  -9.215 -32.602  0.00  0.00    -0.650 OA
ATOM      2  C   UNK d   0     -20.259  -7.974 -32.711  0.00  0.00     0.139 C 
ENDROOT
BRANCH   2   3
ATOM      3  O   UNK d   0     -21.223  -7.450 -33.537  0.00  0.00    -0.776 OA
ATOM      4  H   UNK d   0     -22.167  -7.841 -33.561  0.00  0.00     0.167 HD
ENDBRANCH   2   3
BRANCH   2   5
ATOM      5  C   UNK d   0     -19.345  -7.075 -31.949  0.00  0.00     0.115 C 
BRANCH   5   6
ATOM      6  C   UNK d   0     -20.130  -5.965 -31.304  0.00  0.00     0.052 C 
BRANCH   6   7
ATOM      7  C   UNK d   0     -20.240  -6.126 -29.807  0.00  0.00    -0.020 A 
ATOM      8  C   UNK d   0     -19.395  -5.716 -28.896  0.00  0.00    -0.011 A 
ATOM      9  C   UNK d   0     -19.919  -6.104 -27.597  0.00  0.00     0.067 A 
ATOM     10  C   UNK d   0     -19.522  -5.953 -26.259  0.00  0.00     0.062 C 
ATOM     11  N   UNK d   0     -21.084  -6.750 -27.811  0.00  0.00    -0.248 NA
ATOM     12  C   UNK d   0     -20.304  -6.154 -25.116  0.00  0.00     0.041 A 
ATOM     13  N   UNK d   0     -21.185  -7.123 -24.803  0.00  0.00    -0.355 N 
ATOM     14  C   UNK d   0     -20.263  -5.195 -24.087  0.00  0.00    -0.022 A 
ATOM     15  C   UNK d   0     -21.710  -6.799 -23.606  0.00  0.00     0.042 A 
ATOM     16  H   UNK d   0     -21.417  -8.027 -25.407  0.00  0.00     0.166 HD
ATOM     17  C   UNK d   0     -22.672  -7.465 -22.821  0.00  0.00     0.062 C 
ATOM     18  C   UNK d   0     -21.157  -5.597 -23.125  0.00  0.00    -0.013 A 
ATOM     19  C   UNK d   0     -23.859  -8.032 -23.209  0.00  0.00     0.067 A 
ATOM     20  N   UNK d   0     -24.068  -8.160 -24.522  0.00  0.00    -0.248 NA
ATOM     21  C   UNK d   0     -25.037  -8.555 -22.536  0.00  0.00    -0.011 A 
ATOM     22  C   UNK d   0     -25.297  -8.726 -24.756  0.00  0.00     0.066 A 
ATOM     23  C   UNK d   0     -25.629  -8.952 -26.084  0.00  0.00     0.062 C 
ATOM     24  C   UNK d   0     -25.876  -8.955 -23.447  0.00  0.00    -0.020 A 
ATOM     25  C   UNK d   0     -24.825  -8.755 -27.217  0.00  0.00     0.041 A 
ATOM     26  N   UNK d   0     -23.960  -7.785 -27.534  0.00  0.00    -0.355 N 
ATOM     27  C   UNK d   0     -24.863  -9.720 -28.247  0.00  0.00    -0.022 A 
ATOM     28  C   UNK d   0     -23.442  -8.100 -28.732  0.00  0.00     0.042 A 
ATOM     29  H   UNK d   0     -23.736  -6.871 -26.931  0.00  0.00     0.166 HD
ATOM     30  C   UNK d   0     -22.491  -7.442 -29.528  0.00  0.00     0.062 C 
ATOM     31  C   UNK d   0     -23.990  -9.314 -29.209  0.00  0.00    -0.013 A 
ATOM     32  C   UNK d   0     -21.334  -6.796 -29.121  0.00  0.00     0.066 A 
BRANCH   8  33
ATOM     33  C   UNK d   0     -18.130  -4.994 -29.123  0.00  0.00     0.151 C 
BRANCH  33  34
ATOM     34  C   UNK d   0     -17.000  -5.574 -28.374  0.00  0.00     0.143 C 
ATOM     35  O   UNK d   0     -16.645  -6.746 -28.564  0.00  0.00    -0.650 OA
BRANCH  34  36
ATOM     36  O   UNK d   0     -16.333  -4.801 -27.453  0.00  0.00    -0.776 OA
ATOM     37  H   UNK d   0     -16.811  -4.429 -26.621  0.00  0.00     0.167 HD
ENDBRANCH  34  36
ENDBRANCH  33  34
ENDBRANCH   8  33
BRANCH  31  38
ATOM     38  C   UNK d   0     -23.684 -10.039 -30.499  0.00  0.00     0.151 C 
BRANCH  38  39
ATOM     39  C   UNK d   0     -24.080  -9.289 -31.672  0.00  0.00     0.143 C 
ATOM     40  O   UNK d   0     -23.546  -9.460 -32.782  0.00  0.00    -0.650 OA
BRANCH  39  41
ATOM     41  O   UNK d   0     -25.094  -8.338 -31.569  0.00  0.00    -0.776 OA
ATOM     42  H   UNK d   0     -24.901  -7.518 -30.986  0.00  0.00     0.167 HD
ENDBRANCH  39  41
ENDBRANCH  38  39
ENDBRANCH  31  38
BRANCH  27  43
ATOM     43  C   UNK d   0     -25.682 -10.983 -28.347  0.00  0.00     0.052 C 
BRANCH  43  44
ATOM     44  C   UNK d   0     -24.850 -12.223 -28.403  0.00  0.00     0.115 C 
BRANCH  44  45
ATOM     45  C   UNK d   0     -25.792 -13.370 -28.313  0.00  0.00     0.139 C 
ATOM     46  O   UNK d   0     -25.363 -14.512 -28.610  0.00  0.00    -0.650 OA
BRANCH  45  47
ATOM     47  O   UNK d   0     -27.104 -13.230 -27.915  0.00  0.00    -0.776 OA
ATOM     48  H   UNK d   0     -27.570 -12.312 -27.835  0.00  0.00     0.167 HD
ENDBRANCH  45  47
ENDBRANCH  44  45
ENDBRANCH  43  44
ENDBRANCH  27  43
BRANCH  24  49
ATOM     49  C   UNK d   0     -27.184  -9.588 -23.204  0.00  0.00     0.052 C 
BRANCH  49  50
ATOM     50  C   UNK d   0     -28.247  -8.537 -23.008  0.00  0.00     0.115 C 
BRANCH  50  51
ATOM     51  C   UNK d   0     -28.997  -8.575 -21.760  0.00  0.00     0.139 C 
ATOM     52  O   UNK d   0     -28.492  -8.959 -20.679  0.00  0.00    -0.650 OA
BRANCH  51  53
ATOM     53  O   UNK d   0     -30.326  -8.178 -21.746  0.00  0.00    -0.776 OA
ATOM     54  H   UNK d   0     -30.721  -7.871 -20.874  0.00  0.00     0.167 HD
ENDBRANCH  51  53
ENDBRANCH  50  51
ENDBRANCH  49  50
ENDBRANCH  24  49
BRANCH  21  55
ATOM     55  C   UNK d   0     -25.198  -8.603 -21.052  0.00  0.00     0.151 C 
BRANCH  55  56
ATOM     56  C   UNK d   0     -25.553  -7.290 -20.493  0.00  0.00     0.143 C 
ATOM     57  O   UNK d   0     -25.474  -7.030 -19.276  0.00  0.00    -0.650 OA
BRANCH  56  58
ATOM     58  O   UNK d   0     -25.995  -6.306 -21.376  0.00  0.00    -0.776 OA
ATOM     59  H   UNK d   0     -25.862  -6.529 -22.379  0.00  0.00     0.167 HD
ENDBRANCH  56  58
ENDBRANCH  55  56
ENDBRANCH  21  55
BRANCH  18  60
ATOM     60  C   UNK d   0     -21.440  -4.853 -21.844  0.00  0.00     0.151 C 
BRANCH  60  61
ATOM     61  C   UNK d   0     -22.656  -4.065 -22.095  0.00  0.00     0.143 C 
ATOM     62  O   UNK d   0     -22.800  -3.166 -22.923  0.00  0.00    -0.650 OA
BRANCH  61  63
ATOM     63  O   UNK d   0     -23.768  -4.398 -21.283  0.00  0.00    -0.776 OA
ATOM     64  H   UNK d   0     -23.870  -4.012 -20.361  0.00  0.00     0.167 HD
ENDBRANCH  61  63
ENDBRANCH  60  61
ENDBRANCH  18  60
BRANCH  14  65
ATOM     65  C   UNK d   0     -19.381  -3.993 -23.900  0.00  0.00     0.052 C 
BRANCH  65  66
ATOM     66  C   UNK d   0     -17.987  -4.348 -23.521  0.00  0.00     0.115 C 
BRANCH  66  67
ATOM     67  C   UNK d   0     -16.990  -3.319 -23.431  0.00  0.00     0.139 C 
ATOM     68  O   UNK d   0     -16.283  -3.242 -22.360  0.00  0.00    -0.650 OA
BRANCH  67  69
ATOM     69  O   UNK d   0     -16.673  -2.352 -24.384  0.00  0.00    -0.776 OA
ATOM     70  H   UNK d   0     -15.667  -2.198 -24.548  0.00  0.00     0.167 HD
ENDBRANCH  67  69
ENDBRANCH  66  67
ENDBRANCH  65  66
ENDBRANCH  14  65
ENDBRANCH   6   7
ENDBRANCH   5   6
ENDBRANCH   2   5
TORSDOF 28
ENDMDL
MODEL 6
REMARK VINA RESULT:      -9.1     30.095     34.013
REMARK  28 active torsions:
REMARK  status: ('A' for Active; 'I' for Inactive)
REMARK    1  A    between atoms: C_2  and  O_3 
REMARK    2  A    between atoms: C_2  and  C_4 
REMARK    3  A    between atoms: C_4  and  C_5 
REMARK    4  A    between atoms: C_5  and  C_6 
REMARK    5  A    between atoms: C_7  and  C_8 
REMARK    6  A    between atoms: C_8  and  C_9 
REMARK    7  A    between atoms: C_9  and  O_11 
REMARK    8  A    between atoms: C_28  and  C_29 
REMARK    9  A    between atoms: C_29  and  C_30 
REMARK   10  A    between atoms: C_30  and  O_32 
REMARK   11  A    between atoms: C_33  and  C_34 
REMARK   12  A    between atoms: C_34  and  C_35 
REMARK   13  A    between atoms: C_35  and  C_36 
REMARK   14  A    between atoms: C_36  and  O_38 
REMARK   15  A    between atoms: C_39  and  C_40 
REMARK   16  A    between atoms: C_40  and  C_41 
REMARK   17  A    between atoms: C_41  and  C_42 
REMARK   18  A    between atoms: C_42  and  O_44 
REMARK   19  A    between atoms: C_45  and  C_46 
REMARK   20  A    between atoms: C_46  and  C_47 
REMARK   21  A    between atoms: C_47  and  O_49 
REMARK   22  A    between atoms: C_50  and  C_51 
REMARK   23  A    between atoms: C_51  and  C_52 
REMARK   24  A    between atoms: C_52  and  O_54 
REMARK   25  A    between atoms: C_55  and  C_56 
REMARK   26  A    between atoms: C_56  and  C_57 
REMARK   27  A    between atoms: C_57  and  C_58 
REMARK   28  A    between atoms: C_58  and  O_60 
ROOT
ATOM      1  O   UNK d   0      -2.402 -17.882  -7.177  0.00  0.00    -0.650 OA
ATOM      2  C   UNK d   0      -1.346 -17.428  -6.683  0.00  0.00     0.139 C 
ENDROOT
BRANCH   2   3
ATOM      3  O   UNK d   0      -0.285 -17.143  -7.508  0.00  0.00    -0.776 OA
ATOM      4  H   UNK d   0      -0.258 -17.487  -8.470  0.00  0.00     0.167 HD
ENDBRANCH   2   3
BRANCH   2   5
ATOM      5  C   UNK d   0      -1.245 -17.201  -5.214  0.00  0.00     0.115 C 
BRANCH   5   6
ATOM      6  C   UNK d   0      -0.383 -18.262  -4.584  0.00  0.00     0.052 C 
BRANCH   6   7
ATOM      7  C   UNK d   0      -1.101 -19.023  -3.495  0.00  0.00    -0.020 A 
ATOM      8  C   UNK d   0      -0.869 -18.983  -2.208  0.00  0.00    -0.011 A 
ATOM      9  C   UNK d   0      -1.802 -19.888  -1.559  0.00  0.00     0.067 A 
ATOM     10  C   UNK d   0      -2.085 -20.278  -0.241  0.00  0.00     0.062 C 
ATOM     11  N   UNK d   0      -2.562 -20.442  -2.528  0.00  0.00    -0.248 NA
ATOM     12  C   UNK d   0      -3.217 -20.961   0.217  0.00  0.00     0.041 A 
ATOM     13  N   UNK d   0      -3.886 -22.011  -0.295  0.00  0.00    -0.355 N 
ATOM     14  C   UNK d   0      -3.864 -20.503   1.379  0.00  0.00    -0.022 A 
ATOM     15  C   UNK d   0      -4.945 -22.227   0.507  0.00  0.00     0.042 A 
ATOM     16  H   UNK d   0      -3.604 -22.601  -1.196  0.00  0.00     0.166 HD
ATOM     17  C   UNK d   0      -5.965 -23.197   0.434  0.00  0.00     0.062 C 
ATOM     18  C   UNK d   0      -4.965 -21.301   1.568  0.00  0.00    -0.013 A 
ATOM     19  C   UNK d   0      -6.685 -23.609  -0.658  0.00  0.00     0.067 A 
ATOM     20  N   UNK d   0      -6.257 -23.200  -1.855  0.00  0.00    -0.248 NA
ATOM     21  C   UNK d   0      -7.876 -24.412  -0.881  0.00  0.00    -0.011 A 
ATOM     22  C   UNK d   0      -7.082 -23.676  -2.845  0.00  0.00     0.066 A 
ATOM     23  C   UNK d   0      -6.730 -23.356  -4.148  0.00  0.00     0.062 C 
ATOM     24  C   UNK d   0      -8.105 -24.444  -2.162  0.00  0.00    -0.020 A 
ATOM     25  C   UNK d   0      -5.581 -22.680  -4.587  0.00  0.00     0.041 A 
ATOM     26  N   UNK d   0      -4.925 -21.627  -4.086  0.00  0.00    -0.355 N 
ATOM     27  C   UNK d   0      -4.930 -23.143  -5.751  0.00  0.00    -0.022 A 
ATOM     28  C   UNK d   0      -3.873 -21.404  -4.890  0.00  0.00     0.042 A 
ATOM     29  H   UNK d   0      -5.215 -21.029  -3.188  0.00  0.00     0.166 HD
ATOM     30  C   UNK d   0      -2.857 -20.438  -4.834  0.00  0.00     0.062 C 
ATOM     31  C   UNK d   0      -3.848 -22.342  -5.950  0.00  0.00    -0.013 A 
ATOM     32  C   UNK d   0      -2.190 -19.963  -3.716  0.00  0.00     0.066 A 
BRANCH   8  33
ATOM     33  C   UNK d   0       0.154 -18.176  -1.518  0.00  0.00     0.151 C 
BRANCH  33  34
ATOM     34  C   UNK d   0       1.478 -18.822  -1.505  0.00  0.00     0.143 C 
ATOM     35  O   UNK d   0       1.679 -19.850  -0.842  0.00  0.00    -0.650 OA
BRANCH  34  36
ATOM     36  O   UNK d   0       2.505 -18.274  -2.240  0.00  0.00    -0.776 OA
ATOM     37  H   UNK d   0       2.729 -18.618  -3.183  0.00  0.00     0.167 HD
ENDBRANCH  34  36
ENDBRANCH  33  34
ENDBRANCH   8  33
BRANCH  31  38
ATOM     38  C   UNK d   0      -2.841 -22.464  -7.070  0.00  0.00     0.151 C 
BRANCH  38  39
ATOM     39  C   UNK d   0      -3.295 -21.856  -8.302  0.00  0.00     0.143 C 
ATOM     40  O   UNK d   0      -3.875 -22.505  -9.191  0.00  0.00    -0.650 OA
BRANCH  39  41
ATOM     41  O   UNK d   0      -3.083 -20.494  -8.514  0.00  0.00    -0.776 OA
ATOM     42  H   UNK d   0      -2.485 -20.238  -9.306  0.00  0.00     0.167 HD
ENDBRANCH  39  41
ENDBRANCH  38  39
ENDBRANCH  31  38
BRANCH  27  43
ATOM     43  C   UNK d   0      -5.292 -24.290  -6.660  0.00  0.00     0.052 C 
BRANCH  43  44
ATOM     44  C   UNK d   0      -6.579 -24.081  -7.391  0.00  0.00     0.115 C 
BRANCH  44  45
ATOM     45  C   UNK d   0      -7.046 -25.425  -7.821  0.00  0.00     0.139 C 
ATOM     46  O   UNK d   0      -7.426 -25.567  -9.010  0.00  0.00    -0.650 OA
BRANCH  45  47
ATOM     47  O   UNK d   0      -7.073 -26.513  -6.975  0.00  0.00    -0.776 OA
ATOM     48  H   UNK d   0      -7.851 -27.192  -6.961  0.00  0.00     0.167 HD
ENDBRANCH  45  47
ENDBRANCH  44  45
ENDBRANCH  43  44
ENDBRANCH  27  43
BRANCH  24  49
ATOM     49  C   UNK d   0      -9.193 -25.177  -2.832  0.00  0.00     0.052 C 
BRANCH  49  50
ATOM     50  C   UNK d   0      -8.634 -26.089  -3.895  0.00  0.00     0.115 C 
BRANCH  50  51
ATOM     51  C   UNK d   0      -9.170 -27.442  -3.960  0.00  0.00     0.139 C 
ATOM     52  O   UNK d   0      -8.719 -28.311  -4.742  0.00  0.00    -0.650 OA
BRANCH  51  53
ATOM     53  O   UNK d   0     -10.223 -27.803  -3.133  0.00  0.00    -0.776 OA
ATOM     54  H   UNK d   0     -10.635 -27.095  -2.552  0.00  0.00     0.167 HD
ENDBRANCH  51  53
ENDBRANCH  50  51
ENDBRANCH  49  50
ENDBRANCH  24  49
BRANCH  21  55
ATOM     55  C   UNK d   0      -8.658 -25.067   0.209  0.00  0.00     0.151 C 
BRANCH  55  56
ATOM     56  C   UNK d   0      -8.347 -26.500   0.326  0.00  0.00     0.143 C 
ATOM     57  O   UNK d   0      -7.331 -26.924   0.911  0.00  0.00    -0.650 OA
BRANCH  56  58
ATOM     58  O   UNK d   0      -9.238 -27.406  -0.247  0.00  0.00    -0.776 OA
ATOM     59  H   UNK d   0      -9.323 -27.342  -1.278  0.00  0.00     0.167 HD
ENDBRANCH  56  58
ENDBRANCH  55  56
ENDBRANCH  21  55
BRANCH  18  60
ATOM     60  C   UNK d   0      -5.953 -21.157   2.699  0.00  0.00     0.151 C 
BRANCH  60  61
ATOM     61  C   UNK d   0      -6.442 -19.771   2.635  0.00  0.00     0.143 C 
ATOM     62  O   UNK d   0      -6.861 -19.178   1.641  0.00  0.00    -0.650 OA
BRANCH  61  63
ATOM     63  O   UNK d   0      -6.416 -19.065   3.862  0.00  0.00    -0.776 OA
ATOM     64  H   UNK d   0      -6.895 -19.417   4.672  0.00  0.00     0.167 HD
ENDBRANCH  61  63
ENDBRANCH  60  61
ENDBRANCH  18  60
BRANCH  14  65
ATOM     65  C   UNK d   0      -3.470 -19.444   2.368  0.00  0.00     0.052 C 
BRANCH  65  66
ATOM     66  C   UNK d   0      -3.079 -18.162   1.723  0.00  0.00     0.115 C 
BRANCH  66  67
ATOM     67  C   UNK d   0      -4.081 -17.346   1.096  0.00  0.00     0.139 C 
ATOM     68  O   UNK d   0      -4.102 -17.277  -0.188  0.00  0.00    -0.650 OA
BRANCH  67  69
ATOM     69  O   UNK d   0      -5.074 -16.587   1.715  0.00  0.00    -0.776 OA
ATOM     70  H   UNK d   0      -5.990 -17.046   1.818  0.00  0.00     0.167 HD
ENDBRANCH  67  69
ENDBRANCH  66  67
ENDBRANCH  65  66
ENDBRANCH  14  65
ENDBRANCH   6   7
ENDBRANCH   5   6
ENDBRANCH   2   5
TORSDOF 28
ENDMDL
MODEL 7
REMARK VINA RESULT:      -9.0     30.500     34.030
REMARK  28 active torsions:
REMARK  status: ('A' for Active; 'I' for Inactive)
REMARK    1  A    between atoms: C_2  and  O_3 
REMARK    2  A    between atoms: C_2  and  C_4 
REMARK    3  A    between atoms: C_4  and  C_5 
REMARK    4  A    between atoms: C_5  and  C_6 
REMARK    5  A    between atoms: C_7  and  C_8 
REMARK    6  A    between atoms: C_8  and  C_9 
REMARK    7  A    between atoms: C_9  and  O_11 
REMARK    8  A    between atoms: C_28  and  C_29 
REMARK    9  A    between atoms: C_29  and  C_30 
REMARK   10  A    between atoms: C_30  and  O_32 
REMARK   11  A    between atoms: C_33  and  C_34 
REMARK   12  A    between atoms: C_34  and  C_35 
REMARK   13  A    between atoms: C_35  and  C_36 
REMARK   14  A    between atoms: C_36  and  O_38 
REMARK   15  A    between atoms: C_39  and  C_40 
REMARK   16  A    between atoms: C_40  and  C_41 
REMARK   17  A    between atoms: C_41  and  C_42 
REMARK   18  A    between atoms: C_42  and  O_44 
REMARK   19  A    between atoms: C_45  and  C_46 
REMARK   20  A    between atoms: C_46  and  C_47 
REMARK   21  A    between atoms: C_47  and  O_49 
REMARK   22  A    between atoms: C_50  and  C_51 
REMARK   23  A    between atoms: C_51  and  C_52 
REMARK   24  A    between atoms: C_52  and  O_54 
REMARK   25  A    between atoms: C_55  and  C_56 
REMARK   26  A    between atoms: C_56  and  C_57 
REMARK   27  A    between atoms: C_57  and  C_58 
REMARK   28  A    between atoms: C_58  and  O_60 
ROOT
ATOM      1  O   UNK d   0      -2.226 -21.924  -9.126  0.00  0.00    -0.650 OA
ATOM      2  C   UNK d   0      -1.934 -23.107  -8.841  0.00  0.00     0.139 C 
ENDROOT
BRANCH   2   3
ATOM      3  O   UNK d   0      -0.725 -23.619  -9.245  0.00  0.00    -0.776 OA
ATOM      4  H   UNK d   0      -0.611 -24.037 -10.171  0.00  0.00     0.167 HD
ENDBRANCH   2   3
BRANCH   2   5
ATOM      5  C   UNK d   0      -2.894 -23.950  -8.073  0.00  0.00     0.115 C 
BRANCH   5   6
ATOM      6  C   UNK d   0      -4.294 -23.427  -8.244  0.00  0.00     0.052 C 
BRANCH   6   7
ATOM      7  C   UNK d   0      -5.150 -23.647  -7.020  0.00  0.00    -0.020 A 
ATOM      8  C   UNK d   0      -6.251 -24.349  -6.930  0.00  0.00    -0.011 A 
ATOM      9  C   UNK d   0      -6.724 -24.262  -5.559  0.00  0.00     0.067 A 
ATOM     10  C   UNK d   0      -7.799 -24.785  -4.824  0.00  0.00     0.062 C 
ATOM     11  N   UNK d   0      -5.854 -23.483  -4.883  0.00  0.00    -0.248 NA
ATOM     12  C   UNK d   0      -7.939 -24.817  -3.432  0.00  0.00     0.041 A 
ATOM     13  N   UNK d   0      -7.678 -23.886  -2.494  0.00  0.00    -0.355 N 
ATOM     14  C   UNK d   0      -8.370 -26.007  -2.818  0.00  0.00    -0.022 A 
ATOM     15  C   UNK d   0      -7.925 -24.458  -1.300  0.00  0.00     0.042 A 
ATOM     16  H   UNK d   0      -7.345 -22.840  -2.673  0.00  0.00     0.166 HD
ATOM     17  C   UNK d   0      -7.817 -23.933   0.003  0.00  0.00     0.062 C 
ATOM     18  C   UNK d   0      -8.360 -25.787  -1.463  0.00  0.00    -0.013 A 
ATOM     19  C   UNK d   0      -6.808 -23.184   0.551  0.00  0.00     0.067 A 
ATOM     20  N   UNK d   0      -5.886 -22.706  -0.289  0.00  0.00    -0.248 NA
ATOM     21  C   UNK d   0      -6.435 -22.750   1.887  0.00  0.00    -0.011 A 
ATOM     22  C   UNK d   0      -4.937 -21.993   0.401  0.00  0.00     0.066 A 
ATOM     23  C   UNK d   0      -3.934 -21.406  -0.357  0.00  0.00     0.062 C 
ATOM     24  C   UNK d   0      -5.337 -22.057   1.793  0.00  0.00    -0.020 A 
ATOM     25  C   UNK d   0      -3.819 -21.375  -1.755  0.00  0.00     0.041 A 
ATOM     26  N   UNK d   0      -4.064 -22.305  -2.687  0.00  0.00    -0.355 N 
ATOM     27  C   UNK d   0      -3.391 -20.179  -2.371  0.00  0.00    -0.022 A 
ATOM     28  C   UNK d   0      -3.810 -21.740  -3.878  0.00  0.00     0.042 A 
ATOM     29  H   UNK d   0      -4.389 -23.359  -2.505  0.00  0.00     0.166 HD
ATOM     30  C   UNK d   0      -3.904 -22.253  -5.181  0.00  0.00     0.062 C 
ATOM     31  C   UNK d   0      -3.383 -20.401  -3.714  0.00  0.00    -0.013 A 
ATOM     32  C   UNK d   0      -4.884 -23.081  -5.706  0.00  0.00     0.066 A 
BRANCH   8  33
ATOM     33  C   UNK d   0      -6.913 -25.097  -8.015  0.00  0.00     0.151 C 
BRANCH  33  34
ATOM     34  C   UNK d   0      -6.828 -26.557  -7.835  0.00  0.00     0.143 C 
ATOM     35  O   UNK d   0      -5.844 -27.075  -7.288  0.00  0.00    -0.650 OA
BRANCH  34  36
ATOM     36  O   UNK d   0      -7.856 -27.354  -8.284  0.00  0.00    -0.776 OA
ATOM     37  H   UNK d   0      -7.898 -28.355  -8.047  0.00  0.00     0.167 HD
ENDBRANCH  34  36
ENDBRANCH  33  34
ENDBRANCH   8  33
BRANCH  31  38
ATOM     38  C   UNK d   0      -3.006 -19.399  -4.781  0.00  0.00     0.151 C 
BRANCH  38  39
ATOM     39  C   UNK d   0      -1.675 -18.859  -4.598  0.00  0.00     0.143 C 
ATOM     40  O   UNK d   0      -1.402 -17.669  -4.833  0.00  0.00    -0.650 OA
BRANCH  39  41
ATOM     41  O   UNK d   0      -0.653 -19.692  -4.143  0.00  0.00    -0.776 OA
ATOM     42  H   UNK d   0       0.235 -19.653  -4.652  0.00  0.00     0.167 HD
ENDBRANCH  39  41
ENDBRANCH  38  39
ENDBRANCH  31  38
BRANCH  27  43
ATOM     43  C   UNK d   0      -2.997 -18.866  -1.743  0.00  0.00     0.052 C 
BRANCH  43  44
ATOM     44  C   UNK d   0      -4.146 -17.927  -1.565  0.00  0.00     0.115 C 
BRANCH  44  45
ATOM     45  C   UNK d   0      -4.144 -17.521  -0.136  0.00  0.00     0.139 C 
ATOM     46  O   UNK d   0      -3.576 -16.445   0.173  0.00  0.00    -0.650 OA
BRANCH  45  47
ATOM     47  O   UNK d   0      -4.742 -18.270   0.855  0.00  0.00    -0.776 OA
ATOM     48  H   UNK d   0      -5.532 -18.911   0.673  0.00  0.00     0.167 HD
ENDBRANCH  45  47
ENDBRANCH  44  45
ENDBRANCH  43  44
ENDBRANCH  27  43
BRANCH  24  49
ATOM     49  C   UNK d   0      -4.631 -21.395   2.903  0.00  0.00     0.052 C 
BRANCH  49  50
ATOM     50  C   UNK d   0      -3.144 -21.605   2.778  0.00  0.00     0.115 C 
BRANCH  50  51
ATOM     51  C   UNK d   0      -2.288 -20.444   2.988  0.00  0.00     0.139 C 
ATOM     52  O   UNK d   0      -2.380 -19.402   2.297  0.00  0.00    -0.650 OA
BRANCH  51  53
ATOM     53  O   UNK d   0      -1.326 -20.473   3.986  0.00  0.00    -0.776 OA
ATOM     54  H   UNK d   0      -1.456 -21.109   4.753  0.00  0.00     0.167 HD
ENDBRANCH  51  53
ENDBRANCH  50  51
ENDBRANCH  49  50
ENDBRANCH  24  49
BRANCH  21  55
ATOM     55  C   UNK d   0      -7.218 -23.069   3.117  0.00  0.00     0.151 C 
BRANCH  55  56
ATOM     56  C   UNK d   0      -8.346 -22.145   3.309  0.00  0.00     0.143 C 
ATOM     57  O   UNK d   0      -9.532 -22.478   3.117  0.00  0.00    -0.650 OA
BRANCH  56  58
ATOM     58  O   UNK d   0      -8.057 -20.845   3.722  0.00  0.00    -0.776 OA
ATOM     59  H   UNK d   0      -8.604 -20.104   3.248  0.00  0.00     0.167 HD
ENDBRANCH  56  58
ENDBRANCH  55  56
ENDBRANCH  21  55
BRANCH  18  60
ATOM     60  C   UNK d   0      -8.745 -26.807  -0.420  0.00  0.00     0.151 C 
BRANCH  60  61
ATOM     61  C   UNK d   0     -10.213 -26.756  -0.328  0.00  0.00     0.143 C 
ATOM     62  O   UNK d   0     -10.928 -25.757  -0.419  0.00  0.00    -0.650 OA
BRANCH  61  63
ATOM     63  O   UNK d   0     -10.846 -28.003  -0.112  0.00  0.00    -0.776 OA
ATOM     64  H   UNK d   0     -11.846 -28.071  -0.044  0.00  0.00     0.167 HD
ENDBRANCH  61  63
ENDBRANCH  60  61
ENDBRANCH  18  60
BRANCH  14  65
ATOM     65  C   UNK d   0      -8.878 -27.289  -3.413  0.00  0.00     0.052 C 
BRANCH  65  66
ATOM     66  C   UNK d   0     -10.283 -27.190  -3.894  0.00  0.00     0.115 C 
BRANCH  66  67
ATOM     67  C   UNK d   0     -10.631 -27.715  -5.184  0.00  0.00     0.139 C 
ATOM     68  O   UNK d   0     -11.768 -28.300  -5.321  0.00  0.00    -0.650 OA
BRANCH  67  69
ATOM     69  O   UNK d   0      -9.874 -27.676  -6.354  0.00  0.00    -0.776 OA
ATOM     70  H   UNK d   0     -10.211 -28.270  -7.126  0.00  0.00     0.167 HD
ENDBRANCH  67  69
ENDBRANCH  66  67
ENDBRANCH  65  66
ENDBRANCH  14  65
ENDBRANCH   6   7
ENDBRANCH   5   6
ENDBRANCH   2   5
TORSDOF 28
ENDMDL
MODEL 8
REMARK VINA RESULT:      -9.0      2.383     10.674
REMARK  28 active torsions:
REMARK  status: ('A' for Active; 'I' for Inactive)
REMARK    1  A    between atoms: C_2  and  O_3 
REMARK    2  A    between atoms: C_2  and  C_4 
REMARK    3  A    between atoms: C_4  and  C_5 
REMARK    4  A    between atoms: C_5  and  C_6 
REMARK    5  A    between atoms: C_7  and  C_8 
REMARK    6  A    between atoms: C_8  and  C_9 
REMARK    7  A    between atoms: C_9  and  O_11 
REMARK    8  A    between atoms: C_28  and  C_29 
REMARK    9  A    between atoms: C_29  and  C_30 
REMARK   10  A    between atoms: C_30  and  O_32 
REMARK   11  A    between atoms: C_33  and  C_34 
REMARK   12  A    between atoms: C_34  and  C_35 
REMARK   13  A    between atoms: C_35  and  C_36 
REMARK   14  A    between atoms: C_36  and  O_38 
REMARK   15  A    between atoms: C_39  and  C_40 
REMARK   16  A    between atoms: C_40  and  C_41 
REMARK   17  A    between atoms: C_41  and  C_42 
REMARK   18  A    between atoms: C_42  and  O_44 
REMARK   19  A    between atoms: C_45  and  C_46 
REMARK   20  A    between atoms: C_46  and  C_47 
REMARK   21  A    between atoms: C_47  and  O_49 
REMARK   22  A    between atoms: C_50  and  C_51 
REMARK   23  A    between atoms: C_51  and  C_52 
REMARK   24  A    between atoms: C_52  and  O_54 
REMARK   25  A    between atoms: C_55  and  C_56 
REMARK   26  A    between atoms: C_56  and  C_57 
REMARK   27  A    between atoms: C_57  and  C_58 
REMARK   28  A    between atoms: C_58  and  O_60 
ROOT
ATOM      1  O   UNK d   0     -19.643 -10.574 -31.715  0.00  0.00    -0.650 OA
ATOM      2  C   UNK d   0     -19.595  -9.563 -32.450  0.00  0.00     0.139 C 
ENDROOT
BRANCH   2   3
ATOM      3  O   UNK d   0     -18.406  -9.220 -33.048  0.00  0.00    -0.776 OA
ATOM      4  H   UNK d   0     -17.541  -9.714 -32.822  0.00  0.00     0.167 HD
ENDBRANCH   2   3
BRANCH   2   5
ATOM      5  C   UNK d   0     -20.819  -8.741 -32.673  0.00  0.00     0.115 C 
BRANCH   5   6
ATOM      6  C   UNK d   0     -20.616  -7.353 -32.129  0.00  0.00     0.052 C 
BRANCH   6   7
ATOM      7  C   UNK d   0     -20.521  -7.328 -30.622  0.00  0.00    -0.020 A 
ATOM      8  C   UNK d   0     -19.502  -6.953 -29.892  0.00  0.00    -0.011 A 
ATOM      9  C   UNK d   0     -19.872  -7.110 -28.496  0.00  0.00     0.067 A 
ATOM     10  C   UNK d   0     -19.263  -6.874 -27.254  0.00  0.00     0.062 C 
ATOM     11  N   UNK d   0     -21.133  -7.591 -28.467  0.00  0.00    -0.248 NA
ATOM     12  C   UNK d   0     -19.884  -6.824 -26.001  0.00  0.00     0.041 A 
ATOM     13  N   UNK d   0     -20.830  -7.607 -25.449  0.00  0.00    -0.355 N 
ATOM     14  C   UNK d   0     -19.560  -5.775 -25.122  0.00  0.00    -0.022 A 
ATOM     15  C   UNK d   0     -21.121  -7.077 -24.246  0.00  0.00     0.042 A 
ATOM     16  H   UNK d   0     -21.270  -8.527 -25.893  0.00  0.00     0.166 HD
ATOM     17  C   UNK d   0     -22.036  -7.498 -23.260  0.00  0.00     0.062 C 
ATOM     18  C   UNK d   0     -20.345  -5.927 -24.006  0.00  0.00    -0.013 A 
ATOM     19  C   UNK d   0     -23.333  -7.917 -23.409  0.00  0.00     0.067 A 
ATOM     20  N   UNK d   0     -23.752  -8.156 -24.655  0.00  0.00    -0.248 NA
ATOM     21  C   UNK d   0     -24.456  -8.176 -22.523  0.00  0.00    -0.011 A 
ATOM     22  C   UNK d   0     -25.067  -8.551 -24.648  0.00  0.00     0.066 A 
ATOM     23  C   UNK d   0     -25.622  -8.870 -25.878  0.00  0.00     0.062 C 
ATOM     24  C   UNK d   0     -25.469  -8.542 -23.254  0.00  0.00    -0.020 A 
ATOM     25  C   UNK d   0     -24.977  -8.925 -27.124  0.00  0.00     0.041 A 
ATOM     26  N   UNK d   0     -24.047  -8.138 -27.678  0.00  0.00    -0.355 N 
ATOM     27  C   UNK d   0     -25.300  -9.981 -28.004  0.00  0.00    -0.022 A 
ATOM     28  C   UNK d   0     -23.762  -8.660 -28.882  0.00  0.00     0.042 A 
ATOM     29  H   UNK d   0     -23.614  -7.208 -27.235  0.00  0.00     0.166 HD
ATOM     30  C   UNK d   0     -22.861  -8.247 -29.876  0.00  0.00     0.062 C 
ATOM     31  C   UNK d   0     -24.534  -9.822 -29.118  0.00  0.00    -0.013 A 
ATOM     32  C   UNK d   0     -21.580  -7.744 -29.714  0.00  0.00     0.066 A 
BRANCH   8  33
ATOM     33  C   UNK d   0     -18.199  -6.462 -30.378  0.00  0.00     0.151 C 
BRANCH  33  34
ATOM     34  C   UNK d   0     -17.091  -7.384 -30.071  0.00  0.00     0.143 C 
ATOM     35  O   UNK d   0     -16.915  -8.413 -30.738  0.00  0.00    -0.650 OA
BRANCH  34  36
ATOM     36  O   UNK d   0     -16.243  -7.096 -29.026  0.00  0.00    -0.776 OA
ATOM     37  H   UNK d   0     -16.096  -7.765 -28.258  0.00  0.00     0.167 HD
ENDBRANCH  34  36
ENDBRANCH  33  34
ENDBRANCH   8  33
BRANCH  31  38
ATOM     38  C   UNK d   0     -24.526 -10.724 -30.330  0.00  0.00     0.151 C 
BRANCH  38  39
ATOM     39  C   UNK d   0     -23.241 -11.352 -30.553  0.00  0.00     0.143 C 
ATOM     40  O   UNK d   0     -22.741 -11.459 -31.687  0.00  0.00    -0.650 OA
BRANCH  39  41
ATOM     41  O   UNK d   0     -22.528 -11.860 -29.468  0.00  0.00    -0.776 OA
ATOM     42  H   UNK d   0     -22.300 -12.859 -29.492  0.00  0.00     0.167 HD
ENDBRANCH  39  41
ENDBRANCH  38  39
ENDBRANCH  31  38
BRANCH  27  43
ATOM     43  C   UNK d   0     -26.287 -11.108 -27.828  0.00  0.00     0.052 C 
BRANCH  43  44
ATOM     44  C   UNK d   0     -25.970 -12.306 -28.663  0.00  0.00     0.115 C 
BRANCH  44  45
ATOM     45  C   UNK d   0     -26.499 -13.486 -27.929  0.00  0.00     0.139 C 
ATOM     46  O   UNK d   0     -27.723 -13.508 -27.648  0.00  0.00    -0.650 OA
BRANCH  45  47
ATOM     47  O   UNK d   0     -25.708 -14.550 -27.554  0.00  0.00    -0.776 OA
ATOM     48  H   UNK d   0     -26.094 -15.469 -27.286  0.00  0.00     0.167 HD
ENDBRANCH  45  47
ENDBRANCH  44  45
ENDBRANCH  43  44
ENDBRANCH  27  43
BRANCH  24  49
ATOM     49  C   UNK d   0     -26.799  -8.938 -22.760  0.00  0.00     0.052 C 
BRANCH  49  50
ATOM     50  C   UNK d   0     -26.667  -9.960 -21.660  0.00  0.00     0.115 C 
BRANCH  50  51
ATOM     51  C   UNK d   0     -27.325  -9.663 -20.395  0.00  0.00     0.139 C 
ATOM     52  O   UNK d   0     -27.150 -10.354 -19.363  0.00  0.00    -0.650 OA
BRANCH  51  53
ATOM     53  O   UNK d   0     -28.184  -8.579 -20.306  0.00  0.00    -0.776 OA
ATOM     54  H   UNK d   0     -29.142  -8.751 -20.057  0.00  0.00     0.167 HD
ENDBRANCH  51  53
ENDBRANCH  50  51
ENDBRANCH  49  50
ENDBRANCH  24  49
BRANCH  21  55
ATOM     55  C   UNK d   0     -24.398  -8.034 -21.038  0.00  0.00     0.151 C 
BRANCH  55  56
ATOM     56  C   UNK d   0     -25.021  -6.783 -20.579  0.00  0.00     0.143 C 
ATOM     57  O   UNK d   0     -25.943  -6.757 -19.740  0.00  0.00    -0.650 OA
BRANCH  56  58
ATOM     58  O   UNK d   0     -24.548  -5.587 -21.115  0.00  0.00    -0.776 OA
ATOM     59  H   UNK d   0     -25.268  -4.856 -21.254  0.00  0.00     0.167 HD
ENDBRANCH  56  58
ENDBRANCH  55  56
ENDBRANCH  21  55
BRANCH  18  60
ATOM     60  C   UNK d   0     -20.330  -5.011 -22.807  0.00  0.00     0.151 C 
BRANCH  60  61
ATOM     61  C   UNK d   0     -21.517  -4.152 -22.940  0.00  0.00     0.143 C 
ATOM     62  O   UNK d   0     -22.505  -4.133 -22.206  0.00  0.00    -0.650 OA
BRANCH  61  63
ATOM     63  O   UNK d   0     -21.495  -3.260 -24.039  0.00  0.00    -0.776 OA
ATOM     64  H   UNK d   0     -22.103  -2.462 -24.071  0.00  0.00     0.167 HD
ENDBRANCH  61  63
ENDBRANCH  60  61
ENDBRANCH  18  60
BRANCH  14  65
ATOM     65  C   UNK d   0     -18.506  -4.708 -25.213  0.00  0.00     0.052 C 
BRANCH  65  66
ATOM     66  C   UNK d   0     -17.306  -5.003 -24.385  0.00  0.00     0.115 C 
BRANCH  66  67
ATOM     67  C   UNK d   0     -16.333  -5.949 -24.854  0.00  0.00     0.139 C 
ATOM     68  O   UNK d   0     -16.123  -6.037 -26.119  0.00  0.00    -0.650 OA
BRANCH  67  69
ATOM     69  O   UNK d   0     -15.553  -6.819 -24.093  0.00  0.00    -0.776 OA
ATOM     70  H   UNK d   0     -15.796  -7.818 -24.166  0.00  0.00     0.167 HD
ENDBRANCH  67  69
ENDBRANCH  66  67
ENDBRANCH  65  66
ENDBRANCH  14  65
ENDBRANCH   6   7
ENDBRANCH   5   6
ENDBRANCH   2   5
TORSDOF 28
ENDMDL
MODEL 9
REMARK VINA RESULT:      -8.9      2.378      7.914
REMARK  28 active torsions:
REMARK  status: ('A' for Active; 'I' for Inactive)
REMARK    1  A    between atoms: C_2  and  O_3 
REMARK    2  A    between atoms: C_2  and  C_4 
REMARK    3  A    between atoms: C_4  and  C_5 
REMARK    4  A    between atoms: C_5  and  C_6 
REMARK    5  A    between atoms: C_7  and  C_8 
REMARK    6  A    between atoms: C_8  and  C_9 
REMARK    7  A    between atoms: C_9  and  O_11 
REMARK    8  A    between atoms: C_28  and  C_29 
REMARK    9  A    between atoms: C_29  and  C_30 
REMARK   10  A    between atoms: C_30  and  O_32 
REMARK   11  A    between atoms: C_33  and  C_34 
REMARK   12  A    between atoms: C_34  and  C_35 
REMARK   13  A    between atoms: C_35  and  C_36 
REMARK   14  A    between atoms: C_36  and  O_38 
REMARK   15  A    between atoms: C_39  and  C_40 
REMARK   16  A    between atoms: C_40  and  C_41 
REMARK   17  A    between atoms: C_41  and  C_42 
REMARK   18  A    between atoms: C_42  and  O_44 
REMARK   19  A    between atoms: C_45  and  C_46 
REMARK   20  A    between atoms: C_46  and  C_47 
REMARK   21  A    between atoms: C_47  and  O_49 
REMARK   22  A    between atoms: C_50  and  C_51 
REMARK   23  A    between atoms: C_51  and  C_52 
REMARK   24  A    between atoms: C_52  and  O_54 
REMARK   25  A    between atoms: C_55  and  C_56 
REMARK   26  A    between atoms: C_56  and  C_57 
REMARK   27  A    between atoms: C_57  and  C_58 
REMARK   28  A    between atoms: C_58  and  O_60 
ROOT
ATOM      1  O   UNK d   0     -23.331 -13.669 -31.545  0.00  0.00    -0.650 OA
ATOM      2  C   UNK d   0     -24.289 -14.098 -30.864  0.00  0.00     0.139 C 
ENDROOT
BRANCH   2   3
ATOM      3  O   UNK d   0     -24.595 -15.437 -30.902  0.00  0.00    -0.776 OA
ATOM      4  H   UNK d   0     -25.395 -15.780 -31.438  0.00  0.00     0.167 HD
ENDBRANCH   2   3
BRANCH   2   5
ATOM      5  C   UNK d   0     -25.087 -13.163 -30.022  0.00  0.00     0.115 C 
BRANCH   5   6
ATOM      6  C   UNK d   0     -24.953 -11.757 -30.541  0.00  0.00     0.052 C 
BRANCH   6   7
ATOM      7  C   UNK d   0     -24.459 -10.794 -29.488  0.00  0.00    -0.020 A 
ATOM      8  C   UNK d   0     -25.156 -10.216 -28.544  0.00  0.00    -0.011 A 
ATOM      9  C   UNK d   0     -24.255  -9.369 -27.780  0.00  0.00     0.067 A 
ATOM     10  C   UNK d   0     -24.361  -8.526 -26.663  0.00  0.00     0.062 C 
ATOM     11  N   UNK d   0     -23.029  -9.488 -28.333  0.00  0.00    -0.248 NA
ATOM     12  C   UNK d   0     -23.315  -8.003 -25.894  0.00  0.00     0.041 A 
ATOM     13  N   UNK d   0     -22.132  -7.471 -26.253  0.00  0.00    -0.355 N 
ATOM     14  C   UNK d   0     -23.412  -8.051 -24.491  0.00  0.00    -0.022 A 
ATOM     15  C   UNK d   0     -21.472  -7.187 -25.114  0.00  0.00     0.042 A 
ATOM     16  H   UNK d   0     -21.778  -7.281 -27.290  0.00  0.00     0.166 HD
ATOM     17  C   UNK d   0     -20.198  -6.617 -24.914  0.00  0.00     0.062 C 
ATOM     18  C   UNK d   0     -22.243  -7.537 -23.989  0.00  0.00    -0.013 A 
ATOM     19  C   UNK d   0     -19.017  -6.903 -25.549  0.00  0.00     0.067 A 
ATOM     20  N   UNK d   0     -19.086  -7.676 -26.636  0.00  0.00    -0.248 NA
ATOM     21  C   UNK d   0     -17.614  -6.585 -25.339  0.00  0.00    -0.011 A 
ATOM     22  C   UNK d   0     -17.830  -7.886 -27.151  0.00  0.00     0.066 A 
ATOM     23  C   UNK d   0     -17.759  -8.645 -28.310  0.00  0.00     0.062 C 
ATOM     24  C   UNK d   0     -16.925  -7.166 -26.277  0.00  0.00    -0.020 A 
ATOM     25  C   UNK d   0     -18.822  -9.151 -29.074  0.00  0.00     0.041 A 
ATOM     26  N   UNK d   0     -19.992  -9.694 -28.718  0.00  0.00    -0.355 N 
ATOM     27  C   UNK d   0     -18.726  -9.099 -30.482  0.00  0.00    -0.022 A 
ATOM     28  C   UNK d   0     -20.648  -9.986 -29.852  0.00  0.00     0.042 A 
ATOM     29  H   UNK d   0     -20.342  -9.893 -27.675  0.00  0.00     0.166 HD
ATOM     30  C   UNK d   0     -21.911 -10.561 -30.065  0.00  0.00     0.062 C 
ATOM     31  C   UNK d   0     -19.877  -9.624 -30.982  0.00  0.00    -0.013 A 
ATOM     32  C   UNK d   0     -23.084 -10.331 -29.364  0.00  0.00     0.066 A 
BRANCH   8  33
ATOM     33  C   UNK d   0     -26.599 -10.376 -28.285  0.00  0.00     0.151 C 
BRANCH  33  34
ATOM     34  C   UNK d   0     -26.883 -11.366 -27.231  0.00  0.00     0.143 C 
ATOM     35  O   UNK d   0     -27.285 -11.010 -26.114  0.00  0.00    -0.650 OA
BRANCH  34  36
ATOM     36  O   UNK d   0     -26.698 -12.704 -27.493  0.00  0.00    -0.776 OA
ATOM     37  H   UNK d   0     -26.101 -13.289 -26.892  0.00  0.00     0.167 HD
ENDBRANCH  34  36
ENDBRANCH  33  34
ENDBRANCH   8  33
BRANCH  31  38
ATOM     38  C   UNK d   0     -20.233  -9.764 -32.444  0.00  0.00     0.151 C 
BRANCH  38  39
ATOM     39  C   UNK d   0     -21.280  -8.853 -32.856  0.00  0.00     0.143 C 
ATOM     40  O   UNK d   0     -21.193  -7.623 -32.696  0.00  0.00    -0.650 OA
BRANCH  39  41
ATOM     41  O   UNK d   0     -22.432  -9.360 -33.458  0.00  0.00    -0.776 OA
ATOM     42  H   UNK d   0     -23.227  -8.720 -33.543  0.00  0.00     0.167 HD
ENDBRANCH  39  41
ENDBRANCH  38  39
ENDBRANCH  31  38
BRANCH  27  43
ATOM     43  C   UNK d   0     -17.604  -8.581 -31.348  0.00  0.00     0.052 C 
BRANCH  43  44
ATOM     44  C   UNK d   0     -17.780  -7.153 -31.751  0.00  0.00     0.115 C 
BRANCH  44  45
ATOM     45  C   UNK d   0     -17.811  -7.132 -33.236  0.00  0.00     0.139 C 
ATOM     46  O   UNK d   0     -16.948  -7.801 -33.855  0.00  0.00    -0.650 OA
BRANCH  45  47
ATOM     47  O   UNK d   0     -18.745  -6.417 -33.954  0.00  0.00    -0.776 OA
ATOM     48  H   UNK d   0     -18.518  -5.543 -34.455  0.00  0.00     0.167 HD
ENDBRANCH  45  47
ENDBRANCH  44  45
ENDBRANCH  43  44
ENDBRANCH  27  43
BRANCH  24  49
ATOM     49  C   UNK d   0     -15.467  -7.077 -26.467  0.00  0.00     0.052 C 
BRANCH  49  50
ATOM     50  C   UNK d   0     -15.136  -6.045 -27.514  0.00  0.00     0.115 C 
BRANCH  50  51
ATOM     51  C   UNK d   0     -13.852  -5.367 -27.398  0.00  0.00     0.139 C 
ATOM     52  O   UNK d   0     -13.042  -5.286 -28.351  0.00  0.00    -0.650 OA
BRANCH  51  53
ATOM     53  O   UNK d   0     -13.492  -4.782 -26.194  0.00  0.00    -0.776 OA
ATOM     54  H   UNK d   0     -13.135  -5.376 -25.466  0.00  0.00     0.167 HD
ENDBRANCH  51  53
ENDBRANCH  50  51
ENDBRANCH  49  50
ENDBRANCH  24  49
BRANCH  21  55
ATOM     55  C   UNK d   0     -17.110  -5.728 -24.225  0.00  0.00     0.151 C 
BRANCH  55  56
ATOM     56  C   UNK d   0     -17.407  -4.305 -24.446  0.00  0.00     0.143 C 
ATOM     57  O   UNK d   0     -18.194  -3.659 -23.726  0.00  0.00    -0.650 OA
BRANCH  56  58
ATOM     58  O   UNK d   0     -16.771  -3.667 -25.510  0.00  0.00    -0.776 OA
ATOM     59  H   UNK d   0     -17.333  -3.602 -26.378  0.00  0.00     0.167 HD
ENDBRANCH  56  58
ENDBRANCH  55  56
ENDBRANCH  21  55
BRANCH  18  60
ATOM     60  C   UNK d   0     -21.916  -7.407 -22.522  0.00  0.00     0.151 C 
BRANCH  60  61
ATOM     61  C   UNK d   0     -22.377  -6.068 -22.123  0.00  0.00     0.143 C 
ATOM     62  O   UNK d   0     -23.463  -5.776 -21.621  0.00  0.00    -0.650 OA
BRANCH  61  63
ATOM     63  O   UNK d   0     -21.453  -5.020 -22.350  0.00  0.00    -0.776 OA
ATOM     64  H   UNK d   0     -20.907  -4.638 -21.599  0.00  0.00     0.167 HD
ENDBRANCH  61  63
ENDBRANCH  60  61
ENDBRANCH  18  60
BRANCH  14  65
ATOM     65  C   UNK d   0     -24.554  -8.450 -23.600  0.00  0.00     0.052 C 
BRANCH  65  66
ATOM     66  C   UNK d   0     -25.784  -8.809 -24.356  0.00  0.00     0.115 C 
BRANCH  66  67
ATOM     67  C   UNK d   0     -27.037  -8.203 -24.004  0.00  0.00     0.139 C 
ATOM     68  O   UNK d   0     -27.861  -7.905 -24.945  0.00  0.00    -0.650 OA
BRANCH  67  69
ATOM     69  O   UNK d   0     -27.501  -7.880 -22.729  0.00  0.00    -0.776 OA
ATOM     70  H   UNK d   0     -27.247  -8.540 -21.980  0.00  0.00     0.167 HD
ENDBRANCH  67  69
ENDBRANCH  66  67
ENDBRANCH  65  66
ENDBRANCH  14  65
ENDBRANCH   6   7
ENDBRANCH   5   6
ENDBRANCH   2   5
TORSDOF 28
ENDMDL
MODEL 10
REMARK VINA RESULT:      -8.8     30.153     34.004
REMARK  28 active torsions:
REMARK  status: ('A' for Active; 'I' for Inactive)
REMARK    1  A    between atoms: C_2  and  O_3 
REMARK    2  A    between atoms: C_2  and  C_4 
REMARK    3  A    between atoms: C_4  and  C_5 
REMARK    4  A    between atoms: C_5  and  C_6 
REMARK    5  A    between atoms: C_7  and  C_8 
REMARK    6  A    between atoms: C_8  and  C_9 
REMARK    7  A    between atoms: C_9  and  O_11 
REMARK    8  A    between atoms: C_28  and  C_29 
REMARK    9  A    between atoms: C_29  and  C_30 
REMARK   10  A    between atoms: C_30  and  O_32 
REMARK   11  A    between atoms: C_33  and  C_34 
REMARK   12  A    between atoms: C_34  and  C_35 
REMARK   13  A    between atoms: C_35  and  C_36 
REMARK   14  A    between atoms: C_36  and  O_38 
REMARK   15  A    between atoms: C_39  and  C_40 
REMARK   16  A    between atoms: C_40  and  C_41 
REMARK   17  A    between atoms: C_41  and  C_42 
REMARK   18  A    between atoms: C_42  and  O_44 
REMARK   19  A    between atoms: C_45  and  C_46 
REMARK   20  A    between atoms: C_46  and  C_47 
REMARK   21  A    between atoms: C_47  and  O_49 
REMARK   22  A    between atoms: C_50  and  C_51 
REMARK   23  A    between atoms: C_51  and  C_52 
REMARK   24  A    between atoms: C_52  and  O_54 
REMARK   25  A    between atoms: C_55  and  C_56 
REMARK   26  A    between atoms: C_56  and  C_57 
REMARK   27  A    between atoms: C_57  and  C_58 
REMARK   28  A    between atoms: C_58  and  O_60 
ROOT
ATOM      1  O   UNK d   0      -2.246 -17.686  -6.940  0.00  0.00    -0.650 OA
ATOM      2  C   UNK d   0      -2.496 -17.418  -5.744  0.00  0.00     0.139 C 
ENDROOT
BRANCH   2   3
ATOM      3  O   UNK d   0      -3.788 -17.127  -5.375  0.00  0.00    -0.776 OA
ATOM      4  H   UNK d   0      -4.486 -16.855  -6.070  0.00  0.00     0.167 HD
ENDBRANCH   2   3
BRANCH   2   5
ATOM      5  C   UNK d   0      -1.401 -17.414  -4.733  0.00  0.00     0.115 C 
BRANCH   5   6
ATOM      6  C   UNK d   0      -0.853 -18.805  -4.560  0.00  0.00     0.052 C 
BRANCH   6   7
ATOM      7  C   UNK d   0      -1.559 -19.577  -3.471  0.00  0.00    -0.020 A 
ATOM      8  C   UNK d   0      -1.268 -19.605  -2.196  0.00  0.00    -0.011 A 
ATOM      9  C   UNK d   0      -2.217 -20.492  -1.543  0.00  0.00     0.067 A 
ATOM     10  C   UNK d   0      -2.460 -20.925  -0.230  0.00  0.00     0.062 C 
ATOM     11  N   UNK d   0      -3.046 -20.964  -2.497  0.00  0.00    -0.248 NA
ATOM     12  C   UNK d   0      -3.604 -21.571   0.251  0.00  0.00     0.041 A 
ATOM     13  N   UNK d   0      -4.348 -22.563  -0.273  0.00  0.00    -0.355 N 
ATOM     14  C   UNK d   0      -4.174 -21.134   1.461  0.00  0.00    -0.022 A 
ATOM     15  C   UNK d   0      -5.380 -22.762   0.569  0.00  0.00     0.042 A 
ATOM     16  H   UNK d   0      -4.138 -23.125  -1.210  0.00  0.00     0.166 HD
ATOM     17  C   UNK d   0      -6.451 -23.676   0.502  0.00  0.00     0.062 C 
ATOM     18  C   UNK d   0      -5.305 -21.884   1.668  0.00  0.00    -0.013 A 
ATOM     19  C   UNK d   0      -7.240 -24.003  -0.571  0.00  0.00     0.067 A 
ATOM     20  N   UNK d   0      -6.845 -23.563  -1.769  0.00  0.00    -0.248 NA
ATOM     21  C   UNK d   0      -8.479 -24.735  -0.772  0.00  0.00    -0.011 A 
ATOM     22  C   UNK d   0      -7.737 -23.953  -2.738  0.00  0.00     0.066 A 
ATOM     23  C   UNK d   0      -7.427 -23.593  -4.041  0.00  0.00     0.062 C 
ATOM     24  C   UNK d   0      -8.766 -24.698  -2.041  0.00  0.00    -0.020 A 
ATOM     25  C   UNK d   0      -6.266 -22.956  -4.505  0.00  0.00     0.041 A 
ATOM     26  N   UNK d   0      -5.534 -21.959  -3.991  0.00  0.00    -0.355 N 
ATOM     27  C   UNK d   0      -5.692 -23.398  -5.717  0.00  0.00    -0.022 A 
ATOM     28  C   UNK d   0      -4.510 -21.753  -4.834  0.00  0.00     0.042 A 
ATOM     29  H   UNK d   0      -5.753 -21.388  -3.056  0.00  0.00     0.166 HD
ATOM     30  C   UNK d   0      -3.443 -20.842  -4.784  0.00  0.00     0.062 C 
ATOM     31  C   UNK d   0      -4.580 -22.643  -5.932  0.00  0.00    -0.013 A 
ATOM     32  C   UNK d   0      -2.704 -20.451  -3.680  0.00  0.00     0.066 A 
BRANCH   8  33
ATOM     33  C   UNK d   0      -0.175 -18.881  -1.521  0.00  0.00     0.151 C 
BRANCH  33  34
ATOM     34  C   UNK d   0       1.058 -19.682  -1.412  0.00  0.00     0.143 C 
ATOM     35  O   UNK d   0       1.097 -20.850  -1.823  0.00  0.00    -0.650 OA
BRANCH  34  36
ATOM     36  O   UNK d   0       2.179 -19.122  -0.843  0.00  0.00    -0.776 OA
ATOM     37  H   UNK d   0       2.970 -18.806  -1.421  0.00  0.00     0.167 HD
ENDBRANCH  34  36
ENDBRANCH  33  34
ENDBRANCH   8  33
BRANCH  31  38
ATOM     38  C   UNK d   0      -3.632 -22.765  -7.102  0.00  0.00     0.151 C 
BRANCH  38  39
ATOM     39  C   UNK d   0      -2.619 -23.779  -6.900  0.00  0.00     0.143 C 
ATOM     40  O   UNK d   0      -2.354 -24.241  -5.777  0.00  0.00    -0.650 OA
BRANCH  39  41
ATOM     41  O   UNK d   0      -1.907 -24.266  -7.997  0.00  0.00    -0.776 OA
ATOM     42  H   UNK d   0      -2.366 -24.987  -8.562  0.00  0.00     0.167 HD
ENDBRANCH  39  41
ENDBRANCH  38  39
ENDBRANCH  31  38
BRANCH  27  43
ATOM     43  C   UNK d   0      -6.153 -24.484  -6.656  0.00  0.00     0.052 C 
BRANCH  43  44
ATOM     44  C   UNK d   0      -7.470 -24.191  -7.297  0.00  0.00     0.115 C 
BRANCH  44  45
ATOM     45  C   UNK d   0      -7.719 -25.283  -8.274  0.00  0.00     0.139 C 
ATOM     46  O   UNK d   0      -6.911 -25.420  -9.226  0.00  0.00    -0.650 OA
BRANCH  45  47
ATOM     47  O   UNK d   0      -8.789 -26.145  -8.175  0.00  0.00    -0.776 OA
ATOM     48  H   UNK d   0      -9.569 -26.151  -8.852  0.00  0.00     0.167 HD
ENDBRANCH  45  47
ENDBRANCH  44  45
ENDBRANCH  43  44
ENDBRANCH  27  43
BRANCH  24  49
ATOM     49  C   UNK d   0      -9.919 -25.347  -2.690  0.00  0.00     0.052 C 
BRANCH  49  50
ATOM     50  C   UNK d   0      -9.495 -26.636  -3.346  0.00  0.00     0.115 C 
BRANCH  50  51
ATOM     51  C   UNK d   0      -9.280 -26.610  -4.786  0.00  0.00     0.139 C 
ATOM     52  O   UNK d   0      -8.365 -27.259  -5.345  0.00  0.00    -0.650 OA
BRANCH  51  53
ATOM     53  O   UNK d   0     -10.108 -25.840  -5.589  0.00  0.00    -0.776 OA
ATOM     54  H   UNK d   0     -10.007 -25.916  -6.586  0.00  0.00     0.167 HD
ENDBRANCH  51  53
ENDBRANCH  50  51
ENDBRANCH  49  50
ENDBRANCH  24  49
BRANCH  21  55
ATOM     55  C   UNK d   0      -9.244 -25.398   0.325  0.00  0.00     0.151 C 
BRANCH  55  56
ATOM     56  C   UNK d   0      -9.297 -26.859   0.155  0.00  0.00     0.143 C 
ATOM     57  O   UNK d   0     -10.352 -27.513   0.266  0.00  0.00    -0.650 OA
BRANCH  56  58
ATOM     58  O   UNK d   0      -8.107 -27.521  -0.142  0.00  0.00    -0.776 OA
ATOM     59  H   UNK d   0      -8.222 -28.420  -0.644  0.00  0.00     0.167 HD
ENDBRANCH  56  58
ENDBRANCH  55  56
ENDBRANCH  21  55
BRANCH  18  60
ATOM     60  C   UNK d   0      -6.233 -21.742   2.849  0.00  0.00     0.151 C 
BRANCH  60  61
ATOM     61  C   UNK d   0      -7.241 -20.747   2.453  0.00  0.00     0.143 C 
ATOM     62  O   UNK d   0      -7.036 -19.597   2.063  0.00  0.00    -0.650 OA
BRANCH  61  63
ATOM     63  O   UNK d   0      -8.585 -21.184   2.538  0.00  0.00    -0.776 OA
ATOM     64  H   UNK d   0      -9.246 -20.973   1.812  0.00  0.00     0.167 HD
ENDBRANCH  61  63
ENDBRANCH  60  61
ENDBRANCH  18  60
BRANCH  14  65
ATOM     65  C   UNK d   0      -3.682 -20.140   2.474  0.00  0.00     0.052 C 
BRANCH  65  66
ATOM     66  C   UNK d   0      -3.313 -18.831   1.873  0.00  0.00     0.115 C 
BRANCH  66  67
ATOM     67  C   UNK d   0      -4.187 -17.703   2.032  0.00  0.00     0.139 C 
ATOM     68  O   UNK d   0      -4.006 -16.675   1.281  0.00  0.00    -0.650 OA
BRANCH  67  69
ATOM     69  O   UNK d   0      -5.248 -17.565   2.927  0.00  0.00    -0.776 OA
ATOM     70  H   UNK d   0      -5.584 -16.603   3.078  0.00  0.00     0.167 HD
ENDBRANCH  67  69
ENDBRANCH  66  67
ENDBRANCH  65  66
ENDBRANCH  14  65
ENDBRANCH   6   7
ENDBRANCH   5   6
ENDBRANCH   2   5
TORSDOF 28
ENDMDL
MODEL 11
REMARK VINA RESULT:      -8.8     30.305     34.058
REMARK  28 active torsions:
REMARK  status: ('A' for Active; 'I' for Inactive)
REMARK    1  A    between atoms: C_2  and  O_3 
REMARK    2  A    between atoms: C_2  and  C_4 
REMARK    3  A    between atoms: C_4  and  C_5 
REMARK    4  A    between atoms: C_5  and  C_6 
REMARK    5  A    between atoms: C_7  and  C_8 
REMARK    6  A    between atoms: C_8  and  C_9 
REMARK    7  A    between atoms: C_9  and  O_11 
REMARK    8  A    between atoms: C_28  and  C_29 
REMARK    9  A    between atoms: C_29  and  C_30 
REMARK   10  A    between atoms: C_30  and  O_32 
REMARK   11  A    between atoms: C_33  and  C_34 
REMARK   12  A    between atoms: C_34  and  C_35 
REMARK   13  A    between atoms: C_35  and  C_36 
REMARK   14  A    between atoms: C_36  and  O_38 
REMARK   15  A    between atoms: C_39  and  C_40 
REMARK   16  A    between atoms: C_40  and  C_41 
REMARK   17  A    between atoms: C_41  and  C_42 
REMARK   18  A    between atoms: C_42  and  O_44 
REMARK   19  A    between atoms: C_45  and  C_46 
REMARK   20  A    between atoms: C_46  and  C_47 
REMARK   21  A    between atoms: C_47  and  O_49 
REMARK   22  A    between atoms: C_50  and  C_51 
REMARK   23  A    between atoms: C_51  and  C_52 
REMARK   24  A    between atoms: C_52  and  O_54 
REMARK   25  A    between atoms: C_55  and  C_56 
REMARK   26  A    between atoms: C_56  and  C_57 
REMARK   27  A    between atoms: C_57  and  C_58 
REMARK   28  A    between atoms: C_58  and  O_60 
ROOT
ATOM      1  O   UNK d   0      -1.924 -22.513 -10.034  0.00  0.00    -0.650 OA
ATOM      2  C   UNK d   0      -1.560 -23.422  -9.255  0.00  0.00     0.139 C 
ENDROOT
BRANCH   2   3
ATOM      3  O   UNK d   0      -0.303 -23.960  -9.390  0.00  0.00    -0.776 OA
ATOM      4  H   UNK d   0      -0.173 -24.941  -9.648  0.00  0.00     0.167 HD
ENDBRANCH   2   3
BRANCH   2   5
ATOM      5  C   UNK d   0      -2.484 -23.915  -8.195  0.00  0.00     0.115 C 
BRANCH   5   6
ATOM      6  C   UNK d   0      -3.874 -23.390  -8.435  0.00  0.00     0.052 C 
BRANCH   6   7
ATOM      7  C   UNK d   0      -4.773 -23.555  -7.234  0.00  0.00    -0.020 A 
ATOM      8  C   UNK d   0      -5.952 -24.121  -7.191  0.00  0.00    -0.011 A 
ATOM      9  C   UNK d   0      -6.437 -24.035  -5.823  0.00  0.00     0.067 A 
ATOM     10  C   UNK d   0      -7.582 -24.453  -5.127  0.00  0.00     0.062 C 
ATOM     11  N   UNK d   0      -5.492 -23.396  -5.102  0.00  0.00    -0.248 NA
ATOM     12  C   UNK d   0      -7.750 -24.526  -3.740  0.00  0.00     0.041 A 
ATOM     13  N   UNK d   0      -7.396 -23.674  -2.758  0.00  0.00    -0.355 N 
ATOM     14  C   UNK d   0      -8.334 -25.679  -3.184  0.00  0.00    -0.022 A 
ATOM     15  C   UNK d   0      -7.733 -24.261  -1.594  0.00  0.00     0.042 A 
ATOM     16  H   UNK d   0      -6.935 -22.670  -2.886  0.00  0.00     0.166 HD
ATOM     17  C   UNK d   0      -7.588 -23.809  -0.267  0.00  0.00     0.062 C 
ATOM     18  C   UNK d   0      -8.323 -25.520  -1.821  0.00  0.00    -0.013 A 
ATOM     19  C   UNK d   0      -6.505 -23.212   0.326  0.00  0.00     0.067 A 
ATOM     20  N   UNK d   0      -5.516 -22.815  -0.479  0.00  0.00    -0.248 NA
ATOM     21  C   UNK d   0      -6.108 -22.883   1.685  0.00  0.00    -0.011 A 
ATOM     22  C   UNK d   0      -4.501 -22.253   0.255  0.00  0.00     0.066 A 
ATOM     23  C   UNK d   0      -3.420 -21.761  -0.463  0.00  0.00     0.062 C 
ATOM     24  C   UNK d   0      -4.932 -22.326   1.637  0.00  0.00    -0.020 A 
ATOM     25  C   UNK d   0      -3.276 -21.686  -1.857  0.00  0.00     0.041 A 
ATOM     26  N   UNK d   0      -3.614 -22.539  -2.832  0.00  0.00    -0.355 N 
ATOM     27  C   UNK d   0      -2.694 -20.526  -2.414  0.00  0.00    -0.022 A 
ATOM     28  C   UNK d   0      -3.271 -21.960  -3.993  0.00  0.00     0.042 A 
ATOM     29  H   UNK d   0      -4.068 -23.552  -2.700  0.00  0.00     0.166 HD
ATOM     30  C   UNK d   0      -3.402 -22.402  -5.319  0.00  0.00     0.062 C 
ATOM     31  C   UNK d   0      -2.688 -20.691  -3.765  0.00  0.00    -0.013 A 
ATOM     32  C   UNK d   0      -4.465 -23.081  -5.893  0.00  0.00     0.066 A 
BRANCH   8  33
ATOM     33  C   UNK d   0      -6.680 -24.736  -8.316  0.00  0.00     0.151 C 
BRANCH  33  34
ATOM     34  C   UNK d   0      -7.170 -26.091  -8.006  0.00  0.00     0.143 C 
ATOM     35  O   UNK d   0      -8.333 -26.424  -8.272  0.00  0.00    -0.650 OA
BRANCH  34  36
ATOM     36  O   UNK d   0      -6.321 -26.996  -7.410  0.00  0.00    -0.776 OA
ATOM     37  H   UNK d   0      -5.317 -27.016  -7.636  0.00  0.00     0.167 HD
ENDBRANCH  34  36
ENDBRANCH  33  34
ENDBRANCH   8  33
BRANCH  31  38
ATOM     38  C   UNK d   0      -2.172 -19.699  -4.781  0.00  0.00     0.151 C 
BRANCH  38  39
ATOM     39  C   UNK d   0      -3.006 -18.520  -4.889  0.00  0.00     0.143 C 
ATOM     40  O   UNK d   0      -2.653 -17.512  -5.525  0.00  0.00    -0.650 OA
BRANCH  39  41
ATOM     41  O   UNK d   0      -4.252 -18.502  -4.264  0.00  0.00    -0.776 OA
ATOM     42  H   UNK d   0      -5.075 -18.551  -4.873  0.00  0.00     0.167 HD
ENDBRANCH  39  41
ENDBRANCH  38  39
ENDBRANCH  31  38
BRANCH  27  43
ATOM     43  C   UNK d   0      -2.155 -19.299  -1.723  0.00  0.00     0.052 C 
BRANCH  43  44
ATOM     44  C   UNK d   0      -0.700 -19.070  -1.975  0.00  0.00     0.115 C 
BRANCH  44  45
ATOM     45  C   UNK d   0       0.023 -20.206  -1.345  0.00  0.00     0.139 C 
ATOM     46  O   UNK d   0      -0.236 -20.481  -0.148  0.00  0.00    -0.650 OA
BRANCH  45  47
ATOM     47  O   UNK d   0       0.954 -20.965  -2.020  0.00  0.00    -0.776 OA
ATOM     48  H   UNK d   0       1.692 -21.504  -1.539  0.00  0.00     0.167 HD
ENDBRANCH  45  47
ENDBRANCH  44  45
ENDBRANCH  43  44
ENDBRANCH  27  43
BRANCH  24  49
ATOM     49  C   UNK d   0      -4.172 -21.802   2.785  0.00  0.00     0.052 C 
BRANCH  49  50
ATOM     50  C   UNK d   0      -4.061 -20.302   2.699  0.00  0.00     0.115 C 
BRANCH  50  51
ATOM     51  C   UNK d   0      -2.743 -19.747   2.422  0.00  0.00     0.139 C 
ATOM     52  O   UNK d   0      -2.570 -18.555   2.075  0.00  0.00    -0.650 OA
BRANCH  51  53
ATOM     53  O   UNK d   0      -1.621 -20.553   2.537  0.00  0.00    -0.776 OA
ATOM     54  H   UNK d   0      -1.673 -21.358   3.138  0.00  0.00     0.167 HD
ENDBRANCH  51  53
ENDBRANCH  50  51
ENDBRANCH  49  50
ENDBRANCH  24  49
BRANCH  21  55
ATOM     55  C   UNK d   0      -6.947 -23.156   2.890  0.00  0.00     0.151 C 
BRANCH  55  56
ATOM     56  C   UNK d   0      -7.870 -22.048   3.182  0.00  0.00     0.143 C 
ATOM     57  O   UNK d   0      -7.567 -21.096   3.928  0.00  0.00    -0.650 OA
BRANCH  56  58
ATOM     58  O   UNK d   0      -9.131 -22.081   2.590  0.00  0.00    -0.776 OA
ATOM     59  H   UNK d   0      -9.769 -21.318   2.880  0.00  0.00     0.167 HD
ENDBRANCH  56  58
ENDBRANCH  55  56
ENDBRANCH  21  55
BRANCH  18  60
ATOM     60  C   UNK d   0      -8.849 -26.527  -0.829  0.00  0.00     0.151 C 
BRANCH  60  61
ATOM     61  C   UNK d   0      -7.677 -27.010  -0.083  0.00  0.00     0.143 C 
ATOM     62  O   UNK d   0      -7.447 -26.860   1.117  0.00  0.00    -0.650 OA
BRANCH  61  63
ATOM     63  O   UNK d   0      -6.725 -27.722  -0.853  0.00  0.00    -0.776 OA
ATOM     64  H   UNK d   0      -6.003 -27.240  -1.359  0.00  0.00     0.167 HD
ENDBRANCH  61  63
ENDBRANCH  60  61
ENDBRANCH  18  60
BRANCH  14  65
ATOM     65  C   UNK d   0      -8.983 -26.863  -3.842  0.00  0.00     0.052 C 
BRANCH  65  66
ATOM     66  C   UNK d   0     -10.469 -26.818  -3.785  0.00  0.00     0.115 C 
BRANCH  66  67
ATOM     67  C   UNK d   0     -11.162 -25.633  -4.206  0.00  0.00     0.139 C 
ATOM     68  O   UNK d   0     -11.020 -25.239  -5.422  0.00  0.00    -0.650 OA
BRANCH  67  69
ATOM     69  O   UNK d   0     -12.000 -24.819  -3.445  0.00  0.00    -0.776 OA
ATOM     70  H   UNK d   0     -12.828 -24.449  -3.933  0.00  0.00     0.167 HD
ENDBRANCH  67  69
ENDBRANCH  66  67
ENDBRANCH  65  66
ENDBRANCH  14  65
ENDBRANCH   6   7
ENDBRANCH   5   6
ENDBRANCH   2   5
TORSDOF 28
ENDMDL
MODEL 12
REMARK VINA RESULT:      -8.7     30.162     34.006
REMARK  28 active torsions:
REMARK  status: ('A' for Active; 'I' for Inactive)
REMARK    1  A    between atoms: C_2  and  O_3 
REMARK    2  A    between atoms: C_2  and  C_4 
REMARK    3  A    between atoms: C_4  and  C_5 
REMARK    4  A    between atoms: C_5  and  C_6 
REMARK    5  A    between atoms: C_7  and  C_8 
REMARK    6  A    between atoms: C_8  and  C_9 
REMARK    7  A    between atoms: C_9  and  O_11 
REMARK    8  A    between atoms: C_28  and  C_29 
REMARK    9  A    between atoms: C_29  and  C_30 
REMARK   10  A    between atoms: C_30  and  O_32 
REMARK   11  A    between atoms: C_33  and  C_34 
REMARK   12  A    between atoms: C_34  and  C_35 
REMARK   13  A    between atoms: C_35  and  C_36 
REMARK   14  A    between atoms: C_36  and  O_38 
REMARK   15  A    between atoms: C_39  and  C_40 
REMARK   16  A    between atoms: C_40  and  C_41 
REMARK   17  A    between atoms: C_41  and  C_42 
REMARK   18  A    between atoms: C_42  and  O_44 
REMARK   19  A    between atoms: C_45  and  C_46 
REMARK   20  A    between atoms: C_46  and  C_47 
REMARK   21  A    between atoms: C_47  and  O_49 
REMARK   22  A    between atoms: C_50  and  C_51 
REMARK   23  A    between atoms: C_51  and  C_52 
REMARK   24  A    between atoms: C_52  and  O_54 
REMARK   25  A    between atoms: C_55  and  C_56 
REMARK   26  A    between atoms: C_56  and  C_57 
REMARK   27  A    between atoms: C_57  and  C_58 
REMARK   28  A    between atoms: C_58  and  O_60 
ROOT
ATOM      1  O   UNK d   0       2.213 -16.986  -0.462  0.00  0.00    -0.650 OA
ATOM      2  C   UNK d   0       1.280 -16.491  -1.133  0.00  0.00     0.139 C 
ENDROOT
BRANCH   2   3
ATOM      3  O   UNK d   0       1.473 -15.289  -1.769  0.00  0.00    -0.776 OA
ATOM      4  H   UNK d   0       2.405 -14.876  -1.847  0.00  0.00     0.167 HD
ENDBRANCH   2   3
BRANCH   2   5
ATOM      5  C   UNK d   0      -0.025 -17.202  -1.237  0.00  0.00     0.115 C 
BRANCH   5   6
ATOM      6  C   UNK d   0       0.202 -18.676  -1.439  0.00  0.00     0.052 C 
BRANCH   6   7
ATOM      7  C   UNK d   0      -0.916 -19.336  -2.210  0.00  0.00    -0.020 A 
ATOM      8  C   UNK d   0      -1.088 -19.356  -3.506  0.00  0.00    -0.011 A 
ATOM      9  C   UNK d   0      -2.303 -20.103  -3.783  0.00  0.00     0.067 A 
ATOM     10  C   UNK d   0      -3.012 -20.496  -4.929  0.00  0.00     0.062 C 
ATOM     11  N   UNK d   0      -2.810 -20.497  -2.595  0.00  0.00    -0.248 NA
ATOM     12  C   UNK d   0      -4.024 -21.458  -5.011  0.00  0.00     0.041 A 
ATOM     13  N   UNK d   0      -5.075 -21.710  -4.207  0.00  0.00    -0.355 N 
ATOM     14  C   UNK d   0      -3.984 -22.401  -6.054  0.00  0.00    -0.022 A 
ATOM     15  C   UNK d   0      -5.698 -22.794  -4.709  0.00  0.00     0.042 A 
ATOM     16  H   UNK d   0      -5.382 -21.123  -3.314  0.00  0.00     0.166 HD
ATOM     17  C   UNK d   0      -6.846 -23.477  -4.261  0.00  0.00     0.062 C 
ATOM     18  C   UNK d   0      -5.042 -23.255  -5.867  0.00  0.00    -0.013 A 
ATOM     19  C   UNK d   0      -7.183 -23.851  -2.985  0.00  0.00     0.067 A 
ATOM     20  N   UNK d   0      -6.446 -23.348  -1.992  0.00  0.00    -0.248 NA
ATOM     21  C   UNK d   0      -8.183 -24.716  -2.380  0.00  0.00    -0.011 A 
ATOM     22  C   UNK d   0      -6.891 -23.821  -0.782  0.00  0.00     0.066 A 
ATOM     23  C   UNK d   0      -6.234 -23.346   0.344  0.00  0.00     0.062 C 
ATOM     24  C   UNK d   0      -8.003 -24.697  -1.091  0.00  0.00    -0.020 A 
ATOM     25  C   UNK d   0      -5.229 -22.369   0.406  0.00  0.00     0.041 A 
ATOM     26  N   UNK d   0      -4.176 -22.128  -0.384  0.00  0.00    -0.355 N 
ATOM     27  C   UNK d   0      -5.272 -21.421   1.451  0.00  0.00    -0.022 A 
ATOM     28  C   UNK d   0      -3.548 -21.054   0.119  0.00  0.00     0.042 A 
ATOM     29  H   UNK d   0      -3.863 -22.726  -1.275  0.00  0.00     0.166 HD
ATOM     30  C   UNK d   0      -2.400 -20.369  -0.311  0.00  0.00     0.062 C 
ATOM     31  C   UNK d   0      -4.213 -20.584   1.277  0.00  0.00    -0.013 A 
ATOM     32  C   UNK d   0      -2.021 -20.068  -1.609  0.00  0.00     0.066 A 
BRANCH   8  33
ATOM     33  C   UNK d   0      -0.220 -18.734  -4.524  0.00  0.00     0.151 C 
BRANCH  33  34
ATOM     34  C   UNK d   0      -0.631 -17.359  -4.861  0.00  0.00     0.143 C 
ATOM     35  O   UNK d   0      -1.737 -17.133  -5.371  0.00  0.00    -0.650 OA
BRANCH  34  36
ATOM     36  O   UNK d   0       0.228 -16.315  -4.605  0.00  0.00    -0.776 OA
ATOM     37  H   UNK d   0       1.196 -16.483  -4.300  0.00  0.00     0.167 HD
ENDBRANCH  34  36
ENDBRANCH  33  34
ENDBRANCH   8  33
BRANCH  31  38
ATOM     38  C   UNK d   0      -3.859 -19.401   2.147  0.00  0.00     0.151 C 
BRANCH  38  39
ATOM     39  C   UNK d   0      -4.239 -18.135   1.557  0.00  0.00     0.143 C 
ATOM     40  O   UNK d   0      -3.773 -17.051   1.949  0.00  0.00    -0.650 OA
BRANCH  39  41
ATOM     41  O   UNK d   0      -5.159 -18.116   0.509  0.00  0.00    -0.776 OA
ATOM     42  H   UNK d   0      -6.115 -18.410   0.729  0.00  0.00     0.167 HD
ENDBRANCH  39  41
ENDBRANCH  38  39
ENDBRANCH  31  38
BRANCH  27  43
ATOM     43  C   UNK d   0      -6.260 -21.286   2.583  0.00  0.00     0.052 C 
BRANCH  43  44
ATOM     44  C   UNK d   0      -7.221 -20.157   2.397  0.00  0.00     0.115 C 
BRANCH  44  45
ATOM     45  C   UNK d   0      -7.823 -19.889   3.729  0.00  0.00     0.139 C 
ATOM     46  O   UNK d   0      -7.097 -19.367   4.612  0.00  0.00    -0.650 OA
BRANCH  45  47
ATOM     47  O   UNK d   0      -9.135 -20.181   4.029  0.00  0.00    -0.776 OA
ATOM     48  H   UNK d   0      -9.580 -21.079   3.780  0.00  0.00     0.167 HD
ENDBRANCH  45  47
ENDBRANCH  44  45
ENDBRANCH  43  44
ENDBRANCH  27  43
BRANCH  24  49
ATOM     49  C   UNK d   0      -8.821 -25.404  -0.090  0.00  0.00     0.052 C 
BRANCH  49  50
ATOM     50  C   UNK d   0      -7.940 -26.194   0.843  0.00  0.00     0.115 C 
BRANCH  50  51
ATOM     51  C   UNK d   0      -6.813 -26.903   0.253  0.00  0.00     0.139 C 
ATOM     52  O   UNK d   0      -5.654 -26.846   0.728  0.00  0.00    -0.650 OA
BRANCH  51  53
ATOM     53  O   UNK d   0      -7.006 -27.676  -0.882  0.00  0.00    -0.776 OA
ATOM     54  H   UNK d   0      -7.079 -28.672  -0.772  0.00  0.00     0.167 HD
ENDBRANCH  51  53
ENDBRANCH  50  51
ENDBRANCH  49  50
ENDBRANCH  24  49
BRANCH  21  55
ATOM     55  C   UNK d   0      -9.216 -25.467  -3.154  0.00  0.00     0.151 C 
BRANCH  55  56
ATOM     56  C   UNK d   0      -8.615 -26.470  -4.047  0.00  0.00     0.143 C 
ATOM     57  O   UNK d   0      -8.116 -27.533  -3.629  0.00  0.00    -0.650 OA
BRANCH  56  58
ATOM     58  O   UNK d   0      -8.613 -26.202  -5.415  0.00  0.00    -0.776 OA
ATOM     59  H   UNK d   0      -7.878 -26.694  -5.954  0.00  0.00     0.167 HD
ENDBRANCH  56  58
ENDBRANCH  55  56
ENDBRANCH  21  55
BRANCH  18  60
ATOM     60  C   UNK d   0      -5.374 -24.428  -6.756  0.00  0.00     0.151 C 
BRANCH  60  61
ATOM     61  C   UNK d   0      -6.480 -23.983  -7.617  0.00  0.00     0.143 C 
ATOM     62  O   UNK d   0      -7.677 -23.951  -7.330  0.00  0.00    -0.650 OA
BRANCH  61  63
ATOM     63  O   UNK d   0      -6.100 -23.547  -8.909  0.00  0.00    -0.776 OA
ATOM     64  H   UNK d   0      -5.132 -23.441  -9.156  0.00  0.00     0.167 HD
ENDBRANCH  61  63
ENDBRANCH  60  61
ENDBRANCH  18  60
BRANCH  14  65
ATOM     65  C   UNK d   0      -3.088 -22.496  -7.256  0.00  0.00     0.052 C 
BRANCH  65  66
ATOM     66  C   UNK d   0      -3.430 -21.508  -8.315  0.00  0.00     0.115 C 
BRANCH  66  67
ATOM     67  C   UNK d   0      -2.438 -20.570  -8.760  0.00  0.00     0.139 C 
ATOM     68  O   UNK d   0      -1.212 -20.953  -8.816  0.00  0.00    -0.650 OA
BRANCH  67  69
ATOM     69  O   UNK d   0      -2.632 -19.247  -9.154  0.00  0.00    -0.776 OA
ATOM     70  H   UNK d   0      -3.587 -19.004  -9.454  0.00  0.00     0.167 HD
ENDBRANCH  67  69
ENDBRANCH  66  67
ENDBRANCH  65  66
ENDBRANCH  14  65
ENDBRANCH   6   7
ENDBRANCH   5   6
ENDBRANCH   2   5
TORSDOF 28
ENDMDL
MODEL 13
REMARK VINA RESULT:      -8.5     30.530     33.349
REMARK  28 active torsions:
REMARK  status: ('A' for Active; 'I' for Inactive)
REMARK    1  A    between atoms: C_2  and  O_3 
REMARK    2  A    between atoms: C_2  and  C_4 
REMARK    3  A    between atoms: C_4  and  C_5 
REMARK    4  A    between atoms: C_5  and  C_6 
REMARK    5  A    between atoms: C_7  and  C_8 
REMARK    6  A    between atoms: C_8  and  C_9 
REMARK    7  A    between atoms: C_9  and  O_11 
REMARK    8  A    between atoms: C_28  and  C_29 
REMARK    9  A    between atoms: C_29  and  C_30 
REMARK   10  A    between atoms: C_30  and  O_32 
REMARK   11  A    between atoms: C_33  and  C_34 
REMARK   12  A    between atoms: C_34  and  C_35 
REMARK   13  A    between atoms: C_35  and  C_36 
REMARK   14  A    between atoms: C_36  and  O_38 
REMARK   15  A    between atoms: C_39  and  C_40 
REMARK   16  A    between atoms: C_40  and  C_41 
REMARK   17  A    between atoms: C_41  and  C_42 
REMARK   18  A    between atoms: C_42  and  O_44 
REMARK   19  A    between atoms: C_45  and  C_46 
REMARK   20  A    between atoms: C_46  and  C_47 
REMARK   21  A    between atoms: C_47  and  O_49 
REMARK   22  A    between atoms: C_50  and  C_51 
REMARK   23  A    between atoms: C_51  and  C_52 
REMARK   24  A    between atoms: C_52  and  O_54 
REMARK   25  A    between atoms: C_55  and  C_56 
REMARK   26  A    between atoms: C_56  and  C_57 
REMARK   27  A    between atoms: C_57  and  C_58 
REMARK   28  A    between atoms: C_58  and  O_60 
ROOT
ATOM      1  O   UNK d   0      -4.319 -16.373   0.065  0.00  0.00    -0.650 OA
ATOM      2  C   UNK d   0      -3.692 -17.215   0.744  0.00  0.00     0.139 C 
ENDROOT
BRANCH   2   3
ATOM      3  O   UNK d   0      -3.722 -17.131   2.116  0.00  0.00    -0.776 OA
ATOM      4  H   UNK d   0      -4.576 -17.335   2.638  0.00  0.00     0.167 HD
ENDBRANCH   2   3
BRANCH   2   5
ATOM      5  C   UNK d   0      -2.921 -18.298   0.069  0.00  0.00     0.115 C 
BRANCH   5   6
ATOM      6  C   UNK d   0      -2.726 -19.457   1.008  0.00  0.00     0.052 C 
BRANCH   6   7
ATOM      7  C   UNK d   0      -3.763 -20.538   0.820  0.00  0.00    -0.020 A 
ATOM      8  C   UNK d   0      -4.491 -21.115   1.741  0.00  0.00    -0.011 A 
ATOM      9  C   UNK d   0      -5.339 -22.098   1.088  0.00  0.00     0.067 A 
ATOM     10  C   UNK d   0      -6.330 -23.007   1.489  0.00  0.00     0.062 C 
ATOM     11  N   UNK d   0      -5.057 -22.057  -0.231  0.00  0.00    -0.248 NA
ATOM     12  C   UNK d   0      -7.242 -23.683   0.671  0.00  0.00     0.041 A 
ATOM     13  N   UNK d   0      -7.080 -24.299  -0.516  0.00  0.00    -0.355 N 
ATOM     14  C   UNK d   0      -8.595 -23.730   1.053  0.00  0.00    -0.022 A 
ATOM     15  C   UNK d   0      -8.297 -24.728  -0.900  0.00  0.00     0.042 A 
ATOM     16  H   UNK d   0      -6.122 -24.444  -1.061  0.00  0.00     0.166 HD
ATOM     17  C   UNK d   0      -8.695 -25.429  -2.056  0.00  0.00     0.062 C 
ATOM     18  C   UNK d   0      -9.272 -24.389   0.058  0.00  0.00    -0.013 A 
ATOM     19  C   UNK d   0      -8.339 -25.212  -3.362  0.00  0.00     0.067 A 
ATOM     20  N   UNK d   0      -7.336 -24.358  -3.581  0.00  0.00    -0.248 NA
ATOM     21  C   UNK d   0      -8.796 -25.678  -4.661  0.00  0.00    -0.011 A 
ATOM     22  C   UNK d   0      -7.105 -24.231  -4.929  0.00  0.00     0.066 A 
ATOM     23  C   UNK d   0      -6.058 -23.399  -5.299  0.00  0.00     0.062 C 
ATOM     24  C   UNK d   0      -8.072 -25.097  -5.574  0.00  0.00    -0.020 A 
ATOM     25  C   UNK d   0      -5.146 -22.739  -4.461  0.00  0.00     0.041 A 
ATOM     26  N   UNK d   0      -5.309 -22.114  -3.289  0.00  0.00    -0.355 N 
ATOM     27  C   UNK d   0      -3.787 -22.696  -4.843  0.00  0.00    -0.022 A 
ATOM     28  C   UNK d   0      -4.098 -21.678  -2.908  0.00  0.00     0.042 A 
ATOM     29  H   UNK d   0      -6.274 -21.960  -2.747  0.00  0.00     0.166 HD
ATOM     30  C   UNK d   0      -3.690 -20.971  -1.766  0.00  0.00     0.062 C 
ATOM     31  C   UNK d   0      -3.117 -22.027  -3.866  0.00  0.00    -0.013 A 
ATOM     32  C   UNK d   0      -4.117 -21.138  -0.458  0.00  0.00     0.066 A 
BRANCH   8  33
ATOM     33  C   UNK d   0      -4.469 -20.837   3.189  0.00  0.00     0.151 C 
BRANCH  33  34
ATOM     34  C   UNK d   0      -5.603 -20.004   3.628  0.00  0.00     0.143 C 
ATOM     35  O   UNK d   0      -6.498 -20.474   4.345  0.00  0.00    -0.650 OA
BRANCH  34  36
ATOM     36  O   UNK d   0      -5.666 -18.687   3.234  0.00  0.00    -0.776 OA
ATOM     37  H   UNK d   0      -4.862 -18.056   3.349  0.00  0.00     0.167 HD
ENDBRANCH  34  36
ENDBRANCH  33  34
ENDBRANCH   8  33
BRANCH  31  38
ATOM     38  C   UNK d   0      -1.633 -21.747  -3.834  0.00  0.00     0.151 C 
BRANCH  38  39
ATOM     39  C   UNK d   0      -0.883 -22.769  -3.135  0.00  0.00     0.143 C 
ATOM     40  O   UNK d   0      -0.904 -23.963  -3.482  0.00  0.00    -0.650 OA
BRANCH  39  41
ATOM     41  O   UNK d   0      -0.105 -22.417  -2.033  0.00  0.00    -0.776 OA
ATOM     42  H   UNK d   0       0.600 -23.095  -1.730  0.00  0.00     0.167 HD
ENDBRANCH  39  41
ENDBRANCH  38  39
ENDBRANCH  31  38
BRANCH  27  43
ATOM     43  C   UNK d   0      -3.121 -23.254  -6.076  0.00  0.00     0.052 C 
BRANCH  43  44
ATOM     44  C   UNK d   0      -3.056 -22.277  -7.205  0.00  0.00     0.115 C 
BRANCH  44  45
ATOM     45  C   UNK d   0      -2.636 -23.045  -8.406  0.00  0.00     0.139 C 
ATOM     46  O   UNK d   0      -3.217 -22.807  -9.494  0.00  0.00    -0.650 OA
BRANCH  45  47
ATOM     47  O   UNK d   0      -1.638 -23.995  -8.375  0.00  0.00    -0.776 OA
ATOM     48  H   UNK d   0      -0.662 -23.774  -8.119  0.00  0.00     0.167 HD
ENDBRANCH  45  47
ENDBRANCH  44  45
ENDBRANCH  43  44
ENDBRANCH  27  43
BRANCH  24  49
ATOM     49  C   UNK d   0      -8.172 -25.311  -7.028  0.00  0.00     0.052 C 
BRANCH  49  50
ATOM     50  C   UNK d   0      -6.937 -26.007  -7.541  0.00  0.00     0.115 C 
BRANCH  50  51
ATOM     51  C   UNK d   0      -7.093 -27.379  -8.007  0.00  0.00     0.139 C 
ATOM     52  O   UNK d   0      -7.666 -27.666  -9.084  0.00  0.00    -0.650 OA
BRANCH  51  53
ATOM     53  O   UNK d   0      -6.596 -28.423  -7.242  0.00  0.00    -0.776 OA
ATOM     54  H   UNK d   0      -5.814 -28.241  -6.639  0.00  0.00     0.167 HD
ENDBRANCH  51  53
ENDBRANCH  50  51
ENDBRANCH  49  50
ENDBRANCH  24  49
BRANCH  21  55
ATOM     55  C   UNK d   0      -9.905 -26.658  -4.853  0.00  0.00     0.151 C 
BRANCH  55  56
ATOM     56  C   UNK d   0      -9.456 -28.045  -4.658  0.00  0.00     0.143 C 
ATOM     57  O   UNK d   0      -8.276 -28.404  -4.840  0.00  0.00    -0.650 OA
BRANCH  56  58
ATOM     58  O   UNK d   0     -10.403 -28.983  -4.250  0.00  0.00    -0.776 OA
ATOM     59  H   UNK d   0     -10.306 -29.918  -4.684  0.00  0.00     0.167 HD
ENDBRANCH  56  58
ENDBRANCH  55  56
ENDBRANCH  21  55
BRANCH  18  60
ATOM     60  C   UNK d   0     -10.757 -24.658   0.054  0.00  0.00     0.151 C 
BRANCH  60  61
ATOM     61  C   UNK d   0     -11.342 -23.678  -0.873  0.00  0.00     0.143 C 
ATOM     62  O   UNK d   0     -11.413 -22.459  -0.718  0.00  0.00    -0.650 OA
BRANCH  61  63
ATOM     63  O   UNK d   0     -11.875 -24.222  -2.067  0.00  0.00    -0.776 OA
ATOM     64  H   UNK d   0     -12.680 -23.814  -2.509  0.00  0.00     0.167 HD
ENDBRANCH  61  63
ENDBRANCH  60  61
ENDBRANCH  18  60
BRANCH  14  65
ATOM     65  C   UNK d   0      -9.272 -23.290   2.320  0.00  0.00     0.052 C 
BRANCH  65  66
ATOM     66  C   UNK d   0      -9.492 -21.820   2.382  0.00  0.00     0.115 C 
BRANCH  66  67
ATOM     67  C   UNK d   0     -10.809 -21.308   2.638  0.00  0.00     0.139 C 
ATOM     68  O   UNK d   0     -11.157 -21.093   3.857  0.00  0.00    -0.650 OA
BRANCH  67  69
ATOM     69  O   UNK d   0     -11.800 -21.000   1.707  0.00  0.00    -0.776 OA
ATOM     70  H   UNK d   0     -11.610 -21.291   0.737  0.00  0.00     0.167 HD
ENDBRANCH  67  69
ENDBRANCH  66  67
ENDBRANCH  65  66
ENDBRANCH  14  65
ENDBRANCH   6   7
ENDBRANCH   5   6
ENDBRANCH   2   5
TORSDOF 28
ENDMDL
MODEL 14
REMARK VINA RESULT:      -8.4     32.575     35.466
REMARK  28 active torsions:
REMARK  status: ('A' for Active; 'I' for Inactive)
REMARK    1  A    between atoms: C_2  and  O_3 
REMARK    2  A    between atoms: C_2  and  C_4 
REMARK    3  A    between atoms: C_4  and  C_5 
REMARK    4  A    between atoms: C_5  and  C_6 
REMARK    5  A    between atoms: C_7  and  C_8 
REMARK    6  A    between atoms: C_8  and  C_9 
REMARK    7  A    between atoms: C_9  and  O_11 
REMARK    8  A    between atoms: C_28  and  C_29 
REMARK    9  A    between atoms: C_29  and  C_30 
REMARK   10  A    between atoms: C_30  and  O_32 
REMARK   11  A    between atoms: C_33  and  C_34 
REMARK   12  A    between atoms: C_34  and  C_35 
REMARK   13  A    between atoms: C_35  and  C_36 
REMARK   14  A    between atoms: C_36  and  O_38 
REMARK   15  A    between atoms: C_39  and  C_40 
REMARK   16  A    between atoms: C_40  and  C_41 
REMARK   17  A    between atoms: C_41  and  C_42 
REMARK   18  A    between atoms: C_42  and  O_44 
REMARK   19  A    between atoms: C_45  and  C_46 
REMARK   20  A    between atoms: C_46  and  C_47 
REMARK   21  A    between atoms: C_47  and  O_49 
REMARK   22  A    between atoms: C_50  and  C_51 
REMARK   23  A    between atoms: C_51  and  C_52 
REMARK   24  A    between atoms: C_52  and  O_54 
REMARK   25  A    between atoms: C_55  and  C_56 
REMARK   26  A    between atoms: C_56  and  C_57 
REMARK   27  A    between atoms: C_57  and  C_58 
REMARK   28  A    between atoms: C_58  and  O_60 
ROOT
ATOM      1  O   UNK d   0      -4.914 -28.164   0.955  0.00  0.00    -0.650 OA
ATOM      2  C   UNK d   0      -5.709 -27.974   0.007  0.00  0.00     0.139 C 
ENDROOT
BRANCH   2   3
ATOM      3  O   UNK d   0      -5.704 -28.839  -1.060  0.00  0.00    -0.776 OA
ATOM      4  H   UNK d   0      -4.890 -28.916  -1.673  0.00  0.00     0.167 HD
ENDBRANCH   2   3
BRANCH   2   5
ATOM      5  C   UNK d   0      -6.649 -26.818   0.039  0.00  0.00     0.115 C 
BRANCH   5   6
ATOM      6  C   UNK d   0      -6.461 -26.033   1.309  0.00  0.00     0.052 C 
BRANCH   6   7
ATOM      7  C   UNK d   0      -7.514 -24.967   1.496  0.00  0.00    -0.020 A 
ATOM      8  C   UNK d   0      -8.811 -25.097   1.374  0.00  0.00    -0.011 A 
ATOM      9  C   UNK d   0      -9.414 -23.801   1.638  0.00  0.00     0.067 A 
ATOM     10  C   UNK d   0     -10.717 -23.283   1.691  0.00  0.00     0.062 C 
ATOM     11  N   UNK d   0      -8.411 -22.940   1.907  0.00  0.00    -0.248 NA
ATOM     12  C   UNK d   0     -11.122 -22.061   2.239  0.00  0.00     0.041 A 
ATOM     13  N   UNK d   0     -10.577 -20.832   2.164  0.00  0.00    -0.355 N 
ATOM     14  C   UNK d   0     -12.256 -22.031   3.071  0.00  0.00    -0.022 A 
ATOM     15  C   UNK d   0     -11.331 -20.024   2.933  0.00  0.00     0.042 A 
ATOM     16  H   UNK d   0      -9.688 -20.537   1.564  0.00  0.00     0.166 HD
ATOM     17  C   UNK d   0     -11.209 -18.647   3.207  0.00  0.00     0.062 C 
ATOM     18  C   UNK d   0     -12.393 -20.740   3.519  0.00  0.00    -0.013 A 
ATOM     19  C   UNK d   0     -10.085 -17.927   3.521  0.00  0.00     0.067 A 
ATOM     20  N   UNK d   0      -8.909 -18.542   3.365  0.00  0.00    -0.248 NA
ATOM     21  C   UNK d   0      -9.806 -16.593   4.025  0.00  0.00    -0.011 A 
ATOM     22  C   UNK d   0      -7.882 -17.707   3.731  0.00  0.00     0.066 A 
ATOM     23  C   UNK d   0      -6.597 -18.208   3.582  0.00  0.00     0.062 C 
ATOM     24  C   UNK d   0      -8.516 -16.472   4.150  0.00  0.00    -0.020 A 
ATOM     25  C   UNK d   0      -6.212 -19.433   3.017  0.00  0.00     0.041 A 
ATOM     26  N   UNK d   0      -6.745 -20.657   3.104  0.00  0.00    -0.355 N 
ATOM     27  C   UNK d   0      -5.076 -19.462   2.179  0.00  0.00    -0.022 A 
ATOM     28  C   UNK d   0      -5.989 -21.467   2.344  0.00  0.00     0.042 A 
ATOM     29  H   UNK d   0      -7.632 -20.954   3.716  0.00  0.00     0.166 HD
ATOM     30  C   UNK d   0      -6.094 -22.839   2.071  0.00  0.00     0.062 C 
ATOM     31  C   UNK d   0      -4.929 -20.744   1.748  0.00  0.00    -0.013 A 
ATOM     32  C   UNK d   0      -7.242 -23.579   1.838  0.00  0.00     0.066 A 
BRANCH   8  33
ATOM     33  C   UNK d   0      -9.549 -26.325   1.026  0.00  0.00     0.151 C 
BRANCH  33  34
ATOM     34  C   UNK d   0      -9.923 -26.381  -0.399  0.00  0.00     0.143 C 
ATOM     35  O   UNK d   0      -9.791 -25.390  -1.131  0.00  0.00    -0.650 OA
BRANCH  34  36
ATOM     36  O   UNK d   0     -10.427 -27.551  -0.919  0.00  0.00    -0.776 OA
ATOM     37  H   UNK d   0     -11.418 -27.804  -0.802  0.00  0.00     0.167 HD
ENDBRANCH  34  36
ENDBRANCH  33  34
ENDBRANCH   8  33
BRANCH  31  38
ATOM     38  C   UNK d   0      -3.854 -21.254   0.816  0.00  0.00     0.151 C 
BRANCH  38  39
ATOM     39  C   UNK d   0      -2.603 -21.519   1.493  0.00  0.00     0.143 C 
ATOM     40  O   UNK d   0      -2.522 -22.292   2.464  0.00  0.00    -0.650 OA
BRANCH  39  41
ATOM     41  O   UNK d   0      -1.437 -20.893   1.052  0.00  0.00    -0.776 OA
ATOM     42  H   UNK d   0      -1.155 -21.073   0.083  0.00  0.00     0.167 HD
ENDBRANCH  39  41
ENDBRANCH  38  39
ENDBRANCH  31  38
BRANCH  27  43
ATOM     43  C   UNK d   0      -4.148 -18.340   1.784  0.00  0.00     0.052 C 
BRANCH  43  44
ATOM     44  C   UNK d   0      -4.241 -17.978   0.337  0.00  0.00     0.115 C 
BRANCH  44  45
ATOM     45  C   UNK d   0      -5.346 -16.990   0.218  0.00  0.00     0.139 C 
ATOM     46  O   UNK d   0      -5.190 -15.861   0.745  0.00  0.00    -0.650 OA
BRANCH  45  47
ATOM     47  O   UNK d   0      -6.521 -17.261  -0.448  0.00  0.00    -0.776 OA
ATOM     48  H   UNK d   0      -7.406 -17.473   0.040  0.00  0.00     0.167 HD
ENDBRANCH  45  47
ENDBRANCH  44  45
ENDBRANCH  43  44
ENDBRANCH  27  43
BRANCH  24  49
ATOM     49  C   UNK d   0      -7.796 -15.266   4.594  0.00  0.00     0.052 C 
BRANCH  49  50
ATOM     50  C   UNK d   0      -7.257 -15.460   5.988  0.00  0.00     0.115 C 
BRANCH  50  51
ATOM     51  C   UNK d   0      -8.230 -15.614   7.061  0.00  0.00     0.139 C 
ATOM     52  O   UNK d   0      -8.297 -16.645   7.770  0.00  0.00    -0.650 OA
BRANCH  51  53
ATOM     53  O   UNK d   0      -9.128 -14.591   7.325  0.00  0.00    -0.776 OA
ATOM     54  H   UNK d   0      -9.899 -14.461   6.693  0.00  0.00     0.167 HD
ENDBRANCH  51  53
ENDBRANCH  50  51
ENDBRANCH  49  50
ENDBRANCH  24  49
BRANCH  21  55
ATOM     55  C   UNK d   0     -10.858 -15.577   4.325  0.00  0.00     0.151 C 
BRANCH  55  56
ATOM     56  C   UNK d   0     -11.778 -16.031   5.378  0.00  0.00     0.143 C 
ATOM     57  O   UNK d   0     -11.384 -16.508   6.461  0.00  0.00    -0.650 OA
BRANCH  56  58
ATOM     58  O   UNK d   0     -13.147 -15.916   5.138  0.00  0.00    -0.776 OA
ATOM     59  H   UNK d   0     -13.748 -16.048   5.971  0.00  0.00     0.167 HD
ENDBRANCH  56  58
ENDBRANCH  55  56
ENDBRANCH  21  55
BRANCH  18  60
ATOM     60  C   UNK d   0     -13.480 -20.259   4.448  0.00  0.00     0.151 C 
BRANCH  60  61
ATOM     61  C   UNK d   0     -14.340 -19.379   3.642  0.00  0.00     0.143 C 
ATOM     62  O   UNK d   0     -14.802 -19.613   2.526  0.00  0.00    -0.650 OA
BRANCH  61  63
ATOM     63  O   UNK d   0     -14.655 -18.134   4.239  0.00  0.00    -0.776 OA
ATOM     64  H   UNK d   0     -15.007 -17.371   3.689  0.00  0.00     0.167 HD
ENDBRANCH  61  63
ENDBRANCH  60  61
ENDBRANCH  18  60
BRANCH  14  65
ATOM     65  C   UNK d   0     -13.265 -23.096   3.393  0.00  0.00     0.052 C 
BRANCH  65  66
ATOM     66  C   UNK d   0     -14.449 -23.066   2.492  0.00  0.00     0.115 C 
BRANCH  66  67
ATOM     67  C   UNK d   0     -14.270 -22.816   1.090  0.00  0.00     0.139 C 
ATOM     68  O   UNK d   0     -13.969 -23.804   0.323  0.00  0.00    -0.650 OA
BRANCH  67  69
ATOM     69  O   UNK d   0     -14.382 -21.598   0.419  0.00  0.00    -0.776 OA
ATOM     70  H   UNK d   0     -14.096 -21.604  -0.570  0.00  0.00     0.167 HD
ENDBRANCH  67  69
ENDBRANCH  66  67
ENDBRANCH  65  66
ENDBRANCH  14  65
ENDBRANCH   6   7
ENDBRANCH   5   6
ENDBRANCH   2   5
TORSDOF 28
ENDMDL
MODEL 15
REMARK VINA RESULT:      -8.3     29.797     33.671
REMARK  28 active torsions:
REMARK  status: ('A' for Active; 'I' for Inactive)
REMARK    1  A    between atoms: C_2  and  O_3 
REMARK    2  A    between atoms: C_2  and  C_4 
REMARK    3  A    between atoms: C_4  and  C_5 
REMARK    4  A    between atoms: C_5  and  C_6 
REMARK    5  A    between atoms: C_7  and  C_8 
REMARK    6  A    between atoms: C_8  and  C_9 
REMARK    7  A    between atoms: C_9  and  O_11 
REMARK    8  A    between atoms: C_28  and  C_29 
REMARK    9  A    between atoms: C_29  and  C_30 
REMARK   10  A    between atoms: C_30  and  O_32 
REMARK   11  A    between atoms: C_33  and  C_34 
REMARK   12  A    between atoms: C_34  and  C_35 
REMARK   13  A    between atoms: C_35  and  C_36 
REMARK   14  A    between atoms: C_36  and  O_38 
REMARK   15  A    between atoms: C_39  and  C_40 
REMARK   16  A    between atoms: C_40  and  C_41 
REMARK   17  A    between atoms: C_41  and  C_42 
REMARK   18  A    between atoms: C_42  and  O_44 
REMARK   19  A    between atoms: C_45  and  C_46 
REMARK   20  A    between atoms: C_46  and  C_47 
REMARK   21  A    between atoms: C_47  and  O_49 
REMARK   22  A    between atoms: C_50  and  C_51 
REMARK   23  A    between atoms: C_51  and  C_52 
REMARK   24  A    between atoms: C_52  and  O_54 
REMARK   25  A    between atoms: C_55  and  C_56 
REMARK   26  A    between atoms: C_56  and  C_57 
REMARK   27  A    between atoms: C_57  and  C_58 
REMARK   28  A    between atoms: C_58  and  O_60 
ROOT
ATOM      1  O   UNK d   0       0.274 -18.106  -6.984  0.00  0.00    -0.650 OA
ATOM      2  C   UNK d   0      -0.740 -17.481  -6.598  0.00  0.00     0.139 C 
ENDROOT
BRANCH   2   3
ATOM      3  O   UNK d   0      -1.412 -16.675  -7.485  0.00  0.00    -0.776 OA
ATOM      4  H   UNK d   0      -2.164 -17.047  -8.070  0.00  0.00     0.167 HD
ENDBRANCH   2   3
BRANCH   2   5
ATOM      5  C   UNK d   0      -1.208 -17.612  -5.189  0.00  0.00     0.115 C 
BRANCH   5   6
ATOM      6  C   UNK d   0      -0.412 -18.672  -4.476  0.00  0.00     0.052 C 
BRANCH   6   7
ATOM      7  C   UNK d   0      -1.237 -19.439  -3.470  0.00  0.00    -0.020 A 
ATOM      8  C   UNK d   0      -1.110 -19.438  -2.167  0.00  0.00    -0.011 A 
ATOM      9  C   UNK d   0      -2.117 -20.332  -1.622  0.00  0.00     0.067 A 
ATOM     10  C   UNK d   0      -2.517 -20.747  -0.342  0.00  0.00     0.062 C 
ATOM     11  N   UNK d   0      -2.810 -20.838  -2.663  0.00  0.00    -0.248 NA
ATOM     12  C   UNK d   0      -3.701 -21.407   0.004  0.00  0.00     0.041 A 
ATOM     13  N   UNK d   0      -4.354 -22.424  -0.590  0.00  0.00    -0.355 N 
ATOM     14  C   UNK d   0      -4.427 -20.961   1.123  0.00  0.00    -0.022 A 
ATOM     15  C   UNK d   0      -5.481 -22.629   0.119  0.00  0.00     0.042 A 
ATOM     16  H   UNK d   0      -4.016 -22.998  -1.480  0.00  0.00     0.166 HD
ATOM     17  C   UNK d   0      -6.517 -23.566  -0.064  0.00  0.00     0.062 C 
ATOM     18  C   UNK d   0      -5.562 -21.730   1.200  0.00  0.00    -0.013 A 
ATOM     19  C   UNK d   0      -7.157 -23.929  -1.221  0.00  0.00     0.067 A 
ATOM     20  N   UNK d   0      -6.622 -23.502  -2.368  0.00  0.00    -0.248 NA
ATOM     21  C   UNK d   0      -8.348 -24.690  -1.562  0.00  0.00    -0.011 A 
ATOM     22  C   UNK d   0      -7.376 -23.928  -3.434  0.00  0.00     0.066 A 
ATOM     23  C   UNK d   0      -6.911 -23.585  -4.694  0.00  0.00     0.062 C 
ATOM     24  C   UNK d   0      -8.473 -24.682  -2.858  0.00  0.00    -0.020 A 
ATOM     25  C   UNK d   0      -5.712 -22.933  -5.021  0.00  0.00     0.041 A 
ATOM     26  N   UNK d   0      -5.070 -21.912  -4.440  0.00  0.00    -0.355 N 
ATOM     27  C   UNK d   0      -4.981 -23.384  -6.141  0.00  0.00    -0.022 A 
ATOM     28  C   UNK d   0      -3.951 -21.700  -5.150  0.00  0.00     0.042 A 
ATOM     29  H   UNK d   0      -5.416 -21.329  -3.551  0.00  0.00     0.166 HD
ATOM     30  C   UNK d   0      -2.916 -20.766  -4.984  0.00  0.00     0.062 C 
ATOM     31  C   UNK d   0      -3.865 -22.611  -6.230  0.00  0.00    -0.013 A 
ATOM     32  C   UNK d   0      -2.330 -20.340  -3.803  0.00  0.00     0.066 A 
BRANCH   8  33
ATOM     33  C   UNK d   0      -0.124 -18.679  -1.375  0.00  0.00     0.151 C 
BRANCH  33  34
ATOM     34  C   UNK d   0      -0.583 -17.317  -1.048  0.00  0.00     0.143 C 
ATOM     35  O   UNK d   0      -1.712 -17.121  -0.576  0.00  0.00    -0.650 OA
BRANCH  34  36
ATOM     36  O   UNK d   0       0.256 -16.250  -1.272  0.00  0.00    -0.776 OA
ATOM     37  H   UNK d   0       1.157 -16.166  -0.781  0.00  0.00     0.167 HD
ENDBRANCH  34  36
ENDBRANCH  33  34
ENDBRANCH   8  33
BRANCH  31  38
ATOM     38  C   UNK d   0      -2.774 -22.734  -7.268  0.00  0.00     0.151 C 
BRANCH  38  39
ATOM     39  C   UNK d   0      -3.110 -22.084  -8.516  0.00  0.00     0.143 C 
ATOM     40  O   UNK d   0      -3.340 -22.722  -9.558  0.00  0.00    -0.650 OA
BRANCH  39  41
ATOM     41  O   UNK d   0      -3.184 -20.692  -8.566  0.00  0.00    -0.776 OA
ATOM     42  H   UNK d   0      -4.009 -20.289  -9.020  0.00  0.00     0.167 HD
ENDBRANCH  39  41
ENDBRANCH  38  39
ENDBRANCH  31  38
BRANCH  27  43
ATOM     43  C   UNK d   0      -5.299 -24.497  -7.108  0.00  0.00     0.052 C 
BRANCH  43  44
ATOM     44  C   UNK d   0      -6.430 -24.173  -8.030  0.00  0.00     0.115 C 
BRANCH  44  45
ATOM     45  C   UNK d   0      -7.125 -25.455  -8.317  0.00  0.00     0.139 C 
ATOM     46  O   UNK d   0      -6.808 -26.464  -7.640  0.00  0.00    -0.650 OA
BRANCH  45  47
ATOM     47  O   UNK d   0      -8.098 -25.577  -9.285  0.00  0.00    -0.776 OA
ATOM     48  H   UNK d   0      -9.089 -25.765  -9.063  0.00  0.00     0.167 HD
ENDBRANCH  45  47
ENDBRANCH  44  45
ENDBRANCH  43  44
ENDBRANCH  27  43
BRANCH  24  49
ATOM     49  C   UNK d   0      -9.521 -25.366  -3.633  0.00  0.00     0.052 C 
BRANCH  49  50
ATOM     50  C   UNK d   0     -10.702 -24.452  -3.839  0.00  0.00     0.115 C 
BRANCH  50  51
ATOM     51  C   UNK d   0     -11.827 -24.979  -4.599  0.00  0.00     0.139 C 
ATOM     52  O   UNK d   0     -12.103 -26.202  -4.638  0.00  0.00    -0.650 OA
BRANCH  51  53
ATOM     53  O   UNK d   0     -12.636 -24.113  -5.318  0.00  0.00    -0.776 OA
ATOM     54  H   UNK d   0     -12.935 -24.393  -6.236  0.00  0.00     0.167 HD
ENDBRANCH  51  53
ENDBRANCH  50  51
ENDBRANCH  49  50
ENDBRANCH  24  49
BRANCH  21  55
ATOM     55  C   UNK d   0      -9.233 -25.349  -0.557  0.00  0.00     0.151 C 
BRANCH  55  56
ATOM     56  C   UNK d   0      -8.822 -26.735  -0.285  0.00  0.00     0.143 C 
ATOM     57  O   UNK d   0      -7.666 -27.039   0.070  0.00  0.00    -0.650 OA
BRANCH  56  58
ATOM     58  O   UNK d   0      -9.780 -27.737  -0.435  0.00  0.00    -0.776 OA
ATOM     59  H   UNK d   0     -10.439 -27.832   0.358  0.00  0.00     0.167 HD
ENDBRANCH  56  58
ENDBRANCH  55  56
ENDBRANCH  21  55
BRANCH  18  60
ATOM     60  C   UNK d   0      -6.634 -21.586   2.252  0.00  0.00     0.151 C 
BRANCH  60  61
ATOM     61  C   UNK d   0      -6.993 -22.954   2.653  0.00  0.00     0.143 C 
ATOM     62  O   UNK d   0      -6.228 -23.842   3.031  0.00  0.00    -0.650 OA
BRANCH  61  63
ATOM     63  O   UNK d   0      -8.374 -23.258   2.588  0.00  0.00    -0.776 OA
ATOM     64  H   UNK d   0      -8.691 -24.195   2.413  0.00  0.00     0.167 HD
ENDBRANCH  61  63
ENDBRANCH  60  61
ENDBRANCH  18  60
BRANCH  14  65
ATOM     65  C   UNK d   0      -4.086 -19.939   2.170  0.00  0.00     0.052 C 
BRANCH  65  66
ATOM     66  C   UNK d   0      -4.847 -18.670   2.013  0.00  0.00     0.115 C 
BRANCH  66  67
ATOM     67  C   UNK d   0      -4.139 -17.429   1.869  0.00  0.00     0.139 C 
ATOM     68  O   UNK d   0      -4.762 -16.422   1.367  0.00  0.00    -0.650 OA
BRANCH  67  69
ATOM     69  O   UNK d   0      -2.815 -17.157   2.212  0.00  0.00    -0.776 OA
ATOM     70  H   UNK d   0      -2.177 -17.965   2.210  0.00  0.00     0.167 HD
ENDBRANCH  67  69
ENDBRANCH  66  67
ENDBRANCH  65  66
ENDBRANCH  14  65
ENDBRANCH   6   7
ENDBRANCH   5   6
ENDBRANCH   2   5
TORSDOF 28
ENDMDL
MODEL 16
REMARK VINA RESULT:      -8.2     30.091     33.983
REMARK  28 active torsions:
REMARK  status: ('A' for Active; 'I' for Inactive)
REMARK    1  A    between atoms: C_2  and  O_3 
REMARK    2  A    between atoms: C_2  and  C_4 
REMARK    3  A    between atoms: C_4  and  C_5 
REMARK    4  A    between atoms: C_5  and  C_6 
REMARK    5  A    between atoms: C_7  and  C_8 
REMARK    6  A    between atoms: C_8  and  C_9 
REMARK    7  A    between atoms: C_9  and  O_11 
REMARK    8  A    between atoms: C_28  and  C_29 
REMARK    9  A    between atoms: C_29  and  C_30 
REMARK   10  A    between atoms: C_30  and  O_32 
REMARK   11  A    between atoms: C_33  and  C_34 
REMARK   12  A    between atoms: C_34  and  C_35 
REMARK   13  A    between atoms: C_35  and  C_36 
REMARK   14  A    between atoms: C_36  and  O_38 
REMARK   15  A    between atoms: C_39  and  C_40 
REMARK   16  A    between atoms: C_40  and  C_41 
REMARK   17  A    between atoms: C_41  and  C_42 
REMARK   18  A    between atoms: C_42  and  O_44 
REMARK   19  A    between atoms: C_45  and  C_46 
REMARK   20  A    between atoms: C_46  and  C_47 
REMARK   21  A    between atoms: C_47  and  O_49 
REMARK   22  A    between atoms: C_50  and  C_51 
REMARK   23  A    between atoms: C_51  and  C_52 
REMARK   24  A    between atoms: C_52  and  O_54 
REMARK   25  A    between atoms: C_55  and  C_56 
REMARK   26  A    between atoms: C_56  and  C_57 
REMARK   27  A    between atoms: C_57  and  C_58 
REMARK   28  A    between atoms: C_58  and  O_60 
ROOT
ATOM      1  O   UNK d   0       2.058 -16.856  -0.424  0.00  0.00    -0.650 OA
ATOM      2  C   UNK d   0       1.209 -16.582  -1.301  0.00  0.00     0.139 C 
ENDROOT
BRANCH   2   3
ATOM      3  O   UNK d   0       1.477 -15.588  -2.211  0.00  0.00    -0.776 OA
ATOM      4  H   UNK d   0       1.966 -15.790  -3.085  0.00  0.00     0.167 HD
ENDBRANCH   2   3
BRANCH   2   5
ATOM      5  C   UNK d   0      -0.080 -17.330  -1.355  0.00  0.00     0.115 C 
BRANCH   5   6
ATOM      6  C   UNK d   0       0.175 -18.779  -1.670  0.00  0.00     0.052 C 
BRANCH   6   7
ATOM      7  C   UNK d   0      -0.985 -19.431  -2.383  0.00  0.00    -0.020 A 
ATOM      8  C   UNK d   0      -1.225 -19.446  -3.669  0.00  0.00    -0.011 A 
ATOM      9  C   UNK d   0      -2.458 -20.185  -3.883  0.00  0.00     0.067 A 
ATOM     10  C   UNK d   0      -3.229 -20.570  -4.992  0.00  0.00     0.062 C 
ATOM     11  N   UNK d   0      -2.904 -20.579  -2.672  0.00  0.00    -0.248 NA
ATOM     12  C   UNK d   0      -4.249 -21.527  -5.023  0.00  0.00     0.041 A 
ATOM     13  N   UNK d   0      -5.258 -21.775  -4.166  0.00  0.00    -0.355 N 
ATOM     14  C   UNK d   0      -4.269 -22.467  -6.069  0.00  0.00    -0.022 A 
ATOM     15  C   UNK d   0      -5.912 -22.854  -4.637  0.00  0.00     0.042 A 
ATOM     16  H   UNK d   0      -5.514 -21.189  -3.256  0.00  0.00     0.166 HD
ATOM     17  C   UNK d   0      -7.039 -23.532  -4.131  0.00  0.00     0.062 C 
ATOM     18  C   UNK d   0      -5.321 -23.315  -5.829  0.00  0.00    -0.013 A 
ATOM     19  C   UNK d   0      -7.311 -23.908  -2.841  0.00  0.00     0.067 A 
ATOM     20  N   UNK d   0      -6.520 -23.412  -1.886  0.00  0.00    -0.248 NA
ATOM     21  C   UNK d   0      -8.282 -24.769  -2.187  0.00  0.00    -0.011 A 
ATOM     22  C   UNK d   0      -6.903 -23.886  -0.656  0.00  0.00     0.066 A 
ATOM     23  C   UNK d   0      -6.186 -23.419   0.436  0.00  0.00     0.062 C 
ATOM     24  C   UNK d   0      -8.035 -24.755  -0.909  0.00  0.00    -0.020 A 
ATOM     25  C   UNK d   0      -5.172 -22.448   0.447  0.00  0.00     0.041 A 
ATOM     26  N   UNK d   0      -4.161 -22.210  -0.397  0.00  0.00    -0.355 N 
ATOM     27  C   UNK d   0      -5.156 -21.502   1.495  0.00  0.00    -0.022 A 
ATOM     28  C   UNK d   0      -3.502 -21.140   0.076  0.00  0.00     0.042 A 
ATOM     29  H   UNK d   0      -3.899 -22.807  -1.305  0.00  0.00     0.166 HD
ATOM     30  C   UNK d   0      -2.374 -20.461  -0.412  0.00  0.00     0.062 C 
ATOM     31  C   UNK d   0      -4.102 -20.670   1.268  0.00  0.00    -0.013 A 
ATOM     32  C   UNK d   0      -2.062 -20.158  -1.728  0.00  0.00     0.066 A 
BRANCH   8  33
ATOM     33  C   UNK d   0      -0.409 -18.825  -4.729  0.00  0.00     0.151 C 
BRANCH  33  34
ATOM     34  C   UNK d   0      -0.784 -17.424  -4.992  0.00  0.00     0.143 C 
ATOM     35  O   UNK d   0      -1.918 -17.135  -5.399  0.00  0.00    -0.650 OA
BRANCH  34  36
ATOM     36  O   UNK d   0       0.140 -16.427  -4.783  0.00  0.00    -0.776 OA
ATOM     37  H   UNK d   0       0.985 -16.351  -5.365  0.00  0.00     0.167 HD
ENDBRANCH  34  36
ENDBRANCH  33  34
ENDBRANCH   8  33
BRANCH  31  38
ATOM     38  C   UNK d   0      -3.696 -19.492   2.122  0.00  0.00     0.151 C 
BRANCH  38  39
ATOM     39  C   UNK d   0      -4.029 -18.220   1.518  0.00  0.00     0.143 C 
ATOM     40  O   UNK d   0      -3.169 -17.483   1.002  0.00  0.00    -0.650 OA
BRANCH  39  41
ATOM     41  O   UNK d   0      -5.356 -17.791   1.506  0.00  0.00    -0.776 OA
ATOM     42  H   UNK d   0      -5.533 -16.846   1.152  0.00  0.00     0.167 HD
ENDBRANCH  39  41
ENDBRANCH  38  39
ENDBRANCH  31  38
BRANCH  27  43
ATOM     43  C   UNK d   0      -6.082 -21.365   2.678  0.00  0.00     0.052 C 
BRANCH  43  44
ATOM     44  C   UNK d   0      -7.242 -20.460   2.418  0.00  0.00     0.115 C 
BRANCH  44  45
ATOM     45  C   UNK d   0      -7.448 -19.668   3.658  0.00  0.00     0.139 C 
ATOM     46  O   UNK d   0      -8.373 -20.013   4.435  0.00  0.00    -0.650 OA
BRANCH  45  47
ATOM     47  O   UNK d   0      -6.668 -18.581   3.989  0.00  0.00    -0.776 OA
ATOM     48  H   UNK d   0      -5.810 -18.661   4.559  0.00  0.00     0.167 HD
ENDBRANCH  45  47
ENDBRANCH  44  45
ENDBRANCH  43  44
ENDBRANCH  27  43
BRANCH  24  49
ATOM     49  C   UNK d   0      -8.803 -25.461   0.132  0.00  0.00     0.052 C 
BRANCH  49  50
ATOM     50  C   UNK d   0      -9.652 -24.487   0.908  0.00  0.00     0.115 C 
BRANCH  50  51
ATOM     51  C   UNK d   0     -10.991 -24.220   0.401  0.00  0.00     0.139 C 
ATOM     52  O   UNK d   0     -11.575 -24.987  -0.401  0.00  0.00    -0.650 OA
BRANCH  51  53
ATOM     53  O   UNK d   0     -11.663 -23.077   0.806  0.00  0.00    -0.776 OA
ATOM     54  H   UNK d   0     -11.119 -22.282   1.091  0.00  0.00     0.167 HD
ENDBRANCH  51  53
ENDBRANCH  50  51
ENDBRANCH  49  50
ENDBRANCH  24  49
BRANCH  21  55
ATOM     55  C   UNK d   0      -9.359 -25.512  -2.907  0.00  0.00     0.151 C 
BRANCH  55  56
ATOM     56  C   UNK d   0      -8.811 -26.500  -3.849  0.00  0.00     0.143 C 
ATOM     57  O   UNK d   0      -8.900 -26.374  -5.086  0.00  0.00    -0.650 OA
BRANCH  56  58
ATOM     58  O   UNK d   0      -8.169 -27.617  -3.318  0.00  0.00    -0.776 OA
ATOM     59  H   UNK d   0      -7.274 -27.417  -2.835  0.00  0.00     0.167 HD
ENDBRANCH  56  58
ENDBRANCH  55  56
ENDBRANCH  21  55
BRANCH  18  60
ATOM     60  C   UNK d   0      -5.706 -24.484  -6.703  0.00  0.00     0.151 C 
BRANCH  60  61
ATOM     61  C   UNK d   0      -6.751 -23.984  -7.609  0.00  0.00     0.143 C 
ATOM     62  O   UNK d   0      -6.593 -23.516  -8.737  0.00  0.00    -0.650 OA
BRANCH  61  63
ATOM     63  O   UNK d   0      -8.072 -24.061  -7.106  0.00  0.00    -0.776 OA
ATOM     64  H   UNK d   0      -8.829 -24.380  -7.684  0.00  0.00     0.167 HD
ENDBRANCH  61  63
ENDBRANCH  60  61
ENDBRANCH  18  60
BRANCH  14  65
ATOM     65  C   UNK d   0      -3.438 -22.563  -7.318  0.00  0.00     0.052 C 
BRANCH  65  66
ATOM     66  C   UNK d   0      -2.497 -23.714  -7.302  0.00  0.00     0.115 C 
BRANCH  66  67
ATOM     67  C   UNK d   0      -1.702 -23.999  -8.464  0.00  0.00     0.139 C 
ATOM     68  O   UNK d   0      -0.787 -24.898  -8.376  0.00  0.00    -0.650 OA
BRANCH  67  69
ATOM     69  O   UNK d   0      -1.790 -23.409  -9.724  0.00  0.00    -0.776 OA
ATOM     70  H   UNK d   0      -2.622 -22.823  -9.887  0.00  0.00     0.167 HD
ENDBRANCH  67  69
ENDBRANCH  66  67
ENDBRANCH  65  66
ENDBRANCH  14  65
ENDBRANCH   6   7
ENDBRANCH   5   6
ENDBRANCH   2   5
TORSDOF 28
ENDMDL
MODEL 17
REMARK VINA RESULT:      -8.2      2.048      8.708
REMARK  28 active torsions:
REMARK  status: ('A' for Active; 'I' for Inactive)
REMARK    1  A    between atoms: C_2  and  O_3 
REMARK    2  A    between atoms: C_2  and  C_4 
REMARK    3  A    between atoms: C_4  and  C_5 
REMARK    4  A    between atoms: C_5  and  C_6 
REMARK    5  A    between atoms: C_7  and  C_8 
REMARK    6  A    between atoms: C_8  and  C_9 
REMARK    7  A    between atoms: C_9  and  O_11 
REMARK    8  A    between atoms: C_28  and  C_29 
REMARK    9  A    between atoms: C_29  and  C_30 
REMARK   10  A    between atoms: C_30  and  O_32 
REMARK   11  A    between atoms: C_33  and  C_34 
REMARK   12  A    between atoms: C_34  and  C_35 
REMARK   13  A    between atoms: C_35  and  C_36 
REMARK   14  A    between atoms: C_36  and  O_38 
REMARK   15  A    between atoms: C_39  and  C_40 
REMARK   16  A    between atoms: C_40  and  C_41 
REMARK   17  A    between atoms: C_41  and  C_42 
REMARK   18  A    between atoms: C_42  and  O_44 
REMARK   19  A    between atoms: C_45  and  C_46 
REMARK   20  A    between atoms: C_46  and  C_47 
REMARK   21  A    between atoms: C_47  and  O_49 
REMARK   22  A    between atoms: C_50  and  C_51 
REMARK   23  A    between atoms: C_51  and  C_52 
REMARK   24  A    between atoms: C_52  and  O_54 
REMARK   25  A    between atoms: C_55  and  C_56 
REMARK   26  A    between atoms: C_56  and  C_57 
REMARK   27  A    between atoms: C_57  and  C_58 
REMARK   28  A    between atoms: C_58  and  O_60 
ROOT
ATOM      1  O   UNK d   0     -13.552  -5.302 -26.962  0.00  0.00    -0.650 OA
ATOM      2  C   UNK d   0     -14.678  -5.716 -26.607  0.00  0.00     0.139 C 
ENDROOT
BRANCH   2   3
ATOM      3  O   UNK d   0     -14.777  -6.549 -25.519  0.00  0.00    -0.776 OA
ATOM      4  H   UNK d   0     -15.678  -6.933 -25.228  0.00  0.00     0.167 HD
ENDBRANCH   2   3
BRANCH   2   5
ATOM      5  C   UNK d   0     -15.898  -5.309 -27.361  0.00  0.00     0.115 C 
BRANCH   5   6
ATOM      6  C   UNK d   0     -16.165  -6.281 -28.478  0.00  0.00     0.052 C 
BRANCH   6   7
ATOM      7  C   UNK d   0     -17.601  -6.746 -28.512  0.00  0.00    -0.020 A 
ATOM      8  C   UNK d   0     -18.257  -7.237 -29.532  0.00  0.00    -0.011 A 
ATOM      9  C   UNK d   0     -19.609  -7.535 -29.090  0.00  0.00     0.067 A 
ATOM     10  C   UNK d   0     -20.766  -8.080 -29.668  0.00  0.00     0.062 C 
ATOM     11  N   UNK d   0     -19.690  -7.188 -27.788  0.00  0.00    -0.248 NA
ATOM     12  C   UNK d   0     -21.904  -8.550 -29.003  0.00  0.00     0.041 A 
ATOM     13  N   UNK d   0     -22.594  -8.047 -27.962  0.00  0.00    -0.355 N 
ATOM     14  C   UNK d   0     -22.457  -9.784 -29.392  0.00  0.00    -0.022 A 
ATOM     15  C   UNK d   0     -23.566  -8.934 -27.675  0.00  0.00     0.042 A 
ATOM     16  H   UNK d   0     -22.410  -7.076 -27.453  0.00  0.00     0.166 HD
ATOM     17  C   UNK d   0     -24.567  -8.903 -26.684  0.00  0.00     0.062 C 
ATOM     18  C   UNK d   0     -23.512 -10.036 -28.550  0.00  0.00    -0.013 A 
ATOM     19  C   UNK d   0     -24.458  -8.565 -25.359  0.00  0.00     0.067 A 
ATOM     20  N   UNK d   0     -23.312  -8.001 -24.970  0.00  0.00    -0.248 NA
ATOM     21  C   UNK d   0     -25.302  -8.675 -24.180  0.00  0.00    -0.011 A 
ATOM     22  C   UNK d   0     -23.344  -7.734 -23.624  0.00  0.00     0.066 A 
ATOM     23  C   UNK d   0     -22.225  -7.110 -23.092  0.00  0.00     0.062 C 
ATOM     24  C   UNK d   0     -24.642  -8.191 -23.167  0.00  0.00    -0.020 A 
ATOM     25  C   UNK d   0     -21.098  -6.633 -23.779  0.00  0.00     0.041 A 
ATOM     26  N   UNK d   0     -20.403  -7.140 -24.804  0.00  0.00    -0.355 N 
ATOM     27  C   UNK d   0     -20.546  -5.393 -23.391  0.00  0.00    -0.022 A 
ATOM     28  C   UNK d   0     -19.428  -6.262 -25.087  0.00  0.00     0.042 A 
ATOM     29  H   UNK d   0     -20.583  -8.122 -25.308  0.00  0.00     0.166 HD
ATOM     30  C   UNK d   0     -18.420  -6.285 -26.064  0.00  0.00     0.062 C 
ATOM     31  C   UNK d   0     -19.489  -5.150 -24.214  0.00  0.00    -0.013 A 
ATOM     32  C   UNK d   0     -18.515  -6.708 -27.380  0.00  0.00     0.066 A 
BRANCH   8  33
ATOM     33  C   UNK d   0     -17.739  -7.453 -30.896  0.00  0.00     0.151 C 
BRANCH  33  34
ATOM     34  C   UNK d   0     -17.492  -8.875 -31.194  0.00  0.00     0.143 C 
ATOM     35  O   UNK d   0     -18.028  -9.424 -32.168  0.00  0.00    -0.650 OA
BRANCH  34  36
ATOM     36  O   UNK d   0     -16.657  -9.601 -30.377  0.00  0.00    -0.776 OA
ATOM     37  H   UNK d   0     -16.517 -10.611 -30.518  0.00  0.00     0.167 HD
ENDBRANCH  34  36
ENDBRANCH  33  34
ENDBRANCH   8  33
BRANCH  31  38
ATOM     38  C   UNK d   0     -18.598  -3.930 -24.184  0.00  0.00     0.151 C 
BRANCH  38  39
ATOM     39  C   UNK d   0     -17.442  -4.100 -23.329  0.00  0.00     0.143 C 
ATOM     40  O   UNK d   0     -17.053  -3.210 -22.553  0.00  0.00    -0.650 OA
BRANCH  39  41
ATOM     41  O   UNK d   0     -16.731  -5.299 -23.367  0.00  0.00    -0.776 OA
ATOM     42  H   UNK d   0     -15.836  -5.289 -23.864  0.00  0.00     0.167 HD
ENDBRANCH  39  41
ENDBRANCH  38  39
ENDBRANCH  31  38
BRANCH  27  43
ATOM     43  C   UNK d   0     -20.976  -4.454 -22.292  0.00  0.00     0.052 C 
BRANCH  43  44
ATOM     44  C   UNK d   0     -21.855  -5.102 -21.272  0.00  0.00     0.115 C 
BRANCH  44  45
ATOM     45  C   UNK d   0     -22.908  -4.112 -20.929  0.00  0.00     0.139 C 
ATOM     46  O   UNK d   0     -23.582  -3.616 -21.866  0.00  0.00    -0.650 OA
BRANCH  45  47
ATOM     47  O   UNK d   0     -23.177  -3.724 -19.634  0.00  0.00    -0.776 OA
ATOM     48  H   UNK d   0     -23.983  -3.131 -19.382  0.00  0.00     0.167 HD
ENDBRANCH  45  47
ENDBRANCH  44  45
ENDBRANCH  43  44
ENDBRANCH  27  43
BRANCH  24  49
ATOM     49  C   UNK d   0     -25.138  -8.070 -21.786  0.00  0.00     0.052 C 
BRANCH  49  50
ATOM     50  C   UNK d   0     -25.190  -9.425 -21.127  0.00  0.00     0.115 C 
BRANCH  50  51
ATOM     51  C   UNK d   0     -26.486  -9.880 -20.642  0.00  0.00     0.139 C 
ATOM     52  O   UNK d   0     -26.653 -11.002 -20.109  0.00  0.00    -0.650 OA
BRANCH  51  53
ATOM     53  O   UNK d   0     -27.593  -9.055 -20.768  0.00  0.00    -0.776 OA
ATOM     54  H   UNK d   0     -28.183  -8.926 -19.965  0.00  0.00     0.167 HD
ENDBRANCH  51  53
ENDBRANCH  50  51
ENDBRANCH  49  50
ENDBRANCH  24  49
BRANCH  21  55
ATOM     55  C   UNK d   0     -26.680  -9.247 -24.190  0.00  0.00     0.151 C 
BRANCH  55  56
ATOM     56  C   UNK d   0     -27.706  -8.213 -24.393  0.00  0.00     0.143 C 
ATOM     57  O   UNK d   0     -27.846  -7.603 -25.471  0.00  0.00    -0.650 OA
BRANCH  56  58
ATOM     58  O   UNK d   0     -28.548  -7.915 -23.322  0.00  0.00    -0.776 OA
ATOM     59  H   UNK d   0     -29.556  -7.881 -23.557  0.00  0.00     0.167 HD
ENDBRANCH  56  58
ENDBRANCH  55  56
ENDBRANCH  21  55
BRANCH  18  60
ATOM     60  C   UNK d   0     -24.388 -11.263 -28.605  0.00  0.00     0.151 C 
BRANCH  60  61
ATOM     61  C   UNK d   0     -25.419 -10.978 -29.614  0.00  0.00     0.143 C 
ATOM     62  O   UNK d   0     -25.689 -11.651 -30.610  0.00  0.00    -0.650 OA
BRANCH  61  63
ATOM     63  O   UNK d   0     -26.168  -9.798 -29.393  0.00  0.00    -0.776 OA
ATOM     64  H   UNK d   0     -25.835  -8.905 -29.712  0.00  0.00     0.167 HD
ENDBRANCH  61  63
ENDBRANCH  60  61
ENDBRANCH  18  60
BRANCH  14  65
ATOM     65  C   UNK d   0     -22.130 -10.685 -30.548  0.00  0.00     0.052 C 
BRANCH  65  66
ATOM     66  C   UNK d   0     -21.304 -11.859 -30.156  0.00  0.00     0.115 C 
BRANCH  66  67
ATOM     67  C   UNK d   0     -19.909 -11.683 -29.868  0.00  0.00     0.139 C 
ATOM     68  O   UNK d   0     -19.569 -11.287 -28.693  0.00  0.00    -0.650 OA
BRANCH  67  69
ATOM     69  O   UNK d   0     -18.828 -11.892 -30.725  0.00  0.00    -0.776 OA
ATOM     70  H   UNK d   0     -18.759 -12.834 -31.137  0.00  0.00     0.167 HD
ENDBRANCH  67  69
ENDBRANCH  66  67
ENDBRANCH  65  66
ENDBRANCH  14  65
ENDBRANCH   6   7
ENDBRANCH   5   6
ENDBRANCH   2   5
TORSDOF 28
ENDMDL
MODEL 18
REMARK VINA RESULT:      -8.0     30.418     34.618
REMARK  28 active torsions:
REMARK  status: ('A' for Active; 'I' for Inactive)
REMARK    1  A    between atoms: C_2  and  O_3 
REMARK    2  A    between atoms: C_2  and  C_4 
REMARK    3  A    between atoms: C_4  and  C_5 
REMARK    4  A    between atoms: C_5  and  C_6 
REMARK    5  A    between atoms: C_7  and  C_8 
REMARK    6  A    between atoms: C_8  and  C_9 
REMARK    7  A    between atoms: C_9  and  O_11 
REMARK    8  A    between atoms: C_28  and  C_29 
REMARK    9  A    between atoms: C_29  and  C_30 
REMARK   10  A    between atoms: C_30  and  O_32 
REMARK   11  A    between atoms: C_33  and  C_34 
REMARK   12  A    between atoms: C_34  and  C_35 
REMARK   13  A    between atoms: C_35  and  C_36 
REMARK   14  A    between atoms: C_36  and  O_38 
REMARK   15  A    between atoms: C_39  and  C_40 
REMARK   16  A    between atoms: C_40  and  C_41 
REMARK   17  A    between atoms: C_41  and  C_42 
REMARK   18  A    between atoms: C_42  and  O_44 
REMARK   19  A    between atoms: C_45  and  C_46 
REMARK   20  A    between atoms: C_46  and  C_47 
REMARK   21  A    between atoms: C_47  and  O_49 
REMARK   22  A    between atoms: C_50  and  C_51 
REMARK   23  A    between atoms: C_51  and  C_52 
REMARK   24  A    between atoms: C_52  and  O_54 
REMARK   25  A    between atoms: C_55  and  C_56 
REMARK   26  A    between atoms: C_56  and  C_57 
REMARK   27  A    between atoms: C_57  and  C_58 
REMARK   28  A    between atoms: C_58  and  O_60 
ROOT
ATOM      1  O   UNK d   0     -13.921 -18.683  -0.847  0.00  0.00    -0.650 OA
ATOM      2  C   UNK d   0     -14.873 -19.038  -0.117  0.00  0.00     0.139 C 
ENDROOT
BRANCH   2   3
ATOM      3  O   UNK d   0     -15.850 -19.856  -0.634  0.00  0.00    -0.776 OA
ATOM      4  H   UNK d   0     -15.610 -20.657  -1.222  0.00  0.00     0.167 HD
ENDBRANCH   2   3
BRANCH   2   5
ATOM      5  C   UNK d   0     -14.945 -18.576   1.298  0.00  0.00     0.115 C 
BRANCH   5   6
ATOM      6  C   UNK d   0     -15.015 -19.759   2.225  0.00  0.00     0.052 C 
BRANCH   6   7
ATOM      7  C   UNK d   0     -13.792 -20.640   2.138  0.00  0.00    -0.020 A 
ATOM      8  C   UNK d   0     -13.741 -21.906   1.812  0.00  0.00    -0.011 A 
ATOM      9  C   UNK d   0     -12.351 -22.326   1.875  0.00  0.00     0.067 A 
ATOM     10  C   UNK d   0     -11.640 -23.511   1.631  0.00  0.00     0.062 C 
ATOM     11  N   UNK d   0     -11.625 -21.253   2.253  0.00  0.00    -0.248 NA
ATOM     12  C   UNK d   0     -10.256 -23.652   1.476  0.00  0.00     0.041 A 
ATOM     13  N   UNK d   0      -9.228 -23.110   2.155  0.00  0.00    -0.355 N 
ATOM     14  C   UNK d   0      -9.767 -24.437   0.416  0.00  0.00    -0.022 A 
ATOM     15  C   UNK d   0      -8.099 -23.524   1.549  0.00  0.00     0.042 A 
ATOM     16  H   UNK d   0      -9.298 -22.463   3.057  0.00  0.00     0.166 HD
ATOM     17  C   UNK d   0      -6.749 -23.255   1.851  0.00  0.00     0.062 C 
ATOM     18  C   UNK d   0      -8.397 -24.358   0.454  0.00  0.00    -0.013 A 
ATOM     19  C   UNK d   0      -6.159 -22.060   2.173  0.00  0.00     0.067 A 
ATOM     20  N   UNK d   0      -6.974 -21.035   2.435  0.00  0.00    -0.248 NA
ATOM     21  C   UNK d   0      -4.797 -21.568   2.302  0.00  0.00    -0.011 A 
ATOM     22  C   UNK d   0      -6.243 -19.908   2.724  0.00  0.00     0.066 A 
ATOM     23  C   UNK d   0      -6.968 -18.772   3.054  0.00  0.00     0.062 C 
ATOM     24  C   UNK d   0      -4.854 -20.307   2.620  0.00  0.00    -0.020 A 
ATOM     25  C   UNK d   0      -8.357 -18.654   3.218  0.00  0.00     0.041 A 
ATOM     26  N   UNK d   0      -9.379 -19.181   2.533  0.00  0.00    -0.355 N 
ATOM     27  C   UNK d   0      -8.847 -17.870   4.284  0.00  0.00    -0.022 A 
ATOM     28  C   UNK d   0     -10.506 -18.763   3.130  0.00  0.00     0.042 A 
ATOM     29  H   UNK d   0      -9.307 -19.823   1.620  0.00  0.00     0.166 HD
ATOM     30  C   UNK d   0     -11.855 -19.015   2.835  0.00  0.00     0.062 C 
ATOM     31  C   UNK d   0     -10.206 -17.933   4.237  0.00  0.00    -0.013 A 
ATOM     32  C   UNK d   0     -12.433 -20.207   2.427  0.00  0.00     0.066 A 
BRANCH   8  33
ATOM     33  C   UNK d   0     -14.877 -22.772   1.448  0.00  0.00     0.151 C 
BRANCH  33  34
ATOM     34  C   UNK d   0     -14.752 -23.338   0.093  0.00  0.00     0.143 C 
ATOM     35  O   UNK d   0     -14.714 -24.564  -0.084  0.00  0.00    -0.650 OA
BRANCH  34  36
ATOM     36  O   UNK d   0     -14.675 -22.491  -0.988  0.00  0.00    -0.776 OA
ATOM     37  H   UNK d   0     -14.226 -22.785  -1.866  0.00  0.00     0.167 HD
ENDBRANCH  34  36
ENDBRANCH  33  34
ENDBRANCH   8  33
BRANCH  31  38
ATOM     38  C   UNK d   0     -11.163 -17.259   5.191  0.00  0.00     0.151 C 
BRANCH  38  39
ATOM     39  C   UNK d   0     -11.318 -17.982   6.436  0.00  0.00     0.143 C 
ATOM     40  O   UNK d   0     -11.895 -19.082   6.499  0.00  0.00    -0.650 OA
BRANCH  39  41
ATOM     41  O   UNK d   0     -10.806 -17.438   7.613  0.00  0.00    -0.776 OA
ATOM     42  H   UNK d   0      -9.835 -17.669   7.845  0.00  0.00     0.167 HD
ENDBRANCH  39  41
ENDBRANCH  38  39
ENDBRANCH  31  38
BRANCH  27  43
ATOM     43  C   UNK d   0      -8.088 -17.079   5.320  0.00  0.00     0.052 C 
BRANCH  43  44
ATOM     44  C   UNK d   0      -7.783 -15.681   4.890  0.00  0.00     0.115 C 
BRANCH  44  45
ATOM     45  C   UNK d   0      -8.570 -14.784   5.775  0.00  0.00     0.139 C 
ATOM     46  O   UNK d   0      -8.928 -15.223   6.896  0.00  0.00    -0.650 OA
BRANCH  45  47
ATOM     47  O   UNK d   0      -8.914 -13.497   5.419  0.00  0.00    -0.776 OA
ATOM     48  H   UNK d   0      -8.239 -12.829   5.014  0.00  0.00     0.167 HD
ENDBRANCH  45  47
ENDBRANCH  44  45
ENDBRANCH  43  44
ENDBRANCH  27  43
BRANCH  24  49
ATOM     49  C   UNK d   0      -3.703 -19.427   2.887  0.00  0.00     0.052 C 
BRANCH  49  50
ATOM     50  C   UNK d   0      -3.196 -18.823   1.602  0.00  0.00     0.115 C 
BRANCH  50  51
ATOM     51  C   UNK d   0      -3.257 -17.373   1.479  0.00  0.00     0.139 C 
ATOM     52  O   UNK d   0      -2.262 -16.679   1.164  0.00  0.00    -0.650 OA
BRANCH  51  53
ATOM     53  O   UNK d   0      -4.453 -16.714   1.718  0.00  0.00    -0.776 OA
ATOM     54  H   UNK d   0      -4.430 -15.872   2.267  0.00  0.00     0.167 HD
ENDBRANCH  51  53
ENDBRANCH  50  51
ENDBRANCH  49  50
ENDBRANCH  24  49
BRANCH  21  55
ATOM     55  C   UNK d   0      -3.582 -22.411   2.097  0.00  0.00     0.151 C 
BRANCH  55  56
ATOM     56  C   UNK d   0      -2.994 -22.216   0.763  0.00  0.00     0.143 C 
ATOM     57  O   UNK d   0      -1.790 -21.943   0.590  0.00  0.00    -0.650 OA
BRANCH  56  58
ATOM     58  O   UNK d   0      -3.834 -22.345  -0.342  0.00  0.00    -0.776 OA
ATOM     59  H   UNK d   0      -4.461 -23.170  -0.319  0.00  0.00     0.167 HD
ENDBRANCH  56  58
ENDBRANCH  55  56
ENDBRANCH  21  55
BRANCH  18  60
ATOM     60  C   UNK d   0      -7.464 -25.046  -0.512  0.00  0.00     0.151 C 
BRANCH  60  61
ATOM     61  C   UNK d   0      -7.385 -26.446  -0.069  0.00  0.00     0.143 C 
ATOM     62  O   UNK d   0      -7.431 -26.862   1.089  0.00  0.00    -0.650 OA
BRANCH  61  63
ATOM     63  O   UNK d   0      -7.241 -27.398  -1.106  0.00  0.00    -0.776 OA
ATOM     64  H   UNK d   0      -8.022 -27.662  -1.680  0.00  0.00     0.167 HD
ENDBRANCH  61  63
ENDBRANCH  60  61
ENDBRANCH  18  60
BRANCH  14  65
ATOM     65  C   UNK d   0     -10.485 -25.326  -0.559  0.00  0.00     0.052 C 
BRANCH  65  66
ATOM     66  C   UNK d   0     -10.565 -24.746  -1.926  0.00  0.00     0.115 C 
BRANCH  66  67
ATOM     67  C   UNK d   0     -11.697 -23.943  -2.294  0.00  0.00     0.139 C 
ATOM     68  O   UNK d   0     -11.536 -22.673  -2.414  0.00  0.00    -0.650 OA
BRANCH  67  69
ATOM     69  O   UNK d   0     -13.000 -24.371  -2.549  0.00  0.00    -0.776 OA
ATOM     70  H   UNK d   0     -13.616 -23.683  -3.005  0.00  0.00     0.167 HD
ENDBRANCH  67  69
ENDBRANCH  66  67
ENDBRANCH  65  66
ENDBRANCH  14  65
ENDBRANCH   6   7
ENDBRANCH   5   6
ENDBRANCH   2   5
TORSDOF 28
ENDMDL
MODEL 19
REMARK VINA RESULT:      -7.9     30.084     34.358
REMARK  28 active torsions:
REMARK  status: ('A' for Active; 'I' for Inactive)
REMARK    1  A    between atoms: C_2  and  O_3 
REMARK    2  A    between atoms: C_2  and  C_4 
REMARK    3  A    between atoms: C_4  and  C_5 
REMARK    4  A    between atoms: C_5  and  C_6 
REMARK    5  A    between atoms: C_7  and  C_8 
REMARK    6  A    between atoms: C_8  and  C_9 
REMARK    7  A    between atoms: C_9  and  O_11 
REMARK    8  A    between atoms: C_28  and  C_29 
REMARK    9  A    between atoms: C_29  and  C_30 
REMARK   10  A    between atoms: C_30  and  O_32 
REMARK   11  A    between atoms: C_33  and  C_34 
REMARK   12  A    between atoms: C_34  and  C_35 
REMARK   13  A    between atoms: C_35  and  C_36 
REMARK   14  A    between atoms: C_36  and  O_38 
REMARK   15  A    between atoms: C_39  and  C_40 
REMARK   16  A    between atoms: C_40  and  C_41 
REMARK   17  A    between atoms: C_41  and  C_42 
REMARK   18  A    between atoms: C_42  and  O_44 
REMARK   19  A    between atoms: C_45  and  C_46 
REMARK   20  A    between atoms: C_46  and  C_47 
REMARK   21  A    between atoms: C_47  and  O_49 
REMARK   22  A    between atoms: C_50  and  C_51 
REMARK   23  A    between atoms: C_51  and  C_52 
REMARK   24  A    between atoms: C_52  and  O_54 
REMARK   25  A    between atoms: C_55  and  C_56 
REMARK   26  A    between atoms: C_56  and  C_57 
REMARK   27  A    between atoms: C_57  and  C_58 
REMARK   28  A    between atoms: C_58  and  O_60 
ROOT
ATOM      1  O   UNK d   0      -1.514 -17.840  -5.578  0.00  0.00    -0.650 OA
ATOM      2  C   UNK d   0      -1.597 -18.802  -6.375  0.00  0.00     0.139 C 
ENDROOT
BRANCH   2   3
ATOM      3  O   UNK d   0      -0.578 -19.024  -7.271  0.00  0.00    -0.776 OA
ATOM      4  H   UNK d   0      -0.229 -18.272  -7.869  0.00  0.00     0.167 HD
ENDBRANCH   2   3
BRANCH   2   5
ATOM      5  C   UNK d   0      -2.790 -19.694  -6.349  0.00  0.00     0.115 C 
BRANCH   5   6
ATOM      6  C   UNK d   0      -2.398 -21.070  -5.883  0.00  0.00     0.052 C 
BRANCH   6   7
ATOM      7  C   UNK d   0      -2.917 -21.384  -4.500  0.00  0.00    -0.020 A 
ATOM      8  C   UNK d   0      -2.330 -21.151  -3.355  0.00  0.00    -0.011 A 
ATOM      9  C   UNK d   0      -3.205 -21.634  -2.299  0.00  0.00     0.067 A 
ATOM     10  C   UNK d   0      -3.177 -21.665  -0.896  0.00  0.00     0.062 C 
ATOM     11  N   UNK d   0      -4.301 -22.151  -2.893  0.00  0.00    -0.248 NA
ATOM     12  C   UNK d   0      -4.248 -21.924  -0.034  0.00  0.00     0.041 A 
ATOM     13  N   UNK d   0      -5.230 -22.843  -0.090  0.00  0.00    -0.355 N 
ATOM     14  C   UNK d   0      -4.437 -21.091   1.085  0.00  0.00    -0.022 A 
ATOM     15  C   UNK d   0      -6.041 -22.611   0.959  0.00  0.00     0.042 A 
ATOM     16  H   UNK d   0      -5.336 -23.653  -0.845  0.00  0.00     0.166 HD
ATOM     17  C   UNK d   0      -7.213 -23.276   1.372  0.00  0.00     0.062 C 
ATOM     18  C   UNK d   0      -5.577 -21.520   1.718  0.00  0.00    -0.013 A 
ATOM     19  C   UNK d   0      -8.279 -23.694   0.617  0.00  0.00     0.067 A 
ATOM     20  N   UNK d   0      -8.132 -23.658  -0.710  0.00  0.00    -0.248 NA
ATOM     21  C   UNK d   0      -9.620 -24.186   0.885  0.00  0.00    -0.011 A 
ATOM     22  C   UNK d   0      -9.279 -24.089  -1.329  0.00  0.00     0.066 A 
ATOM     23  C   UNK d   0      -9.251 -24.138  -2.715  0.00  0.00     0.062 C 
ATOM     24  C   UNK d   0     -10.202 -24.412  -0.258  0.00  0.00    -0.020 A 
ATOM     25  C   UNK d   0      -8.161 -23.887  -3.562  0.00  0.00     0.041 A 
ATOM     26  N   UNK d   0      -7.194 -22.964  -3.515  0.00  0.00    -0.355 N 
ATOM     27  C   UNK d   0      -7.970 -24.726  -4.682  0.00  0.00    -0.022 A 
ATOM     28  C   UNK d   0      -6.388 -23.188  -4.565  0.00  0.00     0.042 A 
ATOM     29  H   UNK d   0      -7.094 -22.144  -2.761  0.00  0.00     0.166 HD
ATOM     30  C   UNK d   0      -5.225 -22.529  -4.993  0.00  0.00     0.062 C 
ATOM     31  C   UNK d   0      -6.850 -24.291  -5.321  0.00  0.00    -0.013 A 
ATOM     32  C   UNK d   0      -4.189 -22.032  -4.217  0.00  0.00     0.066 A 
BRANCH   8  33
ATOM     33  C   UNK d   0      -1.014 -20.518  -3.147  0.00  0.00     0.151 C 
BRANCH  33  34
ATOM     34  C   UNK d   0      -0.036 -21.426  -2.522  0.00  0.00     0.143 C 
ATOM     35  O   UNK d   0       0.622 -21.069  -1.534  0.00  0.00    -0.650 OA
BRANCH  34  36
ATOM     36  O   UNK d   0       0.147 -22.685  -3.044  0.00  0.00    -0.776 OA
ATOM     37  H   UNK d   0      -0.369 -22.998  -3.878  0.00  0.00     0.167 HD
ENDBRANCH  34  36
ENDBRANCH  33  34
ENDBRANCH   8  33
BRANCH  31  38
ATOM     38  C   UNK d   0      -6.244 -24.892  -6.568  0.00  0.00     0.151 C 
BRANCH  38  39
ATOM     39  C   UNK d   0      -6.962 -24.530  -7.772  0.00  0.00     0.143 C 
ATOM     40  O   UNK d   0      -8.048 -25.052  -8.082  0.00  0.00    -0.650 OA
BRANCH  39  41
ATOM     41  O   UNK d   0      -6.429 -23.563  -8.624  0.00  0.00    -0.776 OA
ATOM     42  H   UNK d   0      -6.208 -22.653  -8.207  0.00  0.00     0.167 HD
ENDBRANCH  39  41
ENDBRANCH  38  39
ENDBRANCH  31  38
BRANCH  27  43
ATOM     43  C   UNK d   0      -8.795 -25.896  -5.155  0.00  0.00     0.052 C 
BRANCH  43  44
ATOM     44  C   UNK d   0      -8.671 -27.100  -4.279  0.00  0.00     0.115 C 
BRANCH  44  45
ATOM     45  C   UNK d   0     -10.035 -27.395  -3.768  0.00  0.00     0.139 C 
ATOM     46  O   UNK d   0     -10.964 -27.523  -4.603  0.00  0.00    -0.650 OA
BRANCH  45  47
ATOM     47  O   UNK d   0     -10.315 -27.539  -2.426  0.00  0.00    -0.776 OA
ATOM     48  H   UNK d   0     -11.089 -27.039  -1.959  0.00  0.00     0.167 HD
ENDBRANCH  45  47
ENDBRANCH  44  45
ENDBRANCH  43  44
ENDBRANCH  27  43
BRANCH  24  49
ATOM     49  C   UNK d   0     -11.557 -24.954  -0.450  0.00  0.00     0.052 C 
BRANCH  49  50
ATOM     50  C   UNK d   0     -12.546 -23.835  -0.657  0.00  0.00     0.115 C 
BRANCH  50  51
ATOM     51  C   UNK d   0     -13.780 -23.888   0.115  0.00  0.00     0.139 C 
ATOM     52  O   UNK d   0     -14.736 -24.640  -0.189  0.00  0.00    -0.650 OA
BRANCH  51  53
ATOM     53  O   UNK d   0     -13.926 -23.080   1.232  0.00  0.00    -0.776 OA
ATOM     54  H   UNK d   0     -13.357 -23.275   2.037  0.00  0.00     0.167 HD
ENDBRANCH  51  53
ENDBRANCH  50  51
ENDBRANCH  49  50
ENDBRANCH  24  49
BRANCH  21  55
ATOM     55  C   UNK d   0     -10.179 -24.384   2.255  0.00  0.00     0.151 C 
BRANCH  55  56
ATOM     56  C   UNK d   0     -10.833 -23.169   2.765  0.00  0.00     0.143 C 
ATOM     57  O   UNK d   0     -10.989 -22.145   2.071  0.00  0.00    -0.650 OA
BRANCH  56  58
ATOM     58  O   UNK d   0     -11.293 -23.183   4.081  0.00  0.00    -0.776 OA
ATOM     59  H   UNK d   0     -11.387 -22.249   4.519  0.00  0.00     0.167 HD
ENDBRANCH  56  58
ENDBRANCH  55  56
ENDBRANCH  21  55
BRANCH  18  60
ATOM     60  C   UNK d   0      -6.157 -20.901   2.966  0.00  0.00     0.151 C 
BRANCH  60  61
ATOM     61  C   UNK d   0      -7.176 -19.945   2.506  0.00  0.00     0.143 C 
ATOM     62  O   UNK d   0      -6.982 -18.866   1.946  0.00  0.00    -0.650 OA
BRANCH  61  63
ATOM     63  O   UNK d   0      -8.517 -20.332   2.744  0.00  0.00    -0.776 OA
ATOM     64  H   UNK d   0      -8.780 -21.301   2.766  0.00  0.00     0.167 HD
ENDBRANCH  61  63
ENDBRANCH  60  61
ENDBRANCH  18  60
BRANCH  14  65
ATOM     65  C   UNK d   0      -3.577 -19.996   1.649  0.00  0.00     0.052 C 
BRANCH  65  66
ATOM     66  C   UNK d   0      -3.686 -18.722   0.890  0.00  0.00     0.115 C 
BRANCH  66  67
ATOM     67  C   UNK d   0      -2.516 -17.917   0.677  0.00  0.00     0.139 C 
ATOM     68  O   UNK d   0      -1.637 -18.325  -0.168  0.00  0.00    -0.650 OA
BRANCH  67  69
ATOM     69  O   UNK d   0      -2.191 -16.706   1.288  0.00  0.00    -0.776 OA
ATOM     70  H   UNK d   0      -2.154 -16.719   2.317  0.00  0.00     0.167 HD
ENDBRANCH  67  69
ENDBRANCH  66  67
ENDBRANCH  65  66
ENDBRANCH  14  65
ENDBRANCH   6   7
ENDBRANCH   5   6
ENDBRANCH   2   5
TORSDOF 28
ENDMDL
MODEL 20
REMARK VINA RESULT:      -7.8     30.224     34.746
REMARK  28 active torsions:
REMARK  status: ('A' for Active; 'I' for Inactive)
REMARK    1  A    between atoms: C_2  and  O_3 
REMARK    2  A    between atoms: C_2  and  C_4 
REMARK    3  A    between atoms: C_4  and  C_5 
REMARK    4  A    between atoms: C_5  and  C_6 
REMARK    5  A    between atoms: C_7  and  C_8 
REMARK    6  A    between atoms: C_8  and  C_9 
REMARK    7  A    between atoms: C_9  and  O_11 
REMARK    8  A    between atoms: C_28  and  C_29 
REMARK    9  A    between atoms: C_29  and  C_30 
REMARK   10  A    between atoms: C_30  and  O_32 
REMARK   11  A    between atoms: C_33  and  C_34 
REMARK   12  A    between atoms: C_34  and  C_35 
REMARK   13  A    between atoms: C_35  and  C_36 
REMARK   14  A    between atoms: C_36  and  O_38 
REMARK   15  A    between atoms: C_39  and  C_40 
REMARK   16  A    between atoms: C_40  and  C_41 
REMARK   17  A    between atoms: C_41  and  C_42 
REMARK   18  A    between atoms: C_42  and  O_44 
REMARK   19  A    between atoms: C_45  and  C_46 
REMARK   20  A    between atoms: C_46  and  C_47 
REMARK   21  A    between atoms: C_47  and  O_49 
REMARK   22  A    between atoms: C_50  and  C_51 
REMARK   23  A    between atoms: C_51  and  C_52 
REMARK   24  A    between atoms: C_52  and  O_54 
REMARK   25  A    between atoms: C_55  and  C_56 
REMARK   26  A    between atoms: C_56  and  C_57 
REMARK   27  A    between atoms: C_57  and  C_58 
REMARK   28  A    between atoms: C_58  and  O_60 
ROOT
ATOM      1  O   UNK d   0      -4.635 -25.800   1.362  0.00  0.00    -0.650 OA
ATOM      2  C   UNK d   0      -4.636 -24.605   1.733  0.00  0.00     0.139 C 
ENDROOT
BRANCH   2   3
ATOM      3  O   UNK d   0      -3.478 -24.053   2.227  0.00  0.00    -0.776 OA
ATOM      4  H   UNK d   0      -2.587 -24.175   1.741  0.00  0.00     0.167 HD
ENDBRANCH   2   3
BRANCH   2   5
ATOM      5  C   UNK d   0      -5.882 -23.793   1.639  0.00  0.00     0.115 C 
BRANCH   5   6
ATOM      6  C   UNK d   0      -7.088 -24.692   1.657  0.00  0.00     0.052 C 
BRANCH   6   7
ATOM      7  C   UNK d   0      -8.373 -23.945   1.387  0.00  0.00    -0.020 A 
ATOM      8  C   UNK d   0      -9.219 -24.140   0.408  0.00  0.00    -0.011 A 
ATOM      9  C   UNK d   0     -10.299 -23.179   0.555  0.00  0.00     0.067 A 
ATOM     10  C   UNK d   0     -11.489 -22.882  -0.127  0.00  0.00     0.062 C 
ATOM     11  N   UNK d   0     -10.026 -22.434   1.647  0.00  0.00    -0.248 NA
ATOM     12  C   UNK d   0     -12.552 -22.094   0.329  0.00  0.00     0.041 A 
ATOM     13  N   UNK d   0     -12.566 -20.916   0.981  0.00  0.00    -0.355 N 
ATOM     14  C   UNK d   0     -13.867 -22.565   0.165  0.00  0.00    -0.022 A 
ATOM     15  C   UNK d   0     -13.856 -20.631   1.243  0.00  0.00     0.042 A 
ATOM     16  H   UNK d   0     -11.683 -20.288   1.234  0.00  0.00     0.166 HD
ATOM     17  C   UNK d   0     -14.432 -19.526   1.899  0.00  0.00     0.062 C 
ATOM     18  C   UNK d   0     -14.701 -21.643   0.747  0.00  0.00    -0.013 A 
ATOM     19  C   UNK d   0     -14.043 -18.914   3.063  0.00  0.00     0.067 A 
ATOM     20  N   UNK d   0     -12.853 -19.263   3.560  0.00  0.00    -0.248 NA
ATOM     21  C   UNK d   0     -14.616 -17.935   3.971  0.00  0.00    -0.011 A 
ATOM     22  C   UNK d   0     -12.608 -18.583   4.728  0.00  0.00     0.066 A 
ATOM     23  C   UNK d   0     -11.384 -18.823   5.335  0.00  0.00     0.062 C 
ATOM     24  C   UNK d   0     -13.773 -17.749   4.946  0.00  0.00    -0.020 A 
ATOM     25  C   UNK d   0     -10.325 -19.609   4.855  0.00  0.00     0.041 A 
ATOM     26  N   UNK d   0     -10.310 -20.787   4.220  0.00  0.00    -0.355 N 
ATOM     27  C   UNK d   0      -9.005 -19.133   5.015  0.00  0.00    -0.022 A 
ATOM     28  C   UNK d   0      -9.024 -21.077   3.966  0.00  0.00     0.042 A 
ATOM     29  H   UNK d   0     -11.197 -21.421   3.976  0.00  0.00     0.166 HD
ATOM     30  C   UNK d   0      -8.436 -22.177   3.323  0.00  0.00     0.062 C 
ATOM     31  C   UNK d   0      -8.176 -20.055   4.455  0.00  0.00    -0.013 A 
ATOM     32  C   UNK d   0      -8.881 -22.845   2.193  0.00  0.00     0.066 A 
BRANCH   8  33
ATOM     33  C   UNK d   0      -9.113 -25.145  -0.666  0.00  0.00     0.151 C 
BRANCH  33  34
ATOM     34  C   UNK d   0      -9.748 -26.428  -0.312  0.00  0.00     0.143 C 
ATOM     35  O   UNK d   0     -10.977 -26.514  -0.181  0.00  0.00    -0.650 OA
BRANCH  34  36
ATOM     36  O   UNK d   0      -8.963 -27.541  -0.124  0.00  0.00    -0.776 OA
ATOM     37  H   UNK d   0      -8.950 -28.040   0.776  0.00  0.00     0.167 HD
ENDBRANCH  34  36
ENDBRANCH  33  34
ENDBRANCH   8  33
BRANCH  31  38
ATOM     38  C   UNK d   0      -6.669 -19.968   4.376  0.00  0.00     0.151 C 
BRANCH  38  39
ATOM     39  C   UNK d   0      -6.189 -19.773   3.024  0.00  0.00     0.143 C 
ATOM     40  O   UNK d   0      -6.705 -18.952   2.246  0.00  0.00    -0.650 OA
BRANCH  39  41
ATOM     41  O   UNK d   0      -5.108 -20.525   2.565  0.00  0.00    -0.776 OA
ATOM     42  H   UNK d   0      -4.732 -21.231   3.206  0.00  0.00     0.167 HD
ENDBRANCH  39  41
ENDBRANCH  38  39
ENDBRANCH  31  38
BRANCH  27  43
ATOM     43  C   UNK d   0      -8.516 -17.864   5.669  0.00  0.00     0.052 C 
BRANCH  43  44
ATOM     44  C   UNK d   0      -8.681 -16.654   4.807  0.00  0.00     0.115 C 
BRANCH  44  45
ATOM     45  C   UNK d   0      -7.325 -16.074   4.627  0.00  0.00     0.139 C 
ATOM     46  O   UNK d   0      -6.945 -15.194   5.438  0.00  0.00    -0.650 OA
BRANCH  45  47
ATOM     47  O   UNK d   0      -6.473 -16.464   3.616  0.00  0.00    -0.776 OA
ATOM     48  H   UNK d   0      -6.054 -17.407   3.570  0.00  0.00     0.167 HD
ENDBRANCH  45  47
ENDBRANCH  44  45
ENDBRANCH  43  44
ENDBRANCH  27  43
BRANCH  24  49
ATOM     49  C   UNK d   0     -13.937 -16.809   6.068  0.00  0.00     0.052 C 
BRANCH  49  50
ATOM     50  C   UNK d   0     -14.405 -17.540   7.300  0.00  0.00     0.115 C 
BRANCH  50  51
ATOM     51  C   UNK d   0     -13.437 -17.724   8.372  0.00  0.00     0.139 C 
ATOM     52  O   UNK d   0     -12.811 -16.768   8.889  0.00  0.00    -0.650 OA
BRANCH  51  53
ATOM     53  O   UNK d   0     -13.180 -18.998   8.854  0.00  0.00    -0.776 OA
ATOM     54  H   UNK d   0     -13.886 -19.703   8.735  0.00  0.00     0.167 HD
ENDBRANCH  51  53
ENDBRANCH  50  51
ENDBRANCH  49  50
ENDBRANCH  24  49
BRANCH  21  55
ATOM     55  C   UNK d   0     -15.944 -17.284   3.767  0.00  0.00     0.151 C 
BRANCH  55  56
ATOM     56  C   UNK d   0     -17.057 -18.212   4.015  0.00  0.00     0.143 C 
ATOM     57  O   UNK d   0     -17.803 -18.630   3.108  0.00  0.00    -0.650 OA
BRANCH  56  58
ATOM     58  O   UNK d   0     -17.272 -18.633   5.327  0.00  0.00    -0.776 OA
ATOM     59  H   UNK d   0     -16.419 -18.929   5.835  0.00  0.00     0.167 HD
ENDBRANCH  56  58
ENDBRANCH  55  56
ENDBRANCH  21  55
BRANCH  18  60
ATOM     60  C   UNK d   0     -16.205 -21.754   0.808  0.00  0.00     0.151 C 
BRANCH  60  61
ATOM     61  C   UNK d   0     -16.721 -20.815  -0.199  0.00  0.00     0.143 C 
ATOM     62  O   UNK d   0     -16.119 -20.372  -1.178  0.00  0.00    -0.650 OA
BRANCH  61  63
ATOM     63  O   UNK d   0     -18.057 -20.391   0.001  0.00  0.00    -0.776 OA
ATOM     64  H   UNK d   0     -18.720 -20.975   0.480  0.00  0.00     0.167 HD
ENDBRANCH  61  63
ENDBRANCH  60  61
ENDBRANCH  18  60
BRANCH  14  65
ATOM     65  C   UNK d   0     -14.396 -23.759  -0.577  0.00  0.00     0.052 C 
BRANCH  65  66
ATOM     66  C   UNK d   0     -14.686 -23.473  -2.008  0.00  0.00     0.115 C 
BRANCH  66  67
ATOM     67  C   UNK d   0     -13.639 -23.593  -2.983  0.00  0.00     0.139 C 
ATOM     68  O   UNK d   0     -13.447 -24.735  -3.541  0.00  0.00    -0.650 OA
BRANCH  67  69
ATOM     69  O   UNK d   0     -12.766 -22.598  -3.425  0.00  0.00    -0.776 OA
ATOM     70  H   UNK d   0     -12.744 -21.738  -2.859  0.00  0.00     0.167 HD
ENDBRANCH  67  69
ENDBRANCH  66  67
ENDBRANCH  65  66
ENDBRANCH  14  65
ENDBRANCH   6   7
ENDBRANCH   5   6
ENDBRANCH   2   5
TORSDOF 28
ENDMDL
