REMARK  16 active torsions:
REMARK  status: ('A' for Active; 'I' for Inactive)
REMARK    1  A    between atoms: C_6  and  C_7 
REMARK    2  A    between atoms: C_7  and  C_8 
REMARK    3  A    between atoms: C_8  and  C_9 
REMARK    4  A    between atoms: C_9  and  O_11 
REMARK    5  A    between atoms: C_16  and  C_17 
REMARK    6  A    between atoms: C_17  and  C_18 
REMARK    7  A    between atoms: C_18  and  C_19 
REMARK    8  A    between atoms: C_19  and  O_21 
REMARK    9  A    between atoms: C_28  and  C_29 
REMARK   10  A    between atoms: C_29  and  C_30 
REMARK   11  A    between atoms: C_30  and  C_31 
REMARK   12  A    between atoms: C_31  and  O_33 
REMARK   13  A    between atoms: C_42  and  C_43 
REMARK   14  A    between atoms: C_43  and  C_44 
REMARK   15  A    between atoms: C_44  and  C_45 
REMARK   16  A    between atoms: C_45  and  O_47 
ROOT
HETATM    1  C   UNK     0      -2.482  -5.038  -0.009  0.00  0.00     0.051 C 
HETATM    2  C   UNK     0      -2.500  -3.560   0.324  0.00  0.00    -0.031 A 
HETATM    3  C   UNK     0      -1.602  -2.816   1.073  0.00  0.00     0.021 A 
HETATM    4  N   UNK     0      -2.034  -1.534   1.134  0.00  0.00    -0.361 N 
HETATM    5  C   UNK     0      -3.183  -1.443   0.433  0.00  0.00     0.022 A 
HETATM    6  C   UNK     0      -3.505  -2.693  -0.085  0.00  0.00    -0.027 A 
HETATM    7  C   UNK     0      -4.010  -0.237   0.113  0.00  0.00     0.115 C 
HETATM    8  C   UNK     0      -3.257   1.017  -0.295  0.00  0.00     0.021 A 
HETATM    9  N   UNK     0      -2.129   1.118  -1.015  0.00  0.00    -0.361 N 
HETATM   10  C   UNK     0      -1.771   2.419  -1.053  0.00  0.00     0.022 A 
HETATM   11  C   UNK     0      -2.699   3.178  -0.346  0.00  0.00    -0.027 A 
HETATM   12  C   UNK     0      -3.638   2.301   0.134  0.00  0.00    -0.031 A 
HETATM   13  C   UNK     0      -4.846   2.680   0.961  0.00  0.00     0.051 C 
HETATM   14  C   UNK     0      -0.517   2.990  -1.709  0.00  0.00     0.115 C 
HETATM   15  C   UNK     0       0.781   2.457  -1.124  0.00  0.00     0.021 A 
HETATM   16  N   UNK     0       1.186   1.175  -1.056  0.00  0.00    -0.361 N 
HETATM   17  C   UNK     0       2.351   1.117  -0.407  0.00  0.00     0.022 A 
HETATM   18  C   UNK     0       2.728   2.425  -0.043  0.00  0.00    -0.027 A 
HETATM   19  C   UNK     0       1.737   3.255  -0.499  0.00  0.00    -0.031 A 
HETATM   20  C   UNK     0       1.765   4.765  -0.348  0.00  0.00     0.051 C 
HETATM   21  C   UNK     0       3.182  -0.081  -0.007  0.00  0.00     0.115 C 
HETATM   22  C   UNK     0       2.447  -1.349   0.359  0.00  0.00     0.022 A 
HETATM   23  N   UNK     0       1.320  -1.479   1.071  0.00  0.00    -0.361 N 
HETATM   24  C   UNK     0       0.940  -2.772   1.030  0.00  0.00     0.021 A 
HETATM   25  C   UNK     0       1.850  -3.494   0.282  0.00  0.00    -0.031 A 
HETATM   26  C   UNK     0       1.875  -4.979  -0.015  0.00  0.00     0.051 C 
HETATM   27  C   UNK     0       2.824  -2.605  -0.158  0.00  0.00    -0.027 A 
HETATM   28  C   UNK     0      -0.321  -3.389   1.610  0.00  0.00     0.115 C 
HETATM   29  H   UNK     0      -1.545  -0.711   1.705  0.00  0.00     0.165 HD
HETATM   30  H   UNK     0      -1.610   0.279  -1.540  0.00  0.00     0.165 HD
HETATM   31  H   UNK     0       0.663   0.297  -1.517  0.00  0.00     0.165 HD
HETATM   32  H   UNK     0       0.805  -0.666   1.646  0.00  0.00     0.165 HD
ENDROOT
BRANCH   6  33
HETATM   33  C   UNK     0      -4.681  -3.121  -0.926  0.00  0.00     0.051 C 
BRANCH  33  34
HETATM   34  C   UNK     0      -5.693  -3.868  -0.090  0.00  0.00     0.114 C 
BRANCH  34  35
HETATM   35  C   UNK     0      -6.815  -4.259  -0.991  0.00  0.00     0.139 C 
HETATM   36  O   UNK     0      -7.798  -4.914  -0.537  0.00  0.00    -0.650 OA
BRANCH  35  37
HETATM   37  O   UNK     0      -6.841  -3.931  -2.341  0.00  0.00    -0.776 OA
HETATM   38  H   UNK     0      -6.040  -4.060  -2.938  0.00  0.00     0.167 HD
ENDBRANCH  35  37
ENDBRANCH  34  35
ENDBRANCH  33  34
ENDBRANCH   6  33
BRANCH  27  39
HETATM   39  C   UNK     0       4.017  -3.031  -0.939  0.00  0.00     0.051 C 
BRANCH  39  40
HETATM   40  C   UNK     0       5.150  -3.608  -0.216  0.00  0.00     0.114 C 
BRANCH  40  41
HETATM   41  C   UNK     0       5.881  -2.868   0.788  0.00  0.00     0.139 C 
HETATM   42  O   UNK     0       5.643  -1.687   1.075  0.00  0.00    -0.650 OA
BRANCH  41  43
HETATM   43  O   UNK     0       6.934  -3.516   1.494  0.00  0.00    -0.776 OA
HETATM   44  H   UNK     0       6.946  -3.332   2.490  0.00  0.00     0.167 HD
ENDBRANCH  41  43
ENDBRANCH  40  41
ENDBRANCH  39  40
ENDBRANCH  27  39
BRANCH  11  45
HETATM   45  C   UNK     0      -2.723   4.666  -0.121  0.00  0.00     0.051 C 
BRANCH  45  46
HETATM   46  C   UNK     0      -1.831   5.128   0.973  0.00  0.00     0.114 C 
BRANCH  46  47
HETATM   47  C   UNK     0      -1.970   6.610   1.060  0.00  0.00     0.139 C 
HETATM   48  O   UNK     0      -2.936   7.079   1.678  0.00  0.00    -0.650 OA
BRANCH  47  49
HETATM   49  O   UNK     0      -1.050   7.438   0.468  0.00  0.00    -0.776 OA
HETATM   50  H   UNK     0      -0.818   7.370  -0.530  0.00  0.00     0.167 HD
ENDBRANCH  47  49
ENDBRANCH  46  47
ENDBRANCH  45  46
ENDBRANCH  11  45
BRANCH  18  51
HETATM   51  C   UNK     0       3.975   2.862   0.681  0.00  0.00     0.051 C 
BRANCH  51  52
HETATM   52  C   UNK     0       5.092   2.855  -0.352  0.00  0.00     0.114 C 
BRANCH  52  53
HETATM   53  C   UNK     0       6.385   3.258   0.234  0.00  0.00     0.139 C 
HETATM   54  O   UNK     0       6.463   3.524   1.444  0.00  0.00    -0.650 OA
BRANCH  53  55
HETATM   55  O   UNK     0       7.498   3.340  -0.567  0.00  0.00    -0.776 OA
HETATM   56  H   UNK     0       8.248   2.690  -0.593  0.00  0.00     0.167 HD
ENDBRANCH  53  55
ENDBRANCH  52  53
ENDBRANCH  51  52
ENDBRANCH  18  51
TORSDOF 16
