MODEL 1
REMARK VINA RESULT:      -9.8      0.000      0.000
REMARK  16 active torsions:
REMARK  status: ('A' for Active; 'I' for Inactive)
REMARK    1  A    between atoms: C_6  and  C_7 
REMARK    2  A    between atoms: C_7  and  C_8 
REMARK    3  A    between atoms: C_8  and  C_9 
REMARK    4  A    between atoms: C_9  and  O_11 
REMARK    5  A    between atoms: C_16  and  C_17 
REMARK    6  A    between atoms: C_17  and  C_18 
REMARK    7  A    between atoms: C_18  and  C_19 
REMARK    8  A    between atoms: C_19  and  O_21 
REMARK    9  A    between atoms: C_28  and  C_29 
REMARK   10  A    between atoms: C_29  and  C_30 
REMARK   11  A    between atoms: C_30  and  C_31 
REMARK   12  A    between atoms: C_31  and  O_33 
REMARK   13  A    between atoms: C_42  and  C_43 
REMARK   14  A    between atoms: C_43  and  C_44 
REMARK   15  A    between atoms: C_44  and  C_45 
REMARK   16  A    between atoms: C_45  and  O_47 
ROOT
HETATM    1  C   UNK     0     -20.906 -17.684 -14.878  0.00  0.00     0.051 C 
HETATM    2  C   UNK     0     -20.994 -16.172 -14.913  0.00  0.00    -0.031 A 
HETATM    3  C   UNK     0     -21.046 -15.269 -13.863  0.00  0.00     0.021 A 
HETATM    4  N   UNK     0     -21.152 -14.015 -14.363  0.00  0.00    -0.361 N 
HETATM    5  C   UNK     0     -21.159 -14.099 -15.710  0.00  0.00     0.022 A 
HETATM    6  C   UNK     0     -21.065 -15.434 -16.087  0.00  0.00    -0.027 A 
HETATM    7  C   UNK     0     -21.165 -13.004 -16.731  0.00  0.00     0.115 C 
HETATM    8  C   UNK     0     -20.255 -11.818 -16.464  0.00  0.00     0.021 A 
HETATM    9  N   UNK     0     -19.042 -11.807 -15.891  0.00  0.00    -0.361 N 
HETATM   10  C   UNK     0     -18.644 -10.523 -15.775  0.00  0.00     0.022 A 
HETATM   11  C   UNK     0     -19.625  -9.683 -16.296  0.00  0.00    -0.027 A 
HETATM   12  C   UNK     0     -20.642 -10.493 -16.733  0.00  0.00    -0.031 A 
HETATM   13  C   UNK     0     -21.922 -10.016 -17.381  0.00  0.00     0.051 C 
HETATM   14  C   UNK     0     -17.355 -10.033 -15.122  0.00  0.00     0.115 C 
HETATM   15  C   UNK     0     -17.231 -10.400 -13.652  0.00  0.00     0.021 A 
HETATM   16  N   UNK     0     -17.248 -11.631 -13.108  0.00  0.00    -0.361 N 
HETATM   17  C   UNK     0     -17.184 -11.524 -11.779  0.00  0.00     0.022 A 
HETATM   18  C   UNK     0     -17.112 -10.158 -11.441  0.00  0.00    -0.027 A 
HETATM   19  C   UNK     0     -17.141  -9.464 -12.623  0.00  0.00    -0.031 A 
HETATM   20  C   UNK     0     -17.048  -7.952 -12.717  0.00  0.00     0.051 C 
HETATM   21  C   UNK     0     -17.242 -12.596 -10.714  0.00  0.00     0.115 C 
HETATM   22  C   UNK     0     -18.109 -13.803 -10.985  0.00  0.00     0.022 A 
HETATM   23  N   UNK     0     -19.319 -13.843 -11.558  0.00  0.00    -0.361 N 
HETATM   24  C   UNK     0     -19.661 -15.136 -11.735  0.00  0.00     0.021 A 
HETATM   25  C   UNK     0     -18.651 -15.947 -11.254  0.00  0.00    -0.031 A 
HETATM   26  C   UNK     0     -18.590 -17.459 -11.194  0.00  0.00     0.051 C 
HETATM   27  C   UNK     0     -17.647 -15.116 -10.769  0.00  0.00    -0.027 A 
HETATM   28  C   UNK     0     -20.897 -15.684 -12.426  0.00  0.00     0.115 C 
HETATM   29  H   UNK     0     -21.260 -13.083 -13.761  0.00  0.00     0.165 HD
HETATM   30  H   UNK     0     -18.441 -12.708 -15.612  0.00  0.00     0.165 HD
HETATM   31  H   UNK     0     -17.257 -12.598 -13.675  0.00  0.00     0.165 HD
HETATM   32  H   UNK     0     -19.963 -12.959 -11.805  0.00  0.00     0.165 HD
ENDROOT
BRANCH   6  33
HETATM   33  C   UNK     0     -21.040 -16.054 -17.462  0.00  0.00     0.051 C 
BRANCH  33  34
HETATM   34  C   UNK     0     -19.655 -15.975 -18.059  0.00  0.00     0.114 C 
BRANCH  34  35
HETATM   35  C   UNK     0     -19.798 -15.464 -19.452  0.00  0.00     0.139 C 
HETATM   36  O   UNK     0     -19.806 -14.219 -19.677  0.00  0.00    -0.650 OA
BRANCH  35  37
HETATM   37  O   UNK     0     -19.923 -16.307 -20.550  0.00  0.00    -0.776 OA
HETATM   38  H   UNK     0     -19.277 -17.061 -20.722  0.00  0.00     0.167 HD
ENDBRANCH  35  37
ENDBRANCH  34  35
ENDBRANCH  33  34
ENDBRANCH   6  33
BRANCH  27  39
HETATM   39  C   UNK     0     -16.419 -15.632 -10.104  0.00  0.00     0.051 C 
BRANCH  39  40
HETATM   40  C   UNK     0     -16.393 -15.687  -8.642  0.00  0.00     0.114 C 
BRANCH  40  41
HETATM   41  C   UNK     0     -16.820 -14.576  -7.822  0.00  0.00     0.139 C 
HETATM   42  O   UNK     0     -16.086 -13.625  -7.524  0.00  0.00    -0.650 OA
BRANCH  41  43
HETATM   43  O   UNK     0     -18.153 -14.560  -7.320  0.00  0.00    -0.776 OA
HETATM   44  H   UNK     0     -18.221 -14.615  -6.311  0.00  0.00     0.167 HD
ENDBRANCH  41  43
ENDBRANCH  40  41
ENDBRANCH  39  40
ENDBRANCH  27  39
BRANCH  11  45
HETATM   45  C   UNK     0     -19.624  -8.181 -16.393  0.00  0.00     0.051 C 
BRANCH  45  46
HETATM   46  C   UNK     0     -19.846  -7.490 -15.097  0.00  0.00     0.114 C 
BRANCH  46  47
HETATM   47  C   UNK     0     -21.171  -6.813 -15.179  0.00  0.00     0.139 C 
HETATM   48  O   UNK     0     -22.186  -7.511 -15.317  0.00  0.00    -0.650 OA
BRANCH  47  49
HETATM   49  O   UNK     0     -21.267  -5.446 -15.105  0.00  0.00    -0.776 OA
HETATM   50  H   UNK     0     -22.058  -4.979 -14.645  0.00  0.00     0.167 HD
ENDBRANCH  47  49
ENDBRANCH  46  47
ENDBRANCH  45  46
ENDBRANCH  11  45
BRANCH  18  51
HETATM   51  C   UNK     0     -17.001  -9.548 -10.068  0.00  0.00     0.051 C 
BRANCH  51  52
HETATM   52  C   UNK     0     -15.536  -9.657  -9.671  0.00  0.00     0.114 C 
BRANCH  52  53
HETATM   53  C   UNK     0     -15.365  -9.703  -8.206  0.00  0.00     0.139 C 
HETATM   54  O   UNK     0     -15.275  -8.649  -7.557  0.00  0.00    -0.650 OA
BRANCH  53  55
HETATM   55  O   UNK     0     -15.303 -10.918  -7.567  0.00  0.00    -0.776 OA
HETATM   56  H   UNK     0     -15.587 -11.102  -6.634  0.00  0.00     0.167 HD
ENDBRANCH  53  55
ENDBRANCH  52  53
ENDBRANCH  51  52
ENDBRANCH  18  51
TORSDOF 16
ENDMDL
MODEL 2
REMARK VINA RESULT:      -9.5      1.863      2.162
REMARK  16 active torsions:
REMARK  status: ('A' for Active; 'I' for Inactive)
REMARK    1  A    between atoms: C_6  and  C_7 
REMARK    2  A    between atoms: C_7  and  C_8 
REMARK    3  A    between atoms: C_8  and  C_9 
REMARK    4  A    between atoms: C_9  and  O_11 
REMARK    5  A    between atoms: C_16  and  C_17 
REMARK    6  A    between atoms: C_17  and  C_18 
REMARK    7  A    between atoms: C_18  and  C_19 
REMARK    8  A    between atoms: C_19  and  O_21 
REMARK    9  A    between atoms: C_28  and  C_29 
REMARK   10  A    between atoms: C_29  and  C_30 
REMARK   11  A    between atoms: C_30  and  C_31 
REMARK   12  A    between atoms: C_31  and  O_33 
REMARK   13  A    between atoms: C_42  and  C_43 
REMARK   14  A    between atoms: C_43  and  C_44 
REMARK   15  A    between atoms: C_44  and  C_45 
REMARK   16  A    between atoms: C_45  and  O_47 
ROOT
HETATM    1  C   UNK     0     -21.053 -17.306 -15.327  0.00  0.00     0.051 C 
HETATM    2  C   UNK     0     -20.937 -15.805 -15.493  0.00  0.00    -0.031 A 
HETATM    3  C   UNK     0     -21.003 -14.806 -14.534  0.00  0.00     0.021 A 
HETATM    4  N   UNK     0     -20.879 -13.602 -15.142  0.00  0.00    -0.361 N 
HETATM    5  C   UNK     0     -20.727 -13.812 -16.466  0.00  0.00     0.022 A 
HETATM    6  C   UNK     0     -20.762 -15.179 -16.721  0.00  0.00    -0.027 A 
HETATM    7  C   UNK     0     -20.460 -12.828 -17.562  0.00  0.00     0.115 C 
HETATM    8  C   UNK     0     -19.444 -11.739 -17.267  0.00  0.00     0.021 A 
HETATM    9  N   UNK     0     -18.322 -11.818 -16.535  0.00  0.00    -0.361 N 
HETATM   10  C   UNK     0     -17.777 -10.585 -16.467  0.00  0.00     0.022 A 
HETATM   11  C   UNK     0     -18.565  -9.688 -17.183  0.00  0.00    -0.027 A 
HETATM   12  C   UNK     0     -19.617 -10.409 -17.689  0.00  0.00    -0.031 A 
HETATM   13  C   UNK     0     -20.731  -9.846 -18.543  0.00  0.00     0.051 C 
HETATM   14  C   UNK     0     -16.527 -10.193 -15.684  0.00  0.00     0.115 C 
HETATM   15  C   UNK     0     -16.640 -10.429 -14.186  0.00  0.00     0.021 A 
HETATM   16  N   UNK     0     -16.886 -11.592 -13.554  0.00  0.00    -0.361 N 
HETATM   17  C   UNK     0     -16.977 -11.367 -12.242  0.00  0.00     0.022 A 
HETATM   18  C   UNK     0     -16.771  -9.994 -12.006  0.00  0.00    -0.027 A 
HETATM   19  C   UNK     0     -16.559  -9.418 -13.232  0.00  0.00    -0.031 A 
HETATM   20  C   UNK     0     -16.258  -7.943 -13.431  0.00  0.00     0.051 C 
HETATM   21  C   UNK     0     -17.310 -12.317 -11.114  0.00  0.00     0.115 C 
HETATM   22  C   UNK     0     -18.286 -13.432 -11.406  0.00  0.00     0.022 A 
HETATM   23  N   UNK     0     -19.409 -13.383 -12.134  0.00  0.00    -0.361 N 
HETATM   24  C   UNK     0     -19.892 -14.636 -12.253  0.00  0.00     0.021 A 
HETATM   25  C   UNK     0     -19.066 -15.512 -11.576  0.00  0.00    -0.031 A 
HETATM   26  C   UNK     0     -19.212 -17.008 -11.389  0.00  0.00     0.051 C 
HETATM   27  C   UNK     0     -18.031 -14.766 -11.025  0.00  0.00    -0.027 A 
HETATM   28  C   UNK     0     -21.092 -15.097 -13.063  0.00  0.00     0.115 C 
HETATM   29  H   UNK     0     -20.940 -12.611 -14.636  0.00  0.00     0.165 HD
HETATM   30  H   UNK     0     -17.885 -12.753 -16.106  0.00  0.00     0.165 HD
HETATM   31  H   UNK     0     -16.950 -12.601 -14.039  0.00  0.00     0.165 HD
HETATM   32  H   UNK     0     -19.895 -12.456 -12.536  0.00  0.00     0.165 HD
ENDROOT
BRANCH   6  33
HETATM   33  C   UNK     0     -20.644 -15.926 -18.025  0.00  0.00     0.051 C 
BRANCH  33  34
HETATM   34  C   UNK     0     -19.196 -16.085 -18.423  0.00  0.00     0.114 C 
BRANCH  34  35
HETATM   35  C   UNK     0     -19.049 -17.431 -19.047  0.00  0.00     0.139 C 
HETATM   36  O   UNK     0     -18.219 -18.263 -18.578  0.00  0.00    -0.650 OA
BRANCH  35  37
HETATM   37  O   UNK     0     -19.799 -17.833 -20.145  0.00  0.00    -0.776 OA
HETATM   38  H   UNK     0     -20.622 -18.406 -20.050  0.00  0.00     0.167 HD
ENDBRANCH  35  37
ENDBRANCH  34  35
ENDBRANCH  33  34
ENDBRANCH   6  33
BRANCH  27  39
HETATM   39  C   UNK     0     -16.976 -15.358 -10.159  0.00  0.00     0.051 C 
BRANCH  39  40
HETATM   40  C   UNK     0     -17.238 -15.472  -8.724  0.00  0.00     0.114 C 
BRANCH  40  41
HETATM   41  C   UNK     0     -17.134 -14.341  -7.830  0.00  0.00     0.139 C 
HETATM   42  O   UNK     0     -16.099 -13.677  -7.686  0.00  0.00    -0.650 OA
BRANCH  41  43
HETATM   43  O   UNK     0     -18.272 -13.957  -7.066  0.00  0.00    -0.776 OA
HETATM   44  H   UNK     0     -18.217 -13.026  -6.670  0.00  0.00     0.167 HD
ENDBRANCH  41  43
ENDBRANCH  40  41
ENDBRANCH  39  40
ENDBRANCH  27  39
BRANCH  11  45
HETATM   45  C   UNK     0     -18.356  -8.213 -17.397  0.00  0.00     0.051 C 
BRANCH  45  46
HETATM   46  C   UNK     0     -17.220  -7.887 -18.297  0.00  0.00     0.114 C 
BRANCH  46  47
HETATM   47  C   UNK     0     -17.779  -7.715 -19.668  0.00  0.00     0.139 C 
HETATM   48  O   UNK     0     -17.774  -8.688 -20.436  0.00  0.00    -0.650 OA
BRANCH  47  49
HETATM   49  O   UNK     0     -18.288  -6.508 -20.074  0.00  0.00    -0.776 OA
HETATM   50  H   UNK     0     -18.725  -6.382 -20.995  0.00  0.00     0.167 HD
ENDBRANCH  47  49
ENDBRANCH  46  47
ENDBRANCH  45  46
ENDBRANCH  11  45
BRANCH  18  51
HETATM   51  C   UNK     0     -16.754  -9.273 -10.683  0.00  0.00     0.051 C 
BRANCH  51  52
HETATM   52  C   UNK     0     -15.370  -9.496 -10.093  0.00  0.00     0.114 C 
BRANCH  52  53
HETATM   53  C   UNK     0     -14.484  -8.338 -10.317  0.00  0.00     0.139 C 
HETATM   54  O   UNK     0     -14.921  -7.184 -10.177  0.00  0.00    -0.650 OA
BRANCH  53  55
HETATM   55  O   UNK     0     -13.176  -8.544 -10.684  0.00  0.00    -0.776 OA
HETATM   56  H   UNK     0     -12.669  -8.020 -11.358  0.00  0.00     0.167 HD
ENDBRANCH  53  55
ENDBRANCH  52  53
ENDBRANCH  51  52
ENDBRANCH  18  51
TORSDOF 16
ENDMDL
MODEL 3
REMARK VINA RESULT:      -9.3      2.797      4.069
REMARK  16 active torsions:
REMARK  status: ('A' for Active; 'I' for Inactive)
REMARK    1  A    between atoms: C_6  and  C_7 
REMARK    2  A    between atoms: C_7  and  C_8 
REMARK    3  A    between atoms: C_8  and  C_9 
REMARK    4  A    between atoms: C_9  and  O_11 
REMARK    5  A    between atoms: C_16  and  C_17 
REMARK    6  A    between atoms: C_17  and  C_18 
REMARK    7  A    between atoms: C_18  and  C_19 
REMARK    8  A    between atoms: C_19  and  O_21 
REMARK    9  A    between atoms: C_28  and  C_29 
REMARK   10  A    between atoms: C_29  and  C_30 
REMARK   11  A    between atoms: C_30  and  C_31 
REMARK   12  A    between atoms: C_31  and  O_33 
REMARK   13  A    between atoms: C_42  and  C_43 
REMARK   14  A    between atoms: C_43  and  C_44 
REMARK   15  A    between atoms: C_44  and  C_45 
REMARK   16  A    between atoms: C_45  and  O_47 
ROOT
HETATM    1  C   UNK     0     -20.647 -13.188 -16.782  0.00  0.00     0.051 C 
HETATM    2  C   UNK     0     -20.045 -11.835 -16.464  0.00  0.00    -0.031 A 
HETATM    3  C   UNK     0     -20.036 -11.135 -15.267  0.00  0.00     0.021 A 
HETATM    4  N   UNK     0     -19.410  -9.949 -15.454  0.00  0.00    -0.361 N 
HETATM    5  C   UNK     0     -19.012  -9.881 -16.741  0.00  0.00     0.022 A 
HETATM    6  C   UNK     0     -19.396 -11.043 -17.402  0.00  0.00    -0.027 A 
HETATM    7  C   UNK     0     -18.202  -8.830 -17.433  0.00  0.00     0.115 C 
HETATM    8  C   UNK     0     -17.007  -8.281 -16.673  0.00  0.00     0.021 A 
HETATM    9  N   UNK     0     -16.175  -8.928 -15.842  0.00  0.00    -0.361 N 
HETATM   10  C   UNK     0     -15.316  -8.026 -15.322  0.00  0.00     0.022 A 
HETATM   11  C   UNK     0     -15.597  -6.764 -15.839  0.00  0.00    -0.027 A 
HETATM   12  C   UNK     0     -16.661  -6.918 -16.691  0.00  0.00    -0.031 A 
HETATM   13  C   UNK     0     -17.310  -5.808 -17.488  0.00  0.00     0.051 C 
HETATM   14  C   UNK     0     -14.236  -8.305 -14.281  0.00  0.00     0.115 C 
HETATM   15  C   UNK     0     -14.775  -8.832 -12.960  0.00  0.00     0.021 A 
HETATM   16  N   UNK     0     -15.508  -9.942 -12.756  0.00  0.00    -0.361 N 
HETATM   17  C   UNK     0     -15.843 -10.016 -11.466  0.00  0.00     0.022 A 
HETATM   18  C   UNK     0     -15.294  -8.905 -10.796  0.00  0.00    -0.027 A 
HETATM   19  C   UNK     0     -14.627  -8.172 -11.742  0.00  0.00    -0.031 A 
HETATM   20  C   UNK     0     -13.854  -6.902 -11.435  0.00  0.00     0.051 C 
HETATM   21  C   UNK     0     -16.711 -11.021 -10.744  0.00  0.00     0.115 C 
HETATM   22  C   UNK     0     -17.878 -11.609 -11.503  0.00  0.00     0.022 A 
HETATM   23  N   UNK     0     -18.720 -10.989 -12.340  0.00  0.00    -0.361 N 
HETATM   24  C   UNK     0     -19.516 -11.919 -12.905  0.00  0.00     0.021 A 
HETATM   25  C   UNK     0     -19.185 -13.167 -12.412  0.00  0.00    -0.031 A 
HETATM   26  C   UNK     0     -19.818 -14.509 -12.714  0.00  0.00     0.051 C 
HETATM   27  C   UNK     0     -18.139 -12.994 -11.513  0.00  0.00    -0.027 A 
HETATM   28  C   UNK     0     -20.564 -11.713 -13.985  0.00  0.00     0.115 C 
HETATM   29  H   UNK     0     -19.289  -9.152 -14.685  0.00  0.00     0.165 HD
HETATM   30  H   UNK     0     -16.159 -10.030 -15.659  0.00  0.00     0.165 HD
HETATM   31  H   UNK     0     -15.755 -10.716 -13.529  0.00  0.00     0.165 HD
HETATM   32  H   UNK     0     -18.790  -9.883 -12.507  0.00  0.00     0.165 HD
ENDROOT
BRANCH   6  33
HETATM   33  C   UNK     0     -19.197 -11.452 -18.840  0.00  0.00     0.051 C 
BRANCH  33  34
HETATM   34  C   UNK     0     -17.855 -12.121 -19.025  0.00  0.00     0.114 C 
BRANCH  34  35
HETATM   35  C   UNK     0     -17.946 -12.972 -20.247  0.00  0.00     0.139 C 
HETATM   36  O   UNK     0     -18.893 -13.800 -20.377  0.00  0.00    -0.650 OA
BRANCH  35  37
HETATM   37  O   UNK     0     -17.020 -12.899 -21.280  0.00  0.00    -0.776 OA
HETATM   38  H   UNK     0     -17.168 -13.360 -22.164  0.00  0.00     0.167 HD
ENDBRANCH  35  37
ENDBRANCH  34  35
ENDBRANCH  33  34
ENDBRANCH   6  33
BRANCH  27  39
HETATM   39  C   UNK     0     -17.556 -14.112 -10.722  0.00  0.00     0.051 C 
BRANCH  39  40
HETATM   40  C   UNK     0     -17.912 -14.220  -9.307  0.00  0.00     0.114 C 
BRANCH  40  41
HETATM   41  C   UNK     0     -17.126 -13.598  -8.266  0.00  0.00     0.139 C 
HETATM   42  O   UNK     0     -16.081 -14.086  -7.814  0.00  0.00    -0.650 OA
BRANCH  41  43
HETATM   43  O   UNK     0     -17.563 -12.358  -7.718  0.00  0.00    -0.776 OA
HETATM   44  H   UNK     0     -16.823 -11.682  -7.571  0.00  0.00     0.167 HD
ENDBRANCH  41  43
ENDBRANCH  40  41
ENDBRANCH  39  40
ENDBRANCH  27  39
BRANCH  11  45
HETATM   45  C   UNK     0     -14.905  -5.457 -15.560  0.00  0.00     0.051 C 
BRANCH  45  46
HETATM   46  C   UNK     0     -15.565  -4.633 -14.515  0.00  0.00     0.114 C 
BRANCH  46  47
HETATM   47  C   UNK     0     -15.512  -3.215 -14.972  0.00  0.00     0.139 C 
HETATM   48  O   UNK     0     -14.442  -2.598 -14.868  0.00  0.00    -0.650 OA
BRANCH  47  49
HETATM   49  O   UNK     0     -16.624  -2.604 -15.494  0.00  0.00    -0.776 OA
HETATM   50  H   UNK     0     -16.677  -1.586 -15.623  0.00  0.00     0.167 HD
ENDBRANCH  47  49
ENDBRANCH  46  47
ENDBRANCH  45  46
ENDBRANCH  11  45
BRANCH  18  51
HETATM   51  C   UNK     0     -15.382  -8.572  -9.329  0.00  0.00     0.051 C 
BRANCH  51  52
HETATM   52  C   UNK     0     -16.710  -7.854  -9.134  0.00  0.00     0.114 C 
BRANCH  52  53
HETATM   53  C   UNK     0     -17.378  -8.264  -7.884  0.00  0.00     0.139 C 
HETATM   54  O   UNK     0     -17.830  -9.415  -7.770  0.00  0.00    -0.650 OA
BRANCH  53  55
HETATM   55  O   UNK     0     -17.501  -7.366  -6.853  0.00  0.00    -0.776 OA
HETATM   56  H   UNK     0     -16.770  -6.815  -6.468  0.00  0.00     0.167 HD
ENDBRANCH  53  55
ENDBRANCH  52  53
ENDBRANCH  51  52
ENDBRANCH  18  51
TORSDOF 16
ENDMDL
MODEL 4
REMARK VINA RESULT:      -9.3      2.245      2.893
REMARK  16 active torsions:
REMARK  status: ('A' for Active; 'I' for Inactive)
REMARK    1  A    between atoms: C_6  and  C_7 
REMARK    2  A    between atoms: C_7  and  C_8 
REMARK    3  A    between atoms: C_8  and  C_9 
REMARK    4  A    between atoms: C_9  and  O_11 
REMARK    5  A    between atoms: C_16  and  C_17 
REMARK    6  A    between atoms: C_17  and  C_18 
REMARK    7  A    between atoms: C_18  and  C_19 
REMARK    8  A    between atoms: C_19  and  O_21 
REMARK    9  A    between atoms: C_28  and  C_29 
REMARK   10  A    between atoms: C_29  and  C_30 
REMARK   11  A    between atoms: C_30  and  C_31 
REMARK   12  A    between atoms: C_31  and  O_33 
REMARK   13  A    between atoms: C_42  and  C_43 
REMARK   14  A    between atoms: C_43  and  C_44 
REMARK   15  A    between atoms: C_44  and  C_45 
REMARK   16  A    between atoms: C_45  and  O_47 
ROOT
HETATM    1  C   UNK     0     -20.902 -15.326 -16.182  0.00  0.00     0.051 C 
HETATM    2  C   UNK     0     -20.451 -13.880 -16.131  0.00  0.00    -0.031 A 
HETATM    3  C   UNK     0     -20.509 -12.977 -15.081  0.00  0.00     0.021 A 
HETATM    4  N   UNK     0     -20.019 -11.785 -15.497  0.00  0.00    -0.361 N 
HETATM    5  C   UNK     0     -19.641 -11.912 -16.786  0.00  0.00     0.022 A 
HETATM    6  C   UNK     0     -19.900 -13.209 -17.215  0.00  0.00    -0.027 A 
HETATM    7  C   UNK     0     -18.958 -10.924 -17.679  0.00  0.00     0.115 C 
HETATM    8  C   UNK     0     -17.824 -10.121 -17.065  0.00  0.00     0.021 A 
HETATM    9  N   UNK     0     -16.919 -10.513 -16.155  0.00  0.00    -0.361 N 
HETATM   10  C   UNK     0     -16.161  -9.444 -15.831  0.00  0.00     0.022 A 
HETATM   11  C   UNK     0     -16.583  -8.336 -16.560  0.00  0.00    -0.027 A 
HETATM   12  C   UNK     0     -17.630  -8.755 -17.339  0.00  0.00    -0.031 A 
HETATM   13  C   UNK     0     -18.404  -7.886 -18.305  0.00  0.00     0.051 C 
HETATM   14  C   UNK     0     -15.047  -9.412 -14.788  0.00  0.00     0.115 C 
HETATM   15  C   UNK     0     -15.514  -9.742 -13.379  0.00  0.00     0.021 A 
HETATM   16  N   UNK     0     -16.118 -10.869 -12.957  0.00  0.00    -0.361 N 
HETATM   17  C   UNK     0     -16.432 -10.741 -11.666  0.00  0.00     0.022 A 
HETATM   18  C   UNK     0     -16.003  -9.474 -11.223  0.00  0.00    -0.027 A 
HETATM   19  C   UNK     0     -15.429  -8.859 -12.305  0.00  0.00    -0.031 A 
HETATM   20  C   UNK     0     -14.798  -7.479 -12.255  0.00  0.00     0.051 C 
HETATM   21  C   UNK     0     -17.178 -11.683 -10.749  0.00  0.00     0.115 C 
HETATM   22  C   UNK     0     -18.279 -12.521 -11.356  0.00  0.00     0.022 A 
HETATM   23  N   UNK     0     -19.192 -12.158 -12.267  0.00  0.00    -0.361 N 
HETATM   24  C   UNK     0     -19.885 -13.255 -12.632  0.00  0.00     0.021 A 
HETATM   25  C   UNK     0     -19.414 -14.349 -11.931  0.00  0.00    -0.031 A 
HETATM   26  C   UNK     0     -19.898 -15.784 -11.967  0.00  0.00     0.051 C 
HETATM   27  C   UNK     0     -18.386 -13.904 -11.108  0.00  0.00    -0.027 A 
HETATM   28  C   UNK     0     -20.959 -13.364 -13.701  0.00  0.00     0.115 C 
HETATM   29  H   UNK     0     -19.980 -10.852 -14.889  0.00  0.00     0.165 HD
HETATM   30  H   UNK     0     -16.781 -11.555 -15.776  0.00  0.00     0.165 HD
HETATM   31  H   UNK     0     -16.285 -11.792 -13.570  0.00  0.00     0.165 HD
HETATM   32  H   UNK     0     -19.385 -11.115 -12.629  0.00  0.00     0.165 HD
ENDROOT
BRANCH   6  33
HETATM   33  C   UNK     0     -19.670 -13.850 -18.560  0.00  0.00     0.051 C 
BRANCH  33  34
HETATM   34  C   UNK     0     -18.222 -13.725 -18.971  0.00  0.00     0.114 C 
BRANCH  34  35
HETATM   35  C   UNK     0     -18.182 -12.923 -20.227  0.00  0.00     0.139 C 
HETATM   36  O   UNK     0     -17.094 -12.778 -20.856  0.00  0.00    -0.650 OA
BRANCH  35  37
HETATM   37  O   UNK     0     -19.309 -12.309 -20.760  0.00  0.00    -0.776 OA
HETATM   38  H   UNK     0     -19.300 -11.871 -21.667  0.00  0.00     0.167 HD
ENDBRANCH  35  37
ENDBRANCH  34  35
ENDBRANCH  33  34
ENDBRANCH   6  33
BRANCH  27  39
HETATM   39  C   UNK     0     -17.678 -14.790 -10.145  0.00  0.00     0.051 C 
BRANCH  39  40
HETATM   40  C   UNK     0     -18.013 -14.681  -8.725  0.00  0.00     0.114 C 
BRANCH  40  41
HETATM   41  C   UNK     0     -17.131 -14.045  -7.772  0.00  0.00     0.139 C 
HETATM   42  O   UNK     0     -15.927 -14.313  -7.671  0.00  0.00    -0.650 OA
BRANCH  41  43
HETATM   43  O   UNK     0     -17.660 -13.055  -6.896  0.00  0.00    -0.776 OA
HETATM   44  H   UNK     0     -18.633 -12.828  -7.059  0.00  0.00     0.167 HD
ENDBRANCH  41  43
ENDBRANCH  40  41
ENDBRANCH  39  40
ENDBRANCH  27  39
BRANCH  11  45
HETATM   45  C   UNK     0     -16.037  -6.933 -16.541  0.00  0.00     0.051 C 
BRANCH  45  46
HETATM   46  C   UNK     0     -16.412  -6.152 -15.335  0.00  0.00     0.114 C 
BRANCH  46  47
HETATM   47  C   UNK     0     -15.520  -4.958 -15.287  0.00  0.00     0.139 C 
HETATM   48  O   UNK     0     -16.009  -3.845 -15.524  0.00  0.00    -0.650 OA
BRANCH  47  49
HETATM   49  O   UNK     0     -14.188  -5.088 -14.988  0.00  0.00    -0.776 OA
HETATM   50  H   UNK     0     -13.453  -4.905 -15.682  0.00  0.00     0.167 HD
ENDBRANCH  47  49
ENDBRANCH  46  47
ENDBRANCH  45  46
ENDBRANCH  11  45
BRANCH  18  51
HETATM   51  C   UNK     0     -16.115  -8.889  -9.839  0.00  0.00     0.051 C 
BRANCH  51  52
HETATM   52  C   UNK     0     -14.992  -9.510  -9.022  0.00  0.00     0.114 C 
BRANCH  52  53
HETATM   53  C   UNK     0     -15.474 -10.027  -7.727  0.00  0.00     0.139 C 
HETATM   54  O   UNK     0     -16.077  -9.275  -6.944  0.00  0.00    -0.650 OA
BRANCH  53  55
HETATM   55  O   UNK     0     -15.250 -11.340  -7.393  0.00  0.00    -0.776 OA
HETATM   56  H   UNK     0     -15.728 -12.127  -7.763  0.00  0.00     0.167 HD
ENDBRANCH  53  55
ENDBRANCH  52  53
ENDBRANCH  51  52
ENDBRANCH  18  51
TORSDOF 16
ENDMDL
MODEL 5
REMARK VINA RESULT:      -9.3      2.819      9.931
REMARK  16 active torsions:
REMARK  status: ('A' for Active; 'I' for Inactive)
REMARK    1  A    between atoms: C_6  and  C_7 
REMARK    2  A    between atoms: C_7  and  C_8 
REMARK    3  A    between atoms: C_8  and  C_9 
REMARK    4  A    between atoms: C_9  and  O_11 
REMARK    5  A    between atoms: C_16  and  C_17 
REMARK    6  A    between atoms: C_17  and  C_18 
REMARK    7  A    between atoms: C_18  and  C_19 
REMARK    8  A    between atoms: C_19  and  O_21 
REMARK    9  A    between atoms: C_28  and  C_29 
REMARK   10  A    between atoms: C_29  and  C_30 
REMARK   11  A    between atoms: C_30  and  C_31 
REMARK   12  A    between atoms: C_31  and  O_33 
REMARK   13  A    between atoms: C_42  and  C_43 
REMARK   14  A    between atoms: C_43  and  C_44 
REMARK   15  A    between atoms: C_44  and  C_45 
REMARK   16  A    between atoms: C_45  and  O_47 
ROOT
HETATM    1  C   UNK     0     -16.103  -6.797 -13.288  0.00  0.00     0.051 C 
HETATM    2  C   UNK     0     -16.626  -7.747 -12.230  0.00  0.00    -0.031 A 
HETATM    3  C   UNK     0     -17.909  -8.237 -12.045  0.00  0.00     0.021 A 
HETATM    4  N   UNK     0     -17.923  -9.035 -10.951  0.00  0.00    -0.361 N 
HETATM    5  C   UNK     0     -16.675  -9.071 -10.440  0.00  0.00     0.022 A 
HETATM    6  C   UNK     0     -15.839  -8.274 -11.215  0.00  0.00    -0.027 A 
HETATM    7  C   UNK     0     -16.137  -9.874  -9.297  0.00  0.00     0.115 C 
HETATM    8  C   UNK     0     -16.588 -11.322  -9.210  0.00  0.00     0.021 A 
HETATM    9  N   UNK     0     -16.831 -12.184 -10.209  0.00  0.00    -0.361 N 
HETATM   10  C   UNK     0     -17.298 -13.330  -9.670  0.00  0.00     0.022 A 
HETATM   11  C   UNK     0     -17.349 -13.206  -8.284  0.00  0.00    -0.027 A 
HETATM   12  C   UNK     0     -16.902 -11.943  -7.988  0.00  0.00    -0.031 A 
HETATM   13  C   UNK     0     -16.779 -11.364  -6.596  0.00  0.00     0.051 C 
HETATM   14  C   UNK     0     -17.764 -14.563 -10.438  0.00  0.00     0.115 C 
HETATM   15  C   UNK     0     -18.939 -14.302 -11.367  0.00  0.00     0.021 A 
HETATM   16  N   UNK     0     -19.001 -13.425 -12.387  0.00  0.00    -0.361 N 
HETATM   17  C   UNK     0     -20.228 -13.448 -12.911  0.00  0.00     0.022 A 
HETATM   18  C   UNK     0     -21.001 -14.391 -12.205  0.00  0.00    -0.027 A 
HETATM   19  C   UNK     0     -20.181 -14.920 -11.241  0.00  0.00    -0.031 A 
HETATM   20  C   UNK     0     -20.610 -16.008 -10.274  0.00  0.00     0.051 C 
HETATM   21  C   UNK     0     -20.828 -12.609 -14.017  0.00  0.00     0.115 C 
HETATM   22  C   UNK     0     -20.356 -11.180 -14.143  0.00  0.00     0.022 A 
HETATM   23  N   UNK     0     -20.102 -10.300 -13.166  0.00  0.00    -0.361 N 
HETATM   24  C   UNK     0     -19.565  -9.195 -13.720  0.00  0.00     0.021 A 
HETATM   25  C   UNK     0     -19.480  -9.363 -15.088  0.00  0.00    -0.031 A 
HETATM   26  C   UNK     0     -18.986  -8.391 -16.140  0.00  0.00     0.051 C 
HETATM   27  C   UNK     0     -19.981 -10.626 -15.384  0.00  0.00    -0.027 A 
HETATM   28  C   UNK     0     -19.030  -7.964 -13.008  0.00  0.00     0.115 C 
HETATM   29  H   UNK     0     -18.823  -9.535 -10.524  0.00  0.00     0.165 HD
HETATM   30  H   UNK     0     -16.626 -12.004 -11.293  0.00  0.00     0.165 HD
HETATM   31  H   UNK     0     -18.147 -12.812 -12.777  0.00  0.00     0.165 HD
HETATM   32  H   UNK     0     -20.340 -10.435 -12.078  0.00  0.00     0.165 HD
ENDROOT
BRANCH   6  33
HETATM   33  C   UNK     0     -14.368  -7.977 -11.063  0.00  0.00     0.051 C 
BRANCH  33  34
HETATM   34  C   UNK     0     -14.140  -6.929 -10.000  0.00  0.00     0.114 C 
BRANCH  34  35
HETATM   35  C   UNK     0     -12.675  -6.881  -9.728  0.00  0.00     0.139 C 
HETATM   36  O   UNK     0     -11.859  -6.655 -10.669  0.00  0.00    -0.650 OA
BRANCH  35  37
HETATM   37  O   UNK     0     -12.141  -7.072  -8.459  0.00  0.00    -0.776 OA
HETATM   38  H   UNK     0     -12.657  -7.532  -7.727  0.00  0.00     0.167 HD
ENDBRANCH  35  37
ENDBRANCH  34  35
ENDBRANCH  33  34
ENDBRANCH   6  33
BRANCH  27  39
HETATM   39  C   UNK     0     -20.118 -11.139 -16.774  0.00  0.00     0.051 C 
BRANCH  39  40
HETATM   40  C   UNK     0     -21.456 -11.201 -17.362  0.00  0.00     0.114 C 
BRANCH  40  41
HETATM   41  C   UNK     0     -22.165 -10.017 -17.790  0.00  0.00     0.139 C 
HETATM   42  O   UNK     0     -22.331  -9.711 -18.979  0.00  0.00    -0.650 OA
BRANCH  41  43
HETATM   43  O   UNK     0     -22.709  -9.143 -16.806  0.00  0.00    -0.776 OA
HETATM   44  H   UNK     0     -23.683  -9.313 -16.587  0.00  0.00     0.167 HD
ENDBRANCH  41  43
ENDBRANCH  40  41
ENDBRANCH  39  40
ENDBRANCH  27  39
BRANCH  11  45
HETATM   45  C   UNK     0     -17.792 -14.219  -7.264  0.00  0.00     0.051 C 
BRANCH  45  46
HETATM   46  C   UNK     0     -16.828 -15.329  -7.054  0.00  0.00     0.114 C 
BRANCH  46  47
HETATM   47  C   UNK     0     -17.532 -16.597  -7.401  0.00  0.00     0.139 C 
HETATM   48  O   UNK     0     -16.922 -17.451  -8.060  0.00  0.00    -0.650 OA
BRANCH  47  49
HETATM   49  O   UNK     0     -18.826 -16.814  -7.002  0.00  0.00    -0.776 OA
HETATM   50  H   UNK     0     -19.484 -17.369  -7.563  0.00  0.00     0.167 HD
ENDBRANCH  47  49
ENDBRANCH  46  47
ENDBRANCH  45  46
ENDBRANCH  11  45
BRANCH  18  51
HETATM   51  C   UNK     0     -22.435 -14.782 -12.448  0.00  0.00     0.051 C 
BRANCH  51  52
HETATM   52  C   UNK     0     -23.217 -14.318 -11.228  0.00  0.00     0.114 C 
BRANCH  52  53
HETATM   53  C   UNK     0     -24.401 -13.522 -11.604  0.00  0.00     0.139 C 
HETATM   54  O   UNK     0     -25.326 -13.361 -10.792  0.00  0.00    -0.650 OA
BRANCH  53  55
HETATM   55  O   UNK     0     -24.475 -12.964 -12.858  0.00  0.00    -0.776 OA
HETATM   56  H   UNK     0     -24.704 -13.443 -13.697  0.00  0.00     0.167 HD
ENDBRANCH  53  55
ENDBRANCH  52  53
ENDBRANCH  51  52
ENDBRANCH  18  51
TORSDOF 16
ENDMDL
MODEL 6
REMARK VINA RESULT:      -9.2      2.568      6.957
REMARK  16 active torsions:
REMARK  status: ('A' for Active; 'I' for Inactive)
REMARK    1  A    between atoms: C_6  and  C_7 
REMARK    2  A    between atoms: C_7  and  C_8 
REMARK    3  A    between atoms: C_8  and  C_9 
REMARK    4  A    between atoms: C_9  and  O_11 
REMARK    5  A    between atoms: C_16  and  C_17 
REMARK    6  A    between atoms: C_17  and  C_18 
REMARK    7  A    between atoms: C_18  and  C_19 
REMARK    8  A    between atoms: C_19  and  O_21 
REMARK    9  A    between atoms: C_28  and  C_29 
REMARK   10  A    between atoms: C_29  and  C_30 
REMARK   11  A    between atoms: C_30  and  C_31 
REMARK   12  A    between atoms: C_31  and  O_33 
REMARK   13  A    between atoms: C_42  and  C_43 
REMARK   14  A    between atoms: C_43  and  C_44 
REMARK   15  A    between atoms: C_44  and  C_45 
REMARK   16  A    between atoms: C_45  and  O_47 
ROOT
HETATM    1  C   UNK     0     -15.405  -6.608 -15.642  0.00  0.00     0.051 C 
HETATM    2  C   UNK     0     -15.977  -7.955 -16.035  0.00  0.00    -0.031 A 
HETATM    3  C   UNK     0     -15.714  -9.210 -15.508  0.00  0.00     0.021 A 
HETATM    4  N   UNK     0     -16.432 -10.134 -16.190  0.00  0.00    -0.361 N 
HETATM    5  C   UNK     0     -17.154  -9.494 -17.133  0.00  0.00     0.022 A 
HETATM    6  C   UNK     0     -16.891  -8.130 -17.066  0.00  0.00    -0.027 A 
HETATM    7  C   UNK     0     -18.173 -10.040 -18.085  0.00  0.00     0.115 C 
HETATM    8  C   UNK     0     -19.158 -11.050 -17.523  0.00  0.00     0.021 A 
HETATM    9  N   UNK     0     -19.708 -11.090 -16.300  0.00  0.00    -0.361 N 
HETATM   10  C   UNK     0     -20.451 -12.213 -16.211  0.00  0.00     0.022 A 
HETATM   11  C   UNK     0     -20.385 -12.911 -17.413  0.00  0.00    -0.027 A 
HETATM   12  C   UNK     0     -19.572 -12.184 -18.244  0.00  0.00    -0.031 A 
HETATM   13  C   UNK     0     -19.215 -12.558 -19.665  0.00  0.00     0.051 C 
HETATM   14  C   UNK     0     -21.207 -12.699 -14.977  0.00  0.00     0.115 C 
HETATM   15  C   UNK     0     -20.315 -12.970 -13.776  0.00  0.00     0.021 A 
HETATM   16  N   UNK     0     -19.494 -12.106 -13.151  0.00  0.00    -0.361 N 
HETATM   17  C   UNK     0     -18.833 -12.749 -12.186  0.00  0.00     0.022 A 
HETATM   18  C   UNK     0     -19.249 -14.095 -12.177  0.00  0.00    -0.027 A 
HETATM   19  C   UNK     0     -20.179 -14.220 -13.176  0.00  0.00    -0.031 A 
HETATM   20  C   UNK     0     -20.915 -15.511 -13.488  0.00  0.00     0.051 C 
HETATM   21  C   UNK     0     -17.752 -12.253 -11.252  0.00  0.00     0.115 C 
HETATM   22  C   UNK     0     -16.792 -11.216 -11.784  0.00  0.00     0.022 A 
HETATM   23  N   UNK     0     -16.231 -11.149 -12.998  0.00  0.00    -0.361 N 
HETATM   24  C   UNK     0     -15.559  -9.983 -13.091  0.00  0.00     0.021 A 
HETATM   25  C   UNK     0     -15.682  -9.288 -11.904  0.00  0.00    -0.031 A 
HETATM   26  C   UNK     0     -15.075  -7.956 -11.512  0.00  0.00     0.051 C 
HETATM   27  C   UNK     0     -16.466 -10.056 -11.051  0.00  0.00    -0.027 A 
HETATM   28  C   UNK     0     -14.840  -9.419 -14.304  0.00  0.00     0.115 C 
HETATM   29  H   UNK     0     -16.394 -11.236 -16.026  0.00  0.00     0.165 HD
HETATM   30  H   UNK     0     -19.615 -10.301 -15.513  0.00  0.00     0.165 HD
HETATM   31  H   UNK     0     -19.414 -11.008 -13.362  0.00  0.00     0.165 HD
HETATM   32  H   UNK     0     -16.269 -11.944 -13.788  0.00  0.00     0.165 HD
ENDROOT
BRANCH   6  33
HETATM   33  C   UNK     0     -17.433  -6.996 -17.898  0.00  0.00     0.051 C 
BRANCH  33  34
HETATM   34  C   UNK     0     -16.656  -6.856 -19.185  0.00  0.00     0.114 C 
BRANCH  34  35
HETATM   35  C   UNK     0     -17.645  -6.753 -20.296  0.00  0.00     0.139 C 
HETATM   36  O   UNK     0     -18.270  -5.671 -20.493  0.00  0.00    -0.650 OA
BRANCH  35  37
HETATM   37  O   UNK     0     -17.924  -7.812 -21.152  0.00  0.00    -0.776 OA
HETATM   38  H   UNK     0     -17.196  -8.384 -21.549  0.00  0.00     0.167 HD
ENDBRANCH  35  37
ENDBRANCH  34  35
ENDBRANCH  33  34
ENDBRANCH   6  33
BRANCH  27  39
HETATM   39  C   UNK     0     -16.760  -9.664  -9.646  0.00  0.00     0.051 C 
BRANCH  39  40
HETATM   40  C   UNK     0     -16.056 -10.360  -8.569  0.00  0.00     0.114 C 
BRANCH  40  41
HETATM   41  C   UNK     0     -16.731 -11.266  -7.667  0.00  0.00     0.139 C 
HETATM   42  O   UNK     0     -16.344 -12.421  -7.444  0.00  0.00    -0.650 OA
BRANCH  41  43
HETATM   43  O   UNK     0     -17.904 -10.824  -6.992  0.00  0.00    -0.776 OA
HETATM   44  H   UNK     0     -18.718 -11.407  -7.141  0.00  0.00     0.167 HD
ENDBRANCH  41  43
ENDBRANCH  40  41
ENDBRANCH  39  40
ENDBRANCH  27  39
BRANCH  11  45
HETATM   45  C   UNK     0     -21.052 -14.208 -17.787  0.00  0.00     0.051 C 
BRANCH  45  46
HETATM   46  C   UNK     0     -20.279 -15.418 -17.409  0.00  0.00     0.114 C 
BRANCH  46  47
HETATM   47  C   UNK     0     -19.977 -16.160 -18.667  0.00  0.00     0.139 C 
HETATM   48  O   UNK     0     -19.329 -17.213 -18.592  0.00  0.00    -0.650 OA
BRANCH  47  49
HETATM   49  O   UNK     0     -20.406 -15.688 -19.881  0.00  0.00    -0.776 OA
HETATM   50  H   UNK     0     -20.886 -16.289 -20.562  0.00  0.00     0.167 HD
ENDBRANCH  47  49
ENDBRANCH  46  47
ENDBRANCH  45  46
ENDBRANCH  11  45
BRANCH  18  51
HETATM   51  C   UNK     0     -18.802 -15.197 -11.251  0.00  0.00     0.051 C 
BRANCH  51  52
HETATM   52  C   UNK     0     -19.489 -14.939  -9.918  0.00  0.00     0.114 C 
BRANCH  52  53
HETATM   53  C   UNK     0     -20.834 -15.544  -9.868  0.00  0.00     0.139 C 
HETATM   54  O   UNK     0     -20.987 -16.743 -10.147  0.00  0.00    -0.650 OA
BRANCH  53  55
HETATM   55  O   UNK     0     -21.913 -14.771  -9.513  0.00  0.00    -0.776 OA
HETATM   56  H   UNK     0     -21.924 -14.069  -8.811  0.00  0.00     0.167 HD
ENDBRANCH  53  55
ENDBRANCH  52  53
ENDBRANCH  51  52
ENDBRANCH  18  51
TORSDOF 16
ENDMDL
MODEL 7
REMARK VINA RESULT:      -9.2      2.960      8.107
REMARK  16 active torsions:
REMARK  status: ('A' for Active; 'I' for Inactive)
REMARK    1  A    between atoms: C_6  and  C_7 
REMARK    2  A    between atoms: C_7  and  C_8 
REMARK    3  A    between atoms: C_8  and  C_9 
REMARK    4  A    between atoms: C_9  and  O_11 
REMARK    5  A    between atoms: C_16  and  C_17 
REMARK    6  A    between atoms: C_17  and  C_18 
REMARK    7  A    between atoms: C_18  and  C_19 
REMARK    8  A    between atoms: C_19  and  O_21 
REMARK    9  A    between atoms: C_28  and  C_29 
REMARK   10  A    between atoms: C_29  and  C_30 
REMARK   11  A    between atoms: C_30  and  C_31 
REMARK   12  A    between atoms: C_31  and  O_33 
REMARK   13  A    between atoms: C_42  and  C_43 
REMARK   14  A    between atoms: C_43  and  C_44 
REMARK   15  A    between atoms: C_44  and  C_45 
REMARK   16  A    between atoms: C_45  and  O_47 
ROOT
HETATM    1  C   UNK     0     -17.713 -13.839  -7.037  0.00  0.00     0.051 C 
HETATM    2  C   UNK     0     -17.258 -12.919  -8.152  0.00  0.00    -0.031 A 
HETATM    3  C   UNK     0     -17.145 -13.172  -9.510  0.00  0.00     0.021 A 
HETATM    4  N   UNK     0     -16.667 -12.065 -10.127  0.00  0.00    -0.361 N 
HETATM    5  C   UNK     0     -16.481 -11.110  -9.193  0.00  0.00     0.022 A 
HETATM    6  C   UNK     0     -16.838 -11.611  -7.946  0.00  0.00    -0.027 A 
HETATM    7  C   UNK     0     -16.060  -9.683  -9.361  0.00  0.00     0.115 C 
HETATM    8  C   UNK     0     -16.686  -8.920 -10.515  0.00  0.00     0.021 A 
HETATM    9  N   UNK     0     -17.932  -9.017 -11.004  0.00  0.00    -0.361 N 
HETATM   10  C   UNK     0     -18.020  -8.219 -12.089  0.00  0.00     0.022 A 
HETATM   11  C   UNK     0     -16.800  -7.582 -12.299  0.00  0.00    -0.027 A 
HETATM   12  C   UNK     0     -15.955  -8.019 -11.310  0.00  0.00    -0.031 A 
HETATM   13  C   UNK     0     -14.516  -7.588 -11.137  0.00  0.00     0.051 C 
HETATM   14  C   UNK     0     -19.235  -8.065 -12.999  0.00  0.00     0.115 C 
HETATM   15  C   UNK     0     -19.660  -9.354 -13.683  0.00  0.00     0.021 A 
HETATM   16  N   UNK     0     -20.022 -10.513 -13.100  0.00  0.00    -0.361 N 
HETATM   17  C   UNK     0     -20.254 -11.426 -14.045  0.00  0.00     0.022 A 
HETATM   18  C   UNK     0     -20.043 -10.831 -15.305  0.00  0.00    -0.027 A 
HETATM   19  C   UNK     0     -19.672  -9.533 -15.064  0.00  0.00    -0.031 A 
HETATM   20  C   UNK     0     -19.382  -8.522 -16.158  0.00  0.00     0.051 C 
HETATM   21  C   UNK     0     -20.614 -12.888 -13.917  0.00  0.00     0.115 C 
HETATM   22  C   UNK     0     -20.034 -13.649 -12.748  0.00  0.00     0.022 A 
HETATM   23  N   UNK     0     -18.798 -13.570 -12.237  0.00  0.00    -0.361 N 
HETATM   24  C   UNK     0     -18.756 -14.313 -11.112  0.00  0.00     0.021 A 
HETATM   25  C   UNK     0     -19.992 -14.894 -10.900  0.00  0.00    -0.031 A 
HETATM   26  C   UNK     0     -20.424 -15.839  -9.799  0.00  0.00     0.051 C 
HETATM   27  C   UNK     0     -20.826 -14.484 -11.934  0.00  0.00    -0.027 A 
HETATM   28  C   UNK     0     -17.601 -14.459 -10.137  0.00  0.00     0.115 C 
HETATM   29  H   UNK     0     -16.427 -11.980 -11.212  0.00  0.00     0.165 HD
HETATM   30  H   UNK     0     -18.766  -9.611 -10.557  0.00  0.00     0.165 HD
HETATM   31  H   UNK     0     -20.162 -10.677 -12.000  0.00  0.00     0.165 HD
HETATM   32  H   UNK     0     -17.931 -13.022 -12.689  0.00  0.00     0.165 HD
ENDROOT
BRANCH   6  33
HETATM   33  C   UNK     0     -16.808 -10.952  -6.590  0.00  0.00     0.051 C 
BRANCH  33  34
HETATM   34  C   UNK     0     -18.007 -10.051  -6.407  0.00  0.00     0.114 C 
BRANCH  34  35
HETATM   35  C   UNK     0     -17.499  -8.659  -6.244  0.00  0.00     0.139 C 
HETATM   36  O   UNK     0     -16.558  -8.415  -5.434  0.00  0.00    -0.650 OA
BRANCH  35  37
HETATM   37  O   UNK     0     -18.017  -7.584  -6.956  0.00  0.00    -0.776 OA
HETATM   38  H   UNK     0     -17.469  -7.077  -7.633  0.00  0.00     0.167 HD
ENDBRANCH  35  37
ENDBRANCH  34  35
ENDBRANCH  33  34
ENDBRANCH   6  33
BRANCH  27  39
HETATM   39  C   UNK     0     -22.226 -14.966 -12.085  0.00  0.00     0.051 C 
BRANCH  39  40
HETATM   40  C   UNK     0     -23.313 -13.997 -11.942  0.00  0.00     0.114 C 
BRANCH  40  41
HETATM   41  C   UNK     0     -24.149 -13.946 -10.764  0.00  0.00     0.139 C 
HETATM   42  O   UNK     0     -25.315 -13.527 -10.772  0.00  0.00    -0.650 OA
BRANCH  41  43
HETATM   43  O   UNK     0     -23.621 -14.396  -9.521  0.00  0.00    -0.776 OA
HETATM   44  H   UNK     0     -22.739 -14.888  -9.595  0.00  0.00     0.167 HD
ENDBRANCH  41  43
ENDBRANCH  40  41
ENDBRANCH  39  40
ENDBRANCH  27  39
BRANCH  11  45
HETATM   45  C   UNK     0     -16.423  -6.599 -13.374  0.00  0.00     0.051 C 
BRANCH  45  46
HETATM   46  C   UNK     0     -15.879  -7.226 -14.605  0.00  0.00     0.114 C 
BRANCH  46  47
HETATM   47  C   UNK     0     -14.868  -6.286 -15.170  0.00  0.00     0.139 C 
HETATM   48  O   UNK     0     -14.059  -5.753 -14.398  0.00  0.00    -0.650 OA
BRANCH  47  49
HETATM   49  O   UNK     0     -14.834  -6.016 -16.515  0.00  0.00    -0.776 OA
HETATM   50  H   UNK     0     -14.984  -5.070 -16.885  0.00  0.00     0.167 HD
ENDBRANCH  47  49
ENDBRANCH  46  47
ENDBRANCH  45  46
ENDBRANCH  11  45
BRANCH  18  51
HETATM   51  C   UNK     0     -20.205 -11.459 -16.665  0.00  0.00     0.051 C 
BRANCH  51  52
HETATM   52  C   UNK     0     -21.676 -11.317 -17.027  0.00  0.00     0.114 C 
BRANCH  52  53
HETATM   53  C   UNK     0     -21.881 -10.364 -18.135  0.00  0.00     0.139 C 
HETATM   54  O   UNK     0     -20.940 -10.085 -18.896  0.00  0.00    -0.650 OA
BRANCH  53  55
HETATM   55  O   UNK     0     -23.114  -9.787 -18.315  0.00  0.00    -0.776 OA
HETATM   56  H   UNK     0     -23.650  -9.324 -17.619  0.00  0.00     0.167 HD
ENDBRANCH  53  55
ENDBRANCH  52  53
ENDBRANCH  51  52
ENDBRANCH  18  51
TORSDOF 16
ENDMDL
MODEL 8
REMARK VINA RESULT:      -9.0      2.595      9.445
REMARK  16 active torsions:
REMARK  status: ('A' for Active; 'I' for Inactive)
REMARK    1  A    between atoms: C_6  and  C_7 
REMARK    2  A    between atoms: C_7  and  C_8 
REMARK    3  A    between atoms: C_8  and  C_9 
REMARK    4  A    between atoms: C_9  and  O_11 
REMARK    5  A    between atoms: C_16  and  C_17 
REMARK    6  A    between atoms: C_17  and  C_18 
REMARK    7  A    between atoms: C_18  and  C_19 
REMARK    8  A    between atoms: C_19  and  O_21 
REMARK    9  A    between atoms: C_28  and  C_29 
REMARK   10  A    between atoms: C_29  and  C_30 
REMARK   11  A    between atoms: C_30  and  C_31 
REMARK   12  A    between atoms: C_31  and  O_33 
REMARK   13  A    between atoms: C_42  and  C_43 
REMARK   14  A    between atoms: C_43  and  C_44 
REMARK   15  A    between atoms: C_44  and  C_45 
REMARK   16  A    between atoms: C_45  and  O_47 
ROOT
HETATM    1  C   UNK     0     -17.066  -7.291 -14.422  0.00  0.00     0.051 C 
HETATM    2  C   UNK     0     -17.388  -8.135 -13.206  0.00  0.00    -0.031 A 
HETATM    3  C   UNK     0     -18.608  -8.642 -12.785  0.00  0.00     0.021 A 
HETATM    4  N   UNK     0     -18.429  -9.315 -11.624  0.00  0.00    -0.361 N 
HETATM    5  C   UNK     0     -17.121  -9.255 -11.299  0.00  0.00     0.022 A 
HETATM    6  C   UNK     0     -16.442  -8.522 -12.266  0.00  0.00    -0.027 A 
HETATM    7  C   UNK     0     -16.390  -9.909 -10.169  0.00  0.00     0.115 C 
HETATM    8  C   UNK     0     -16.755 -11.352  -9.866  0.00  0.00     0.021 A 
HETATM    9  N   UNK     0     -17.095 -12.326 -10.724  0.00  0.00    -0.361 N 
HETATM   10  C   UNK     0     -17.427 -13.420 -10.006  0.00  0.00     0.022 A 
HETATM   11  C   UNK     0     -17.287 -13.146  -8.648  0.00  0.00    -0.027 A 
HETATM   12  C   UNK     0     -16.864 -11.845  -8.553  0.00  0.00    -0.031 A 
HETATM   13  C   UNK     0     -16.573 -11.112  -7.263  0.00  0.00     0.051 C 
HETATM   14  C   UNK     0     -17.938 -14.745 -10.565  0.00  0.00     0.115 C 
HETATM   15  C   UNK     0     -19.243 -14.626 -11.336  0.00  0.00     0.021 A 
HETATM   16  N   UNK     0     -19.489 -13.869 -12.422  0.00  0.00    -0.361 N 
HETATM   17  C   UNK     0     -20.776 -13.988 -12.756  0.00  0.00     0.022 A 
HETATM   18  C   UNK     0     -21.395 -14.872 -11.850  0.00  0.00    -0.027 A 
HETATM   19  C   UNK     0     -20.424 -15.265 -10.967  0.00  0.00    -0.031 A 
HETATM   20  C   UNK     0     -20.659 -16.254  -9.839  0.00  0.00     0.051 C 
HETATM   21  C   UNK     0     -21.565 -13.297 -13.844  0.00  0.00     0.115 C 
HETATM   22  C   UNK     0     -21.184 -11.876 -14.187  0.00  0.00     0.022 A 
HETATM   23  N   UNK     0     -20.837 -10.886 -13.354  0.00  0.00    -0.361 N 
HETATM   24  C   UNK     0     -20.436  -9.832 -14.093  0.00  0.00     0.021 A 
HETATM   25  C   UNK     0     -20.537 -10.147 -15.434  0.00  0.00    -0.031 A 
HETATM   26  C   UNK     0     -20.243  -9.281 -16.641  0.00  0.00     0.051 C 
HETATM   27  C   UNK     0     -21.014 -11.450 -15.520  0.00  0.00    -0.027 A 
HETATM   28  C   UNK     0     -19.865  -8.514 -13.598  0.00  0.00     0.115 C 
HETATM   29  H   UNK     0     -19.235  -9.793 -11.021  0.00  0.00     0.165 HD
HETATM   30  H   UNK     0     -17.054 -12.261 -11.839  0.00  0.00     0.165 HD
HETATM   31  H   UNK     0     -18.729 -13.276 -12.993  0.00  0.00     0.165 HD
HETATM   32  H   UNK     0     -20.913 -10.907 -12.235  0.00  0.00     0.165 HD
ENDROOT
BRANCH   6  33
HETATM   33  C   UNK     0     -14.980  -8.163 -12.362  0.00  0.00     0.051 C 
BRANCH  33  34
HETATM   34  C   UNK     0     -14.688  -6.897 -11.593  0.00  0.00     0.114 C 
BRANCH  34  35
HETATM   35  C   UNK     0     -13.821  -7.266 -10.437  0.00  0.00     0.139 C 
HETATM   36  O   UNK     0     -13.838  -6.571  -9.380  0.00  0.00    -0.650 OA
BRANCH  35  37
HETATM   37  O   UNK     0     -12.973  -8.366 -10.459  0.00  0.00    -0.776 OA
HETATM   38  H   UNK     0     -12.116  -8.391  -9.930  0.00  0.00     0.167 HD
ENDBRANCH  35  37
ENDBRANCH  34  35
ENDBRANCH  33  34
ENDBRANCH   6  33
BRANCH  27  39
HETATM   39  C   UNK     0     -21.322 -12.117 -16.814  0.00  0.00     0.051 C 
BRANCH  39  40
HETATM   40  C   UNK     0     -20.316 -13.009 -17.390  0.00  0.00     0.114 C 
BRANCH  40  41
HETATM   41  C   UNK     0     -20.518 -14.438 -17.486  0.00  0.00     0.139 C 
HETATM   42  O   UNK     0     -20.613 -15.182 -16.501  0.00  0.00    -0.650 OA
BRANCH  41  43
HETATM   43  O   UNK     0     -20.614 -15.037 -18.774  0.00  0.00    -0.776 OA
HETATM   44  H   UNK     0     -19.893 -14.749 -19.425  0.00  0.00     0.167 HD
ENDBRANCH  41  43
ENDBRANCH  40  41
ENDBRANCH  39  40
ENDBRANCH  27  39
BRANCH  11  45
HETATM   45  C   UNK     0     -17.533 -14.054  -7.474  0.00  0.00     0.051 C 
BRANCH  45  46
HETATM   46  C   UNK     0     -16.538 -15.148  -7.335  0.00  0.00     0.114 C 
BRANCH  46  47
HETATM   47  C   UNK     0     -17.285 -16.437  -7.408  0.00  0.00     0.139 C 
HETATM   48  O   UNK     0     -16.712 -17.428  -7.881  0.00  0.00    -0.650 OA
BRANCH  47  49
HETATM   49  O   UNK     0     -18.580 -16.524  -6.962  0.00  0.00    -0.776 OA
HETATM   50  H   UNK     0     -18.835 -17.068  -6.129  0.00  0.00     0.167 HD
ENDBRANCH  47  49
ENDBRANCH  46  47
ENDBRANCH  45  46
ENDBRANCH  11  45
BRANCH  18  51
HETATM   51  C   UNK     0     -22.830 -15.334 -11.841  0.00  0.00     0.051 C 
BRANCH  51  52
HETATM   52  C   UNK     0     -23.503 -14.606 -10.686  0.00  0.00     0.114 C 
BRANCH  52  53
HETATM   53  C   UNK     0     -24.585 -13.717 -11.153  0.00  0.00     0.139 C 
HETATM   54  O   UNK     0     -24.503 -13.169 -12.264  0.00  0.00    -0.650 OA
BRANCH  53  55
HETATM   55  O   UNK     0     -25.678 -13.498 -10.351  0.00  0.00    -0.776 OA
HETATM   56  H   UNK     0     -26.322 -14.187 -10.041  0.00  0.00     0.167 HD
ENDBRANCH  53  55
ENDBRANCH  52  53
ENDBRANCH  51  52
ENDBRANCH  18  51
TORSDOF 16
ENDMDL
MODEL 9
REMARK VINA RESULT:      -8.8      2.382      2.781
REMARK  16 active torsions:
REMARK  status: ('A' for Active; 'I' for Inactive)
REMARK    1  A    between atoms: C_6  and  C_7 
REMARK    2  A    between atoms: C_7  and  C_8 
REMARK    3  A    between atoms: C_8  and  C_9 
REMARK    4  A    between atoms: C_9  and  O_11 
REMARK    5  A    between atoms: C_16  and  C_17 
REMARK    6  A    between atoms: C_17  and  C_18 
REMARK    7  A    between atoms: C_18  and  C_19 
REMARK    8  A    between atoms: C_19  and  O_21 
REMARK    9  A    between atoms: C_28  and  C_29 
REMARK   10  A    between atoms: C_29  and  C_30 
REMARK   11  A    between atoms: C_30  and  C_31 
REMARK   12  A    between atoms: C_31  and  O_33 
REMARK   13  A    between atoms: C_42  and  C_43 
REMARK   14  A    between atoms: C_43  and  C_44 
REMARK   15  A    between atoms: C_44  and  C_45 
REMARK   16  A    between atoms: C_45  and  O_47 
ROOT
HETATM    1  C   UNK     0     -21.283 -16.373 -14.898  0.00  0.00     0.051 C 
HETATM    2  C   UNK     0     -21.008 -14.947 -15.331  0.00  0.00    -0.031 A 
HETATM    3  C   UNK     0     -20.905 -13.798 -14.562  0.00  0.00     0.021 A 
HETATM    4  N   UNK     0     -20.682 -12.740 -15.378  0.00  0.00    -0.361 N 
HETATM    5  C   UNK     0     -20.631 -13.191 -16.648  0.00  0.00     0.022 A 
HETATM    6  C   UNK     0     -20.834 -14.567 -16.656  0.00  0.00    -0.027 A 
HETATM    7  C   UNK     0     -20.318 -12.449 -17.910  0.00  0.00     0.115 C 
HETATM    8  C   UNK     0     -19.170 -11.457 -17.850  0.00  0.00     0.021 A 
HETATM    9  N   UNK     0     -18.024 -11.545 -17.158  0.00  0.00    -0.361 N 
HETATM   10  C   UNK     0     -17.341 -10.393 -17.329  0.00  0.00     0.022 A 
HETATM   11  C   UNK     0     -18.062  -9.544 -18.163  0.00  0.00    -0.027 A 
HETATM   12  C   UNK     0     -19.216 -10.208 -18.495  0.00  0.00    -0.031 A 
HETATM   13  C   UNK     0     -20.307  -9.669 -19.392  0.00  0.00     0.051 C 
HETATM   14  C   UNK     0     -16.011 -10.028 -16.675  0.00  0.00     0.115 C 
HETATM   15  C   UNK     0     -16.063  -9.989 -15.156  0.00  0.00     0.021 A 
HETATM   16  N   UNK     0     -16.402 -10.988 -14.320  0.00  0.00    -0.361 N 
HETATM   17  C   UNK     0     -16.392 -10.532 -13.065  0.00  0.00     0.022 A 
HETATM   18  C   UNK     0     -16.018  -9.173 -13.084  0.00  0.00    -0.027 A 
HETATM   19  C   UNK     0     -15.814  -8.846 -14.399  0.00  0.00    -0.031 A 
HETATM   20  C   UNK     0     -15.360  -7.475 -14.867  0.00  0.00     0.051 C 
HETATM   21  C   UNK     0     -16.763 -11.227 -11.775  0.00  0.00     0.115 C 
HETATM   22  C   UNK     0     -17.875 -12.249 -11.829  0.00  0.00     0.022 A 
HETATM   23  N   UNK     0     -19.025 -12.189 -12.513  0.00  0.00    -0.361 N 
HETATM   24  C   UNK     0     -19.652 -13.376 -12.390  0.00  0.00     0.021 A 
HETATM   25  C   UNK     0     -18.893 -14.217 -11.600  0.00  0.00    -0.031 A 
HETATM   26  C   UNK     0     -19.196 -15.630 -11.146  0.00  0.00     0.051 C 
HETATM   27  C   UNK     0     -17.750 -13.518 -11.228  0.00  0.00    -0.027 A 
HETATM   28  C   UNK     0     -20.941 -13.820 -13.060  0.00  0.00     0.115 C 
HETATM   29  H   UNK     0     -20.601 -11.677 -15.053  0.00  0.00     0.165 HD
HETATM   30  H   UNK     0     -17.671 -12.438 -16.587  0.00  0.00     0.165 HD
HETATM   31  H   UNK     0     -16.608 -12.049 -14.616  0.00  0.00     0.165 HD
HETATM   32  H   UNK     0     -19.426 -11.293 -13.053  0.00  0.00     0.165 HD
ENDROOT
BRANCH   6  33
HETATM   33  C   UNK     0     -20.878 -15.535 -17.811  0.00  0.00     0.051 C 
BRANCH  33  34
HETATM   34  C   UNK     0     -19.483 -15.963 -18.203  0.00  0.00     0.114 C 
BRANCH  34  35
HETATM   35  C   UNK     0     -19.546 -16.455 -19.609  0.00  0.00     0.139 C 
HETATM   36  O   UNK     0     -20.143 -15.777 -20.496  0.00  0.00    -0.650 OA
BRANCH  35  37
HETATM   37  O   UNK     0     -18.966 -17.652 -20.011  0.00  0.00    -0.776 OA
HETATM   38  H   UNK     0     -18.033 -17.912 -19.737  0.00  0.00     0.167 HD
ENDBRANCH  35  37
ENDBRANCH  34  35
ENDBRANCH  33  34
ENDBRANCH   6  33
BRANCH  27  39
HETATM   39  C   UNK     0     -16.721 -14.077 -10.310  0.00  0.00     0.051 C 
BRANCH  39  40
HETATM   40  C   UNK     0     -17.090 -14.315  -8.915  0.00  0.00     0.114 C 
BRANCH  40  41
HETATM   41  C   UNK     0     -17.374 -13.234  -7.998  0.00  0.00     0.139 C 
HETATM   42  O   UNK     0     -17.757 -13.408  -6.834  0.00  0.00    -0.650 OA
BRANCH  41  43
HETATM   43  O   UNK     0     -17.211 -11.891  -8.442  0.00  0.00    -0.776 OA
HETATM   44  H   UNK     0     -16.278 -11.667  -8.767  0.00  0.00     0.167 HD
ENDBRANCH  41  43
ENDBRANCH  40  41
ENDBRANCH  39  40
ENDBRANCH  27  39
BRANCH  11  45
HETATM   45  C   UNK     0     -17.700  -8.164 -18.642  0.00  0.00     0.051 C 
BRANCH  45  46
HETATM   46  C   UNK     0     -16.781  -8.149 -19.808  0.00  0.00     0.114 C 
BRANCH  46  47
HETATM   47  C   UNK     0     -17.343  -7.190 -20.802  0.00  0.00     0.139 C 
HETATM   48  O   UNK     0     -16.747  -7.034 -21.877  0.00  0.00    -0.650 OA
BRANCH  47  49
HETATM   49  O   UNK     0     -18.494  -6.494 -20.533  0.00  0.00    -0.776 OA
HETATM   50  H   UNK     0     -18.508  -5.470 -20.459  0.00  0.00     0.167 HD
ENDBRANCH  47  49
ENDBRANCH  46  47
ENDBRANCH  45  46
ENDBRANCH  11  45
BRANCH  18  51
HETATM   51  C   UNK     0     -15.844  -8.244 -11.911  0.00  0.00     0.051 C 
BRANCH  51  52
HETATM   52  C   UNK     0     -17.232  -8.035 -11.324  0.00  0.00     0.114 C 
BRANCH  52  53
HETATM   53  C   UNK     0     -17.195  -7.924  -9.853  0.00  0.00     0.139 C 
HETATM   54  O   UNK     0     -16.771  -6.887  -9.318  0.00  0.00    -0.650 OA
BRANCH  53  55
HETATM   55  O   UNK     0     -17.629  -8.974  -9.081  0.00  0.00    -0.776 OA
HETATM   56  H   UNK     0     -18.514  -9.044  -8.635  0.00  0.00     0.167 HD
ENDBRANCH  53  55
ENDBRANCH  52  53
ENDBRANCH  51  52
ENDBRANCH  18  51
TORSDOF 16
ENDMDL
MODEL 10
REMARK VINA RESULT:      -8.7      4.821      8.104
REMARK  16 active torsions:
REMARK  status: ('A' for Active; 'I' for Inactive)
REMARK    1  A    between atoms: C_6  and  C_7 
REMARK    2  A    between atoms: C_7  and  C_8 
REMARK    3  A    between atoms: C_8  and  C_9 
REMARK    4  A    between atoms: C_9  and  O_11 
REMARK    5  A    between atoms: C_16  and  C_17 
REMARK    6  A    between atoms: C_17  and  C_18 
REMARK    7  A    between atoms: C_18  and  C_19 
REMARK    8  A    between atoms: C_19  and  O_21 
REMARK    9  A    between atoms: C_28  and  C_29 
REMARK   10  A    between atoms: C_29  and  C_30 
REMARK   11  A    between atoms: C_30  and  C_31 
REMARK   12  A    between atoms: C_31  and  O_33 
REMARK   13  A    between atoms: C_42  and  C_43 
REMARK   14  A    between atoms: C_43  and  C_44 
REMARK   15  A    between atoms: C_44  and  C_45 
REMARK   16  A    between atoms: C_45  and  O_47 
ROOT
HETATM    1  C   UNK     0     -22.053 -21.076  -4.718  0.00  0.00     0.051 C 
HETATM    2  C   UNK     0     -21.992 -20.025  -5.808  0.00  0.00    -0.031 A 
HETATM    3  C   UNK     0     -21.668 -18.681  -5.717  0.00  0.00     0.021 A 
HETATM    4  N   UNK     0     -21.775 -18.117  -6.943  0.00  0.00    -0.361 N 
HETATM    5  C   UNK     0     -22.151 -19.074  -7.816  0.00  0.00     0.022 A 
HETATM    6  C   UNK     0     -22.299 -20.280  -7.138  0.00  0.00    -0.027 A 
HETATM    7  C   UNK     0     -22.317 -18.997  -9.301  0.00  0.00     0.115 C 
HETATM    8  C   UNK     0     -21.253 -18.232 -10.067  0.00  0.00     0.021 A 
HETATM    9  N   UNK     0     -19.936 -18.157  -9.820  0.00  0.00    -0.361 N 
HETATM   10  C   UNK     0     -19.392 -17.291 -10.701  0.00  0.00     0.022 A 
HETATM   11  C   UNK     0     -20.384 -16.800 -11.544  0.00  0.00    -0.027 A 
HETATM   12  C   UNK     0     -21.559 -17.389 -11.151  0.00  0.00    -0.031 A 
HETATM   13  C   UNK     0     -22.910 -17.157 -11.789  0.00  0.00     0.051 C 
HETATM   14  C   UNK     0     -17.931 -16.851 -10.748  0.00  0.00     0.115 C 
HETATM   15  C   UNK     0     -17.457 -16.154  -9.483  0.00  0.00     0.021 A 
HETATM   16  N   UNK     0     -17.454 -16.641  -8.228  0.00  0.00    -0.361 N 
HETATM   17  C   UNK     0     -17.026 -15.693  -7.391  0.00  0.00     0.022 A 
HETATM   18  C   UNK     0     -16.726 -14.536  -8.138  0.00  0.00    -0.027 A 
HETATM   19  C   UNK     0     -17.000 -14.838  -9.447  0.00  0.00    -0.031 A 
HETATM   20  C   UNK     0     -16.781 -13.874 -10.599  0.00  0.00     0.051 C 
HETATM   21  C   UNK     0     -16.906 -15.709  -5.884  0.00  0.00     0.115 C 
HETATM   22  C   UNK     0     -17.934 -16.503  -5.112  0.00  0.00     0.022 A 
HETATM   23  N   UNK     0     -19.250 -16.598  -5.338  0.00  0.00    -0.361 N 
HETATM   24  C   UNK     0     -19.757 -17.525  -4.500  0.00  0.00     0.021 A 
HETATM   25  C   UNK     0     -18.745 -18.031  -3.708  0.00  0.00    -0.031 A 
HETATM   26  C   UNK     0     -18.825 -19.058  -2.598  0.00  0.00     0.051 C 
HETATM   27  C   UNK     0     -17.568 -17.392  -4.081  0.00  0.00    -0.027 A 
HETATM   28  C   UNK     0     -21.183 -18.046  -4.444  0.00  0.00     0.115 C 
HETATM   29  H   UNK     0     -21.622 -17.038  -7.177  0.00  0.00     0.165 HD
HETATM   30  H   UNK     0     -19.378 -18.754  -9.057  0.00  0.00     0.165 HD
HETATM   31  H   UNK     0     -17.713 -17.690  -7.932  0.00  0.00     0.165 HD
HETATM   32  H   UNK     0     -19.842 -15.980  -6.062  0.00  0.00     0.165 HD
ENDROOT
BRANCH   6  33
HETATM   33  C   UNK     0     -22.706 -21.638  -7.652  0.00  0.00     0.051 C 
BRANCH  33  34
HETATM   34  C   UNK     0     -22.273 -21.819  -9.087  0.00  0.00     0.114 C 
BRANCH  34  35
HETATM   35  C   UNK     0     -20.829 -22.193  -9.074  0.00  0.00     0.139 C 
HETATM   36  O   UNK     0     -20.453 -23.260  -8.506  0.00  0.00    -0.650 OA
BRANCH  35  37
HETATM   37  O   UNK     0     -19.847 -21.413  -9.672  0.00  0.00    -0.776 OA
HETATM   38  H   UNK     0     -19.159 -21.804 -10.294  0.00  0.00     0.167 HD
ENDBRANCH  35  37
ENDBRANCH  34  35
ENDBRANCH  33  34
ENDBRANCH   6  33
BRANCH  27  39
HETATM   39  C   UNK     0     -16.267 -17.626  -3.397  0.00  0.00     0.051 C 
BRANCH  39  40
HETATM   40  C   UNK     0     -15.242 -18.399  -4.100  0.00  0.00     0.114 C 
BRANCH  40  41
HETATM   41  C   UNK     0     -15.554 -19.240  -5.233  0.00  0.00     0.139 C 
HETATM   42  O   UNK     0     -15.892 -20.427  -5.131  0.00  0.00    -0.650 OA
BRANCH  41  43
HETATM   43  O   UNK     0     -15.474 -18.691  -6.544  0.00  0.00    -0.776 OA
HETATM   44  H   UNK     0     -15.591 -17.685  -6.585  0.00  0.00     0.167 HD
ENDBRANCH  41  43
ENDBRANCH  40  41
ENDBRANCH  39  40
ENDBRANCH  27  39
BRANCH  11  45
HETATM   45  C   UNK     0     -20.256 -15.822 -12.680  0.00  0.00     0.051 C 
BRANCH  45  46
HETATM   46  C   UNK     0     -20.259 -14.398 -12.257  0.00  0.00     0.114 C 
BRANCH  46  47
HETATM   47  C   UNK     0     -21.236 -13.681 -13.125  0.00  0.00     0.139 C 
HETATM   48  O   UNK     0     -22.445 -13.892 -12.956  0.00  0.00    -0.650 OA
BRANCH  47  49
HETATM   49  O   UNK     0     -20.807 -12.807 -14.093  0.00  0.00    -0.776 OA
HETATM   50  H   UNK     0     -20.174 -12.027 -13.881  0.00  0.00     0.167 HD
ENDBRANCH  47  49
ENDBRANCH  46  47
ENDBRANCH  45  46
ENDBRANCH  11  45
BRANCH  18  51
HETATM   51  C   UNK     0     -16.189 -13.222  -7.634  0.00  0.00     0.051 C 
BRANCH  51  52
HETATM   52  C   UNK     0     -17.361 -12.505  -6.979  0.00  0.00     0.114 C 
BRANCH  52  53
HETATM   53  C   UNK     0     -17.079 -11.073  -6.764  0.00  0.00     0.139 C 
HETATM   54  O   UNK     0     -15.934 -10.704  -6.457  0.00  0.00    -0.650 OA
BRANCH  53  55
HETATM   55  O   UNK     0     -18.090 -10.153  -6.901  0.00  0.00    -0.776 OA
HETATM   56  H   UNK     0     -18.028  -9.283  -7.376  0.00  0.00     0.167 HD
ENDBRANCH  53  55
ENDBRANCH  52  53
ENDBRANCH  51  52
ENDBRANCH  18  51
TORSDOF 16
ENDMDL
MODEL 11
REMARK VINA RESULT:      -8.6      2.166      7.198
REMARK  16 active torsions:
REMARK  status: ('A' for Active; 'I' for Inactive)
REMARK    1  A    between atoms: C_6  and  C_7 
REMARK    2  A    between atoms: C_7  and  C_8 
REMARK    3  A    between atoms: C_8  and  C_9 
REMARK    4  A    between atoms: C_9  and  O_11 
REMARK    5  A    between atoms: C_16  and  C_17 
REMARK    6  A    between atoms: C_17  and  C_18 
REMARK    7  A    between atoms: C_18  and  C_19 
REMARK    8  A    between atoms: C_19  and  O_21 
REMARK    9  A    between atoms: C_28  and  C_29 
REMARK   10  A    between atoms: C_29  and  C_30 
REMARK   11  A    between atoms: C_30  and  C_31 
REMARK   12  A    between atoms: C_31  and  O_33 
REMARK   13  A    between atoms: C_42  and  C_43 
REMARK   14  A    between atoms: C_43  and  C_44 
REMARK   15  A    between atoms: C_44  and  C_45 
REMARK   16  A    between atoms: C_45  and  O_47 
ROOT
HETATM    1  C   UNK     0     -17.801  -8.093 -11.760  0.00  0.00     0.051 C 
HETATM    2  C   UNK     0     -18.043  -9.231 -12.731  0.00  0.00    -0.031 A 
HETATM    3  C   UNK     0     -17.416 -10.464 -12.816  0.00  0.00     0.021 A 
HETATM    4  N   UNK     0     -17.935 -11.152 -13.860  0.00  0.00    -0.361 N 
HETATM    5  C   UNK     0     -18.885 -10.388 -14.438  0.00  0.00     0.022 A 
HETATM    6  C   UNK     0     -18.977  -9.178 -13.758  0.00  0.00    -0.027 A 
HETATM    7  C   UNK     0     -19.818 -10.717 -15.562  0.00  0.00     0.115 C 
HETATM    8  C   UNK     0     -20.451 -12.097 -15.541  0.00  0.00     0.021 A 
HETATM    9  N   UNK     0     -20.850 -12.818 -14.482  0.00  0.00    -0.361 N 
HETATM   10  C   UNK     0     -21.267 -14.022 -14.928  0.00  0.00     0.022 A 
HETATM   11  C   UNK     0     -21.141 -14.074 -16.313  0.00  0.00    -0.027 A 
HETATM   12  C   UNK     0     -20.627 -12.865 -16.706  0.00  0.00    -0.031 A 
HETATM   13  C   UNK     0     -20.326 -12.465 -18.133  0.00  0.00     0.051 C 
HETATM   14  C   UNK     0     -21.749 -15.185 -14.066  0.00  0.00     0.115 C 
HETATM   15  C   UNK     0     -20.705 -15.700 -13.088  0.00  0.00     0.021 A 
HETATM   16  N   UNK     0     -20.076 -15.010 -12.118  0.00  0.00    -0.361 N 
HETATM   17  C   UNK     0     -19.181 -15.803 -11.526  0.00  0.00     0.022 A 
HETATM   18  C   UNK     0     -19.235 -17.073 -12.132  0.00  0.00    -0.027 A 
HETATM   19  C   UNK     0     -20.194 -16.996 -13.109  0.00  0.00    -0.031 A 
HETATM   20  C   UNK     0     -20.600 -18.166 -13.987  0.00  0.00     0.051 C 
HETATM   21  C   UNK     0     -18.178 -15.493 -10.437  0.00  0.00     0.115 C 
HETATM   22  C   UNK     0     -17.574 -14.109 -10.419  0.00  0.00     0.022 A 
HETATM   23  N   UNK     0     -17.170 -13.366 -11.458  0.00  0.00    -0.361 N 
HETATM   24  C   UNK     0     -16.833 -12.144 -10.998  0.00  0.00     0.021 A 
HETATM   25  C   UNK     0     -17.014 -12.102  -9.629  0.00  0.00    -0.031 A 
HETATM   26  C   UNK     0     -16.735 -10.968  -8.665  0.00  0.00     0.051 C 
HETATM   27  C   UNK     0     -17.487 -13.348  -9.235  0.00  0.00    -0.027 A 
HETATM   28  C   UNK     0     -16.405 -10.932 -11.808  0.00  0.00     0.115 C 
HETATM   29  H   UNK     0     -17.599 -12.157 -14.206  0.00  0.00     0.165 HD
HETATM   30  H   UNK     0     -20.887 -12.462 -13.424  0.00  0.00     0.165 HD
HETATM   31  H   UNK     0     -20.303 -13.955 -11.813  0.00  0.00     0.165 HD
HETATM   32  H   UNK     0     -17.079 -13.711 -12.520  0.00  0.00     0.165 HD
ENDROOT
BRANCH   6  33
HETATM   33  C   UNK     0     -19.871  -7.990 -14.009  0.00  0.00     0.051 C 
BRANCH  33  34
HETATM   34  C   UNK     0     -21.324  -8.369 -13.839  0.00  0.00     0.114 C 
BRANCH  34  35
HETATM   35  C   UNK     0     -22.043  -7.943 -15.074  0.00  0.00     0.139 C 
HETATM   36  O   UNK     0     -22.618  -8.803 -15.804  0.00  0.00    -0.650 OA
BRANCH  35  37
HETATM   37  O   UNK     0     -22.121  -6.616 -15.476  0.00  0.00    -0.776 OA
HETATM   38  H   UNK     0     -22.091  -6.349 -16.447  0.00  0.00     0.167 HD
ENDBRANCH  35  37
ENDBRANCH  34  35
ENDBRANCH  33  34
ENDBRANCH   6  33
BRANCH  27  39
HETATM   39  C   UNK     0     -17.734 -13.709  -7.812  0.00  0.00     0.051 C 
BRANCH  39  40
HETATM   40  C   UNK     0     -16.869 -14.710  -7.190  0.00  0.00     0.114 C 
BRANCH  40  41
HETATM   41  C   UNK     0     -17.380 -15.965  -6.686  0.00  0.00     0.139 C 
HETATM   42  O   UNK     0     -16.957 -17.071  -7.050  0.00  0.00    -0.650 OA
BRANCH  41  43
HETATM   43  O   UNK     0     -18.426 -15.947  -5.720  0.00  0.00    -0.776 OA
HETATM   44  H   UNK     0     -18.122 -16.124  -4.770  0.00  0.00     0.167 HD
ENDBRANCH  41  43
ENDBRANCH  40  41
ENDBRANCH  39  40
ENDBRANCH  27  39
BRANCH  11  45
HETATM   45  C   UNK     0     -21.486 -15.203 -17.248  0.00  0.00     0.051 C 
BRANCH  45  46
HETATM   46  C   UNK     0     -20.497 -16.311 -17.251  0.00  0.00     0.114 C 
BRANCH  46  47
HETATM   47  C   UNK     0     -19.952 -16.414 -18.635  0.00  0.00     0.139 C 
HETATM   48  O   UNK     0     -19.099 -17.281 -18.872  0.00  0.00    -0.650 OA
BRANCH  47  49
HETATM   49  O   UNK     0     -20.383 -15.567 -19.624  0.00  0.00    -0.776 OA
HETATM   50  H   UNK     0     -19.776 -14.842 -20.024  0.00  0.00     0.167 HD
ENDBRANCH  47  49
ENDBRANCH  46  47
ENDBRANCH  45  46
ENDBRANCH  11  45
BRANCH  18  51
HETATM   51  C   UNK     0     -18.431 -18.300 -11.786  0.00  0.00     0.051 C 
BRANCH  51  52
HETATM   52  C   UNK     0     -19.366 -19.218 -11.014  0.00  0.00     0.114 C 
BRANCH  52  53
HETATM   53  C   UNK     0     -19.158 -20.636 -11.365  0.00  0.00     0.139 C 
HETATM   54  O   UNK     0     -19.254 -21.514 -10.492  0.00  0.00    -0.650 OA
BRANCH  53  55
HETATM   55  O   UNK     0     -18.856 -20.978 -12.661  0.00  0.00    -0.776 OA
HETATM   56  H   UNK     0     -19.468 -20.913 -13.440  0.00  0.00     0.167 HD
ENDBRANCH  53  55
ENDBRANCH  52  53
ENDBRANCH  51  52
ENDBRANCH  18  51
TORSDOF 16
ENDMDL
MODEL 12
REMARK VINA RESULT:      -8.6     25.935     29.590
REMARK  16 active torsions:
REMARK  status: ('A' for Active; 'I' for Inactive)
REMARK    1  A    between atoms: C_6  and  C_7 
REMARK    2  A    between atoms: C_7  and  C_8 
REMARK    3  A    between atoms: C_8  and  C_9 
REMARK    4  A    between atoms: C_9  and  O_11 
REMARK    5  A    between atoms: C_16  and  C_17 
REMARK    6  A    between atoms: C_17  and  C_18 
REMARK    7  A    between atoms: C_18  and  C_19 
REMARK    8  A    between atoms: C_19  and  O_21 
REMARK    9  A    between atoms: C_28  and  C_29 
REMARK   10  A    between atoms: C_29  and  C_30 
REMARK   11  A    between atoms: C_30  and  C_31 
REMARK   12  A    between atoms: C_31  and  O_33 
REMARK   13  A    between atoms: C_42  and  C_43 
REMARK   14  A    between atoms: C_43  and  C_44 
REMARK   15  A    between atoms: C_44  and  C_45 
REMARK   16  A    between atoms: C_45  and  O_47 
ROOT
HETATM    1  C   UNK     0       1.580 -27.551 -14.287  0.00  0.00     0.051 C 
HETATM    2  C   UNK     0       2.737 -27.600 -13.309  0.00  0.00    -0.031 A 
HETATM    3  C   UNK     0       4.097 -27.682 -13.559  0.00  0.00     0.021 A 
HETATM    4  N   UNK     0       4.760 -27.731 -12.379  0.00  0.00    -0.361 N 
HETATM    5  C   UNK     0       3.852 -27.674 -11.383  0.00  0.00     0.022 A 
HETATM    6  C   UNK     0       2.576 -27.594 -11.930  0.00  0.00    -0.027 A 
HETATM    7  C   UNK     0       4.066 -27.601  -9.903  0.00  0.00     0.115 C 
HETATM    8  C   UNK     0       5.168 -26.676  -9.419  0.00  0.00     0.021 A 
HETATM    9  N   UNK     0       5.550 -25.493  -9.924  0.00  0.00    -0.361 N 
HETATM   10  C   UNK     0       6.629 -25.070  -9.232  0.00  0.00     0.022 A 
HETATM   11  C   UNK     0       6.946 -26.001  -8.248  0.00  0.00    -0.027 A 
HETATM   12  C   UNK     0       6.029 -27.016  -8.360  0.00  0.00    -0.031 A 
HETATM   13  C   UNK     0       5.980 -28.250  -7.487  0.00  0.00     0.051 C 
HETATM   14  C   UNK     0       7.434 -23.802  -9.504  0.00  0.00     0.115 C 
HETATM   15  C   UNK     0       8.071 -23.761 -10.885  0.00  0.00     0.021 A 
HETATM   16  N   UNK     0       7.451 -23.836 -12.077  0.00  0.00    -0.361 N 
HETATM   17  C   UNK     0       8.367 -23.836 -13.048  0.00  0.00     0.022 A 
HETATM   18  C   UNK     0       9.644 -23.747 -12.460  0.00  0.00    -0.027 A 
HETATM   19  C   UNK     0       9.445 -23.700 -11.105  0.00  0.00    -0.031 A 
HETATM   20  C   UNK     0      10.566 -23.564 -10.091  0.00  0.00     0.051 C 
HETATM   21  C   UNK     0       8.198 -23.974 -14.544  0.00  0.00     0.115 C 
HETATM   22  C   UNK     0       7.077 -24.856 -15.041  0.00  0.00     0.022 A 
HETATM   23  N   UNK     0       6.672 -26.037 -14.554  0.00  0.00    -0.361 N 
HETATM   24  C   UNK     0       5.550 -26.401 -15.207  0.00  0.00     0.021 A 
HETATM   25  C   UNK     0       5.230 -25.437 -16.144  0.00  0.00    -0.031 A 
HETATM   26  C   UNK     0       4.090 -25.417 -17.140  0.00  0.00     0.051 C 
HETATM   27  C   UNK     0       6.193 -24.438 -16.056  0.00  0.00    -0.027 A 
HETATM   28  C   UNK     0       4.675 -27.615 -14.945  0.00  0.00     0.115 C 
HETATM   29  H   UNK     0       5.862 -27.846 -12.259  0.00  0.00     0.165 HD
HETATM   30  H   UNK     0       5.030 -24.930 -10.737  0.00  0.00     0.165 HD
HETATM   31  H   UNK     0       6.342 -23.841 -12.241  0.00  0.00     0.165 HD
HETATM   32  H   UNK     0       7.199 -26.645 -13.775  0.00  0.00     0.165 HD
ENDROOT
BRANCH   6  33
HETATM   33  C   UNK     0       1.232 -27.516 -11.250  0.00  0.00     0.051 C 
BRANCH  33  34
HETATM   34  C   UNK     0       0.659 -28.896 -11.038  0.00  0.00     0.114 C 
BRANCH  34  35
HETATM   35  C   UNK     0       0.468 -29.081  -9.571  0.00  0.00     0.139 C 
HETATM   36  O   UNK     0       0.582 -30.230  -9.053  0.00  0.00    -0.650 OA
BRANCH  35  37
HETATM   37  O   UNK     0       0.167 -28.028  -8.716  0.00  0.00    -0.776 OA
HETATM   38  H   UNK     0       0.164 -28.137  -7.715  0.00  0.00     0.167 HD
ENDBRANCH  35  37
ENDBRANCH  34  35
ENDBRANCH  33  34
ENDBRANCH   6  33
BRANCH  27  39
HETATM   39  C   UNK     0       6.222 -23.259 -16.964  0.00  0.00     0.051 C 
BRANCH  39  40
HETATM   40  C   UNK     0       7.140 -23.281 -18.102  0.00  0.00     0.114 C 
BRANCH  40  41
HETATM   41  C   UNK     0       7.114 -24.334 -19.092  0.00  0.00     0.139 C 
HETATM   42  O   UNK     0       6.368 -24.324 -20.081  0.00  0.00    -0.650 OA
BRANCH  41  43
HETATM   43  O   UNK     0       7.986 -25.449 -18.939  0.00  0.00    -0.776 OA
HETATM   44  H   UNK     0       8.091 -26.017 -19.771  0.00  0.00     0.167 HD
ENDBRANCH  41  43
ENDBRANCH  40  41
ENDBRANCH  39  40
ENDBRANCH  27  39
BRANCH  11  45
HETATM   45  C   UNK     0       8.056 -25.959  -7.233  0.00  0.00     0.051 C 
BRANCH  45  46
HETATM   46  C   UNK     0       9.418 -26.042  -7.820  0.00  0.00     0.114 C 
BRANCH  46  47
HETATM   47  C   UNK     0       9.666 -27.474  -8.156  0.00  0.00     0.139 C 
HETATM   48  O   UNK     0       9.683 -28.304  -7.236  0.00  0.00    -0.650 OA
BRANCH  47  49
HETATM   49  O   UNK     0       9.875 -27.865  -9.454  0.00  0.00    -0.776 OA
HETATM   50  H   UNK     0      10.817 -27.953  -9.853  0.00  0.00     0.167 HD
ENDBRANCH  47  49
ENDBRANCH  46  47
ENDBRANCH  45  46
ENDBRANCH  11  45
BRANCH  18  51
HETATM   51  C   UNK     0      10.981 -23.689 -13.153  0.00  0.00     0.051 C 
BRANCH  51  52
HETATM   52  C   UNK     0      11.084 -22.299 -13.765  0.00  0.00     0.114 C 
BRANCH  52  53
HETATM   53  C   UNK     0      11.603 -21.311 -12.799  0.00  0.00     0.139 C 
HETATM   54  O   UNK     0      10.824 -20.526 -12.234  0.00  0.00    -0.650 OA
BRANCH  53  55
HETATM   55  O   UNK     0      12.949 -21.264 -12.532  0.00  0.00    -0.776 OA
HETATM   56  H   UNK     0      13.374 -21.388 -11.643  0.00  0.00     0.167 HD
ENDBRANCH  53  55
ENDBRANCH  52  53
ENDBRANCH  51  52
ENDBRANCH  18  51
TORSDOF 16
ENDMDL
MODEL 13
REMARK VINA RESULT:      -8.4      2.395      7.865
REMARK  16 active torsions:
REMARK  status: ('A' for Active; 'I' for Inactive)
REMARK    1  A    between atoms: C_6  and  C_7 
REMARK    2  A    between atoms: C_7  and  C_8 
REMARK    3  A    between atoms: C_8  and  C_9 
REMARK    4  A    between atoms: C_9  and  O_11 
REMARK    5  A    between atoms: C_16  and  C_17 
REMARK    6  A    between atoms: C_17  and  C_18 
REMARK    7  A    between atoms: C_18  and  C_19 
REMARK    8  A    between atoms: C_19  and  O_21 
REMARK    9  A    between atoms: C_28  and  C_29 
REMARK   10  A    between atoms: C_29  and  C_30 
REMARK   11  A    between atoms: C_30  and  C_31 
REMARK   12  A    between atoms: C_31  and  O_33 
REMARK   13  A    between atoms: C_42  and  C_43 
REMARK   14  A    between atoms: C_43  and  C_44 
REMARK   15  A    between atoms: C_44  and  C_45 
REMARK   16  A    between atoms: C_45  and  O_47 
ROOT
HETATM    1  C   UNK     0     -17.289 -13.133  -7.163  0.00  0.00     0.051 C 
HETATM    2  C   UNK     0     -17.083 -12.326  -8.429  0.00  0.00    -0.031 A 
HETATM    3  C   UNK     0     -17.070 -12.748  -9.749  0.00  0.00     0.021 A 
HETATM    4  N   UNK     0     -16.819 -11.686 -10.550  0.00  0.00    -0.361 N 
HETATM    5  C   UNK     0     -16.681 -10.594  -9.770  0.00  0.00     0.022 A 
HETATM    6  C   UNK     0     -16.837 -10.959  -8.437  0.00  0.00    -0.027 A 
HETATM    7  C   UNK     0     -16.488  -9.162 -10.162  0.00  0.00     0.115 C 
HETATM    8  C   UNK     0     -17.328  -8.654 -11.321  0.00  0.00     0.021 A 
HETATM    9  N   UNK     0     -18.589  -8.979 -11.645  0.00  0.00    -0.361 N 
HETATM   10  C   UNK     0     -18.897  -8.356 -12.803  0.00  0.00     0.022 A 
HETATM   11  C   UNK     0     -17.808  -7.603 -13.231  0.00  0.00    -0.027 A 
HETATM   12  C   UNK     0     -16.816  -7.785 -12.301  0.00  0.00    -0.031 A 
HETATM   13  C   UNK     0     -15.444  -7.151 -12.351  0.00  0.00     0.051 C 
HETATM   14  C   UNK     0     -20.206  -8.489 -13.576  0.00  0.00     0.115 C 
HETATM   15  C   UNK     0     -20.506  -9.905 -14.041  0.00  0.00     0.021 A 
HETATM   16  N   UNK     0     -20.639 -11.008 -13.281  0.00  0.00    -0.361 N 
HETATM   17  C   UNK     0     -20.829 -12.066 -14.072  0.00  0.00     0.022 A 
HETATM   18  C   UNK     0     -20.831 -11.630 -15.412  0.00  0.00    -0.027 A 
HETATM   19  C   UNK     0     -20.629 -10.274 -15.379  0.00  0.00    -0.031 A 
HETATM   20  C   UNK     0     -20.597  -9.395 -16.615  0.00  0.00     0.051 C 
HETATM   21  C   UNK     0     -20.961 -13.531 -13.722  0.00  0.00     0.115 C 
HETATM   22  C   UNK     0     -20.165 -14.041 -12.543  0.00  0.00     0.022 A 
HETATM   23  N   UNK     0     -18.910 -13.731 -12.194  0.00  0.00    -0.361 N 
HETATM   24  C   UNK     0     -18.651 -14.299 -10.999  0.00  0.00     0.021 A 
HETATM   25  C   UNK     0     -19.763 -15.000 -10.573  0.00  0.00    -0.031 A 
HETATM   26  C   UNK     0     -19.944 -15.832  -9.320  0.00  0.00     0.051 C 
HETATM   27  C   UNK     0     -20.745 -14.849 -11.545  0.00  0.00    -0.027 A 
HETATM   28  C   UNK     0     -17.396 -14.158 -10.155  0.00  0.00     0.115 C 
HETATM   29  H   UNK     0     -16.702 -11.722 -11.658  0.00  0.00     0.165 HD
HETATM   30  H   UNK     0     -19.281  -9.607 -11.033  0.00  0.00     0.165 HD
HETATM   31  H   UNK     0     -20.645 -11.035 -12.160  0.00  0.00     0.165 HD
HETATM   32  H   UNK     0     -18.179 -13.144 -12.808  0.00  0.00     0.165 HD
ENDROOT
BRANCH   6  33
HETATM   33  C   UNK     0     -16.770 -10.119  -7.187  0.00  0.00     0.051 C 
BRANCH  33  34
HETATM   34  C   UNK     0     -15.365 -10.098  -6.632  0.00  0.00     0.114 C 
BRANCH  34  35
HETATM   35  C   UNK     0     -14.950  -8.669  -6.523  0.00  0.00     0.139 C 
HETATM   36  O   UNK     0     -15.488  -7.914  -5.663  0.00  0.00    -0.650 OA
BRANCH  35  37
HETATM   37  O   UNK     0     -13.974  -8.108  -7.338  0.00  0.00    -0.776 OA
HETATM   38  H   UNK     0     -13.149  -8.618  -7.612  0.00  0.00     0.167 HD
ENDBRANCH  35  37
ENDBRANCH  34  35
ENDBRANCH  33  34
ENDBRANCH   6  33
BRANCH  27  39
HETATM   39  C   UNK     0     -22.070 -15.524 -11.471  0.00  0.00     0.051 C 
BRANCH  39  40
HETATM   40  C   UNK     0     -22.286 -16.719 -12.287  0.00  0.00     0.114 C 
BRANCH  40  41
HETATM   41  C   UNK     0     -21.192 -17.475 -12.852  0.00  0.00     0.139 C 
HETATM   42  O   UNK     0     -20.511 -18.281 -12.203  0.00  0.00    -0.650 OA
BRANCH  41  43
HETATM   43  O   UNK     0     -20.865 -17.297 -14.226  0.00  0.00    -0.776 OA
HETATM   44  H   UNK     0     -19.922 -16.965 -14.393  0.00  0.00     0.167 HD
ENDBRANCH  41  43
ENDBRANCH  40  41
ENDBRANCH  39  40
ENDBRANCH  27  39
BRANCH  11  45
HETATM   45  C   UNK     0     -17.685  -6.738 -14.456  0.00  0.00     0.051 C 
BRANCH  45  46
HETATM   46  C   UNK     0     -17.363  -7.488 -15.697  0.00  0.00     0.114 C 
BRANCH  46  47
HETATM   47  C   UNK     0     -17.773  -6.633 -16.848  0.00  0.00     0.139 C 
HETATM   48  O   UNK     0     -17.978  -5.428 -16.648  0.00  0.00    -0.650 OA
BRANCH  47  49
HETATM   49  O   UNK     0     -17.921  -7.168 -18.103  0.00  0.00    -0.776 OA
HETATM   50  H   UNK     0     -17.854  -6.594 -18.952  0.00  0.00     0.167 HD
ENDBRANCH  47  49
ENDBRANCH  46  47
ENDBRANCH  45  46
ENDBRANCH  11  45
BRANCH  18  51
HETATM   51  C   UNK     0     -21.035 -12.456 -16.655  0.00  0.00     0.051 C 
BRANCH  51  52
HETATM   52  C   UNK     0     -19.661 -12.977 -17.051  0.00  0.00     0.114 C 
BRANCH  52  53
HETATM   53  C   UNK     0     -19.746 -14.272 -17.754  0.00  0.00     0.139 C 
HETATM   54  O   UNK     0     -20.146 -15.281 -17.151  0.00  0.00    -0.650 OA
BRANCH  53  55
HETATM   55  O   UNK     0     -19.377 -14.354 -19.074  0.00  0.00    -0.776 OA
HETATM   56  H   UNK     0     -18.560 -13.959 -19.478  0.00  0.00     0.167 HD
ENDBRANCH  53  55
ENDBRANCH  52  53
ENDBRANCH  51  52
ENDBRANCH  18  51
TORSDOF 16
ENDMDL
MODEL 14
REMARK VINA RESULT:      -8.3     25.557     28.747
REMARK  16 active torsions:
REMARK  status: ('A' for Active; 'I' for Inactive)
REMARK    1  A    between atoms: C_6  and  C_7 
REMARK    2  A    between atoms: C_7  and  C_8 
REMARK    3  A    between atoms: C_8  and  C_9 
REMARK    4  A    between atoms: C_9  and  O_11 
REMARK    5  A    between atoms: C_16  and  C_17 
REMARK    6  A    between atoms: C_17  and  C_18 
REMARK    7  A    between atoms: C_18  and  C_19 
REMARK    8  A    between atoms: C_19  and  O_21 
REMARK    9  A    between atoms: C_28  and  C_29 
REMARK   10  A    between atoms: C_29  and  C_30 
REMARK   11  A    between atoms: C_30  and  C_31 
REMARK   12  A    between atoms: C_31  and  O_33 
REMARK   13  A    between atoms: C_42  and  C_43 
REMARK   14  A    between atoms: C_43  and  C_44 
REMARK   15  A    between atoms: C_44  and  C_45 
REMARK   16  A    between atoms: C_45  and  O_47 
ROOT
HETATM    1  C   UNK     0       2.949 -27.967  -7.737  0.00  0.00     0.051 C 
HETATM    2  C   UNK     0       3.102 -27.053  -8.936  0.00  0.00    -0.031 A 
HETATM    3  C   UNK     0       3.685 -25.799  -9.016  0.00  0.00     0.021 A 
HETATM    4  N   UNK     0       3.568 -25.338 -10.284  0.00  0.00    -0.361 N 
HETATM    5  C   UNK     0       2.930 -26.275 -11.015  0.00  0.00     0.022 A 
HETATM    6  C   UNK     0       2.621 -27.360 -10.202  0.00  0.00    -0.027 A 
HETATM    7  C   UNK     0       2.635 -26.300 -12.483  0.00  0.00     0.115 C 
HETATM    8  C   UNK     0       3.745 -25.837 -13.409  0.00  0.00     0.021 A 
HETATM    9  N   UNK     0       5.070 -26.007 -13.277  0.00  0.00    -0.361 N 
HETATM   10  C   UNK     0       5.679 -25.350 -14.287  0.00  0.00     0.022 A 
HETATM   11  C   UNK     0       4.721 -24.748 -15.097  0.00  0.00    -0.027 A 
HETATM   12  C   UNK     0       3.500 -25.051 -14.550  0.00  0.00    -0.031 A 
HETATM   13  C   UNK     0       2.162 -24.610 -15.100  0.00  0.00     0.051 C 
HETATM   14  C   UNK     0       7.185 -25.219 -14.498  0.00  0.00     0.115 C 
HETATM   15  C   UNK     0       7.908 -24.520 -13.358  0.00  0.00     0.021 A 
HETATM   16  N   UNK     0       7.942 -24.883 -12.062  0.00  0.00    -0.361 N 
HETATM   17  C   UNK     0       8.626 -23.969 -11.369  0.00  0.00     0.022 A 
HETATM   18  C   UNK     0       9.066 -22.968 -12.257  0.00  0.00    -0.027 A 
HETATM   19  C   UNK     0       8.611 -23.326 -13.500  0.00  0.00    -0.031 A 
HETATM   20  C   UNK     0       8.896 -22.533 -14.763  0.00  0.00     0.051 C 
HETATM   21  C   UNK     0       8.889 -23.873  -9.883  0.00  0.00     0.115 C 
HETATM   22  C   UNK     0       7.810 -24.371  -8.950  0.00  0.00     0.022 A 
HETATM   23  N   UNK     0       6.484 -24.220  -9.058  0.00  0.00    -0.361 N 
HETATM   24  C   UNK     0       5.894 -24.946  -8.088  0.00  0.00     0.021 A 
HETATM   25  C   UNK     0       6.864 -25.572  -7.329  0.00  0.00    -0.031 A 
HETATM   26  C   UNK     0       6.699 -26.457  -6.111  0.00  0.00     0.051 C 
HETATM   27  C   UNK     0       8.099 -25.219  -7.862  0.00  0.00    -0.027 A 
HETATM   28  C   UNK     0       4.407 -25.162  -7.862  0.00  0.00     0.115 C 
HETATM   29  H   UNK     0       3.901 -24.337 -10.644  0.00  0.00     0.165 HD
HETATM   30  H   UNK     0       5.575 -26.632 -12.501  0.00  0.00     0.165 HD
HETATM   31  H   UNK     0       7.517 -25.828 -11.634  0.00  0.00     0.165 HD
HETATM   32  H   UNK     0       5.953 -23.563  -9.796  0.00  0.00     0.165 HD
ENDROOT
BRANCH   6  33
HETATM   33  C   UNK     0       1.912 -28.649 -10.532  0.00  0.00     0.051 C 
BRANCH  33  34
HETATM   34  C   UNK     0       0.414 -28.469 -10.457  0.00  0.00     0.114 C 
BRANCH  34  35
HETATM   35  C   UNK     0      -0.068 -29.226  -9.266  0.00  0.00     0.139 C 
HETATM   36  O   UNK     0       0.287 -30.427  -9.088  0.00  0.00    -0.650 OA
BRANCH  35  37
HETATM   37  O   UNK     0      -0.907 -28.665  -8.311  0.00  0.00    -0.776 OA
HETATM   38  H   UNK     0      -0.617 -28.532  -7.356  0.00  0.00     0.167 HD
ENDBRANCH  35  37
ENDBRANCH  34  35
ENDBRANCH  33  34
ENDBRANCH   6  33
BRANCH  27  39
HETATM   39  C   UNK     0       9.392 -25.647  -7.262  0.00  0.00     0.051 C 
BRANCH  39  40
HETATM   40  C   UNK     0       9.779 -27.053  -7.378  0.00  0.00     0.114 C 
BRANCH  40  41
HETATM   41  C   UNK     0       9.625 -27.796  -8.609  0.00  0.00     0.139 C 
HETATM   42  O   UNK     0       9.154 -28.940  -8.662  0.00  0.00    -0.650 OA
BRANCH  41  43
HETATM   43  O   UNK     0      10.032 -27.195  -9.834  0.00  0.00    -0.776 OA
HETATM   44  H   UNK     0       9.333 -26.598 -10.260  0.00  0.00     0.167 HD
ENDBRANCH  41  43
ENDBRANCH  40  41
ENDBRANCH  39  40
ENDBRANCH  27  39
BRANCH  11  45
HETATM   45  C   UNK     0       4.921 -23.922 -16.338  0.00  0.00     0.051 C 
BRANCH  45  46
HETATM   46  C   UNK     0       5.102 -24.722 -17.576  0.00  0.00     0.114 C 
BRANCH  46  47
HETATM   47  C   UNK     0       6.542 -24.633 -17.954  0.00  0.00     0.139 C 
HETATM   48  O   UNK     0       7.097 -23.526 -17.913  0.00  0.00    -0.650 OA
BRANCH  47  49
HETATM   49  O   UNK     0       7.238 -25.750 -18.340  0.00  0.00    -0.776 OA
HETATM   50  H   UNK     0       7.619 -25.854 -19.288  0.00  0.00     0.167 HD
ENDBRANCH  47  49
ENDBRANCH  46  47
ENDBRANCH  45  46
ENDBRANCH  11  45
BRANCH  18  51
HETATM   51  C   UNK     0       9.893 -21.749 -11.943  0.00  0.00     0.051 C 
BRANCH  51  52
HETATM   52  C   UNK     0      11.328 -22.233 -11.798  0.00  0.00     0.114 C 
BRANCH  52  53
HETATM   53  C   UNK     0      12.183 -21.754 -12.901  0.00  0.00     0.139 C 
HETATM   54  O   UNK     0      12.394 -22.481 -13.885  0.00  0.00    -0.650 OA
BRANCH  53  55
HETATM   55  O   UNK     0      12.746 -20.502 -12.831  0.00  0.00    -0.776 OA
HETATM   56  H   UNK     0      12.344 -19.662 -13.174  0.00  0.00     0.167 HD
ENDBRANCH  53  55
ENDBRANCH  52  53
ENDBRANCH  51  52
ENDBRANCH  18  51
TORSDOF 16
ENDMDL
MODEL 15
REMARK VINA RESULT:      -8.2      2.859      8.969
REMARK  16 active torsions:
REMARK  status: ('A' for Active; 'I' for Inactive)
REMARK    1  A    between atoms: C_6  and  C_7 
REMARK    2  A    between atoms: C_7  and  C_8 
REMARK    3  A    between atoms: C_8  and  C_9 
REMARK    4  A    between atoms: C_9  and  O_11 
REMARK    5  A    between atoms: C_16  and  C_17 
REMARK    6  A    between atoms: C_17  and  C_18 
REMARK    7  A    between atoms: C_18  and  C_19 
REMARK    8  A    between atoms: C_19  and  O_21 
REMARK    9  A    between atoms: C_28  and  C_29 
REMARK   10  A    between atoms: C_29  and  C_30 
REMARK   11  A    between atoms: C_30  and  C_31 
REMARK   12  A    between atoms: C_31  and  O_33 
REMARK   13  A    between atoms: C_42  and  C_43 
REMARK   14  A    between atoms: C_43  and  C_44 
REMARK   15  A    between atoms: C_44  and  C_45 
REMARK   16  A    between atoms: C_45  and  O_47 
ROOT
HETATM    1  C   UNK     0     -17.400  -5.972 -16.975  0.00  0.00     0.051 C 
HETATM    2  C   UNK     0     -17.646  -6.562 -15.601  0.00  0.00    -0.031 A 
HETATM    3  C   UNK     0     -18.732  -7.288 -15.137  0.00  0.00     0.021 A 
HETATM    4  N   UNK     0     -18.538  -7.586 -13.831  0.00  0.00    -0.361 N 
HETATM    5  C   UNK     0     -17.348  -7.074 -13.454  0.00  0.00     0.022 A 
HETATM    6  C   UNK     0     -16.764  -6.425 -14.537  0.00  0.00    -0.027 A 
HETATM    7  C   UNK     0     -16.626  -7.203 -12.149  0.00  0.00     0.115 C 
HETATM    8  C   UNK     0     -16.632  -8.575 -11.500  0.00  0.00     0.021 A 
HETATM    9  N   UNK     0     -16.585  -9.780 -12.089  0.00  0.00    -0.361 N 
HETATM   10  C   UNK     0     -16.707 -10.721 -11.129  0.00  0.00     0.022 A 
HETATM   11  C   UNK     0     -16.827 -10.106  -9.887  0.00  0.00    -0.027 A 
HETATM   12  C   UNK     0     -16.780  -8.754 -10.112  0.00  0.00    -0.031 A 
HETATM   13  C   UNK     0     -16.868  -7.686  -9.046  0.00  0.00     0.051 C 
HETATM   14  C   UNK     0     -16.769 -12.230 -11.350  0.00  0.00     0.115 C 
HETATM   15  C   UNK     0     -17.945 -12.680 -12.202  0.00  0.00     0.021 A 
HETATM   16  N   UNK     0     -18.237 -12.306 -13.462  0.00  0.00    -0.361 N 
HETATM   17  C   UNK     0     -19.390 -12.868 -13.831  0.00  0.00     0.022 A 
HETATM   18  C   UNK     0     -19.867 -13.655 -12.763  0.00  0.00    -0.027 A 
HETATM   19  C   UNK     0     -18.953 -13.529 -11.750  0.00  0.00    -0.031 A 
HETATM   20  C   UNK     0     -19.065 -14.248 -10.418  0.00  0.00     0.051 C 
HETATM   21  C   UNK     0     -20.183 -12.712 -15.108  0.00  0.00     0.115 C 
HETATM   22  C   UNK     0     -20.150 -11.365 -15.790  0.00  0.00     0.022 A 
HETATM   23  N   UNK     0     -20.191 -10.149 -15.228  0.00  0.00    -0.361 N 
HETATM   24  C   UNK     0     -19.989  -9.230 -16.193  0.00  0.00     0.021 A 
HETATM   25  C   UNK     0     -19.825  -9.867 -17.407  0.00  0.00    -0.031 A 
HETATM   26  C   UNK     0     -19.613  -9.264 -18.780  0.00  0.00     0.051 C 
HETATM   27  C   UNK     0     -19.923 -11.234 -17.175  0.00  0.00    -0.027 A 
HETATM   28  C   UNK     0     -19.859  -7.725 -16.030  0.00  0.00     0.115 C 
HETATM   29  H   UNK     0     -19.261  -8.122 -13.173  0.00  0.00     0.165 HD
HETATM   30  H   UNK     0     -16.415  -9.970 -13.177  0.00  0.00     0.165 HD
HETATM   31  H   UNK     0     -17.592 -11.669 -14.123  0.00  0.00     0.165 HD
HETATM   32  H   UNK     0     -20.406  -9.927 -14.150  0.00  0.00     0.165 HD
ENDROOT
BRANCH   6  33
HETATM   33  C   UNK     0     -15.451  -5.691 -14.636  0.00  0.00     0.051 C 
BRANCH  33  34
HETATM   34  C   UNK     0     -14.398  -6.562 -15.280  0.00  0.00     0.114 C 
BRANCH  34  35
HETATM   35  C   UNK     0     -13.684  -7.281 -14.187  0.00  0.00     0.139 C 
HETATM   36  O   UNK     0     -12.981  -6.638 -13.354  0.00  0.00    -0.650 OA
BRANCH  35  37
HETATM   37  O   UNK     0     -13.751  -8.660 -14.028  0.00  0.00    -0.776 OA
HETATM   38  H   UNK     0     -14.485  -9.211 -14.444  0.00  0.00     0.167 HD
ENDBRANCH  35  37
ENDBRANCH  34  35
ENDBRANCH  33  34
ENDBRANCH   6  33
BRANCH  27  39
HETATM   39  C   UNK     0     -19.868 -12.248 -18.263  0.00  0.00     0.051 C 
BRANCH  39  40
HETATM   40  C   UNK     0     -18.608 -12.954 -18.491  0.00  0.00     0.114 C 
BRANCH  40  41
HETATM   41  C   UNK     0     -17.527 -12.375 -19.257  0.00  0.00     0.139 C 
HETATM   42  O   UNK     0     -17.549 -12.258 -20.489  0.00  0.00    -0.650 OA
BRANCH  41  43
HETATM   43  O   UNK     0     -16.368 -11.910 -18.573  0.00  0.00    -0.776 OA
HETATM   44  H   UNK     0     -16.157 -12.409 -17.717  0.00  0.00     0.167 HD
ENDBRANCH  41  43
ENDBRANCH  40  41
ENDBRANCH  39  40
ENDBRANCH  27  39
BRANCH  11  45
HETATM   45  C   UNK     0     -16.977 -10.743  -8.531  0.00  0.00     0.051 C 
BRANCH  45  46
HETATM   46  C   UNK     0     -15.689 -11.000  -7.836  0.00  0.00     0.114 C 
BRANCH  46  47
HETATM   47  C   UNK     0     -15.577 -10.003  -6.733  0.00  0.00     0.139 C 
HETATM   48  O   UNK     0     -16.607  -9.661  -6.137  0.00  0.00    -0.650 OA
BRANCH  47  49
HETATM   49  O   UNK     0     -14.359  -9.474  -6.385  0.00  0.00    -0.776 OA
HETATM   50  H   UNK     0     -13.497 -10.032  -6.406  0.00  0.00     0.167 HD
ENDBRANCH  47  49
ENDBRANCH  46  47
ENDBRANCH  45  46
ENDBRANCH  11  45
BRANCH  18  51
HETATM   51  C   UNK     0     -21.116 -14.496 -12.719  0.00  0.00     0.051 C 
BRANCH  51  52
HETATM   52  C   UNK     0     -20.767 -15.812 -13.398  0.00  0.00     0.114 C 
BRANCH  52  53
HETATM   53  C   UNK     0     -20.853 -16.952 -12.464  0.00  0.00     0.139 C 
HETATM   54  O   UNK     0     -21.959 -17.435 -12.173  0.00  0.00    -0.650 OA
BRANCH  53  55
HETATM   55  O   UNK     0     -19.705 -17.471 -11.918  0.00  0.00    -0.776 OA
HETATM   56  H   UNK     0     -19.222 -17.116 -11.127  0.00  0.00     0.167 HD
ENDBRANCH  53  55
ENDBRANCH  52  53
ENDBRANCH  51  52
ENDBRANCH  18  51
TORSDOF 16
ENDMDL
MODEL 16
REMARK VINA RESULT:      -8.0      3.040      8.180
REMARK  16 active torsions:
REMARK  status: ('A' for Active; 'I' for Inactive)
REMARK    1  A    between atoms: C_6  and  C_7 
REMARK    2  A    between atoms: C_7  and  C_8 
REMARK    3  A    between atoms: C_8  and  C_9 
REMARK    4  A    between atoms: C_9  and  O_11 
REMARK    5  A    between atoms: C_16  and  C_17 
REMARK    6  A    between atoms: C_17  and  C_18 
REMARK    7  A    between atoms: C_18  and  C_19 
REMARK    8  A    between atoms: C_19  and  O_21 
REMARK    9  A    between atoms: C_28  and  C_29 
REMARK   10  A    between atoms: C_29  and  C_30 
REMARK   11  A    between atoms: C_30  and  C_31 
REMARK   12  A    between atoms: C_31  and  O_33 
REMARK   13  A    between atoms: C_42  and  C_43 
REMARK   14  A    between atoms: C_43  and  C_44 
REMARK   15  A    between atoms: C_44  and  C_45 
REMARK   16  A    between atoms: C_45  and  O_47 
ROOT
HETATM    1  C   UNK     0     -16.854 -11.134  -8.971  0.00  0.00     0.051 C 
HETATM    2  C   UNK     0     -16.480 -10.567 -10.326  0.00  0.00    -0.031 A 
HETATM    3  C   UNK     0     -16.410 -11.201 -11.556  0.00  0.00     0.021 A 
HETATM    4  N   UNK     0     -16.001 -10.310 -12.490  0.00  0.00    -0.361 N 
HETATM    5  C   UNK     0     -15.816  -9.119 -11.883  0.00  0.00     0.022 A 
HETATM    6  C   UNK     0     -16.104  -9.245 -10.528  0.00  0.00    -0.027 A 
HETATM    7  C   UNK     0     -15.459  -7.793 -12.477  0.00  0.00     0.115 C 
HETATM    8  C   UNK     0     -16.159  -7.416 -13.771  0.00  0.00     0.021 A 
HETATM    9  N   UNK     0     -17.419  -7.684 -14.150  0.00  0.00    -0.361 N 
HETATM   10  C   UNK     0     -17.580  -7.239 -15.414  0.00  0.00     0.022 A 
HETATM   11  C   UNK     0     -16.396  -6.658 -15.858  0.00  0.00    -0.027 A 
HETATM   12  C   UNK     0     -15.497  -6.766 -14.828  0.00  0.00    -0.031 A 
HETATM   13  C   UNK     0     -14.070  -6.265 -14.857  0.00  0.00     0.051 C 
HETATM   14  C   UNK     0     -18.836  -7.389 -16.268  0.00  0.00     0.115 C 
HETATM   15  C   UNK     0     -19.235  -8.832 -16.528  0.00  0.00     0.021 A 
HETATM   16  N   UNK     0     -19.528  -9.780 -15.618  0.00  0.00    -0.361 N 
HETATM   17  C   UNK     0     -19.760 -10.935 -16.246  0.00  0.00     0.022 A 
HETATM   18  C   UNK     0     -19.622 -10.727 -17.633  0.00  0.00    -0.027 A 
HETATM   19  C   UNK     0     -19.294  -9.406 -17.796  0.00  0.00    -0.031 A 
HETATM   20  C   UNK     0     -19.088  -8.749 -19.149  0.00  0.00     0.051 C 
HETATM   21  C   UNK     0     -20.057 -12.306 -15.681  0.00  0.00     0.115 C 
HETATM   22  C   UNK     0     -19.402 -12.678 -14.372  0.00  0.00     0.022 A 
HETATM   23  N   UNK     0     -18.151 -12.419 -13.967  0.00  0.00    -0.361 N 
HETATM   24  C   UNK     0     -18.036 -12.802 -12.679  0.00  0.00     0.021 A 
HETATM   25  C   UNK     0     -19.239 -13.328 -12.247  0.00  0.00    -0.031 A 
HETATM   26  C   UNK     0     -19.590 -13.924 -10.900  0.00  0.00     0.051 C 
HETATM   27  C   UNK     0     -20.128 -13.260 -13.314  0.00  0.00    -0.027 A 
HETATM   28  C   UNK     0     -16.839 -12.627 -11.761  0.00  0.00     0.115 C 
HETATM   29  H   UNK     0     -15.807 -10.538 -13.563  0.00  0.00     0.165 HD
HETATM   30  H   UNK     0     -18.211  -8.144 -13.509  0.00  0.00     0.165 HD
HETATM   31  H   UNK     0     -19.619  -9.621 -14.512  0.00  0.00     0.165 HD
HETATM   32  H   UNK     0     -17.325 -12.004 -14.600  0.00  0.00     0.165 HD
ENDROOT
BRANCH   6  33
HETATM   33  C   UNK     0     -16.048  -8.219  -9.425  0.00  0.00     0.051 C 
BRANCH  33  34
HETATM   34  C   UNK     0     -17.007  -7.085  -9.699  0.00  0.00     0.114 C 
BRANCH  34  35
HETATM   35  C   UNK     0     -16.443  -5.859  -9.065  0.00  0.00     0.139 C 
HETATM   36  O   UNK     0     -15.661  -5.957  -8.075  0.00  0.00    -0.650 OA
BRANCH  35  37
HETATM   37  O   UNK     0     -16.736  -4.579  -9.518  0.00  0.00    -0.776 OA
HETATM   38  H   UNK     0     -16.995  -4.396 -10.474  0.00  0.00     0.167 HD
ENDBRANCH  35  37
ENDBRANCH  34  35
ENDBRANCH  33  34
ENDBRANCH   6  33
BRANCH  27  39
HETATM   39  C   UNK     0     -21.513 -13.802 -13.250  0.00  0.00     0.051 C 
BRANCH  39  40
HETATM   40  C   UNK     0     -21.701 -15.244 -13.404  0.00  0.00     0.114 C 
BRANCH  40  41
HETATM   41  C   UNK     0     -22.252 -16.066 -12.350  0.00  0.00     0.139 C 
HETATM   42  O   UNK     0     -23.088 -15.658 -11.532  0.00  0.00    -0.650 OA
BRANCH  41  43
HETATM   43  O   UNK     0     -21.822 -17.418 -12.231  0.00  0.00    -0.776 OA
HETATM   44  H   UNK     0     -22.370 -17.977 -11.587  0.00  0.00     0.167 HD
ENDBRANCH  41  43
ENDBRANCH  40  41
ENDBRANCH  39  40
ENDBRANCH  27  39
BRANCH  11  45
HETATM   45  C   UNK     0     -16.101  -6.021 -17.189  0.00  0.00     0.051 C 
BRANCH  45  46
HETATM   46  C   UNK     0     -16.378  -4.563 -17.238  0.00  0.00     0.114 C 
BRANCH  46  47
HETATM   47  C   UNK     0     -17.043  -4.283 -18.542  0.00  0.00     0.139 C 
HETATM   48  O   UNK     0     -17.541  -5.229 -19.169  0.00  0.00    -0.650 OA
BRANCH  47  49
HETATM   49  O   UNK     0     -17.102  -3.006 -19.041  0.00  0.00    -0.776 OA
HETATM   50  H   UNK     0     -17.089  -2.181 -18.430  0.00  0.00     0.167 HD
ENDBRANCH  47  49
ENDBRANCH  46  47
ENDBRANCH  45  46
ENDBRANCH  11  45
BRANCH  18  51
HETATM   51  C   UNK     0     -19.812 -11.728 -18.742  0.00  0.00     0.051 C 
BRANCH  51  52
HETATM   52  C   UNK     0     -18.501 -12.491 -18.859  0.00  0.00     0.114 C 
BRANCH  52  53
HETATM   53  C   UNK     0     -18.250 -12.946 -20.240  0.00  0.00     0.139 C 
HETATM   54  O   UNK     0     -19.015 -13.767 -20.772  0.00  0.00    -0.650 OA
BRANCH  53  55
HETATM   55  O   UNK     0     -17.167 -12.460 -20.929  0.00  0.00    -0.776 OA
HETATM   56  H   UNK     0     -16.231 -12.425 -20.598  0.00  0.00     0.167 HD
ENDBRANCH  53  55
ENDBRANCH  52  53
ENDBRANCH  51  52
ENDBRANCH  18  51
TORSDOF 16
ENDMDL
MODEL 17
REMARK VINA RESULT:      -7.9     28.525     33.698
REMARK  16 active torsions:
REMARK  status: ('A' for Active; 'I' for Inactive)
REMARK    1  A    between atoms: C_6  and  C_7 
REMARK    2  A    between atoms: C_7  and  C_8 
REMARK    3  A    between atoms: C_8  and  C_9 
REMARK    4  A    between atoms: C_9  and  O_11 
REMARK    5  A    between atoms: C_16  and  C_17 
REMARK    6  A    between atoms: C_17  and  C_18 
REMARK    7  A    between atoms: C_18  and  C_19 
REMARK    8  A    between atoms: C_19  and  O_21 
REMARK    9  A    between atoms: C_28  and  C_29 
REMARK   10  A    between atoms: C_29  and  C_30 
REMARK   11  A    between atoms: C_30  and  C_31 
REMARK   12  A    between atoms: C_31  and  O_33 
REMARK   13  A    between atoms: C_42  and  C_43 
REMARK   14  A    between atoms: C_43  and  C_44 
REMARK   15  A    between atoms: C_44  and  C_45 
REMARK   16  A    between atoms: C_45  and  O_47 
ROOT
HETATM    1  C   UNK     0       5.401   9.073  -3.837  0.00  0.00     0.051 C 
HETATM    2  C   UNK     0       6.058   8.745  -5.163  0.00  0.00    -0.031 A 
HETATM    3  C   UNK     0       5.554   8.039  -6.243  0.00  0.00     0.021 A 
HETATM    4  N   UNK     0       6.505   7.964  -7.204  0.00  0.00    -0.361 N 
HETATM    5  C   UNK     0       7.601   8.615  -6.763  0.00  0.00     0.022 A 
HETATM    6  C   UNK     0       7.357   9.114  -5.488  0.00  0.00    -0.027 A 
HETATM    7  C   UNK     0       8.887   8.904  -7.473  0.00  0.00     0.115 C 
HETATM    8  C   UNK     0       8.781   9.349  -8.921  0.00  0.00     0.021 A 
HETATM    9  N   UNK     0       7.841  10.118  -9.493  0.00  0.00    -0.361 N 
HETATM   10  C   UNK     0       8.096  10.176 -10.817  0.00  0.00     0.022 A 
HETATM   11  C   UNK     0       9.237   9.433 -11.105  0.00  0.00    -0.027 A 
HETATM   12  C   UNK     0       9.673   8.909  -9.915  0.00  0.00    -0.031 A 
HETATM   13  C   UNK     0      10.893   8.032  -9.741  0.00  0.00     0.051 C 
HETATM   14  C   UNK     0       7.248  10.888 -11.868  0.00  0.00     0.115 C 
HETATM   15  C   UNK     0       5.828  10.358 -11.975  0.00  0.00     0.021 A 
HETATM   16  N   UNK     0       4.896  10.303 -11.005  0.00  0.00    -0.361 N 
HETATM   17  C   UNK     0       3.802   9.705 -11.482  0.00  0.00     0.022 A 
HETATM   18  C   UNK     0       4.028   9.363 -12.830  0.00  0.00    -0.027 A 
HETATM   19  C   UNK     0       5.300   9.778 -13.127  0.00  0.00    -0.031 A 
HETATM   20  C   UNK     0       5.936   9.635 -14.498  0.00  0.00     0.051 C 
HETATM   21  C   UNK     0       2.513   9.336 -10.782  0.00  0.00     0.115 C 
HETATM   22  C   UNK     0       2.598   8.934  -9.329  0.00  0.00     0.022 A 
HETATM   23  N   UNK     0       3.525   8.173  -8.731  0.00  0.00    -0.361 N 
HETATM   24  C   UNK     0       3.296   8.192  -7.403  0.00  0.00     0.021 A 
HETATM   25  C   UNK     0       2.189   8.976  -7.139  0.00  0.00    -0.031 A 
HETATM   26  C   UNK     0       1.522   9.268  -5.811  0.00  0.00     0.051 C 
HETATM   27  C   UNK     0       1.725   9.462  -8.357  0.00  0.00    -0.027 A 
HETATM   28  C   UNK     0       4.132   7.556  -6.306  0.00  0.00     0.115 C 
HETATM   29  H   UNK     0       6.409   7.418  -8.171  0.00  0.00     0.165 HD
HETATM   30  H   UNK     0       7.025  10.661  -8.957  0.00  0.00     0.165 HD
HETATM   31  H   UNK     0       4.994  10.737  -9.976  0.00  0.00     0.165 HD
HETATM   32  H   UNK     0       4.324   7.579  -9.247  0.00  0.00     0.165 HD
ENDROOT
BRANCH   6  33
HETATM   33  C   UNK     0       8.253   9.901  -4.566  0.00  0.00     0.051 C 
BRANCH  33  34
HETATM   34  C   UNK     0       8.899   8.995  -3.545  0.00  0.00     0.114 C 
BRANCH  34  35
HETATM   35  C   UNK     0      10.219   8.571  -4.094  0.00  0.00     0.139 C 
HETATM   36  O   UNK     0      11.205   9.363  -4.065  0.00  0.00    -0.650 OA
BRANCH  35  37
HETATM   37  O   UNK     0      10.430   7.316  -4.651  0.00  0.00    -0.776 OA
HETATM   38  H   UNK     0      11.350   6.990  -4.902  0.00  0.00     0.167 HD
ENDBRANCH  35  37
ENDBRANCH  34  35
ENDBRANCH  33  34
ENDBRANCH   6  33
BRANCH  27  39
HETATM   39  C   UNK     0       0.496  10.292  -8.483  0.00  0.00     0.051 C 
BRANCH  39  40
HETATM   40  C   UNK     0      -0.739   9.641  -8.918  0.00  0.00     0.114 C 
BRANCH  40  41
HETATM   41  C   UNK     0      -1.681   9.071  -7.981  0.00  0.00     0.139 C 
HETATM   42  O   UNK     0      -1.803   9.461  -6.812  0.00  0.00    -0.650 OA
BRANCH  41  43
HETATM   43  O   UNK     0      -2.520   8.003  -8.408  0.00  0.00    -0.776 OA
HETATM   44  H   UNK     0      -2.056   7.104  -8.467  0.00  0.00     0.167 HD
ENDBRANCH  41  43
ENDBRANCH  40  41
ENDBRANCH  39  40
ENDBRANCH  27  39
BRANCH  11  45
HETATM   45  C   UNK     0       9.907   9.213 -12.434  0.00  0.00     0.051 C 
BRANCH  45  46
HETATM   46  C   UNK     0       9.469   7.980 -13.137  0.00  0.00     0.114 C 
BRANCH  46  47
HETATM   47  C   UNK     0      10.655   7.441 -13.863  0.00  0.00     0.139 C 
HETATM   48  O   UNK     0      11.568   8.221 -14.167  0.00  0.00    -0.650 OA
BRANCH  47  49
HETATM   49  O   UNK     0      10.734   6.111 -14.190  0.00  0.00    -0.776 OA
HETATM   50  H   UNK     0      10.654   5.782 -15.160  0.00  0.00     0.167 HD
ENDBRANCH  47  49
ENDBRANCH  46  47
ENDBRANCH  45  46
ENDBRANCH  11  45
BRANCH  18  51
HETATM   51  C   UNK     0       3.076   8.695 -13.788  0.00  0.00     0.051 C 
BRANCH  51  52
HETATM   52  C   UNK     0       3.472   7.227 -13.828  0.00  0.00     0.114 C 
BRANCH  52  53
HETATM   53  C   UNK     0       2.779   6.442 -12.789  0.00  0.00     0.139 C 
HETATM   54  O   UNK     0       3.371   5.518 -12.209  0.00  0.00    -0.650 OA
BRANCH  53  55
HETATM   55  O   UNK     0       1.476   6.738 -12.470  0.00  0.00    -0.776 OA
HETATM   56  H   UNK     0       0.684   6.170 -12.661  0.00  0.00     0.167 HD
ENDBRANCH  53  55
ENDBRANCH  52  53
ENDBRANCH  51  52
ENDBRANCH  18  51
TORSDOF 16
ENDMDL
MODEL 18
REMARK VINA RESULT:      -7.9     28.575     33.501
REMARK  16 active torsions:
REMARK  status: ('A' for Active; 'I' for Inactive)
REMARK    1  A    between atoms: C_6  and  C_7 
REMARK    2  A    between atoms: C_7  and  C_8 
REMARK    3  A    between atoms: C_8  and  C_9 
REMARK    4  A    between atoms: C_9  and  O_11 
REMARK    5  A    between atoms: C_16  and  C_17 
REMARK    6  A    between atoms: C_17  and  C_18 
REMARK    7  A    between atoms: C_18  and  C_19 
REMARK    8  A    between atoms: C_19  and  O_21 
REMARK    9  A    between atoms: C_28  and  C_29 
REMARK   10  A    between atoms: C_29  and  C_30 
REMARK   11  A    between atoms: C_30  and  C_31 
REMARK   12  A    between atoms: C_31  and  O_33 
REMARK   13  A    between atoms: C_42  and  C_43 
REMARK   14  A    between atoms: C_43  and  C_44 
REMARK   15  A    between atoms: C_44  and  C_45 
REMARK   16  A    between atoms: C_45  and  O_47 
ROOT
HETATM    1  C   UNK     0       0.593   9.072 -12.626  0.00  0.00     0.051 C 
HETATM    2  C   UNK     0       1.363   8.732 -11.366  0.00  0.00    -0.031 A 
HETATM    3  C   UNK     0       2.481   7.928 -11.208  0.00  0.00     0.021 A 
HETATM    4  N   UNK     0       2.811   7.885  -9.896  0.00  0.00    -0.361 N 
HETATM    5  C   UNK     0       1.933   8.650  -9.215  0.00  0.00     0.022 A 
HETATM    6  C   UNK     0       1.012   9.193 -10.104  0.00  0.00    -0.027 A 
HETATM    7  C   UNK     0       1.911   9.011  -7.762  0.00  0.00     0.115 C 
HETATM    8  C   UNK     0       3.244   9.368  -7.128  0.00  0.00     0.021 A 
HETATM    9  N   UNK     0       4.281  10.021  -7.674  0.00  0.00    -0.361 N 
HETATM   10  C   UNK     0       5.290  10.031  -6.776  0.00  0.00     0.022 A 
HETATM   11  C   UNK     0       4.887   9.374  -5.617  0.00  0.00    -0.027 A 
HETATM   12  C   UNK     0       3.599   8.954  -5.832  0.00  0.00    -0.031 A 
HETATM   13  C   UNK     0       2.750   8.196  -4.837  0.00  0.00     0.051 C 
HETATM   14  C   UNK     0       6.684  10.611  -6.994  0.00  0.00     0.115 C 
HETATM   15  C   UNK     0       7.453   9.955  -8.130  0.00  0.00     0.021 A 
HETATM   16  N   UNK     0       7.093   9.871  -9.424  0.00  0.00    -0.361 N 
HETATM   17  C   UNK     0       8.005   9.156 -10.087  0.00  0.00     0.022 A 
HETATM   18  C   UNK     0       9.013   8.764  -9.183  0.00  0.00    -0.027 A 
HETATM   19  C   UNK     0       8.656   9.271  -7.961  0.00  0.00    -0.031 A 
HETATM   20  C   UNK     0       9.491   9.111  -6.704  0.00  0.00     0.051 C 
HETATM   21  C   UNK     0       8.031   8.716 -11.533  0.00  0.00     0.115 C 
HETATM   22  C   UNK     0       6.708   8.400 -12.190  0.00  0.00     0.022 A 
HETATM   23  N   UNK     0       5.656   7.755 -11.670  0.00  0.00    -0.361 N 
HETATM   24  C   UNK     0       4.638   7.825 -12.551  0.00  0.00     0.021 A 
HETATM   25  C   UNK     0       5.047   8.523 -13.670  0.00  0.00    -0.031 A 
HETATM   26  C   UNK     0       4.277   8.827 -14.939  0.00  0.00     0.051 C 
HETATM   27  C   UNK     0       6.369   8.901 -13.463  0.00  0.00    -0.027 A 
HETATM   28  C   UNK     0       3.216   7.322 -12.370  0.00  0.00     0.115 C 
HETATM   29  H   UNK     0       3.639   7.282  -9.454  0.00  0.00     0.165 HD
HETATM   30  H   UNK     0       4.288  10.520  -8.674  0.00  0.00     0.165 HD
HETATM   31  H   UNK     0       6.202  10.366  -9.890  0.00  0.00     0.165 HD
HETATM   32  H   UNK     0       5.636   7.206 -10.692  0.00  0.00     0.165 HD
ENDROOT
BRANCH   6  33
HETATM   33  C   UNK     0      -0.163  10.103  -9.848  0.00  0.00     0.051 C 
BRANCH  33  34
HETATM   34  C   UNK     0      -1.421   9.300  -9.616  0.00  0.00     0.114 C 
BRANCH  34  35
HETATM   35  C   UNK     0      -1.731   9.367  -8.159  0.00  0.00     0.139 C 
HETATM   36  O   UNK     0      -1.278  10.316  -7.454  0.00  0.00    -0.650 OA
BRANCH  35  37
HETATM   37  O   UNK     0      -2.515   8.418  -7.514  0.00  0.00    -0.776 OA
HETATM   38  H   UNK     0      -2.357   7.429  -7.626  0.00  0.00     0.167 HD
ENDBRANCH  35  37
ENDBRANCH  34  35
ENDBRANCH  33  34
ENDBRANCH   6  33
BRANCH  27  39
HETATM   39  C   UNK     0       7.178   9.615 -14.488  0.00  0.00     0.051 C 
BRANCH  39  40
HETATM   40  C   UNK     0       7.867   8.820 -15.505  0.00  0.00     0.114 C 
BRANCH  40  41
HETATM   41  C   UNK     0       9.124   8.156 -15.242  0.00  0.00     0.139 C 
HETATM   42  O   UNK     0       9.931   8.535 -14.383  0.00  0.00    -0.650 OA
BRANCH  41  43
HETATM   43  O   UNK     0       9.468   7.003 -16.003  0.00  0.00    -0.776 OA
HETATM   44  H   UNK     0       8.906   6.866 -16.835  0.00  0.00     0.167 HD
ENDBRANCH  41  43
ENDBRANCH  40  41
ENDBRANCH  39  40
ENDBRANCH  27  39
BRANCH  11  45
HETATM   45  C   UNK     0       5.663   9.143  -4.348  0.00  0.00     0.051 C 
BRANCH  45  46
HETATM   46  C   UNK     0       5.428  10.167  -3.299  0.00  0.00     0.114 C 
BRANCH  46  47
HETATM   47  C   UNK     0       6.732  10.407  -2.616  0.00  0.00     0.139 C 
HETATM   48  O   UNK     0       7.761  10.449  -3.303  0.00  0.00    -0.650 OA
BRANCH  47  49
HETATM   49  O   UNK     0       6.792  10.575  -1.255  0.00  0.00    -0.776 OA
HETATM   50  H   UNK     0       6.760   9.781  -0.606  0.00  0.00     0.167 HD
ENDBRANCH  47  49
ENDBRANCH  46  47
ENDBRANCH  45  46
ENDBRANCH  11  45
BRANCH  18  51
HETATM   51  C   UNK     0      10.258   7.967  -9.473  0.00  0.00     0.051 C 
BRANCH  51  52
HETATM   52  C   UNK     0      11.344   8.979  -9.803  0.00  0.00     0.114 C 
BRANCH  52  53
HETATM   53  C   UNK     0      11.505   9.159 -11.259  0.00  0.00     0.139 C 
HETATM   54  O   UNK     0      11.275  10.262 -11.779  0.00  0.00    -0.650 OA
BRANCH  53  55
HETATM   55  O   UNK     0      11.906   8.098 -12.035  0.00  0.00    -0.776 OA
HETATM   56  H   UNK     0      11.312   7.507 -12.568  0.00  0.00     0.167 HD
ENDBRANCH  53  55
ENDBRANCH  52  53
ENDBRANCH  51  52
ENDBRANCH  18  51
TORSDOF 16
ENDMDL
MODEL 19
REMARK VINA RESULT:      -7.8     25.598     28.975
REMARK  16 active torsions:
REMARK  status: ('A' for Active; 'I' for Inactive)
REMARK    1  A    between atoms: C_6  and  C_7 
REMARK    2  A    between atoms: C_7  and  C_8 
REMARK    3  A    between atoms: C_8  and  C_9 
REMARK    4  A    between atoms: C_9  and  O_11 
REMARK    5  A    between atoms: C_16  and  C_17 
REMARK    6  A    between atoms: C_17  and  C_18 
REMARK    7  A    between atoms: C_18  and  C_19 
REMARK    8  A    between atoms: C_19  and  O_21 
REMARK    9  A    between atoms: C_28  and  C_29 
REMARK   10  A    between atoms: C_29  and  C_30 
REMARK   11  A    between atoms: C_30  and  C_31 
REMARK   12  A    between atoms: C_31  and  O_33 
REMARK   13  A    between atoms: C_42  and  C_43 
REMARK   14  A    between atoms: C_43  and  C_44 
REMARK   15  A    between atoms: C_44  and  C_45 
REMARK   16  A    between atoms: C_45  and  O_47 
ROOT
HETATM    1  C   UNK     0      11.170 -23.426 -11.115  0.00  0.00     0.051 C 
HETATM    2  C   UNK     0      10.116 -24.104 -11.967  0.00  0.00    -0.031 A 
HETATM    3  C   UNK     0       9.460 -25.308 -11.761  0.00  0.00     0.021 A 
HETATM    4  N   UNK     0       8.620 -25.535 -12.799  0.00  0.00    -0.361 N 
HETATM    5  C   UNK     0       8.721 -24.499 -13.657  0.00  0.00     0.022 A 
HETATM    6  C   UNK     0       9.650 -23.587 -13.168  0.00  0.00    -0.027 A 
HETATM    7  C   UNK     0       7.944 -24.218 -14.905  0.00  0.00     0.115 C 
HETATM    8  C   UNK     0       6.449 -24.476 -14.850  0.00  0.00     0.021 A 
HETATM    9  N   UNK     0       5.606 -24.297 -13.821  0.00  0.00    -0.361 N 
HETATM   10  C   UNK     0       4.388 -24.744 -14.194  0.00  0.00     0.022 A 
HETATM   11  C   UNK     0       4.445 -25.215 -15.502  0.00  0.00    -0.027 A 
HETATM   12  C   UNK     0       5.740 -25.049 -15.922  0.00  0.00    -0.031 A 
HETATM   13  C   UNK     0       6.270 -25.420 -17.289  0.00  0.00     0.051 C 
HETATM   14  C   UNK     0       3.140 -24.794 -13.317  0.00  0.00     0.115 C 
HETATM   15  C   UNK     0       3.289 -25.668 -12.082  0.00  0.00     0.021 A 
HETATM   16  N   UNK     0       4.193 -25.544 -11.093  0.00  0.00    -0.361 N 
HETATM   17  C   UNK     0       4.038 -26.549 -10.228  0.00  0.00     0.022 A 
HETATM   18  C   UNK     0       2.974 -27.361 -10.670  0.00  0.00    -0.027 A 
HETATM   19  C   UNK     0       2.513 -26.797 -11.832  0.00  0.00    -0.031 A 
HETATM   20  C   UNK     0       1.339 -27.341 -12.625  0.00  0.00     0.051 C 
HETATM   21  C   UNK     0       4.840 -26.904  -8.997  0.00  0.00     0.115 C 
HETATM   22  C   UNK     0       6.321 -26.612  -9.021  0.00  0.00     0.022 A 
HETATM   23  N   UNK     0       7.184 -26.777 -10.033  0.00  0.00    -0.361 N 
HETATM   24  C   UNK     0       8.371 -26.254  -9.667  0.00  0.00     0.021 A 
HETATM   25  C   UNK     0       8.274 -25.749  -8.384  0.00  0.00    -0.031 A 
HETATM   26  C   UNK     0       9.346 -25.103  -7.531  0.00  0.00     0.051 C 
HETATM   27  C   UNK     0       6.972 -25.967  -7.950  0.00  0.00    -0.027 A 
HETATM   28  C   UNK     0       9.628 -26.122 -10.509  0.00  0.00     0.115 C 
HETATM   29  H   UNK     0       7.991 -26.445 -12.938  0.00  0.00     0.165 HD
HETATM   30  H   UNK     0       5.857 -23.809 -12.847  0.00  0.00     0.165 HD
HETATM   31  H   UNK     0       4.926 -24.704 -10.976  0.00  0.00     0.165 HD
HETATM   32  H   UNK     0       6.974 -27.304 -11.000  0.00  0.00     0.165 HD
ENDROOT
BRANCH   6  33
HETATM   33  C   UNK     0      10.124 -22.279 -13.750  0.00  0.00     0.051 C 
BRANCH  33  34
HETATM   34  C   UNK     0       9.275 -21.133 -13.254  0.00  0.00     0.114 C 
BRANCH  34  35
HETATM   35  C   UNK     0      10.198 -20.029 -12.864  0.00  0.00     0.139 C 
HETATM   36  O   UNK     0      11.413 -20.275 -12.608  0.00  0.00    -0.650 OA
BRANCH  35  37
HETATM   37  O   UNK     0       9.785 -18.706 -12.766  0.00  0.00    -0.776 OA
HETATM   38  H   UNK     0      10.129 -18.091 -12.046  0.00  0.00     0.167 HD
ENDBRANCH  35  37
ENDBRANCH  34  35
ENDBRANCH  33  34
ENDBRANCH   6  33
BRANCH  27  39
HETATM   39  C   UNK     0       6.505 -25.619  -6.580  0.00  0.00     0.051 C 
BRANCH  39  40
HETATM   40  C   UNK     0       6.469 -26.677  -5.570  0.00  0.00     0.114 C 
BRANCH  40  41
HETATM   41  C   UNK     0       5.263 -27.415  -5.271  0.00  0.00     0.139 C 
HETATM   42  O   UNK     0       4.978 -28.501  -5.795  0.00  0.00    -0.650 OA
BRANCH  41  43
HETATM   43  O   UNK     0       4.342 -26.881  -4.326  0.00  0.00    -0.776 OA
HETATM   44  H   UNK     0       3.536 -27.468  -4.147  0.00  0.00     0.167 HD
ENDBRANCH  41  43
ENDBRANCH  40  41
ENDBRANCH  39  40
ENDBRANCH  27  39
BRANCH  11  45
HETATM   45  C   UNK     0       3.341 -25.799 -16.342  0.00  0.00     0.051 C 
BRANCH  45  46
HETATM   46  C   UNK     0       2.930 -27.167 -15.937  0.00  0.00     0.114 C 
BRANCH  46  47
HETATM   47  C   UNK     0       3.929 -28.115 -16.507  0.00  0.00     0.139 C 
HETATM   48  O   UNK     0       4.609 -28.798 -15.728  0.00  0.00    -0.650 OA
BRANCH  47  49
HETATM   49  O   UNK     0       4.095 -28.230 -17.864  0.00  0.00    -0.776 OA
HETATM   50  H   UNK     0       4.930 -28.662 -18.276  0.00  0.00     0.167 HD
ENDBRANCH  47  49
ENDBRANCH  46  47
ENDBRANCH  45  46
ENDBRANCH  11  45
BRANCH  18  51
HETATM   51  C   UNK     0       2.415 -28.595 -10.011  0.00  0.00     0.051 C 
BRANCH  51  52
HETATM   52  C   UNK     0       1.274 -28.122  -9.121  0.00  0.00     0.114 C 
BRANCH  52  53
HETATM   53  C   UNK     0       0.127 -29.049  -9.160  0.00  0.00     0.139 C 
HETATM   54  O   UNK     0       0.125 -30.003  -9.954  0.00  0.00    -0.650 OA
BRANCH  53  55
HETATM   55  O   UNK     0      -0.938 -28.847  -8.316  0.00  0.00    -0.776 OA
HETATM   56  H   UNK     0      -1.898 -28.897  -8.564  0.00  0.00     0.167 HD
ENDBRANCH  53  55
ENDBRANCH  52  53
ENDBRANCH  51  52
ENDBRANCH  18  51
TORSDOF 16
ENDMDL
MODEL 20
REMARK VINA RESULT:      -7.7      3.318     10.533
REMARK  16 active torsions:
REMARK  status: ('A' for Active; 'I' for Inactive)
REMARK    1  A    between atoms: C_6  and  C_7 
REMARK    2  A    between atoms: C_7  and  C_8 
REMARK    3  A    between atoms: C_8  and  C_9 
REMARK    4  A    between atoms: C_9  and  O_11 
REMARK    5  A    between atoms: C_16  and  C_17 
REMARK    6  A    between atoms: C_17  and  C_18 
REMARK    7  A    between atoms: C_18  and  C_19 
REMARK    8  A    between atoms: C_19  and  O_21 
REMARK    9  A    between atoms: C_28  and  C_29 
REMARK   10  A    between atoms: C_29  and  C_30 
REMARK   11  A    between atoms: C_30  and  C_31 
REMARK   12  A    between atoms: C_31  and  O_33 
REMARK   13  A    between atoms: C_42  and  C_43 
REMARK   14  A    between atoms: C_43  and  C_44 
REMARK   15  A    between atoms: C_44  and  C_45 
REMARK   16  A    between atoms: C_45  and  O_47 
ROOT
HETATM    1  C   UNK     0     -13.855  -5.154 -15.156  0.00  0.00     0.051 C 
HETATM    2  C   UNK     0     -14.760  -6.131 -14.433  0.00  0.00    -0.031 A 
HETATM    3  C   UNK     0     -16.124  -6.333 -14.570  0.00  0.00     0.021 A 
HETATM    4  N   UNK     0     -16.518  -7.290 -13.696  0.00  0.00    -0.361 N 
HETATM    5  C   UNK     0     -15.433  -7.708 -13.012  0.00  0.00     0.022 A 
HETATM    6  C   UNK     0     -14.316  -7.002 -13.447  0.00  0.00    -0.027 A 
HETATM    7  C   UNK     0     -15.308  -8.808 -12.004  0.00  0.00     0.115 C 
HETATM    8  C   UNK     0     -16.041 -10.101 -12.312  0.00  0.00     0.021 A 
HETATM    9  N   UNK     0     -16.238 -10.688 -13.503  0.00  0.00    -0.361 N 
HETATM   10  C   UNK     0     -17.020 -11.771 -13.313  0.00  0.00     0.022 A 
HETATM   11  C   UNK     0     -17.329 -11.891 -11.962  0.00  0.00    -0.027 A 
HETATM   12  C   UNK     0     -16.715 -10.842 -11.325  0.00  0.00    -0.031 A 
HETATM   13  C   UNK     0     -16.769 -10.569  -9.839  0.00  0.00     0.051 C 
HETATM   14  C   UNK     0     -17.550 -12.702 -14.400  0.00  0.00     0.115 C 
HETATM   15  C   UNK     0     -18.435 -12.011 -15.425  0.00  0.00     0.021 A 
HETATM   16  N   UNK     0     -18.114 -10.974 -16.222  0.00  0.00    -0.361 N 
HETATM   17  C   UNK     0     -19.188 -10.615 -16.928  0.00  0.00     0.022 A 
HETATM   18  C   UNK     0     -20.258 -11.463 -16.582  0.00  0.00    -0.027 A 
HETATM   19  C   UNK     0     -19.773 -12.334 -15.641  0.00  0.00    -0.031 A 
HETATM   20  C   UNK     0     -20.595 -13.449 -15.020  0.00  0.00     0.051 C 
HETATM   21  C   UNK     0     -19.373  -9.474 -17.903  0.00  0.00     0.115 C 
HETATM   22  C   UNK     0     -18.615  -8.195 -17.633  0.00  0.00     0.022 A 
HETATM   23  N   UNK     0     -18.400  -7.591 -16.457  0.00  0.00    -0.361 N 
HETATM   24  C   UNK     0     -17.555  -6.560 -16.659  0.00  0.00     0.021 A 
HETATM   25  C   UNK     0     -17.226  -6.493 -17.999  0.00  0.00    -0.031 A 
HETATM   26  C   UNK     0     -16.346  -5.489 -18.716  0.00  0.00     0.051 C 
HETATM   27  C   UNK     0     -17.892  -7.529 -18.643  0.00  0.00    -0.027 A 
HETATM   28  C   UNK     0     -16.948  -5.637 -15.616  0.00  0.00     0.115 C 
HETATM   29  H   UNK     0     -17.566  -7.635 -13.541  0.00  0.00     0.165 HD
HETATM   30  H   UNK     0     -15.784 -10.368 -14.473  0.00  0.00     0.165 HD
HETATM   31  H   UNK     0     -17.095 -10.517 -16.324  0.00  0.00     0.165 HD
HETATM   32  H   UNK     0     -18.878  -7.860 -15.479  0.00  0.00     0.165 HD
ENDROOT
BRANCH   6  33
HETATM   33  C   UNK     0     -12.879  -7.089 -12.999  0.00  0.00     0.051 C 
BRANCH  33  34
HETATM   34  C   UNK     0     -12.785  -7.675 -11.611  0.00  0.00     0.114 C 
BRANCH  34  35
HETATM   35  C   UNK     0     -12.737  -6.538 -10.648  0.00  0.00     0.139 C 
HETATM   36  O   UNK     0     -11.811  -6.469  -9.788  0.00  0.00    -0.650 OA
BRANCH  35  37
HETATM   37  O   UNK     0     -13.681  -5.519 -10.644  0.00  0.00    -0.776 OA
HETATM   38  H   UNK     0     -13.474  -4.599 -10.289  0.00  0.00     0.167 HD
ENDBRANCH  35  37
ENDBRANCH  34  35
ENDBRANCH  33  34
ENDBRANCH   6  33
BRANCH  27  39
HETATM   39  C   UNK     0     -17.838  -7.736 -20.116  0.00  0.00     0.051 C 
BRANCH  39  40
HETATM   40  C   UNK     0     -18.915  -7.180 -20.934  0.00  0.00     0.114 C 
BRANCH  40  41
HETATM   41  C   UNK     0     -18.704  -6.756 -22.300  0.00  0.00     0.139 C 
HETATM   42  O   UNK     0     -19.397  -5.898 -22.864  0.00  0.00    -0.650 OA
BRANCH  41  43
HETATM   43  O   UNK     0     -17.648  -7.344 -23.051  0.00  0.00    -0.776 OA
HETATM   44  H   UNK     0     -17.903  -7.612 -23.994  0.00  0.00     0.167 HD
ENDBRANCH  41  43
ENDBRANCH  40  41
ENDBRANCH  39  40
ENDBRANCH  27  39
BRANCH  11  45
HETATM   45  C   UNK     0     -18.161 -12.940 -11.275  0.00  0.00     0.051 C 
BRANCH  45  46
HETATM   46  C   UNK     0     -17.373 -14.067 -10.714  0.00  0.00     0.114 C 
BRANCH  46  47
HETATM   47  C   UNK     0     -17.720 -14.172  -9.268  0.00  0.00     0.139 C 
HETATM   48  O   UNK     0     -16.866 -13.853  -8.429  0.00  0.00    -0.650 OA
BRANCH  47  49
HETATM   49  O   UNK     0     -18.958 -14.613  -8.872  0.00  0.00    -0.776 OA
HETATM   50  H   UNK     0     -19.652 -13.984  -8.452  0.00  0.00     0.167 HD
ENDBRANCH  47  49
ENDBRANCH  46  47
ENDBRANCH  45  46
ENDBRANCH  11  45
BRANCH  18  51
HETATM   51  C   UNK     0     -21.660 -11.459 -17.133  0.00  0.00     0.051 C 
BRANCH  51  52
HETATM   52  C   UNK     0     -22.360 -10.260 -16.509  0.00  0.00     0.114 C 
BRANCH  52  53
HETATM   53  C   UNK     0     -22.809 -10.543 -15.132  0.00  0.00     0.139 C 
HETATM   54  O   UNK     0     -23.699 -11.384 -14.929  0.00  0.00    -0.650 OA
BRANCH  53  55
HETATM   55  O   UNK     0     -22.240  -9.867 -14.080  0.00  0.00    -0.776 OA
HETATM   56  H   UNK     0     -22.376 -10.066 -13.116  0.00  0.00     0.167 HD
ENDBRANCH  53  55
ENDBRANCH  52  53
ENDBRANCH  51  52
ENDBRANCH  18  51
TORSDOF 16
ENDMDL
