MODEL 1
REMARK VINA RESULT:     -10.0      0.000      0.000
REMARK  28 active torsions:
REMARK  status: ('A' for Active; 'I' for Inactive)
REMARK    1  A    between atoms: C_2  and  O_3 
REMARK    2  A    between atoms: C_2  and  C_4 
REMARK    3  A    between atoms: C_4  and  C_5 
REMARK    4  A    between atoms: C_5  and  C_6 
REMARK    5  A    between atoms: C_7  and  C_8 
REMARK    6  A    between atoms: C_8  and  C_9 
REMARK    7  A    between atoms: C_9  and  O_11 
REMARK    8  A    between atoms: C_28  and  C_29 
REMARK    9  A    between atoms: C_29  and  C_30 
REMARK   10  A    between atoms: C_30  and  O_32 
REMARK   11  A    between atoms: C_33  and  C_34 
REMARK   12  A    between atoms: C_34  and  C_35 
REMARK   13  A    between atoms: C_35  and  C_36 
REMARK   14  A    between atoms: C_36  and  O_38 
REMARK   15  A    between atoms: C_39  and  C_40 
REMARK   16  A    between atoms: C_40  and  C_41 
REMARK   17  A    between atoms: C_41  and  C_42 
REMARK   18  A    between atoms: C_42  and  O_44 
REMARK   19  A    between atoms: C_45  and  C_46 
REMARK   20  A    between atoms: C_46  and  C_47 
REMARK   21  A    between atoms: C_47  and  O_49 
REMARK   22  A    between atoms: C_50  and  C_51 
REMARK   23  A    between atoms: C_51  and  C_52 
REMARK   24  A    between atoms: C_52  and  O_54 
REMARK   25  A    between atoms: C_55  and  C_56 
REMARK   26  A    between atoms: C_56  and  C_57 
REMARK   27  A    between atoms: C_57  and  C_58 
REMARK   28  A    between atoms: C_58  and  O_60 
ROOT
ATOM      1  O   UNK d   0      -1.035   3.662  29.448  0.00  0.00    -0.650 OA
ATOM      2  C   UNK d   0      -0.864   2.549  28.902  0.00  0.00     0.139 C 
ENDROOT
BRANCH   2   3
ATOM      3  O   UNK d   0      -0.623   2.492  27.550  0.00  0.00    -0.776 OA
ATOM      4  H   UNK d   0       0.158   1.950  27.176  0.00  0.00     0.167 HD
ENDBRANCH   2   3
BRANCH   2   5
ATOM      5  C   UNK d   0      -0.923   1.300  29.714  0.00  0.00     0.115 C 
BRANCH   5   6
ATOM      6  C   UNK d   0      -0.117   0.215  29.054  0.00  0.00     0.052 C 
BRANCH   6   7
ATOM      7  C   UNK d   0      -0.926  -1.032  28.789  0.00  0.00    -0.020 A 
ATOM      8  C   UNK d   0      -0.583  -2.272  29.026  0.00  0.00    -0.011 A 
ATOM      9  C   UNK d   0      -1.678  -3.126  28.599  0.00  0.00     0.067 A 
ATOM     10  C   UNK d   0      -1.946  -4.504  28.598  0.00  0.00     0.062 C 
ATOM     11  N   UNK d   0      -2.645  -2.323  28.109  0.00  0.00    -0.248 NA
ATOM     12  C   UNK d   0      -3.183  -5.126  28.398  0.00  0.00     0.041 A 
ATOM     13  N   UNK d   0      -4.168  -4.878  27.513  0.00  0.00    -0.355 N 
ATOM     14  C   UNK d   0      -3.569  -6.168  29.261  0.00  0.00    -0.022 A 
ATOM     15  C   UNK d   0      -5.171  -5.729  27.799  0.00  0.00     0.042 A 
ATOM     16  H   UNK d   0      -4.147  -4.128  26.692  0.00  0.00     0.166 HD
ATOM     17  C   UNK d   0      -6.429  -5.896  27.186  0.00  0.00     0.062 C 
ATOM     18  C   UNK d   0      -4.832  -6.554  28.889  0.00  0.00    -0.013 A 
ATOM     19  C   UNK d   0      -7.329  -4.940  26.790  0.00  0.00     0.067 A 
ATOM     20  N   UNK d   0      -6.906  -3.674  26.792  0.00  0.00    -0.248 NA
ATOM     21  C   UNK d   0      -8.716  -4.927  26.354  0.00  0.00    -0.011 A 
ATOM     22  C   UNK d   0      -7.915  -2.833  26.389  0.00  0.00     0.066 A 
ATOM     23  C   UNK d   0      -7.599  -1.485  26.308  0.00  0.00     0.062 C 
ATOM     24  C   UNK d   0      -9.054  -3.691  26.124  0.00  0.00    -0.020 A 
ATOM     25  C   UNK d   0      -6.347  -0.882  26.501  0.00  0.00     0.041 A 
ATOM     26  N   UNK d   0      -5.375  -1.119  27.389  0.00  0.00    -0.355 N 
ATOM     27  C   UNK d   0      -5.959   0.161  25.631  0.00  0.00    -0.022 A 
ATOM     28  C   UNK d   0      -4.376  -0.265  27.112  0.00  0.00     0.042 A 
ATOM     29  H   UNK d   0      -5.402  -1.865  28.221  0.00  0.00     0.166 HD
ATOM     30  C   UNK d   0      -3.124  -0.082  27.719  0.00  0.00     0.062 C 
ATOM     31  C   UNK d   0      -4.714   0.556  26.010  0.00  0.00    -0.013 A 
ATOM     32  C   UNK d   0      -2.255  -1.051  28.195  0.00  0.00     0.066 A 
BRANCH   8  33
ATOM     33  C   UNK d   0       0.685  -2.742  29.615  0.00  0.00     0.151 C 
BRANCH  33  34
ATOM     34  C   UNK d   0       0.546  -3.134  31.030  0.00  0.00     0.143 C 
ATOM     35  O   UNK d   0      -0.050  -2.406  31.836  0.00  0.00    -0.650 OA
BRANCH  34  36
ATOM     36  O   UNK d   0       1.088  -4.324  31.457  0.00  0.00    -0.776 OA
ATOM     37  H   UNK d   0       1.377  -4.458  32.435  0.00  0.00     0.167 HD
ENDBRANCH  34  36
ENDBRANCH  33  34
ENDBRANCH   8  33
BRANCH  31  38
ATOM     38  C   UNK d   0      -3.885   1.639  25.359  0.00  0.00     0.151 C 
BRANCH  38  39
ATOM     39  C   UNK d   0      -4.010   2.918  26.026  0.00  0.00     0.143 C 
ATOM     40  O   UNK d   0      -3.363   3.202  27.049  0.00  0.00    -0.650 OA
BRANCH  39  41
ATOM     41  O   UNK d   0      -4.883   3.877  25.512  0.00  0.00    -0.776 OA
ATOM     42  H   UNK d   0      -4.478   4.785  25.265  0.00  0.00     0.167 HD
ENDBRANCH  39  41
ENDBRANCH  38  39
ENDBRANCH  31  38
BRANCH  27  43
ATOM     43  C   UNK d   0      -6.714   0.780  24.481  0.00  0.00     0.052 C 
BRANCH  43  44
ATOM     44  C   UNK d   0      -7.943   1.515  24.909  0.00  0.00     0.115 C 
BRANCH  44  45
ATOM     45  C   UNK d   0      -7.614   2.963  24.850  0.00  0.00     0.139 C 
ATOM     46  O   UNK d   0      -7.910   3.678  25.839  0.00  0.00    -0.650 OA
BRANCH  45  47
ATOM     47  O   UNK d   0      -6.996   3.545  23.765  0.00  0.00    -0.776 OA
ATOM     48  H   UNK d   0      -7.499   4.139  23.086  0.00  0.00     0.167 HD
ENDBRANCH  45  47
ENDBRANCH  44  45
ENDBRANCH  43  44
ENDBRANCH  27  43
BRANCH  24  49
ATOM     49  C   UNK d   0     -10.360  -3.226  25.627  0.00  0.00     0.052 C 
BRANCH  49  50
ATOM     50  C   UNK d   0     -11.145  -2.580  26.740  0.00  0.00     0.115 C 
BRANCH  50  51
ATOM     51  C   UNK d   0     -11.726  -3.462  27.743  0.00  0.00     0.139 C 
ATOM     52  O   UNK d   0     -12.340  -4.514  27.444  0.00  0.00    -0.650 OA
BRANCH  51  53
ATOM     53  O   UNK d   0     -11.610  -3.144  29.087  0.00  0.00    -0.776 OA
ATOM     54  H   UNK d   0     -11.232  -3.837  29.709  0.00  0.00     0.167 HD
ENDBRANCH  51  53
ENDBRANCH  50  51
ENDBRANCH  49  50
ENDBRANCH  24  49
BRANCH  21  55
ATOM     55  C   UNK d   0      -9.556  -6.152  26.207  0.00  0.00     0.151 C 
BRANCH  55  56
ATOM     56  C   UNK d   0      -9.392  -6.779  24.887  0.00  0.00     0.143 C 
ATOM     57  O   UNK d   0      -8.417  -7.502  24.599  0.00  0.00    -0.650 OA
BRANCH  56  58
ATOM     58  O   UNK d   0     -10.377  -6.544  23.929  0.00  0.00    -0.776 OA
ATOM     59  H   UNK d   0     -10.249  -5.677  23.375  0.00  0.00     0.167 HD
ENDBRANCH  56  58
ENDBRANCH  55  56
ENDBRANCH  21  55
BRANCH  18  60
ATOM     60  C   UNK d   0      -5.636  -7.643  29.556  0.00  0.00     0.151 C 
BRANCH  60  61
ATOM     61  C   UNK d   0      -5.441  -8.848  28.736  0.00  0.00     0.143 C 
ATOM     62  O   UNK d   0      -4.379  -9.428  28.509  0.00  0.00    -0.650 OA
BRANCH  61  63
ATOM     63  O   UNK d   0      -6.619  -9.380  28.158  0.00  0.00    -0.776 OA
ATOM     64  H   UNK d   0      -7.526  -9.046  28.430  0.00  0.00     0.167 HD
ENDBRANCH  61  63
ENDBRANCH  60  61
ENDBRANCH  18  60
BRANCH  14  65
ATOM     65  C   UNK d   0      -2.803  -6.885  30.336  0.00  0.00     0.052 C 
BRANCH  65  66
ATOM     66  C   UNK d   0      -2.972  -6.269  31.680  0.00  0.00     0.115 C 
BRANCH  66  67
ATOM     67  C   UNK d   0      -1.824  -5.776  32.387  0.00  0.00     0.139 C 
ATOM     68  O   UNK d   0      -0.742  -6.472  32.362  0.00  0.00    -0.650 OA
BRANCH  67  69
ATOM     69  O   UNK d   0      -1.718  -4.599  33.127  0.00  0.00    -0.776 OA
ATOM     70  H   UNK d   0      -1.062  -3.896  32.758  0.00  0.00     0.167 HD
ENDBRANCH  67  69
ENDBRANCH  66  67
ENDBRANCH  65  66
ENDBRANCH  14  65
ENDBRANCH   6   7
ENDBRANCH   5   6
ENDBRANCH   2   5
TORSDOF 28
ENDMDL
MODEL 2
REMARK VINA RESULT:      -9.8      1.084      1.463
REMARK  28 active torsions:
REMARK  status: ('A' for Active; 'I' for Inactive)
REMARK    1  A    between atoms: C_2  and  O_3 
REMARK    2  A    between atoms: C_2  and  C_4 
REMARK    3  A    between atoms: C_4  and  C_5 
REMARK    4  A    between atoms: C_5  and  C_6 
REMARK    5  A    between atoms: C_7  and  C_8 
REMARK    6  A    between atoms: C_8  and  C_9 
REMARK    7  A    between atoms: C_9  and  O_11 
REMARK    8  A    between atoms: C_28  and  C_29 
REMARK    9  A    between atoms: C_29  and  C_30 
REMARK   10  A    between atoms: C_30  and  O_32 
REMARK   11  A    between atoms: C_33  and  C_34 
REMARK   12  A    between atoms: C_34  and  C_35 
REMARK   13  A    between atoms: C_35  and  C_36 
REMARK   14  A    between atoms: C_36  and  O_38 
REMARK   15  A    between atoms: C_39  and  C_40 
REMARK   16  A    between atoms: C_40  and  C_41 
REMARK   17  A    between atoms: C_41  and  C_42 
REMARK   18  A    between atoms: C_42  and  O_44 
REMARK   19  A    between atoms: C_45  and  C_46 
REMARK   20  A    between atoms: C_46  and  C_47 
REMARK   21  A    between atoms: C_47  and  O_49 
REMARK   22  A    between atoms: C_50  and  C_51 
REMARK   23  A    between atoms: C_51  and  C_52 
REMARK   24  A    between atoms: C_52  and  O_54 
REMARK   25  A    between atoms: C_55  and  C_56 
REMARK   26  A    between atoms: C_56  and  C_57 
REMARK   27  A    between atoms: C_57  and  C_58 
REMARK   28  A    between atoms: C_58  and  O_60 
ROOT
ATOM      1  O   UNK d   0      -1.290   2.657  29.587  0.00  0.00    -0.650 OA
ATOM      2  C   UNK d   0      -0.316   2.588  28.805  0.00  0.00     0.139 C 
ENDROOT
BRANCH   2   3
ATOM      3  O   UNK d   0       0.492   3.687  28.637  0.00  0.00    -0.776 OA
ATOM      4  H   UNK d   0       1.325   3.644  28.047  0.00  0.00     0.167 HD
ENDBRANCH   2   3
BRANCH   2   5
ATOM      5  C   UNK d   0      -0.040   1.325  28.063  0.00  0.00     0.115 C 
BRANCH   5   6
ATOM      6  C   UNK d   0       0.268   0.214  29.030  0.00  0.00     0.052 C 
BRANCH   6   7
ATOM      7  C   UNK d   0      -0.571  -1.018  28.785  0.00  0.00    -0.020 A 
ATOM      8  C   UNK d   0      -0.233  -2.266  28.985  0.00  0.00    -0.011 A 
ATOM      9  C   UNK d   0      -1.359  -3.099  28.598  0.00  0.00     0.067 A 
ATOM     10  C   UNK d   0      -1.645  -4.473  28.587  0.00  0.00     0.062 C 
ATOM     11  N   UNK d   0      -2.339  -2.275  28.170  0.00  0.00    -0.248 NA
ATOM     12  C   UNK d   0      -2.899  -5.076  28.439  0.00  0.00     0.041 A 
ATOM     13  N   UNK d   0      -3.923  -4.800  27.609  0.00  0.00    -0.355 N 
ATOM     14  C   UNK d   0      -3.255  -6.128  29.302  0.00  0.00    -0.022 A 
ATOM     15  C   UNK d   0      -4.922  -5.644  27.929  0.00  0.00     0.042 A 
ATOM     16  H   UNK d   0      -3.932  -4.037  26.800  0.00  0.00     0.166 HD
ATOM     17  C   UNK d   0      -6.211  -5.785  27.377  0.00  0.00     0.062 C 
ATOM     18  C   UNK d   0      -4.541  -6.492  28.987  0.00  0.00    -0.013 A 
ATOM     19  C   UNK d   0      -7.117  -4.810  27.043  0.00  0.00     0.067 A 
ATOM     20  N   UNK d   0      -6.677  -3.549  27.044  0.00  0.00    -0.248 NA
ATOM     21  C   UNK d   0      -8.523  -4.773  26.676  0.00  0.00    -0.011 A 
ATOM     22  C   UNK d   0      -7.694  -2.690  26.707  0.00  0.00     0.066 A 
ATOM     23  C   UNK d   0      -7.364  -1.345  26.633  0.00  0.00     0.062 C 
ATOM     24  C   UNK d   0      -8.855  -3.529  26.485  0.00  0.00    -0.020 A 
ATOM     25  C   UNK d   0      -6.096  -0.760  26.773  0.00  0.00     0.041 A 
ATOM     26  N   UNK d   0      -5.084  -1.025  27.607  0.00  0.00    -0.355 N 
ATOM     27  C   UNK d   0      -5.738   0.292  25.902  0.00  0.00    -0.022 A 
ATOM     28  C   UNK d   0      -4.089  -0.179  27.296  0.00  0.00     0.042 A 
ATOM     29  H   UNK d   0      -5.080  -1.785  28.427  0.00  0.00     0.166 HD
ATOM     30  C   UNK d   0      -2.806  -0.022  27.842  0.00  0.00     0.062 C 
ATOM     31  C   UNK d   0      -4.469   0.665  26.226  0.00  0.00    -0.013 A 
ATOM     32  C   UNK d   0      -1.927  -1.010  28.258  0.00  0.00     0.066 A 
BRANCH   8  33
ATOM     33  C   UNK d   0       1.056  -2.762  29.502  0.00  0.00     0.151 C 
BRANCH  33  34
ATOM     34  C   UNK d   0       0.991  -3.144  30.924  0.00  0.00     0.143 C 
ATOM     35  O   UNK d   0       1.845  -3.891  31.422  0.00  0.00    -0.650 OA
BRANCH  34  36
ATOM     36  O   UNK d   0      -0.034  -2.664  31.706  0.00  0.00    -0.776 OA
ATOM     37  H   UNK d   0      -0.895  -2.288  31.287  0.00  0.00     0.167 HD
ENDBRANCH  34  36
ENDBRANCH  33  34
ENDBRANCH   8  33
BRANCH  31  38
ATOM     38  C   UNK d   0      -3.660   1.749  25.553  0.00  0.00     0.151 C 
BRANCH  38  39
ATOM     39  C   UNK d   0      -3.814   3.041  26.187  0.00  0.00     0.143 C 
ATOM     40  O   UNK d   0      -4.564   3.922  25.731  0.00  0.00    -0.650 OA
BRANCH  39  41
ATOM     41  O   UNK d   0      -3.101   3.322  27.353  0.00  0.00    -0.776 OA
ATOM     42  H   UNK d   0      -2.506   2.574  27.722  0.00  0.00     0.167 HD
ENDBRANCH  39  41
ENDBRANCH  38  39
ENDBRANCH  31  38
BRANCH  27  43
ATOM     43  C   UNK d   0      -6.540   0.941  24.802  0.00  0.00     0.052 C 
BRANCH  43  44
ATOM     44  C   UNK d   0      -7.714   1.716  25.305  0.00  0.00     0.115 C 
BRANCH  44  45
ATOM     45  C   UNK d   0      -7.525   3.117  24.848  0.00  0.00     0.139 C 
ATOM     46  O   UNK d   0      -8.181   4.021  25.423  0.00  0.00    -0.650 OA
BRANCH  45  47
ATOM     47  O   UNK d   0      -6.662   3.461  23.830  0.00  0.00    -0.776 OA
ATOM     48  H   UNK d   0      -6.988   3.779  22.903  0.00  0.00     0.167 HD
ENDBRANCH  45  47
ENDBRANCH  44  45
ENDBRANCH  43  44
ENDBRANCH  27  43
BRANCH  24  49
ATOM     49  C   UNK d   0     -10.178  -3.038  26.061  0.00  0.00     0.052 C 
BRANCH  49  50
ATOM     50  C   UNK d   0     -10.174  -2.725  24.587  0.00  0.00     0.115 C 
BRANCH  50  51
ATOM     51  C   UNK d   0     -10.799  -1.476  24.171  0.00  0.00     0.139 C 
ATOM     52  O   UNK d   0     -12.040  -1.302  24.189  0.00  0.00    -0.650 OA
BRANCH  51  53
ATOM     53  O   UNK d   0     -10.007  -0.426  23.732  0.00  0.00    -0.776 OA
ATOM     54  H   UNK d   0      -9.012  -0.497  23.853  0.00  0.00     0.167 HD
ENDBRANCH  51  53
ENDBRANCH  50  51
ENDBRANCH  49  50
ENDBRANCH  24  49
BRANCH  21  55
ATOM     55  C   UNK d   0      -9.386  -5.984  26.551  0.00  0.00     0.151 C 
BRANCH  55  56
ATOM     56  C   UNK d   0      -9.295  -6.591  25.214  0.00  0.00     0.143 C 
ATOM     57  O   UNK d   0      -8.353  -7.333  24.873  0.00  0.00    -0.650 OA
BRANCH  56  58
ATOM     58  O   UNK d   0     -10.313  -6.312  24.304  0.00  0.00    -0.776 OA
ATOM     59  H   UNK d   0     -10.728  -5.367  24.389  0.00  0.00     0.167 HD
ENDBRANCH  56  58
ENDBRANCH  55  56
ENDBRANCH  21  55
BRANCH  18  60
ATOM     60  C   UNK d   0      -5.324  -7.582  29.675  0.00  0.00     0.151 C 
BRANCH  60  61
ATOM     61  C   UNK d   0      -5.206  -8.769  28.815  0.00  0.00     0.143 C 
ATOM     62  O   UNK d   0      -4.181  -9.402  28.560  0.00  0.00    -0.650 OA
BRANCH  61  63
ATOM     63  O   UNK d   0      -6.417  -9.211  28.229  0.00  0.00    -0.776 OA
ATOM     64  H   UNK d   0      -7.303  -8.850  28.535  0.00  0.00     0.167 HD
ENDBRANCH  61  63
ENDBRANCH  60  61
ENDBRANCH  18  60
BRANCH  14  65
ATOM     65  C   UNK d   0      -2.446  -6.873  30.326  0.00  0.00     0.052 C 
BRANCH  65  66
ATOM     66  C   UNK d   0      -2.754  -6.461  31.722  0.00  0.00     0.115 C 
BRANCH  66  67
ATOM     67  C   UNK d   0      -2.134  -5.288  32.271  0.00  0.00     0.139 C 
ATOM     68  O   UNK d   0      -2.600  -4.136  31.940  0.00  0.00    -0.650 OA
BRANCH  67  69
ATOM     69  O   UNK d   0      -1.052  -5.226  33.148  0.00  0.00    -0.776 OA
ATOM     70  H   UNK d   0      -0.743  -6.126  33.543  0.00  0.00     0.167 HD
ENDBRANCH  67  69
ENDBRANCH  66  67
ENDBRANCH  65  66
ENDBRANCH  14  65
ENDBRANCH   6   7
ENDBRANCH   5   6
ENDBRANCH   2   5
TORSDOF 28
ENDMDL
MODEL 3
REMARK VINA RESULT:      -9.8      1.838      7.281
REMARK  28 active torsions:
REMARK  status: ('A' for Active; 'I' for Inactive)
REMARK    1  A    between atoms: C_2  and  O_3 
REMARK    2  A    between atoms: C_2  and  C_4 
REMARK    3  A    between atoms: C_4  and  C_5 
REMARK    4  A    between atoms: C_5  and  C_6 
REMARK    5  A    between atoms: C_7  and  C_8 
REMARK    6  A    between atoms: C_8  and  C_9 
REMARK    7  A    between atoms: C_9  and  O_11 
REMARK    8  A    between atoms: C_28  and  C_29 
REMARK    9  A    between atoms: C_29  and  C_30 
REMARK   10  A    between atoms: C_30  and  O_32 
REMARK   11  A    between atoms: C_33  and  C_34 
REMARK   12  A    between atoms: C_34  and  C_35 
REMARK   13  A    between atoms: C_35  and  C_36 
REMARK   14  A    between atoms: C_36  and  O_38 
REMARK   15  A    between atoms: C_39  and  C_40 
REMARK   16  A    between atoms: C_40  and  C_41 
REMARK   17  A    between atoms: C_41  and  C_42 
REMARK   18  A    between atoms: C_42  and  O_44 
REMARK   19  A    between atoms: C_45  and  C_46 
REMARK   20  A    between atoms: C_46  and  C_47 
REMARK   21  A    between atoms: C_47  and  O_49 
REMARK   22  A    between atoms: C_50  and  C_51 
REMARK   23  A    between atoms: C_51  and  C_52 
REMARK   24  A    between atoms: C_52  and  O_54 
REMARK   25  A    between atoms: C_55  and  C_56 
REMARK   26  A    between atoms: C_56  and  C_57 
REMARK   27  A    between atoms: C_57  and  C_58 
REMARK   28  A    between atoms: C_58  and  O_60 
ROOT
ATOM      1  O   UNK d   0       1.526  -4.006  33.178  0.00  0.00    -0.650 OA
ATOM      2  C   UNK d   0       0.692  -4.757  32.626  0.00  0.00     0.139 C 
ENDROOT
BRANCH   2   3
ATOM      3  O   UNK d   0      -0.581  -4.839  33.137  0.00  0.00    -0.776 OA
ATOM      4  H   UNK d   0      -1.051  -5.741  33.240  0.00  0.00     0.167 HD
ENDBRANCH   2   3
BRANCH   2   5
ATOM      5  C   UNK d   0       1.079  -5.554  31.428  0.00  0.00     0.115 C 
BRANCH   5   6
ATOM      6  C   UNK d   0       1.446  -4.637  30.293  0.00  0.00     0.052 C 
BRANCH   6   7
ATOM      7  C   UNK d   0       0.289  -3.776  29.844  0.00  0.00    -0.020 A 
ATOM      8  C   UNK d   0       0.234  -2.470  29.808  0.00  0.00    -0.011 A 
ATOM      9  C   UNK d   0      -1.081  -2.094  29.315  0.00  0.00     0.067 A 
ATOM     10  C   UNK d   0      -1.750  -0.893  29.030  0.00  0.00     0.062 C 
ATOM     11  N   UNK d   0      -1.763  -3.235  29.082  0.00  0.00    -0.248 NA
ATOM     12  C   UNK d   0      -2.929  -0.735  28.293  0.00  0.00     0.041 A 
ATOM     13  N   UNK d   0      -4.077  -1.439  28.294  0.00  0.00    -0.355 N 
ATOM     14  C   UNK d   0      -2.992   0.280  27.320  0.00  0.00    -0.022 A 
ATOM     15  C   UNK d   0      -4.863  -0.902  27.342  0.00  0.00     0.042 A 
ATOM     16  H   UNK d   0      -4.333  -2.286  28.968  0.00  0.00     0.166 HD
ATOM     17  C   UNK d   0      -6.164  -1.252  26.928  0.00  0.00     0.062 C 
ATOM     18  C   UNK d   0      -4.217   0.177  26.709  0.00  0.00    -0.013 A 
ATOM     19  C   UNK d   0      -6.685  -2.497  26.682  0.00  0.00     0.067 A 
ATOM     20  N   UNK d   0      -5.952  -3.546  27.064  0.00  0.00    -0.248 NA
ATOM     21  C   UNK d   0      -7.892  -3.021  26.066  0.00  0.00    -0.011 A 
ATOM     22  C   UNK d   0      -6.591  -4.718  26.741  0.00  0.00     0.066 A 
ATOM     23  C   UNK d   0      -5.954  -5.891  27.117  0.00  0.00     0.062 C 
ATOM     24  C   UNK d   0      -7.829  -4.321  26.100  0.00  0.00    -0.020 A 
ATOM     25  C   UNK d   0      -4.777  -6.029  27.868  0.00  0.00     0.041 A 
ATOM     26  N   UNK d   0      -3.631  -5.338  27.857  0.00  0.00    -0.355 N 
ATOM     27  C   UNK d   0      -4.716  -7.044  28.848  0.00  0.00    -0.022 A 
ATOM     28  C   UNK d   0      -2.841  -5.877  28.799  0.00  0.00     0.042 A 
ATOM     29  H   UNK d   0      -3.370  -4.494  27.172  0.00  0.00     0.166 HD
ATOM     30  C   UNK d   0      -1.542  -5.545  29.216  0.00  0.00     0.062 C 
ATOM     31  C   UNK d   0      -3.495  -6.955  29.442  0.00  0.00    -0.013 A 
ATOM     32  C   UNK d   0      -0.994  -4.283  29.380  0.00  0.00     0.066 A 
BRANCH   8  33
ATOM     33  C   UNK d   0       1.299  -1.527  30.197  0.00  0.00     0.151 C 
BRANCH  33  34
ATOM     34  C   UNK d   0       1.005  -0.823  31.458  0.00  0.00     0.143 C 
ATOM     35  O   UNK d   0       0.303   0.198  31.468  0.00  0.00    -0.650 OA
BRANCH  34  36
ATOM     36  O   UNK d   0       1.520  -1.308  32.639  0.00  0.00    -0.776 OA
ATOM     37  H   UNK d   0       0.931  -1.824  33.306  0.00  0.00     0.167 HD
ENDBRANCH  34  36
ENDBRANCH  33  34
ENDBRANCH   8  33
BRANCH  31  38
ATOM     38  C   UNK d   0      -2.982  -7.831  30.561  0.00  0.00     0.151 C 
BRANCH  38  39
ATOM     39  C   UNK d   0      -2.766  -7.099  31.792  0.00  0.00     0.143 C 
ATOM     40  O   UNK d   0      -1.947  -7.471  32.651  0.00  0.00    -0.650 OA
BRANCH  39  41
ATOM     41  O   UNK d   0      -3.493  -5.935  32.035  0.00  0.00    -0.776 OA
ATOM     42  H   UNK d   0      -4.305  -5.764  31.434  0.00  0.00     0.167 HD
ENDBRANCH  39  41
ENDBRANCH  38  39
ENDBRANCH  31  38
BRANCH  27  43
ATOM     43  C   UNK d   0      -5.752  -8.073  29.227  0.00  0.00     0.052 C 
BRANCH  43  44
ATOM     44  C   UNK d   0      -5.539  -9.397  28.569  0.00  0.00     0.115 C 
BRANCH  44  45
ATOM     45  C   UNK d   0      -6.770  -9.686  27.788  0.00  0.00     0.139 C 
ATOM     46  O   UNK d   0      -7.242  -8.772  27.068  0.00  0.00    -0.650 OA
BRANCH  45  47
ATOM     47  O   UNK d   0      -7.405 -10.909  27.820  0.00  0.00    -0.776 OA
ATOM     48  H   UNK d   0      -6.907 -11.803  27.679  0.00  0.00     0.167 HD
ENDBRANCH  45  47
ENDBRANCH  44  45
ENDBRANCH  43  44
ENDBRANCH  27  43
BRANCH  24  49
ATOM     49  C   UNK d   0      -8.862  -5.253  25.617  0.00  0.00     0.052 C 
BRANCH  49  50
ATOM     50  C   UNK d   0      -9.812  -5.608  26.732  0.00  0.00     0.115 C 
BRANCH  50  51
ATOM     51  C   UNK d   0     -11.236  -5.574  26.429  0.00  0.00     0.139 C 
ATOM     52  O   UNK d   0     -12.082  -6.233  27.079  0.00  0.00    -0.650 OA
BRANCH  51  53
ATOM     53  O   UNK d   0     -11.696  -4.792  25.381  0.00  0.00    -0.776 OA
ATOM     54  H   UNK d   0     -11.441  -3.820  25.366  0.00  0.00     0.167 HD
ENDBRANCH  51  53
ENDBRANCH  50  51
ENDBRANCH  49  50
ENDBRANCH  24  49
BRANCH  21  55
ATOM     55  C   UNK d   0      -8.985  -2.168  25.512  0.00  0.00     0.151 C 
BRANCH  55  56
ATOM     56  C   UNK d   0     -10.059  -1.943  26.491  0.00  0.00     0.143 C 
ATOM     57  O   UNK d   0     -11.268  -1.977  26.187  0.00  0.00    -0.650 OA
BRANCH  56  58
ATOM     58  O   UNK d   0      -9.691  -1.683  27.810  0.00  0.00    -0.776 OA
ATOM     59  H   UNK d   0      -8.730  -1.976  28.061  0.00  0.00     0.167 HD
ENDBRANCH  56  58
ENDBRANCH  55  56
ENDBRANCH  21  55
BRANCH  18  60
ATOM     60  C   UNK d   0      -4.704   1.069  25.594  0.00  0.00     0.151 C 
BRANCH  60  61
ATOM     61  C   UNK d   0      -4.995   0.176  24.462  0.00  0.00     0.143 C 
ATOM     62  O   UNK d   0      -6.014   0.164  23.770  0.00  0.00    -0.650 OA
BRANCH  61  63
ATOM     63  O   UNK d   0      -3.978  -0.759  24.155  0.00  0.00    -0.776 OA
ATOM     64  H   UNK d   0      -3.188  -0.884  24.763  0.00  0.00     0.167 HD
ENDBRANCH  61  63
ENDBRANCH  60  61
ENDBRANCH  18  60
BRANCH  14  65
ATOM     65  C   UNK d   0      -2.031   1.388  26.995  0.00  0.00     0.052 C 
BRANCH  65  66
ATOM     66  C   UNK d   0      -2.138   2.542  27.928  0.00  0.00     0.115 C 
BRANCH  66  67
ATOM     67  C   UNK d   0      -1.190   2.683  28.997  0.00  0.00     0.139 C 
ATOM     68  O   UNK d   0      -0.023   3.149  28.725  0.00  0.00    -0.650 OA
BRANCH  67  69
ATOM     69  O   UNK d   0      -1.371   2.371  30.344  0.00  0.00    -0.776 OA
ATOM     70  H   UNK d   0      -2.332   2.468  30.702  0.00  0.00     0.167 HD
ENDBRANCH  67  69
ENDBRANCH  66  67
ENDBRANCH  65  66
ENDBRANCH  14  65
ENDBRANCH   6   7
ENDBRANCH   5   6
ENDBRANCH   2   5
TORSDOF 28
ENDMDL
MODEL 4
REMARK VINA RESULT:      -9.8      1.703      7.707
REMARK  28 active torsions:
REMARK  status: ('A' for Active; 'I' for Inactive)
REMARK    1  A    between atoms: C_2  and  O_3 
REMARK    2  A    between atoms: C_2  and  C_4 
REMARK    3  A    between atoms: C_4  and  C_5 
REMARK    4  A    between atoms: C_5  and  C_6 
REMARK    5  A    between atoms: C_7  and  C_8 
REMARK    6  A    between atoms: C_8  and  C_9 
REMARK    7  A    between atoms: C_9  and  O_11 
REMARK    8  A    between atoms: C_28  and  C_29 
REMARK    9  A    between atoms: C_29  and  C_30 
REMARK   10  A    between atoms: C_30  and  O_32 
REMARK   11  A    between atoms: C_33  and  C_34 
REMARK   12  A    between atoms: C_34  and  C_35 
REMARK   13  A    between atoms: C_35  and  C_36 
REMARK   14  A    between atoms: C_36  and  O_38 
REMARK   15  A    between atoms: C_39  and  C_40 
REMARK   16  A    between atoms: C_40  and  C_41 
REMARK   17  A    between atoms: C_41  and  C_42 
REMARK   18  A    between atoms: C_42  and  O_44 
REMARK   19  A    between atoms: C_45  and  C_46 
REMARK   20  A    between atoms: C_46  and  C_47 
REMARK   21  A    between atoms: C_47  and  O_49 
REMARK   22  A    between atoms: C_50  and  C_51 
REMARK   23  A    between atoms: C_51  and  C_52 
REMARK   24  A    between atoms: C_52  and  O_54 
REMARK   25  A    between atoms: C_55  and  C_56 
REMARK   26  A    between atoms: C_56  and  C_57 
REMARK   27  A    between atoms: C_57  and  C_58 
REMARK   28  A    between atoms: C_58  and  O_60 
ROOT
ATOM      1  O   UNK d   0       1.897  -2.677  30.764  0.00  0.00    -0.650 OA
ATOM      2  C   UNK d   0       1.558  -1.672  31.428  0.00  0.00     0.139 C 
ENDROOT
BRANCH   2   3
ATOM      3  O   UNK d   0       1.505  -1.756  32.798  0.00  0.00    -0.776 OA
ATOM      4  H   UNK d   0       0.908  -1.130  33.342  0.00  0.00     0.167 HD
ENDBRANCH   2   3
BRANCH   2   5
ATOM      5  C   UNK d   0       1.216  -0.398  30.734  0.00  0.00     0.115 C 
BRANCH   5   6
ATOM      6  C   UNK d   0       1.157  -0.618  29.247  0.00  0.00     0.052 C 
BRANCH   6   7
ATOM      7  C   UNK d   0      -0.255  -0.596  28.712  0.00  0.00    -0.020 A 
ATOM      8  C   UNK d   0      -0.888   0.413  28.171  0.00  0.00    -0.011 A 
ATOM      9  C   UNK d   0      -2.223  -0.038  27.816  0.00  0.00     0.067 A 
ATOM     10  C   UNK d   0      -3.354   0.526  27.205  0.00  0.00     0.062 C 
ATOM     11  N   UNK d   0      -2.319  -1.334  28.183  0.00  0.00    -0.248 NA
ATOM     12  C   UNK d   0      -4.466  -0.150  26.692  0.00  0.00     0.041 A 
ATOM     13  N   UNK d   0      -5.178  -1.184  27.181  0.00  0.00    -0.355 N 
ATOM     14  C   UNK d   0      -4.960   0.214  25.426  0.00  0.00    -0.022 A 
ATOM     15  C   UNK d   0      -6.105  -1.490  26.254  0.00  0.00     0.042 A 
ATOM     16  H   UNK d   0      -5.040  -1.674  28.169  0.00  0.00     0.166 HD
ATOM     17  C   UNK d   0      -7.105  -2.483  26.255  0.00  0.00     0.062 C 
ATOM     18  C   UNK d   0      -5.999  -0.636  25.139  0.00  0.00    -0.013 A 
ATOM     19  C   UNK d   0      -7.010  -3.801  26.622  0.00  0.00     0.067 A 
ATOM     20  N   UNK d   0      -5.892  -4.176  27.249  0.00  0.00    -0.248 NA
ATOM     21  C   UNK d   0      -7.845  -4.984  26.494  0.00  0.00    -0.011 A 
ATOM     22  C   UNK d   0      -5.934  -5.518  27.539  0.00  0.00     0.066 A 
ATOM     23  C   UNK d   0      -4.847  -6.034  28.227  0.00  0.00     0.062 C 
ATOM     24  C   UNK d   0      -7.208  -5.986  27.029  0.00  0.00    -0.020 A 
ATOM     25  C   UNK d   0      -3.745  -5.336  28.744  0.00  0.00     0.041 A 
ATOM     26  N   UNK d   0      -3.028  -4.318  28.252  0.00  0.00    -0.355 N 
ATOM     27  C   UNK d   0      -3.253  -5.698  30.017  0.00  0.00    -0.022 A 
ATOM     28  C   UNK d   0      -2.097  -4.016  29.171  0.00  0.00     0.042 A 
ATOM     29  H   UNK d   0      -3.161  -3.833  27.254  0.00  0.00     0.166 HD
ATOM     30  C   UNK d   0      -1.091  -3.037  29.179  0.00  0.00     0.062 C 
ATOM     31  C   UNK d   0      -2.211  -4.868  30.295  0.00  0.00    -0.013 A 
ATOM     32  C   UNK d   0      -1.168  -1.729  28.727  0.00  0.00     0.066 A 
BRANCH   8  33
ATOM     33  C   UNK d   0      -0.363   1.774  27.954  0.00  0.00     0.151 C 
BRANCH  33  34
ATOM     34  C   UNK d   0      -0.661   2.685  29.074  0.00  0.00     0.143 C 
ATOM     35  O   UNK d   0      -1.410   2.335  29.997  0.00  0.00    -0.650 OA
BRANCH  34  36
ATOM     36  O   UNK d   0      -0.099   3.941  29.091  0.00  0.00    -0.776 OA
ATOM     37  H   UNK d   0      -0.676   4.785  28.973  0.00  0.00     0.167 HD
ENDBRANCH  34  36
ENDBRANCH  33  34
ENDBRANCH   8  33
BRANCH  31  38
ATOM     38  C   UNK d   0      -1.380  -4.873  31.557  0.00  0.00     0.151 C 
BRANCH  38  39
ATOM     39  C   UNK d   0      -1.949  -4.055  32.607  0.00  0.00     0.143 C 
ATOM     40  O   UNK d   0      -3.162  -4.070  32.880  0.00  0.00    -0.650 OA
BRANCH  39  41
ATOM     41  O   UNK d   0      -1.118  -3.214  33.348  0.00  0.00    -0.776 OA
ATOM     42  H   UNK d   0      -0.551  -3.654  34.080  0.00  0.00     0.167 HD
ENDBRANCH  39  41
ENDBRANCH  38  39
ENDBRANCH  31  38
BRANCH  27  43
ATOM     43  C   UNK d   0      -3.726  -6.781  30.955  0.00  0.00     0.052 C 
BRANCH  43  44
ATOM     44  C   UNK d   0      -3.088  -8.107  30.695  0.00  0.00     0.115 C 
BRANCH  44  45
ATOM     45  C   UNK d   0      -2.069  -8.304  31.758  0.00  0.00     0.139 C 
ATOM     46  O   UNK d   0      -2.464  -8.393  32.947  0.00  0.00    -0.650 OA
BRANCH  45  47
ATOM     47  O   UNK d   0      -0.720  -8.396  31.492  0.00  0.00    -0.776 OA
ATOM     48  H   UNK d   0       0.006  -8.138  32.180  0.00  0.00     0.167 HD
ENDBRANCH  45  47
ENDBRANCH  44  45
ENDBRANCH  43  44
ENDBRANCH  27  43
BRANCH  24  49
ATOM     49  C   UNK d   0      -7.707  -7.366  27.151  0.00  0.00     0.052 C 
BRANCH  49  50
ATOM     50  C   UNK d   0      -7.998  -7.941  25.788  0.00  0.00     0.115 C 
BRANCH  50  51
ATOM     51  C   UNK d   0      -9.176  -8.788  25.662  0.00  0.00     0.139 C 
ATOM     52  O   UNK d   0      -9.117  -9.974  25.258  0.00  0.00    -0.650 OA
BRANCH  51  53
ATOM     53  O   UNK d   0     -10.424  -8.283  25.995  0.00  0.00    -0.776 OA
ATOM     54  H   UNK d   0     -10.697  -8.291  26.962  0.00  0.00     0.167 HD
ENDBRANCH  51  53
ENDBRANCH  50  51
ENDBRANCH  49  50
ENDBRANCH  24  49
BRANCH  21  55
ATOM     55  C   UNK d   0      -9.194  -4.988  25.855  0.00  0.00     0.151 C 
BRANCH  55  56
ATOM     56  C   UNK d   0     -10.264  -4.701  26.823  0.00  0.00     0.143 C 
ATOM     57  O   UNK d   0     -10.637  -3.542  27.093  0.00  0.00    -0.650 OA
BRANCH  56  58
ATOM     58  O   UNK d   0     -10.875  -5.783  27.456  0.00  0.00    -0.776 OA
ATOM     59  H   UNK d   0     -11.837  -5.604  27.794  0.00  0.00     0.167 HD
ENDBRANCH  56  58
ENDBRANCH  55  56
ENDBRANCH  21  55
BRANCH  18  60
ATOM     60  C   UNK d   0      -6.815  -0.606  23.870  0.00  0.00     0.151 C 
BRANCH  60  61
ATOM     61  C   UNK d   0      -8.026   0.167  24.186  0.00  0.00     0.143 C 
ATOM     62  O   UNK d   0      -8.139   1.055  25.031  0.00  0.00    -0.650 OA
BRANCH  61  63
ATOM     63  O   UNK d   0      -9.170  -0.167  23.422  0.00  0.00    -0.776 OA
ATOM     64  H   UNK d   0      -9.340  -1.112  23.129  0.00  0.00     0.167 HD
ENDBRANCH  61  63
ENDBRANCH  60  61
ENDBRANCH  18  60
BRANCH  14  65
ATOM     65  C   UNK d   0      -4.591   1.354  24.520  0.00  0.00     0.052 C 
BRANCH  65  66
ATOM     66  C   UNK d   0      -4.697   2.681  25.183  0.00  0.00     0.115 C 
BRANCH  66  67
ATOM     67  C   UNK d   0      -5.862   3.493  24.968  0.00  0.00     0.139 C 
ATOM     68  O   UNK d   0      -6.158   4.386  25.844  0.00  0.00    -0.650 OA
BRANCH  67  69
ATOM     69  O   UNK d   0      -6.751   3.442  23.895  0.00  0.00    -0.776 OA
ATOM     70  H   UNK d   0      -6.886   4.325  23.382  0.00  0.00     0.167 HD
ENDBRANCH  67  69
ENDBRANCH  66  67
ENDBRANCH  65  66
ENDBRANCH  14  65
ENDBRANCH   6   7
ENDBRANCH   5   6
ENDBRANCH   2   5
TORSDOF 28
ENDMDL
MODEL 5
REMARK VINA RESULT:      -9.7      1.143      1.650
REMARK  28 active torsions:
REMARK  status: ('A' for Active; 'I' for Inactive)
REMARK    1  A    between atoms: C_2  and  O_3 
REMARK    2  A    between atoms: C_2  and  C_4 
REMARK    3  A    between atoms: C_4  and  C_5 
REMARK    4  A    between atoms: C_5  and  C_6 
REMARK    5  A    between atoms: C_7  and  C_8 
REMARK    6  A    between atoms: C_8  and  C_9 
REMARK    7  A    between atoms: C_9  and  O_11 
REMARK    8  A    between atoms: C_28  and  C_29 
REMARK    9  A    between atoms: C_29  and  C_30 
REMARK   10  A    between atoms: C_30  and  O_32 
REMARK   11  A    between atoms: C_33  and  C_34 
REMARK   12  A    between atoms: C_34  and  C_35 
REMARK   13  A    between atoms: C_35  and  C_36 
REMARK   14  A    between atoms: C_36  and  O_38 
REMARK   15  A    between atoms: C_39  and  C_40 
REMARK   16  A    between atoms: C_40  and  C_41 
REMARK   17  A    between atoms: C_41  and  C_42 
REMARK   18  A    between atoms: C_42  and  O_44 
REMARK   19  A    between atoms: C_45  and  C_46 
REMARK   20  A    between atoms: C_46  and  C_47 
REMARK   21  A    between atoms: C_47  and  O_49 
REMARK   22  A    between atoms: C_50  and  C_51 
REMARK   23  A    between atoms: C_51  and  C_52 
REMARK   24  A    between atoms: C_52  and  O_54 
REMARK   25  A    between atoms: C_55  and  C_56 
REMARK   26  A    between atoms: C_56  and  C_57 
REMARK   27  A    between atoms: C_57  and  C_58 
REMARK   28  A    between atoms: C_58  and  O_60 
ROOT
ATOM      1  O   UNK d   0      -0.276   0.719  31.611  0.00  0.00    -0.650 OA
ATOM      2  C   UNK d   0       0.345  -0.361  31.726  0.00  0.00     0.139 C 
ENDROOT
BRANCH   2   3
ATOM      3  O   UNK d   0       0.251  -1.071  32.899  0.00  0.00    -0.776 OA
ATOM      4  H   UNK d   0       0.197  -0.593  33.801  0.00  0.00     0.167 HD
ENDBRANCH   2   3
BRANCH   2   5
ATOM      5  C   UNK d   0       1.178  -0.869  30.599  0.00  0.00     0.115 C 
BRANCH   5   6
ATOM      6  C   UNK d   0       0.457  -0.673  29.293  0.00  0.00     0.052 C 
BRANCH   6   7
ATOM      7  C   UNK d   0      -0.454  -1.827  28.952  0.00  0.00    -0.020 A 
ATOM      8  C   UNK d   0      -0.201  -3.106  29.070  0.00  0.00    -0.011 A 
ATOM      9  C   UNK d   0      -1.372  -3.835  28.612  0.00  0.00     0.067 A 
ATOM     10  C   UNK d   0      -1.745  -5.184  28.502  0.00  0.00     0.062 C 
ATOM     11  N   UNK d   0      -2.288  -2.922  28.227  0.00  0.00    -0.248 NA
ATOM     12  C   UNK d   0      -3.032  -5.692  28.295  0.00  0.00     0.041 A 
ATOM     13  N   UNK d   0      -4.021  -5.293  27.472  0.00  0.00    -0.355 N 
ATOM     14  C   UNK d   0      -3.471  -6.774  29.080  0.00  0.00    -0.022 A 
ATOM     15  C   UNK d   0      -5.078  -6.090  27.720  0.00  0.00     0.042 A 
ATOM     16  H   UNK d   0      -3.966  -4.478  26.717  0.00  0.00     0.166 HD
ATOM     17  C   UNK d   0      -6.363  -6.108  27.142  0.00  0.00     0.062 C 
ATOM     18  C   UNK d   0      -4.772  -7.030  28.722  0.00  0.00    -0.013 A 
ATOM     19  C   UNK d   0      -7.198  -5.056  26.862  0.00  0.00     0.067 A 
ATOM     20  N   UNK d   0      -6.678  -3.830  26.956  0.00  0.00    -0.248 NA
ATOM     21  C   UNK d   0      -8.591  -4.902  26.479  0.00  0.00    -0.011 A 
ATOM     22  C   UNK d   0      -7.630  -2.884  26.664  0.00  0.00     0.066 A 
ATOM     23  C   UNK d   0      -7.213  -1.562  26.687  0.00  0.00     0.062 C 
ATOM     24  C   UNK d   0      -8.839  -3.628  26.369  0.00  0.00    -0.020 A 
ATOM     25  C   UNK d   0      -5.913  -1.073  26.885  0.00  0.00     0.041 A 
ATOM     26  N   UNK d   0      -4.936  -1.459  27.713  0.00  0.00    -0.355 N 
ATOM     27  C   UNK d   0      -5.472   0.011  26.094  0.00  0.00    -0.022 A 
ATOM     28  C   UNK d   0      -3.883  -0.661  27.475  0.00  0.00     0.042 A 
ATOM     29  H   UNK d   0      -4.996  -2.271  28.479  0.00  0.00     0.166 HD
ATOM     30  C   UNK d   0      -2.602  -0.626  28.048  0.00  0.00     0.062 C 
ATOM     31  C   UNK d   0      -4.188   0.277  26.460  0.00  0.00    -0.013 A 
ATOM     32  C   UNK d   0      -1.797  -1.695  28.408  0.00  0.00     0.066 A 
BRANCH   8  33
ATOM     33  C   UNK d   0       1.043  -3.719  29.570  0.00  0.00     0.151 C 
BRANCH  33  34
ATOM     34  C   UNK d   0       0.890  -4.308  30.913  0.00  0.00     0.143 C 
ATOM     35  O   UNK d   0      -0.016  -3.934  31.672  0.00  0.00    -0.650 OA
BRANCH  34  36
ATOM     36  O   UNK d   0       1.766  -5.284  31.326  0.00  0.00    -0.776 OA
ATOM     37  H   UNK d   0       1.749  -6.227  30.914  0.00  0.00     0.167 HD
ENDBRANCH  34  36
ENDBRANCH  33  34
ENDBRANCH   8  33
BRANCH  31  38
ATOM     38  C   UNK d   0      -3.299   1.349  25.874  0.00  0.00     0.151 C 
BRANCH  38  39
ATOM     39  C   UNK d   0      -3.247   2.544  26.690  0.00  0.00     0.143 C 
ATOM     40  O   UNK d   0      -2.413   2.693  27.600  0.00  0.00    -0.650 OA
BRANCH  39  41
ATOM     41  O   UNK d   0      -4.159   3.573  26.457  0.00  0.00    -0.776 OA
ATOM     42  H   UNK d   0      -4.316   3.838  25.480  0.00  0.00     0.167 HD
ENDBRANCH  39  41
ENDBRANCH  38  39
ENDBRANCH  31  38
BRANCH  27  43
ATOM     43  C   UNK d   0      -6.210   0.783  25.030  0.00  0.00     0.052 C 
BRANCH  43  44
ATOM     44  C   UNK d   0      -7.077   1.868  25.582  0.00  0.00     0.115 C 
BRANCH  44  45
ATOM     45  C   UNK d   0      -6.992   3.006  24.629  0.00  0.00     0.139 C 
ATOM     46  O   UNK d   0      -5.865   3.302  24.161  0.00  0.00    -0.650 OA
BRANCH  45  47
ATOM     47  O   UNK d   0      -8.092   3.738  24.239  0.00  0.00    -0.776 OA
ATOM     48  H   UNK d   0      -8.222   4.731  24.489  0.00  0.00     0.167 HD
ENDBRANCH  45  47
ENDBRANCH  44  45
ENDBRANCH  43  44
ENDBRANCH  27  43
BRANCH  24  49
ATOM     49  C   UNK d   0     -10.120  -3.025  25.961  0.00  0.00     0.052 C 
BRANCH  49  50
ATOM     50  C   UNK d   0     -10.559  -1.996  26.971  0.00  0.00     0.115 C 
BRANCH  50  51
ATOM     51  C   UNK d   0     -10.739  -2.446  28.345  0.00  0.00     0.139 C 
ATOM     52  O   UNK d   0     -11.552  -3.346  28.661  0.00  0.00    -0.650 OA
BRANCH  51  53
ATOM     53  O   UNK d   0      -9.991  -1.868  29.360  0.00  0.00    -0.776 OA
ATOM     54  H   UNK d   0     -10.481  -1.432  30.121  0.00  0.00     0.167 HD
ENDBRANCH  51  53
ENDBRANCH  50  51
ENDBRANCH  49  50
ENDBRANCH  24  49
BRANCH  21  55
ATOM     55  C   UNK d   0      -9.528  -6.043  26.259  0.00  0.00     0.151 C 
BRANCH  55  56
ATOM     56  C   UNK d   0      -9.446  -6.567  24.887  0.00  0.00     0.143 C 
ATOM     57  O   UNK d   0     -10.297  -6.309  24.013  0.00  0.00    -0.650 OA
BRANCH  56  58
ATOM     58  O   UNK d   0      -8.363  -7.385  24.569  0.00  0.00    -0.776 OA
ATOM     59  H   UNK d   0      -7.487  -6.881  24.342  0.00  0.00     0.167 HD
ENDBRANCH  56  58
ENDBRANCH  55  56
ENDBRANCH  21  55
BRANCH  18  60
ATOM     60  C   UNK d   0      -5.636  -8.111  29.323  0.00  0.00     0.151 C 
BRANCH  60  61
ATOM     61  C   UNK d   0      -5.575  -9.244  28.387  0.00  0.00     0.143 C 
ATOM     62  O   UNK d   0      -4.617  -9.991  28.188  0.00  0.00    -0.650 OA
BRANCH  61  63
ATOM     63  O   UNK d   0      -6.759  -9.479  27.648  0.00  0.00    -0.776 OA
ATOM     64  H   UNK d   0      -6.842 -10.275  27.040  0.00  0.00     0.167 HD
ENDBRANCH  61  63
ENDBRANCH  60  61
ENDBRANCH  18  60
BRANCH  14  65
ATOM     65  C   UNK d   0      -2.731  -7.638  30.061  0.00  0.00     0.052 C 
BRANCH  65  66
ATOM     66  C   UNK d   0      -2.826  -7.141  31.460  0.00  0.00     0.115 C 
BRANCH  66  67
ATOM     67  C   UNK d   0      -2.294  -7.932  32.534  0.00  0.00     0.139 C 
ATOM     68  O   UNK d   0      -1.682  -9.026  32.245  0.00  0.00    -0.650 OA
BRANCH  67  69
ATOM     69  O   UNK d   0      -2.353  -7.665  33.901  0.00  0.00    -0.776 OA
ATOM     70  H   UNK d   0      -1.448  -7.497  34.364  0.00  0.00     0.167 HD
ENDBRANCH  67  69
ENDBRANCH  66  67
ENDBRANCH  65  66
ENDBRANCH  14  65
ENDBRANCH   6   7
ENDBRANCH   5   6
ENDBRANCH   2   5
TORSDOF 28
ENDMDL
MODEL 6
REMARK VINA RESULT:      -9.7      1.544      2.799
REMARK  28 active torsions:
REMARK  status: ('A' for Active; 'I' for Inactive)
REMARK    1  A    between atoms: C_2  and  O_3 
REMARK    2  A    between atoms: C_2  and  C_4 
REMARK    3  A    between atoms: C_4  and  C_5 
REMARK    4  A    between atoms: C_5  and  C_6 
REMARK    5  A    between atoms: C_7  and  C_8 
REMARK    6  A    between atoms: C_8  and  C_9 
REMARK    7  A    between atoms: C_9  and  O_11 
REMARK    8  A    between atoms: C_28  and  C_29 
REMARK    9  A    between atoms: C_29  and  C_30 
REMARK   10  A    between atoms: C_30  and  O_32 
REMARK   11  A    between atoms: C_33  and  C_34 
REMARK   12  A    between atoms: C_34  and  C_35 
REMARK   13  A    between atoms: C_35  and  C_36 
REMARK   14  A    between atoms: C_36  and  O_38 
REMARK   15  A    between atoms: C_39  and  C_40 
REMARK   16  A    between atoms: C_40  and  C_41 
REMARK   17  A    between atoms: C_41  and  C_42 
REMARK   18  A    between atoms: C_42  and  O_44 
REMARK   19  A    between atoms: C_45  and  C_46 
REMARK   20  A    between atoms: C_46  and  C_47 
REMARK   21  A    between atoms: C_47  and  O_49 
REMARK   22  A    between atoms: C_50  and  C_51 
REMARK   23  A    between atoms: C_51  and  C_52 
REMARK   24  A    between atoms: C_52  and  O_54 
REMARK   25  A    between atoms: C_55  and  C_56 
REMARK   26  A    between atoms: C_56  and  C_57 
REMARK   27  A    between atoms: C_57  and  C_58 
REMARK   28  A    between atoms: C_58  and  O_60 
ROOT
ATOM      1  O   UNK d   0       0.083   0.249  31.290  0.00  0.00    -0.650 OA
ATOM      2  C   UNK d   0       0.531  -0.761  31.877  0.00  0.00     0.139 C 
ENDROOT
BRANCH   2   3
ATOM      3  O   UNK d   0       0.140  -1.019  33.168  0.00  0.00    -0.776 OA
ATOM      4  H   UNK d   0       0.828  -1.121  33.917  0.00  0.00     0.167 HD
ENDBRANCH   2   3
BRANCH   2   5
ATOM      5  C   UNK d   0       1.479  -1.674  31.177  0.00  0.00     0.115 C 
BRANCH   5   6
ATOM      6  C   UNK d   0       1.254  -1.613  29.690  0.00  0.00     0.052 C 
BRANCH   6   7
ATOM      7  C   UNK d   0       0.150  -2.534  29.231  0.00  0.00    -0.020 A 
ATOM      8  C   UNK d   0       0.147  -3.842  29.237  0.00  0.00    -0.011 A 
ATOM      9  C   UNK d   0      -1.126  -4.288  28.695  0.00  0.00     0.067 A 
ATOM     10  C   UNK d   0      -1.749  -5.523  28.457  0.00  0.00     0.062 C 
ATOM     11  N   UNK d   0      -1.835  -3.183  28.379  0.00  0.00    -0.248 NA
ATOM     12  C   UNK d   0      -3.102  -5.750  28.183  0.00  0.00     0.041 A 
ATOM     13  N   UNK d   0      -3.966  -5.097  27.383  0.00  0.00    -0.355 N 
ATOM     14  C   UNK d   0      -3.768  -6.789  28.859  0.00  0.00    -0.022 A 
ATOM     15  C   UNK d   0      -5.165  -5.690  27.539  0.00  0.00     0.042 A 
ATOM     16  H   UNK d   0      -3.729  -4.247  26.706  0.00  0.00     0.166 HD
ATOM     17  C   UNK d   0      -6.409  -5.407  26.940  0.00  0.00     0.062 C 
ATOM     18  C   UNK d   0      -5.080  -6.755  28.457  0.00  0.00    -0.013 A 
ATOM     19  C   UNK d   0      -7.015  -4.193  26.742  0.00  0.00     0.067 A 
ATOM     20  N   UNK d   0      -6.271  -3.104  26.956  0.00  0.00    -0.248 NA
ATOM     21  C   UNK d   0      -8.338  -3.737  26.351  0.00  0.00    -0.011 A 
ATOM     22  C   UNK d   0      -7.013  -1.970  26.734  0.00  0.00     0.066 A 
ATOM     23  C   UNK d   0      -6.350  -0.761  26.884  0.00  0.00     0.062 C 
ATOM     24  C   UNK d   0      -8.332  -2.435  26.353  0.00  0.00    -0.020 A 
ATOM     25  C   UNK d   0      -4.987  -0.554  27.147  0.00  0.00     0.041 A 
ATOM     26  N   UNK d   0      -4.131  -1.193  27.954  0.00  0.00    -0.355 N 
ATOM     27  C   UNK d   0      -4.318   0.486  26.465  0.00  0.00    -0.022 A 
ATOM     28  C   UNK d   0      -2.937  -0.598  27.807  0.00  0.00     0.042 A 
ATOM     29  H   UNK d   0      -4.373  -2.041  28.642  0.00  0.00     0.166 HD
ATOM     30  C   UNK d   0      -1.694  -0.863  28.403  0.00  0.00     0.062 C 
ATOM     31  C   UNK d   0      -3.020   0.464  26.876  0.00  0.00    -0.013 A 
ATOM     32  C   UNK d   0      -1.123  -2.096  28.678  0.00  0.00     0.066 A 
BRANCH   8  33
ATOM     33  C   UNK d   0       1.232  -4.727  29.701  0.00  0.00     0.151 C 
BRANCH  33  34
ATOM     34  C   UNK d   0       0.993  -5.262  31.053  0.00  0.00     0.143 C 
ATOM     35  O   UNK d   0       0.074  -4.823  31.759  0.00  0.00    -0.650 OA
BRANCH  34  36
ATOM     36  O   UNK d   0       1.804  -6.262  31.537  0.00  0.00    -0.776 OA
ATOM     37  H   UNK d   0       1.435  -7.203  31.731  0.00  0.00     0.167 HD
ENDBRANCH  34  36
ENDBRANCH  33  34
ENDBRANCH   8  33
BRANCH  31  38
ATOM     38  C   UNK d   0      -1.921   1.387  26.405  0.00  0.00     0.151 C 
BRANCH  38  39
ATOM     39  C   UNK d   0      -1.534   2.357  27.407  0.00  0.00     0.143 C 
ATOM     40  O   UNK d   0      -2.340   3.173  27.890  0.00  0.00    -0.650 OA
BRANCH  39  41
ATOM     41  O   UNK d   0      -0.215   2.390  27.858  0.00  0.00    -0.776 OA
ATOM     42  H   UNK d   0       0.038   3.155  28.490  0.00  0.00     0.167 HD
ENDBRANCH  39  41
ENDBRANCH  38  39
ENDBRANCH  31  38
BRANCH  27  43
ATOM     43  C   UNK d   0      -4.856   1.476  25.463  0.00  0.00     0.052 C 
BRANCH  43  44
ATOM     44  C   UNK d   0      -5.221   2.792  26.070  0.00  0.00     0.115 C 
BRANCH  44  45
ATOM     45  C   UNK d   0      -6.169   3.445  25.129  0.00  0.00     0.139 C 
ATOM     46  O   UNK d   0      -6.748   4.494  25.506  0.00  0.00    -0.650 OA
BRANCH  45  47
ATOM     47  O   UNK d   0      -6.430   2.951  23.869  0.00  0.00    -0.776 OA
ATOM     48  H   UNK d   0      -7.386   2.859  23.491  0.00  0.00     0.167 HD
ENDBRANCH  45  47
ENDBRANCH  44  45
ENDBRANCH  43  44
ENDBRANCH  27  43
BRANCH  24  49
ATOM     49  C   UNK d   0      -9.457  -1.561  25.980  0.00  0.00     0.052 C 
BRANCH  49  50
ATOM     50  C   UNK d   0      -9.436  -1.283  24.498  0.00  0.00     0.115 C 
BRANCH  50  51
ATOM     51  C   UNK d   0      -8.521  -0.252  24.028  0.00  0.00     0.139 C 
ATOM     52  O   UNK d   0      -8.499   0.905  24.512  0.00  0.00    -0.650 OA
BRANCH  51  53
ATOM     53  O   UNK d   0      -7.632  -0.538  23.004  0.00  0.00    -0.776 OA
ATOM     54  H   UNK d   0      -7.043   0.202  22.664  0.00  0.00     0.167 HD
ENDBRANCH  51  53
ENDBRANCH  50  51
ENDBRANCH  49  50
ENDBRANCH  24  49
BRANCH  21  55
ATOM     55  C   UNK d   0      -9.470  -4.650  26.013  0.00  0.00     0.151 C 
BRANCH  55  56
ATOM     56  C   UNK d   0     -10.250  -5.025  27.202  0.00  0.00     0.143 C 
ATOM     57  O   UNK d   0     -10.223  -6.171  27.693  0.00  0.00    -0.650 OA
BRANCH  56  58
ATOM     58  O   UNK d   0     -11.048  -4.046  27.790  0.00  0.00    -0.776 OA
ATOM     59  H   UNK d   0     -12.052  -4.093  27.541  0.00  0.00     0.167 HD
ENDBRANCH  56  58
ENDBRANCH  55  56
ENDBRANCH  21  55
BRANCH  18  60
ATOM     60  C   UNK d   0      -6.158  -7.692  28.943  0.00  0.00     0.151 C 
BRANCH  60  61
ATOM     61  C   UNK d   0      -6.283  -8.733  27.911  0.00  0.00     0.143 C 
ATOM     62  O   UNK d   0      -7.087  -8.761  26.979  0.00  0.00    -0.650 OA
BRANCH  61  63
ATOM     63  O   UNK d   0      -5.367  -9.807  28.024  0.00  0.00    -0.776 OA
ATOM     64  H   UNK d   0      -4.437  -9.660  28.373  0.00  0.00     0.167 HD
ENDBRANCH  61  63
ENDBRANCH  60  61
ENDBRANCH  18  60
BRANCH  14  65
ATOM     65  C   UNK d   0      -3.243  -7.861  29.771  0.00  0.00     0.052 C 
BRANCH  65  66
ATOM     66  C   UNK d   0      -2.374  -7.329  30.855  0.00  0.00     0.115 C 
BRANCH  66  67
ATOM     67  C   UNK d   0      -2.968  -6.670  31.984  0.00  0.00     0.139 C 
ATOM     68  O   UNK d   0      -2.557  -6.981  33.162  0.00  0.00    -0.650 OA
BRANCH  67  69
ATOM     69  O   UNK d   0      -3.970  -5.700  31.976  0.00  0.00    -0.776 OA
ATOM     70  H   UNK d   0      -3.705  -4.784  31.586  0.00  0.00     0.167 HD
ENDBRANCH  67  69
ENDBRANCH  66  67
ENDBRANCH  65  66
ENDBRANCH  14  65
ENDBRANCH   6   7
ENDBRANCH   5   6
ENDBRANCH   2   5
TORSDOF 28
ENDMDL
MODEL 7
REMARK VINA RESULT:      -9.6      1.440      7.969
REMARK  28 active torsions:
REMARK  status: ('A' for Active; 'I' for Inactive)
REMARK    1  A    between atoms: C_2  and  O_3 
REMARK    2  A    between atoms: C_2  and  C_4 
REMARK    3  A    between atoms: C_4  and  C_5 
REMARK    4  A    between atoms: C_5  and  C_6 
REMARK    5  A    between atoms: C_7  and  C_8 
REMARK    6  A    between atoms: C_8  and  C_9 
REMARK    7  A    between atoms: C_9  and  O_11 
REMARK    8  A    between atoms: C_28  and  C_29 
REMARK    9  A    between atoms: C_29  and  C_30 
REMARK   10  A    between atoms: C_30  and  O_32 
REMARK   11  A    between atoms: C_33  and  C_34 
REMARK   12  A    between atoms: C_34  and  C_35 
REMARK   13  A    between atoms: C_35  and  C_36 
REMARK   14  A    between atoms: C_36  and  O_38 
REMARK   15  A    between atoms: C_39  and  C_40 
REMARK   16  A    between atoms: C_40  and  C_41 
REMARK   17  A    between atoms: C_41  and  C_42 
REMARK   18  A    between atoms: C_42  and  O_44 
REMARK   19  A    between atoms: C_45  and  C_46 
REMARK   20  A    between atoms: C_46  and  C_47 
REMARK   21  A    between atoms: C_47  and  O_49 
REMARK   22  A    between atoms: C_50  and  C_51 
REMARK   23  A    between atoms: C_51  and  C_52 
REMARK   24  A    between atoms: C_52  and  O_54 
REMARK   25  A    between atoms: C_55  and  C_56 
REMARK   26  A    between atoms: C_56  and  C_57 
REMARK   27  A    between atoms: C_57  and  C_58 
REMARK   28  A    between atoms: C_58  and  O_60 
ROOT
ATOM      1  O   UNK d   0      -7.663 -10.622  26.887  0.00  0.00    -0.650 OA
ATOM      2  C   UNK d   0      -6.593 -10.438  27.509  0.00  0.00     0.139 C 
ENDROOT
BRANCH   2   3
ATOM      3  O   UNK d   0      -5.606 -11.391  27.448  0.00  0.00    -0.776 OA
ATOM      4  H   UNK d   0      -4.896 -11.370  26.713  0.00  0.00     0.167 HD
ENDBRANCH   2   3
BRANCH   2   5
ATOM      5  C   UNK d   0      -6.396  -9.194  28.307  0.00  0.00     0.115 C 
BRANCH   5   6
ATOM      6  C   UNK d   0      -4.977  -9.116  28.801  0.00  0.00     0.052 C 
BRANCH   6   7
ATOM      7  C   UNK d   0      -4.498  -7.694  28.969  0.00  0.00    -0.020 A 
ATOM      8  C   UNK d   0      -3.550  -7.259  29.759  0.00  0.00    -0.011 A 
ATOM      9  C   UNK d   0      -3.452  -5.819  29.586  0.00  0.00     0.067 A 
ATOM     10  C   UNK d   0      -2.650  -4.790  30.103  0.00  0.00     0.062 C 
ATOM     11  N   UNK d   0      -4.382  -5.461  28.677  0.00  0.00    -0.248 NA
ATOM     12  C   UNK d   0      -2.517  -3.489  29.606  0.00  0.00     0.041 A 
ATOM     13  N   UNK d   0      -3.435  -2.618  29.144  0.00  0.00    -0.355 N 
ATOM     14  C   UNK d   0      -1.230  -2.936  29.482  0.00  0.00    -0.022 A 
ATOM     15  C   UNK d   0      -2.762  -1.530  28.724  0.00  0.00     0.042 A 
ATOM     16  H   UNK d   0      -4.538  -2.761  29.134  0.00  0.00     0.166 HD
ATOM     17  C   UNK d   0      -3.232  -0.328  28.157  0.00  0.00     0.062 C 
ATOM     18  C   UNK d   0      -1.377  -1.692  28.920  0.00  0.00    -0.013 A 
ATOM     19  C   UNK d   0      -4.173  -0.147  27.177  0.00  0.00     0.067 A 
ATOM     20  N   UNK d   0      -4.899  -1.213  26.831  0.00  0.00    -0.248 NA
ATOM     21  C   UNK d   0      -4.617   0.960  26.346  0.00  0.00    -0.011 A 
ATOM     22  C   UNK d   0      -5.784  -0.885  25.833  0.00  0.00     0.066 A 
ATOM     23  C   UNK d   0      -6.631  -1.895  25.403  0.00  0.00     0.062 C 
ATOM     24  C   UNK d   0      -5.556   0.521  25.559  0.00  0.00    -0.020 A 
ATOM     25  C   UNK d   0      -6.757  -3.192  25.924  0.00  0.00     0.041 A 
ATOM     26  N   UNK d   0      -5.844  -4.063  26.369  0.00  0.00    -0.355 N 
ATOM     27  C   UNK d   0      -8.051  -3.745  26.052  0.00  0.00    -0.022 A 
ATOM     28  C   UNK d   0      -6.512  -5.153  26.780  0.00  0.00     0.042 A 
ATOM     29  H   UNK d   0      -4.735  -3.922  26.369  0.00  0.00     0.166 HD
ATOM     30  C   UNK d   0      -6.057  -6.358  27.337  0.00  0.00     0.062 C 
ATOM     31  C   UNK d   0      -7.904  -4.985  26.594  0.00  0.00    -0.013 A 
ATOM     32  C   UNK d   0      -5.046  -6.543  28.267  0.00  0.00     0.066 A 
BRANCH   8  33
ATOM     33  C   UNK d   0      -2.720  -8.066  30.672  0.00  0.00     0.151 C 
BRANCH  33  34
ATOM     34  C   UNK d   0      -1.594  -8.726  29.987  0.00  0.00     0.143 C 
ATOM     35  O   UNK d   0      -1.455  -9.957  30.032  0.00  0.00    -0.650 OA
BRANCH  34  36
ATOM     36  O   UNK d   0      -0.686  -7.963  29.290  0.00  0.00    -0.776 OA
ATOM     37  H   UNK d   0       0.236  -8.337  29.028  0.00  0.00     0.167 HD
ENDBRANCH  34  36
ENDBRANCH  33  34
ENDBRANCH   8  33
BRANCH  31  38
ATOM     38  C   UNK d   0      -9.019  -5.949  26.927  0.00  0.00     0.151 C 
BRANCH  38  39
ATOM     39  C   UNK d   0      -9.290  -6.886  25.857  0.00  0.00     0.143 C 
ATOM     40  O   UNK d   0      -9.776  -6.531  24.769  0.00  0.00    -0.650 OA
BRANCH  39  41
ATOM     41  O   UNK d   0      -8.999  -8.238  26.040  0.00  0.00    -0.776 OA
ATOM     42  H   UNK d   0      -9.732  -8.906  25.783  0.00  0.00     0.167 HD
ENDBRANCH  39  41
ENDBRANCH  38  39
ENDBRANCH  31  38
BRANCH  27  43
ATOM     43  C   UNK d   0      -9.387  -3.151  25.684  0.00  0.00     0.052 C 
BRANCH  43  44
ATOM     44  C   UNK d   0      -9.969  -2.292  26.760  0.00  0.00     0.115 C 
BRANCH  44  45
ATOM     45  C   UNK d   0     -11.412  -2.634  26.842  0.00  0.00     0.139 C 
ATOM     46  O   UNK d   0     -11.733  -3.725  27.375  0.00  0.00    -0.650 OA
BRANCH  45  47
ATOM     47  O   UNK d   0     -12.405  -1.805  26.365  0.00  0.00    -0.776 OA
ATOM     48  H   UNK d   0     -12.217  -1.016  25.726  0.00  0.00     0.167 HD
ENDBRANCH  45  47
ENDBRANCH  44  45
ENDBRANCH  43  44
ENDBRANCH  27  43
BRANCH  24  49
ATOM     49  C   UNK d   0      -6.312   1.319  24.579  0.00  0.00     0.052 C 
BRANCH  49  50
ATOM     50  C   UNK d   0      -7.386   2.119  25.271  0.00  0.00     0.115 C 
BRANCH  50  51
ATOM     51  C   UNK d   0      -7.427   3.550  25.002  0.00  0.00     0.139 C 
ATOM     52  O   UNK d   0      -6.780   4.383  25.679  0.00  0.00    -0.650 OA
BRANCH  51  53
ATOM     53  O   UNK d   0      -8.208   4.031  23.963  0.00  0.00    -0.776 OA
ATOM     54  H   UNK d   0      -7.765   4.210  23.079  0.00  0.00     0.167 HD
ENDBRANCH  51  53
ENDBRANCH  50  51
ENDBRANCH  49  50
ENDBRANCH  24  49
BRANCH  21  55
ATOM     55  C   UNK d   0      -4.058   2.342  26.428  0.00  0.00     0.151 C 
BRANCH  55  56
ATOM     56  C   UNK d   0      -2.835   2.491  25.625  0.00  0.00     0.143 C 
ATOM     57  O   UNK d   0      -1.692   2.397  26.112  0.00  0.00    -0.650 OA
BRANCH  56  58
ATOM     58  O   UNK d   0      -2.980   2.748  24.262  0.00  0.00    -0.776 OA
ATOM     59  H   UNK d   0      -2.253   2.325  23.658  0.00  0.00     0.167 HD
ENDBRANCH  56  58
ENDBRANCH  55  56
ENDBRANCH  21  55
BRANCH  18  60
ATOM     60  C   UNK d   0      -0.244  -0.748  28.600  0.00  0.00     0.151 C 
BRANCH  60  61
ATOM     61  C   UNK d   0      -0.361   0.361  29.559  0.00  0.00     0.143 C 
ATOM     62  O   UNK d   0      -0.363   0.283  30.788  0.00  0.00    -0.650 OA
BRANCH  61  63
ATOM     63  O   UNK d   0      -0.482   1.647  28.980  0.00  0.00    -0.776 OA
ATOM     64  H   UNK d   0       0.330   2.165  28.694  0.00  0.00     0.167 HD
ENDBRANCH  61  63
ENDBRANCH  60  61
ENDBRANCH  18  60
BRANCH  14  65
ATOM     65  C   UNK d   0       0.106  -3.448  29.942  0.00  0.00     0.052 C 
BRANCH  65  66
ATOM     66  C   UNK d   0       0.485  -2.953  31.293  0.00  0.00     0.115 C 
BRANCH  66  67
ATOM     67  C   UNK d   0      -0.058  -3.587  32.461  0.00  0.00     0.139 C 
ATOM     68  O   UNK d   0       0.530  -4.635  32.919  0.00  0.00    -0.650 OA
BRANCH  67  69
ATOM     69  O   UNK d   0      -1.181  -3.207  33.194  0.00  0.00    -0.776 OA
ATOM     70  H   UNK d   0      -1.089  -2.335  33.735  0.00  0.00     0.167 HD
ENDBRANCH  67  69
ENDBRANCH  66  67
ENDBRANCH  65  66
ENDBRANCH  14  65
ENDBRANCH   6   7
ENDBRANCH   5   6
ENDBRANCH   2   5
TORSDOF 28
ENDMDL
MODEL 8
REMARK VINA RESULT:      -9.5     32.734     34.785
REMARK  28 active torsions:
REMARK  status: ('A' for Active; 'I' for Inactive)
REMARK    1  A    between atoms: C_2  and  O_3 
REMARK    2  A    between atoms: C_2  and  C_4 
REMARK    3  A    between atoms: C_4  and  C_5 
REMARK    4  A    between atoms: C_5  and  C_6 
REMARK    5  A    between atoms: C_7  and  C_8 
REMARK    6  A    between atoms: C_8  and  C_9 
REMARK    7  A    between atoms: C_9  and  O_11 
REMARK    8  A    between atoms: C_28  and  C_29 
REMARK    9  A    between atoms: C_29  and  C_30 
REMARK   10  A    between atoms: C_30  and  O_32 
REMARK   11  A    between atoms: C_33  and  C_34 
REMARK   12  A    between atoms: C_34  and  C_35 
REMARK   13  A    between atoms: C_35  and  C_36 
REMARK   14  A    between atoms: C_36  and  O_38 
REMARK   15  A    between atoms: C_39  and  C_40 
REMARK   16  A    between atoms: C_40  and  C_41 
REMARK   17  A    between atoms: C_41  and  C_42 
REMARK   18  A    between atoms: C_42  and  O_44 
REMARK   19  A    between atoms: C_45  and  C_46 
REMARK   20  A    between atoms: C_46  and  C_47 
REMARK   21  A    between atoms: C_47  and  O_49 
REMARK   22  A    between atoms: C_50  and  C_51 
REMARK   23  A    between atoms: C_51  and  C_52 
REMARK   24  A    between atoms: C_52  and  O_54 
REMARK   25  A    between atoms: C_55  and  C_56 
REMARK   26  A    between atoms: C_56  and  C_57 
REMARK   27  A    between atoms: C_57  and  C_58 
REMARK   28  A    between atoms: C_58  and  O_60 
ROOT
ATOM      1  O   UNK d   0       8.412 -16.045  -3.106  0.00  0.00    -0.650 OA
ATOM      2  C   UNK d   0       9.359 -15.525  -3.737  0.00  0.00     0.139 C 
ENDROOT
BRANCH   2   3
ATOM      3  O   UNK d   0       9.098 -14.513  -4.630  0.00  0.00    -0.776 OA
ATOM      4  H   UNK d   0       8.514 -13.716  -4.367  0.00  0.00     0.167 HD
ENDBRANCH   2   3
BRANCH   2   5
ATOM      5  C   UNK d   0      10.754 -16.002  -3.521  0.00  0.00     0.115 C 
BRANCH   5   6
ATOM      6  C   UNK d   0      11.735 -14.964  -3.993  0.00  0.00     0.052 C 
BRANCH   6   7
ATOM      7  C   UNK d   0      12.255 -14.101  -2.867  0.00  0.00    -0.020 A 
ATOM      8  C   UNK d   0      13.285 -14.332  -2.095  0.00  0.00    -0.011 A 
ATOM      9  C   UNK d   0      13.392 -13.230  -1.154  0.00  0.00     0.067 A 
ATOM     10  C   UNK d   0      14.260 -12.869  -0.111  0.00  0.00     0.062 C 
ATOM     11  N   UNK d   0      12.382 -12.375  -1.421  0.00  0.00    -0.248 NA
ATOM     12  C   UNK d   0      14.367 -11.619   0.508  0.00  0.00     0.041 A 
ATOM     13  N   UNK d   0      13.424 -10.749   0.917  0.00  0.00    -0.355 N 
ATOM     14  C   UNK d   0      15.646 -11.077   0.730  0.00  0.00    -0.022 A 
ATOM     15  C   UNK d   0      14.072  -9.666   1.386  0.00  0.00     0.042 A 
ATOM     16  H   UNK d   0      12.323 -10.905   0.893  0.00  0.00     0.166 HD
ATOM     17  C   UNK d   0      13.571  -8.468   1.934  0.00  0.00     0.062 C 
ATOM     18  C   UNK d   0      15.467  -9.835   1.285  0.00  0.00    -0.013 A 
ATOM     19  C   UNK d   0      12.540  -7.681   1.488  0.00  0.00     0.067 A 
ATOM     20  N   UNK d   0      11.764  -8.188   0.527  0.00  0.00    -0.248 NA
ATOM     21  C   UNK d   0      12.037  -6.350   1.787  0.00  0.00    -0.011 A 
ATOM     22  C   UNK d   0      10.791  -7.285   0.174  0.00  0.00     0.066 A 
ATOM     23  C   UNK d   0       9.887  -7.700  -0.792  0.00  0.00     0.062 C 
ATOM     24  C   UNK d   0      11.016  -6.123   1.012  0.00  0.00    -0.020 A 
ATOM     25  C   UNK d   0       9.788  -8.965  -1.392  0.00  0.00     0.041 A 
ATOM     26  N   UNK d   0      10.725  -9.823  -1.813  0.00  0.00    -0.355 N 
ATOM     27  C   UNK d   0       8.504  -9.510  -1.611  0.00  0.00    -0.022 A 
ATOM     28  C   UNK d   0      10.081 -10.900  -2.289  0.00  0.00     0.042 A 
ATOM     29  H   UNK d   0      11.831  -9.660  -1.798  0.00  0.00     0.166 HD
ATOM     30  C   UNK d   0      10.567 -12.095  -2.845  0.00  0.00     0.062 C 
ATOM     31  C   UNK d   0       8.680 -10.735  -2.178  0.00  0.00    -0.013 A 
ATOM     32  C   UNK d   0      11.662 -12.842  -2.442  0.00  0.00     0.066 A 
BRANCH   8  33
ATOM     33  C   UNK d   0      14.187 -15.498  -2.148  0.00  0.00     0.151 C 
BRANCH  33  34
ATOM     34  C   UNK d   0      15.430 -15.225  -2.890  0.00  0.00     0.143 C 
ATOM     35  O   UNK d   0      16.532 -15.563  -2.434  0.00  0.00    -0.650 OA
BRANCH  34  36
ATOM     36  O   UNK d   0      15.364 -14.583  -4.106  0.00  0.00    -0.776 OA
ATOM     37  H   UNK d   0      15.411 -15.108  -4.990  0.00  0.00     0.167 HD
ENDBRANCH  34  36
ENDBRANCH  33  34
ENDBRANCH   8  33
BRANCH  31  38
ATOM     38  C   UNK d   0       7.587 -11.697  -2.578  0.00  0.00     0.151 C 
BRANCH  38  39
ATOM     39  C   UNK d   0       7.319 -12.696  -1.565  0.00  0.00     0.143 C 
ATOM     40  O   UNK d   0       7.537 -12.493  -0.357  0.00  0.00    -0.650 OA
BRANCH  39  41
ATOM     41  O   UNK d   0       6.797 -13.933  -1.941  0.00  0.00    -0.776 OA
ATOM     42  H   UNK d   0       6.312 -14.470  -1.215  0.00  0.00     0.167 HD
ENDBRANCH  39  41
ENDBRANCH  38  39
ENDBRANCH  31  38
BRANCH  27  43
ATOM     43  C   UNK d   0       7.149  -8.920  -1.310  0.00  0.00     0.052 C 
BRANCH  43  44
ATOM     44  C   UNK d   0       6.740  -9.079   0.118  0.00  0.00     0.115 C 
BRANCH  44  45
ATOM     45  C   UNK d   0       5.356  -9.621   0.105  0.00  0.00     0.139 C 
ATOM     46  O   UNK d   0       4.401  -8.805   0.103  0.00  0.00    -0.650 OA
BRANCH  45  47
ATOM     47  O   UNK d   0       5.082 -10.971   0.090  0.00  0.00    -0.776 OA
ATOM     48  H   UNK d   0       5.704 -11.664  -0.355  0.00  0.00     0.167 HD
ENDBRANCH  45  47
ENDBRANCH  44  45
ENDBRANCH  43  44
ENDBRANCH  27  43
BRANCH  24  49
ATOM     49  C   UNK d   0      10.181  -4.910   1.008  0.00  0.00     0.052 C 
BRANCH  49  50
ATOM     50  C   UNK d   0      10.247  -4.232  -0.336  0.00  0.00     0.115 C 
BRANCH  50  51
ATOM     51  C   UNK d   0      10.288  -2.776  -0.346  0.00  0.00     0.139 C 
ATOM     52  O   UNK d   0      10.228  -2.105  -1.403  0.00  0.00    -0.650 OA
BRANCH  51  53
ATOM     53  O   UNK d   0      10.401  -2.085   0.851  0.00  0.00    -0.776 OA
ATOM     54  H   UNK d   0       9.654  -2.164   1.518  0.00  0.00     0.167 HD
ENDBRANCH  51  53
ENDBRANCH  50  51
ENDBRANCH  49  50
ENDBRANCH  24  49
BRANCH  21  55
ATOM     55  C   UNK d   0      12.627  -5.447   2.818  0.00  0.00     0.151 C 
BRANCH  55  56
ATOM     56  C   UNK d   0      13.941  -4.927   2.411  0.00  0.00     0.143 C 
ATOM     57  O   UNK d   0      14.867  -4.723   3.220  0.00  0.00    -0.650 OA
BRANCH  56  58
ATOM     58  O   UNK d   0      14.141  -4.658   1.058  0.00  0.00    -0.776 OA
ATOM     59  H   UNK d   0      13.275  -4.600   0.492  0.00  0.00     0.167 HD
ENDBRANCH  56  58
ENDBRANCH  55  56
ENDBRANCH  21  55
BRANCH  18  60
ATOM     60  C   UNK d   0      16.579  -8.895   1.678  0.00  0.00     0.151 C 
BRANCH  60  61
ATOM     61  C   UNK d   0      16.884  -8.104   0.476  0.00  0.00     0.143 C 
ATOM     62  O   UNK d   0      17.767  -8.325  -0.353  0.00  0.00    -0.650 OA
BRANCH  61  63
ATOM     63  O   UNK d   0      16.057  -6.973   0.273  0.00  0.00    -0.776 OA
ATOM     64  H   UNK d   0      16.423  -6.130  -0.133  0.00  0.00     0.167 HD
ENDBRANCH  61  63
ENDBRANCH  60  61
ENDBRANCH  18  60
BRANCH  14  65
ATOM     65  C   UNK d   0      17.011 -11.679   0.551  0.00  0.00     0.052 C 
BRANCH  65  66
ATOM     66  C   UNK d   0      17.347 -12.681   1.598  0.00  0.00     0.115 C 
BRANCH  66  67
ATOM     67  C   UNK d   0      18.694 -12.778   2.085  0.00  0.00     0.139 C 
ATOM     68  O   UNK d   0      19.644 -12.301   1.361  0.00  0.00    -0.650 OA
BRANCH  67  69
ATOM     69  O   UNK d   0      19.130 -13.342   3.283  0.00  0.00    -0.776 OA
ATOM     70  H   UNK d   0      18.761 -14.279   3.497  0.00  0.00     0.167 HD
ENDBRANCH  67  69
ENDBRANCH  66  67
ENDBRANCH  65  66
ENDBRANCH  14  65
ENDBRANCH   6   7
ENDBRANCH   5   6
ENDBRANCH   2   5
TORSDOF 28
ENDMDL
MODEL 9
REMARK VINA RESULT:      -9.5      1.861      8.129
REMARK  28 active torsions:
REMARK  status: ('A' for Active; 'I' for Inactive)
REMARK    1  A    between atoms: C_2  and  O_3 
REMARK    2  A    between atoms: C_2  and  C_4 
REMARK    3  A    between atoms: C_4  and  C_5 
REMARK    4  A    between atoms: C_5  and  C_6 
REMARK    5  A    between atoms: C_7  and  C_8 
REMARK    6  A    between atoms: C_8  and  C_9 
REMARK    7  A    between atoms: C_9  and  O_11 
REMARK    8  A    between atoms: C_28  and  C_29 
REMARK    9  A    between atoms: C_29  and  C_30 
REMARK   10  A    between atoms: C_30  and  O_32 
REMARK   11  A    between atoms: C_33  and  C_34 
REMARK   12  A    between atoms: C_34  and  C_35 
REMARK   13  A    between atoms: C_35  and  C_36 
REMARK   14  A    between atoms: C_36  and  O_38 
REMARK   15  A    between atoms: C_39  and  C_40 
REMARK   16  A    between atoms: C_40  and  C_41 
REMARK   17  A    between atoms: C_41  and  C_42 
REMARK   18  A    between atoms: C_42  and  O_44 
REMARK   19  A    between atoms: C_45  and  C_46 
REMARK   20  A    between atoms: C_46  and  C_47 
REMARK   21  A    between atoms: C_47  and  O_49 
REMARK   22  A    between atoms: C_50  and  C_51 
REMARK   23  A    between atoms: C_51  and  C_52 
REMARK   24  A    between atoms: C_52  and  O_54 
REMARK   25  A    between atoms: C_55  and  C_56 
REMARK   26  A    between atoms: C_56  and  C_57 
REMARK   27  A    between atoms: C_57  and  C_58 
REMARK   28  A    between atoms: C_58  and  O_60 
ROOT
ATOM      1  O   UNK d   0     -10.155  -6.501  24.603  0.00  0.00    -0.650 OA
ATOM      2  C   UNK d   0      -9.813  -5.829  25.601  0.00  0.00     0.139 C 
ENDROOT
BRANCH   2   3
ATOM      3  O   UNK d   0     -10.006  -4.469  25.596  0.00  0.00    -0.776 OA
ATOM      4  H   UNK d   0      -9.948  -3.924  26.459  0.00  0.00     0.167 HD
ENDBRANCH   2   3
BRANCH   2   5
ATOM      5  C   UNK d   0      -9.200  -6.502  26.782  0.00  0.00     0.115 C 
BRANCH   5   6
ATOM      6  C   UNK d   0      -7.916  -7.177  26.384  0.00  0.00     0.052 C 
BRANCH   6   7
ATOM      7  C   UNK d   0      -6.747  -6.753  27.240  0.00  0.00    -0.020 A 
ATOM      8  C   UNK d   0      -6.171  -7.432  28.198  0.00  0.00    -0.011 A 
ATOM      9  C   UNK d   0      -5.098  -6.615  28.740  0.00  0.00     0.067 A 
ATOM     10  C   UNK d   0      -4.118  -6.760  29.735  0.00  0.00     0.062 C 
ATOM     11  N   UNK d   0      -5.096  -5.452  28.057  0.00  0.00    -0.248 NA
ATOM     12  C   UNK d   0      -2.983  -5.966  29.929  0.00  0.00     0.041 A 
ATOM     13  N   UNK d   0      -2.818  -4.630  29.883  0.00  0.00    -0.355 N 
ATOM     14  C   UNK d   0      -1.746  -6.592  30.164  0.00  0.00    -0.022 A 
ATOM     15  C   UNK d   0      -1.506  -4.393  30.076  0.00  0.00     0.042 A 
ATOM     16  H   UNK d   0      -3.616  -3.869  29.737  0.00  0.00     0.166 HD
ATOM     17  C   UNK d   0      -0.795  -3.178  30.124  0.00  0.00     0.062 C 
ATOM     18  C   UNK d   0      -0.802  -5.599  30.255  0.00  0.00    -0.013 A 
ATOM     19  C   UNK d   0      -0.888  -2.091  29.292  0.00  0.00     0.067 A 
ATOM     20  N   UNK d   0      -1.911  -2.071  28.435  0.00  0.00    -0.248 NA
ATOM     21  C   UNK d   0      -0.115  -0.881  29.065  0.00  0.00    -0.011 A 
ATOM     22  C   UNK d   0      -1.864  -0.936  27.663  0.00  0.00     0.066 A 
ATOM     23  C   UNK d   0      -2.895  -0.768  26.750  0.00  0.00     0.062 C 
ATOM     24  C   UNK d   0      -0.690  -0.211  28.107  0.00  0.00    -0.020 A 
ATOM     25  C   UNK d   0      -4.033  -1.572  26.580  0.00  0.00     0.041 A 
ATOM     26  N   UNK d   0      -4.195  -2.900  26.611  0.00  0.00    -0.355 N 
ATOM     27  C   UNK d   0      -5.275  -0.942  26.348  0.00  0.00    -0.022 A 
ATOM     28  C   UNK d   0      -5.500  -3.139  26.410  0.00  0.00     0.042 A 
ATOM     29  H   UNK d   0      -3.390  -3.664  26.747  0.00  0.00     0.166 HD
ATOM     30  C   UNK d   0      -6.220  -4.343  26.351  0.00  0.00     0.062 C 
ATOM     31  C   UNK d   0      -6.209  -1.926  26.240  0.00  0.00    -0.013 A 
ATOM     32  C   UNK d   0      -6.064  -5.471  27.140  0.00  0.00     0.066 A 
BRANCH   8  33
ATOM     33  C   UNK d   0      -6.532  -8.784  28.665  0.00  0.00     0.151 C 
BRANCH  33  34
ATOM     34  C   UNK d   0      -5.855  -9.850  27.905  0.00  0.00     0.143 C 
ATOM     35  O   UNK d   0      -6.474 -10.529  27.073  0.00  0.00    -0.650 OA
BRANCH  34  36
ATOM     36  O   UNK d   0      -4.519 -10.093  28.124  0.00  0.00    -0.776 OA
ATOM     37  H   UNK d   0      -4.023 -10.841  27.622  0.00  0.00     0.167 HD
ENDBRANCH  34  36
ENDBRANCH  33  34
ENDBRANCH   8  33
BRANCH  31  38
ATOM     38  C   UNK d   0      -7.688  -1.729  26.003  0.00  0.00     0.151 C 
BRANCH  38  39
ATOM     39  C   UNK d   0      -8.031  -1.689  24.597  0.00  0.00     0.143 C 
ATOM     40  O   UNK d   0      -7.178  -1.522  23.709  0.00  0.00    -0.650 OA
BRANCH  39  41
ATOM     41  O   UNK d   0      -9.363  -1.842  24.211  0.00  0.00    -0.776 OA
ATOM     42  H   UNK d   0     -10.072  -1.437  24.830  0.00  0.00     0.167 HD
ENDBRANCH  39  41
ENDBRANCH  38  39
ENDBRANCH  31  38
BRANCH  27  43
ATOM     43  C   UNK d   0      -5.598   0.527  26.227  0.00  0.00     0.052 C 
BRANCH  43  44
ATOM     44  C   UNK d   0      -5.351   1.074  24.858  0.00  0.00     0.115 C 
BRANCH  44  45
ATOM     45  C   UNK d   0      -4.332   2.146  25.007  0.00  0.00     0.139 C 
ATOM     46  O   UNK d   0      -4.284   2.769  26.097  0.00  0.00    -0.650 OA
BRANCH  45  47
ATOM     47  O   UNK d   0      -3.442   2.475  24.008  0.00  0.00    -0.776 OA
ATOM     48  H   UNK d   0      -2.824   1.780  23.557  0.00  0.00     0.167 HD
ENDBRANCH  45  47
ENDBRANCH  44  45
ENDBRANCH  43  44
ENDBRANCH  27  43
BRANCH  24  49
ATOM     49  C   UNK d   0      -0.260   1.096  27.583  0.00  0.00     0.052 C 
BRANCH  49  50
ATOM     50  C   UNK d   0      -1.216   2.176  28.019  0.00  0.00     0.115 C 
BRANCH  50  51
ATOM     51  C   UNK d   0      -0.821   2.994  29.158  0.00  0.00     0.139 C 
ATOM     52  O   UNK d   0       0.031   3.910  29.070  0.00  0.00    -0.650 OA
BRANCH  51  53
ATOM     53  O   UNK d   0      -1.395   2.765  30.399  0.00  0.00    -0.776 OA
ATOM     54  H   UNK d   0      -2.377   2.554  30.437  0.00  0.00     0.167 HD
ENDBRANCH  51  53
ENDBRANCH  50  51
ENDBRANCH  49  50
ENDBRANCH  24  49
BRANCH  21  55
ATOM     55  C   UNK d   0       1.113  -0.518  29.831  0.00  0.00     0.151 C 
BRANCH  55  56
ATOM     56  C   UNK d   0       0.832  -0.319  31.262  0.00  0.00     0.143 C 
ATOM     57  O   UNK d   0      -0.020   0.491  31.676  0.00  0.00    -0.650 OA
BRANCH  56  58
ATOM     58  O   UNK d   0       1.559  -1.078  32.177  0.00  0.00    -0.776 OA
ATOM     59  H   UNK d   0       1.649  -2.082  31.938  0.00  0.00     0.167 HD
ENDBRANCH  56  58
ENDBRANCH  55  56
ENDBRANCH  21  55
BRANCH  18  60
ATOM     60  C   UNK d   0       0.670  -5.825  30.496  0.00  0.00     0.151 C 
BRANCH  60  61
ATOM     61  C   UNK d   0       0.974  -5.173  31.779  0.00  0.00     0.143 C 
ATOM     62  O   UNK d   0       0.518  -5.463  32.885  0.00  0.00    -0.650 OA
BRANCH  61  63
ATOM     63  O   UNK d   0       1.894  -4.099  31.705  0.00  0.00    -0.776 OA
ATOM     64  H   UNK d   0       2.720  -4.084  32.278  0.00  0.00     0.167 HD
ENDBRANCH  61  63
ENDBRANCH  60  61
ENDBRANCH  18  60
BRANCH  14  65
ATOM     65  C   UNK d   0      -1.407  -8.036  30.405  0.00  0.00     0.052 C 
BRANCH  65  66
ATOM     66  C   UNK d   0      -1.064  -8.324  31.824  0.00  0.00     0.115 C 
BRANCH  66  67
ATOM     67  C   UNK d   0      -2.073  -8.206  32.838  0.00  0.00     0.139 C 
ATOM     68  O   UNK d   0      -2.499  -7.033  33.147  0.00  0.00    -0.650 OA
BRANCH  67  69
ATOM     69  O   UNK d   0      -2.677  -9.232  33.564  0.00  0.00    -0.776 OA
ATOM     70  H   UNK d   0      -2.297  -9.398  34.507  0.00  0.00     0.167 HD
ENDBRANCH  67  69
ENDBRANCH  66  67
ENDBRANCH  65  66
ENDBRANCH  14  65
ENDBRANCH   6   7
ENDBRANCH   5   6
ENDBRANCH   2   5
TORSDOF 28
ENDMDL
MODEL 10
REMARK VINA RESULT:      -9.5      2.244      8.048
REMARK  28 active torsions:
REMARK  status: ('A' for Active; 'I' for Inactive)
REMARK    1  A    between atoms: C_2  and  O_3 
REMARK    2  A    between atoms: C_2  and  C_4 
REMARK    3  A    between atoms: C_4  and  C_5 
REMARK    4  A    between atoms: C_5  and  C_6 
REMARK    5  A    between atoms: C_7  and  C_8 
REMARK    6  A    between atoms: C_8  and  C_9 
REMARK    7  A    between atoms: C_9  and  O_11 
REMARK    8  A    between atoms: C_28  and  C_29 
REMARK    9  A    between atoms: C_29  and  C_30 
REMARK   10  A    between atoms: C_30  and  O_32 
REMARK   11  A    between atoms: C_33  and  C_34 
REMARK   12  A    between atoms: C_34  and  C_35 
REMARK   13  A    between atoms: C_35  and  C_36 
REMARK   14  A    between atoms: C_36  and  O_38 
REMARK   15  A    between atoms: C_39  and  C_40 
REMARK   16  A    between atoms: C_40  and  C_41 
REMARK   17  A    between atoms: C_41  and  C_42 
REMARK   18  A    between atoms: C_42  and  O_44 
REMARK   19  A    between atoms: C_45  and  C_46 
REMARK   20  A    between atoms: C_46  and  C_47 
REMARK   21  A    between atoms: C_47  and  O_49 
REMARK   22  A    between atoms: C_50  and  C_51 
REMARK   23  A    between atoms: C_51  and  C_52 
REMARK   24  A    between atoms: C_52  and  O_54 
REMARK   25  A    between atoms: C_55  and  C_56 
REMARK   26  A    between atoms: C_56  and  C_57 
REMARK   27  A    between atoms: C_57  and  C_58 
REMARK   28  A    between atoms: C_58  and  O_60 
ROOT
ATOM      1  O   UNK d   0       0.174 -11.884  28.875  0.00  0.00    -0.650 OA
ATOM      2  C   UNK d   0       0.308 -10.790  29.468  0.00  0.00     0.139 C 
ENDROOT
BRANCH   2   3
ATOM      3  O   UNK d   0       1.211 -10.689  30.500  0.00  0.00    -0.776 OA
ATOM      4  H   UNK d   0       1.641  -9.793  30.739  0.00  0.00     0.167 HD
ENDBRANCH   2   3
BRANCH   2   5
ATOM      5  C   UNK d   0      -0.506  -9.611  29.057  0.00  0.00     0.115 C 
BRANCH   5   6
ATOM      6  C   UNK d   0      -1.098  -8.944  30.269  0.00  0.00     0.052 C 
BRANCH   6   7
ATOM      7  C   UNK d   0      -1.176  -7.443  30.126  0.00  0.00    -0.020 A 
ATOM      8  C   UNK d   0      -0.368  -6.549  30.637  0.00  0.00    -0.011 A 
ATOM      9  C   UNK d   0      -0.845  -5.237  30.236  0.00  0.00     0.067 A 
ATOM     10  C   UNK d   0      -0.433  -3.908  30.425  0.00  0.00     0.062 C 
ATOM     11  N   UNK d   0      -1.953  -5.424  29.488  0.00  0.00    -0.248 NA
ATOM     12  C   UNK d   0      -0.869  -2.778  29.724  0.00  0.00     0.041 A 
ATOM     13  N   UNK d   0      -2.099  -2.399  29.331  0.00  0.00    -0.355 N 
ATOM     14  C   UNK d   0       0.086  -1.852  29.266  0.00  0.00    -0.022 A 
ATOM     15  C   UNK d   0      -1.949  -1.260  28.628  0.00  0.00     0.042 A 
ATOM     16  H   UNK d   0      -3.057  -2.915  29.562  0.00  0.00     0.166 HD
ATOM     17  C   UNK d   0      -2.908  -0.445  27.995  0.00  0.00     0.062 C 
ATOM     18  C   UNK d   0      -0.593  -0.886  28.566  0.00  0.00    -0.013 A 
ATOM     19  C   UNK d   0      -3.967  -0.813  27.205  0.00  0.00     0.067 A 
ATOM     20  N   UNK d   0      -4.274  -2.113  27.173  0.00  0.00    -0.248 NA
ATOM     21  C   UNK d   0      -4.901  -0.131  26.324  0.00  0.00    -0.011 A 
ATOM     22  C   UNK d   0      -5.339  -2.330  26.334  0.00  0.00     0.066 A 
ATOM     23  C   UNK d   0      -5.789  -3.639  26.235  0.00  0.00     0.062 C 
ATOM     24  C   UNK d   0      -5.698  -1.025  25.814  0.00  0.00    -0.020 A 
ATOM     25  C   UNK d   0      -5.346  -4.757  26.958  0.00  0.00     0.041 A 
ATOM     26  N   UNK d   0      -4.122  -5.142  27.336  0.00  0.00    -0.355 N 
ATOM     27  C   UNK d   0      -6.306  -5.684  27.421  0.00  0.00    -0.022 A 
ATOM     28  C   UNK d   0      -4.268  -6.283  28.029  0.00  0.00     0.042 A 
ATOM     29  H   UNK d   0      -3.159  -4.628  27.094  0.00  0.00     0.166 HD
ATOM     30  C   UNK d   0      -3.322  -7.109  28.657  0.00  0.00     0.062 C 
ATOM     31  C   UNK d   0      -5.632  -6.652  28.100  0.00  0.00    -0.013 A 
ATOM     32  C   UNK d   0      -2.204  -6.730  29.383  0.00  0.00     0.066 A 
BRANCH   8  33
ATOM     33  C   UNK d   0       0.817  -6.805  31.476  0.00  0.00     0.151 C 
BRANCH  33  34
ATOM     34  C   UNK d   0       2.062  -6.904  30.692  0.00  0.00     0.143 C 
ATOM     35  O   UNK d   0       2.401  -7.975  30.168  0.00  0.00    -0.650 OA
BRANCH  34  36
ATOM     36  O   UNK d   0       2.856  -5.791  30.542  0.00  0.00    -0.776 OA
ATOM     37  H   UNK d   0       2.457  -4.882  30.270  0.00  0.00     0.167 HD
ENDBRANCH  34  36
ENDBRANCH  33  34
ENDBRANCH   8  33
BRANCH  31  38
ATOM     38  C   UNK d   0      -6.245  -7.849  28.788  0.00  0.00     0.151 C 
BRANCH  38  39
ATOM     39  C   UNK d   0      -6.158  -9.058  27.996  0.00  0.00     0.143 C 
ATOM     40  O   UNK d   0      -5.204  -9.850  28.093  0.00  0.00    -0.650 OA
BRANCH  39  41
ATOM     41  O   UNK d   0      -7.172  -9.357  27.087  0.00  0.00    -0.776 OA
ATOM     42  H   UNK d   0      -7.861  -8.621  26.905  0.00  0.00     0.167 HD
ENDBRANCH  39  41
ENDBRANCH  38  39
ENDBRANCH  31  38
BRANCH  27  43
ATOM     43  C   UNK d   0      -7.803  -5.683  27.242  0.00  0.00     0.052 C 
BRANCH  43  44
ATOM     44  C   UNK d   0      -8.247  -6.324  25.967  0.00  0.00     0.115 C 
BRANCH  44  45
ATOM     45  C   UNK d   0      -9.553  -6.974  26.251  0.00  0.00     0.139 C 
ATOM     46  O   UNK d   0      -9.687  -8.187  25.953  0.00  0.00    -0.650 OA
BRANCH  45  47
ATOM     47  O   UNK d   0     -10.611  -6.306  26.829  0.00  0.00    -0.776 OA
ATOM     48  H   UNK d   0     -11.329  -5.811  26.276  0.00  0.00     0.167 HD
ENDBRANCH  45  47
ENDBRANCH  44  45
ENDBRANCH  43  44
ENDBRANCH  27  43
BRANCH  24  49
ATOM     49  C   UNK d   0      -6.821  -0.765  24.897  0.00  0.00     0.052 C 
BRANCH  49  50
ATOM     50  C   UNK d   0      -8.107  -0.620  25.670  0.00  0.00     0.115 C 
BRANCH  50  51
ATOM     51  C   UNK d   0      -9.278  -1.311  25.148  0.00  0.00     0.139 C 
ATOM     52  O   UNK d   0     -10.312  -1.499  25.831  0.00  0.00    -0.650 OA
BRANCH  51  53
ATOM     53  O   UNK d   0      -9.268  -1.792  23.847  0.00  0.00    -0.776 OA
ATOM     54  H   UNK d   0     -10.026  -2.383  23.553  0.00  0.00     0.167 HD
ENDBRANCH  51  53
ENDBRANCH  50  51
ENDBRANCH  49  50
ENDBRANCH  24  49
BRANCH  21  55
ATOM     55  C   UNK d   0      -4.901   1.343  26.088  0.00  0.00     0.151 C 
BRANCH  55  56
ATOM     56  C   UNK d   0      -3.828   1.754  25.170  0.00  0.00     0.143 C 
ATOM     57  O   UNK d   0      -3.976   1.792  23.932  0.00  0.00    -0.650 OA
BRANCH  56  58
ATOM     58  O   UNK d   0      -2.601   2.113  25.725  0.00  0.00    -0.776 OA
ATOM     59  H   UNK d   0      -1.799   1.532  25.422  0.00  0.00     0.167 HD
ENDBRANCH  56  58
ENDBRANCH  55  56
ENDBRANCH  21  55
BRANCH  18  60
ATOM     60  C   UNK d   0       0.046   0.302  27.891  0.00  0.00     0.151 C 
BRANCH  60  61
ATOM     61  C   UNK d   0      -0.356   1.478  28.678  0.00  0.00     0.143 C 
ATOM     62  O   UNK d   0      -0.526   1.533  29.896  0.00  0.00    -0.650 OA
BRANCH  61  63
ATOM     63  O   UNK d   0      -0.563   2.662  27.929  0.00  0.00    -0.776 OA
ATOM     64  H   UNK d   0      -0.131   2.790  27.031  0.00  0.00     0.167 HD
ENDBRANCH  61  63
ENDBRANCH  60  61
ENDBRANCH  18  60
BRANCH  14  65
ATOM     65  C   UNK d   0       1.564  -1.759  29.521  0.00  0.00     0.052 C 
BRANCH  65  66
ATOM     66  C   UNK d   0       1.904  -0.844  30.644  0.00  0.00     0.115 C 
BRANCH  66  67
ATOM     67  C   UNK d   0       1.211  -0.965  31.895  0.00  0.00     0.139 C 
ATOM     68  O   UNK d   0       1.571  -1.893  32.709  0.00  0.00    -0.650 OA
BRANCH  67  69
ATOM     69  O   UNK d   0       0.157  -0.182  32.366  0.00  0.00    -0.776 OA
ATOM     70  H   UNK d   0      -0.262   0.463  31.682  0.00  0.00     0.167 HD
ENDBRANCH  67  69
ENDBRANCH  66  67
ENDBRANCH  65  66
ENDBRANCH  14  65
ENDBRANCH   6   7
ENDBRANCH   5   6
ENDBRANCH   2   5
TORSDOF 28
ENDMDL
MODEL 11
REMARK VINA RESULT:      -9.5      1.954      7.732
REMARK  28 active torsions:
REMARK  status: ('A' for Active; 'I' for Inactive)
REMARK    1  A    between atoms: C_2  and  O_3 
REMARK    2  A    between atoms: C_2  and  C_4 
REMARK    3  A    between atoms: C_4  and  C_5 
REMARK    4  A    between atoms: C_5  and  C_6 
REMARK    5  A    between atoms: C_7  and  C_8 
REMARK    6  A    between atoms: C_8  and  C_9 
REMARK    7  A    between atoms: C_9  and  O_11 
REMARK    8  A    between atoms: C_28  and  C_29 
REMARK    9  A    between atoms: C_29  and  C_30 
REMARK   10  A    between atoms: C_30  and  O_32 
REMARK   11  A    between atoms: C_33  and  C_34 
REMARK   12  A    between atoms: C_34  and  C_35 
REMARK   13  A    between atoms: C_35  and  C_36 
REMARK   14  A    between atoms: C_36  and  O_38 
REMARK   15  A    between atoms: C_39  and  C_40 
REMARK   16  A    between atoms: C_40  and  C_41 
REMARK   17  A    between atoms: C_41  and  C_42 
REMARK   18  A    between atoms: C_42  and  O_44 
REMARK   19  A    between atoms: C_45  and  C_46 
REMARK   20  A    between atoms: C_46  and  C_47 
REMARK   21  A    between atoms: C_47  and  O_49 
REMARK   22  A    between atoms: C_50  and  C_51 
REMARK   23  A    between atoms: C_51  and  C_52 
REMARK   24  A    between atoms: C_52  and  O_54 
REMARK   25  A    between atoms: C_55  and  C_56 
REMARK   26  A    between atoms: C_56  and  C_57 
REMARK   27  A    between atoms: C_57  and  C_58 
REMARK   28  A    between atoms: C_58  and  O_60 
ROOT
ATOM      1  O   UNK d   0      -1.833 -11.757  29.424  0.00  0.00    -0.650 OA
ATOM      2  C   UNK d   0      -2.058 -10.554  29.165  0.00  0.00     0.139 C 
ENDROOT
BRANCH   2   3
ATOM      3  O   UNK d   0      -3.086 -10.229  28.312  0.00  0.00    -0.776 OA
ATOM      4  H   UNK d   0      -3.259 -10.772  27.464  0.00  0.00     0.167 HD
ENDBRANCH   2   3
BRANCH   2   5
ATOM      5  C   UNK d   0      -1.216  -9.487  29.777  0.00  0.00     0.115 C 
BRANCH   5   6
ATOM      6  C   UNK d   0      -2.039  -8.659  30.726  0.00  0.00     0.052 C 
BRANCH   6   7
ATOM      7  C   UNK d   0      -1.967  -7.181  30.421  0.00  0.00    -0.020 A 
ATOM      8  C   UNK d   0      -1.188  -6.289  30.977  0.00  0.00    -0.011 A 
ATOM      9  C   UNK d   0      -1.480  -5.002  30.368  0.00  0.00     0.067 A 
ATOM     10  C   UNK d   0      -0.998  -3.690  30.494  0.00  0.00     0.062 C 
ATOM     11  N   UNK d   0      -2.453  -5.203  29.454  0.00  0.00    -0.248 NA
ATOM     12  C   UNK d   0      -1.212  -2.621  29.616  0.00  0.00     0.041 A 
ATOM     13  N   UNK d   0      -2.320  -2.212  28.971  0.00  0.00    -0.355 N 
ATOM     14  C   UNK d   0      -0.119  -1.815  29.247  0.00  0.00    -0.022 A 
ATOM     15  C   UNK d   0      -1.958  -1.172  28.196  0.00  0.00     0.042 A 
ATOM     16  H   UNK d   0      -3.343  -2.637  29.076  0.00  0.00     0.166 HD
ATOM     17  C   UNK d   0      -2.723  -0.374  27.322  0.00  0.00     0.062 C 
ATOM     18  C   UNK d   0      -0.585  -0.894  28.342  0.00  0.00    -0.013 A 
ATOM     19  C   UNK d   0      -3.656  -0.762  26.395  0.00  0.00     0.067 A 
ATOM     20  N   UNK d   0      -4.059  -2.035  26.438  0.00  0.00    -0.248 NA
ATOM     21  C   UNK d   0      -4.365  -0.127  25.296  0.00  0.00    -0.011 A 
ATOM     22  C   UNK d   0      -4.978  -2.278  25.447  0.00  0.00     0.066 A 
ATOM     23  C   UNK d   0      -5.510  -3.558  25.400  0.00  0.00     0.062 C 
ATOM     24  C   UNK d   0      -5.133  -1.020  24.743  0.00  0.00    -0.020 A 
ATOM     25  C   UNK d   0      -5.293  -4.613  26.299  0.00  0.00     0.041 A 
ATOM     26  N   UNK d   0      -4.188  -5.030  26.929  0.00  0.00    -0.355 N 
ATOM     27  C   UNK d   0      -6.391  -5.419  26.673  0.00  0.00    -0.022 A 
ATOM     28  C   UNK d   0      -4.544  -6.073  27.695  0.00  0.00     0.042 A 
ATOM     29  H   UNK d   0      -3.159  -4.608  26.814  0.00  0.00     0.166 HD
ATOM     30  C   UNK d   0      -3.793  -6.881  28.563  0.00  0.00     0.062 C 
ATOM     31  C   UNK d   0      -5.926  -6.344  27.556  0.00  0.00    -0.013 A 
ATOM     32  C   UNK d   0      -2.790  -6.493  29.437  0.00  0.00     0.066 A 
BRANCH   8  33
ATOM     33  C   UNK d   0      -0.191  -6.523  32.038  0.00  0.00     0.151 C 
BRANCH  33  34
ATOM     34  C   UNK d   0       1.192  -6.536  31.528  0.00  0.00     0.143 C 
ATOM     35  O   UNK d   0       1.691  -7.573  31.068  0.00  0.00    -0.650 OA
BRANCH  34  36
ATOM     36  O   UNK d   0       1.937  -5.380  31.566  0.00  0.00    -0.776 OA
ATOM     37  H   UNK d   0       1.584  -4.532  32.029  0.00  0.00     0.167 HD
ENDBRANCH  34  36
ENDBRANCH  33  34
ENDBRANCH   8  33
BRANCH  31  38
ATOM     38  C   UNK d   0      -6.745  -7.415  28.239  0.00  0.00     0.151 C 
BRANCH  38  39
ATOM     39  C   UNK d   0      -6.687  -8.689  27.554  0.00  0.00     0.143 C 
ATOM     40  O   UNK d   0      -5.930  -9.606  27.918  0.00  0.00    -0.650 OA
BRANCH  39  41
ATOM     41  O   UNK d   0      -7.503  -8.910  26.445  0.00  0.00    -0.776 OA
ATOM     42  H   UNK d   0      -7.073  -8.785  25.523  0.00  0.00     0.167 HD
ENDBRANCH  39  41
ENDBRANCH  38  39
ENDBRANCH  31  38
BRANCH  27  43
ATOM     43  C   UNK d   0      -7.830  -5.343  26.228  0.00  0.00     0.052 C 
BRANCH  43  44
ATOM     44  C   UNK d   0      -8.717  -4.655  27.213  0.00  0.00     0.115 C 
BRANCH  44  45
ATOM     45  C   UNK d   0      -9.017  -3.313  26.649  0.00  0.00     0.139 C 
ATOM     46  O   UNK d   0      -8.417  -2.321  27.131  0.00  0.00    -0.650 OA
BRANCH  45  47
ATOM     47  O   UNK d   0      -9.916  -3.118  25.623  0.00  0.00    -0.776 OA
ATOM     48  H   UNK d   0     -10.196  -2.179  25.294  0.00  0.00     0.167 HD
ENDBRANCH  45  47
ENDBRANCH  44  45
ENDBRANCH  43  44
ENDBRANCH  27  43
BRANCH  24  49
ATOM     49  C   UNK d   0      -6.055  -0.795  23.617  0.00  0.00     0.052 C 
BRANCH  49  50
ATOM     50  C   UNK d   0      -7.452  -1.222  23.989  0.00  0.00     0.115 C 
BRANCH  50  51
ATOM     51  C   UNK d   0      -8.422  -0.168  24.254  0.00  0.00     0.139 C 
ATOM     52  O   UNK d   0      -9.623  -0.405  24.524  0.00  0.00    -0.650 OA
BRANCH  51  53
ATOM     53  O   UNK d   0      -8.022   1.159  24.208  0.00  0.00    -0.776 OA
ATOM     54  H   UNK d   0      -7.560   1.488  23.378  0.00  0.00     0.167 HD
ENDBRANCH  51  53
ENDBRANCH  50  51
ENDBRANCH  49  50
ENDBRANCH  24  49
BRANCH  21  55
ATOM     55  C   UNK d   0      -4.203   1.308  24.917  0.00  0.00     0.151 C 
BRANCH  55  56
ATOM     56  C   UNK d   0      -4.914   2.206  25.840  0.00  0.00     0.143 C 
ATOM     57  O   UNK d   0      -6.133   2.102  26.078  0.00  0.00    -0.650 OA
BRANCH  56  58
ATOM     58  O   UNK d   0      -4.176   3.210  26.466  0.00  0.00    -0.776 OA
ATOM     59  H   UNK d   0      -4.743   3.954  26.912  0.00  0.00     0.167 HD
ENDBRANCH  56  58
ENDBRANCH  55  56
ENDBRANCH  21  55
BRANCH  18  60
ATOM     60  C   UNK d   0       0.257   0.167  27.678  0.00  0.00     0.151 C 
BRANCH  60  61
ATOM     61  C   UNK d   0      -0.178   1.448  28.256  0.00  0.00     0.143 C 
ATOM     62  O   UNK d   0      -0.168   1.767  29.445  0.00  0.00    -0.650 OA
BRANCH  61  63
ATOM     63  O   UNK d   0      -0.655   2.400  27.322  0.00  0.00    -0.776 OA
ATOM     64  H   UNK d   0      -1.473   2.217  26.768  0.00  0.00     0.167 HD
ENDBRANCH  61  63
ENDBRANCH  60  61
ENDBRANCH  18  60
BRANCH  14  65
ATOM     65  C   UNK d   0       1.295  -1.788  29.754  0.00  0.00     0.052 C 
BRANCH  65  66
ATOM     66  C   UNK d   0       1.452  -0.987  30.997  0.00  0.00     0.115 C 
BRANCH  66  67
ATOM     67  C   UNK d   0       1.158  -1.583  32.270  0.00  0.00     0.139 C 
ATOM     68  O   UNK d   0       1.828  -2.620  32.631  0.00  0.00    -0.650 OA
BRANCH  67  69
ATOM     69  O   UNK d   0       0.207  -1.175  33.205  0.00  0.00    -0.776 OA
ATOM     70  H   UNK d   0      -0.356  -0.354  32.941  0.00  0.00     0.167 HD
ENDBRANCH  67  69
ENDBRANCH  66  67
ENDBRANCH  65  66
ENDBRANCH  14  65
ENDBRANCH   6   7
ENDBRANCH   5   6
ENDBRANCH   2   5
TORSDOF 28
ENDMDL
MODEL 12
REMARK VINA RESULT:      -9.4      2.318      7.901
REMARK  28 active torsions:
REMARK  status: ('A' for Active; 'I' for Inactive)
REMARK    1  A    between atoms: C_2  and  O_3 
REMARK    2  A    between atoms: C_2  and  C_4 
REMARK    3  A    between atoms: C_4  and  C_5 
REMARK    4  A    between atoms: C_5  and  C_6 
REMARK    5  A    between atoms: C_7  and  C_8 
REMARK    6  A    between atoms: C_8  and  C_9 
REMARK    7  A    between atoms: C_9  and  O_11 
REMARK    8  A    between atoms: C_28  and  C_29 
REMARK    9  A    between atoms: C_29  and  C_30 
REMARK   10  A    between atoms: C_30  and  O_32 
REMARK   11  A    between atoms: C_33  and  C_34 
REMARK   12  A    between atoms: C_34  and  C_35 
REMARK   13  A    between atoms: C_35  and  C_36 
REMARK   14  A    between atoms: C_36  and  O_38 
REMARK   15  A    between atoms: C_39  and  C_40 
REMARK   16  A    between atoms: C_40  and  C_41 
REMARK   17  A    between atoms: C_41  and  C_42 
REMARK   18  A    between atoms: C_42  and  O_44 
REMARK   19  A    between atoms: C_45  and  C_46 
REMARK   20  A    between atoms: C_46  and  C_47 
REMARK   21  A    between atoms: C_47  and  O_49 
REMARK   22  A    between atoms: C_50  and  C_51 
REMARK   23  A    between atoms: C_51  and  C_52 
REMARK   24  A    between atoms: C_52  and  O_54 
REMARK   25  A    between atoms: C_55  and  C_56 
REMARK   26  A    between atoms: C_56  and  C_57 
REMARK   27  A    between atoms: C_57  and  C_58 
REMARK   28  A    between atoms: C_58  and  O_60 
ROOT
ATOM      1  O   UNK d   0      -2.505  -7.093  33.188  0.00  0.00    -0.650 OA
ATOM      2  C   UNK d   0      -2.448  -8.260  32.742  0.00  0.00     0.139 C 
ENDROOT
BRANCH   2   3
ATOM      3  O   UNK d   0      -2.176  -9.297  33.602  0.00  0.00    -0.776 OA
ATOM      4  H   UNK d   0      -2.057 -10.252  33.256  0.00  0.00     0.167 HD
ENDBRANCH   2   3
BRANCH   2   5
ATOM      5  C   UNK d   0      -2.673  -8.519  31.292  0.00  0.00     0.115 C 
BRANCH   5   6
ATOM      6  C   UNK d   0      -1.437  -8.175  30.507  0.00  0.00     0.052 C 
BRANCH   6   7
ATOM      7  C   UNK d   0      -1.325  -6.698  30.217  0.00  0.00    -0.020 A 
ATOM      8  C   UNK d   0      -0.445  -5.855  30.694  0.00  0.00    -0.011 A 
ATOM      9  C   UNK d   0      -0.738  -4.544  30.139  0.00  0.00     0.067 A 
ATOM     10  C   UNK d   0      -0.180  -3.259  30.229  0.00  0.00     0.062 C 
ATOM     11  N   UNK d   0      -1.816  -4.680  29.339  0.00  0.00    -0.248 NA
ATOM     12  C   UNK d   0      -0.436  -2.165  29.396  0.00  0.00     0.041 A 
ATOM     13  N   UNK d   0      -1.588  -1.689  28.885  0.00  0.00    -0.355 N 
ATOM     14  C   UNK d   0       0.648  -1.405  28.917  0.00  0.00    -0.022 A 
ATOM     15  C   UNK d   0      -1.262  -0.653  28.089  0.00  0.00     0.042 A 
ATOM     16  H   UNK d   0      -2.612  -2.067  29.099  0.00  0.00     0.166 HD
ATOM     17  C   UNK d   0      -2.079   0.197  27.318  0.00  0.00     0.062 C 
ATOM     18  C   UNK d   0       0.131  -0.445  28.084  0.00  0.00    -0.013 A 
ATOM     19  C   UNK d   0      -3.129  -0.127  26.497  0.00  0.00     0.067 A 
ATOM     20  N   UNK d   0      -3.587  -1.379  26.567  0.00  0.00    -0.248 NA
ATOM     21  C   UNK d   0      -3.922   0.563  25.494  0.00  0.00    -0.011 A 
ATOM     22  C   UNK d   0      -4.622  -1.558  25.682  0.00  0.00     0.066 A 
ATOM     23  C   UNK d   0      -5.220  -2.810  25.678  0.00  0.00     0.062 C 
ATOM     24  C   UNK d   0      -4.792  -0.281  25.018  0.00  0.00    -0.020 A 
ATOM     25  C   UNK d   0      -4.957  -3.892  26.532  0.00  0.00     0.041 A 
ATOM     26  N   UNK d   0      -3.811  -4.374  27.028  0.00  0.00    -0.355 N 
ATOM     27  C   UNK d   0      -6.045  -4.651  27.015  0.00  0.00    -0.022 A 
ATOM     28  C   UNK d   0      -4.132  -5.413  27.815  0.00  0.00     0.042 A 
ATOM     29  H   UNK d   0      -2.781  -4.000  26.804  0.00  0.00     0.166 HD
ATOM     30  C   UNK d   0      -3.329  -6.273  28.581  0.00  0.00     0.062 C 
ATOM     31  C   UNK d   0      -5.532  -5.615  27.828  0.00  0.00    -0.013 A 
ATOM     32  C   UNK d   0      -2.216  -5.952  29.342  0.00  0.00     0.066 A 
BRANCH   8  33
ATOM     33  C   UNK d   0       0.652  -6.158  31.633  0.00  0.00     0.151 C 
BRANCH  33  34
ATOM     34  C   UNK d   0       1.943  -6.365  30.953  0.00  0.00     0.143 C 
ATOM     35  O   UNK d   0       2.651  -5.403  30.623  0.00  0.00    -0.650 OA
BRANCH  34  36
ATOM     36  O   UNK d   0       2.365  -7.646  30.681  0.00  0.00    -0.776 OA
ATOM     37  H   UNK d   0       1.706  -8.369  30.360  0.00  0.00     0.167 HD
ENDBRANCH  34  36
ENDBRANCH  33  34
ENDBRANCH   8  33
BRANCH  31  38
ATOM     38  C   UNK d   0      -6.323  -6.657  28.583  0.00  0.00     0.151 C 
BRANCH  38  39
ATOM     39  C   UNK d   0      -6.486  -7.887  27.838  0.00  0.00     0.143 C 
ATOM     40  O   UNK d   0      -7.257  -7.979  26.866  0.00  0.00    -0.650 OA
BRANCH  39  41
ATOM     41  O   UNK d   0      -5.759  -9.017  28.210  0.00  0.00    -0.776 OA
ATOM     42  H   UNK d   0      -6.219  -9.672  28.850  0.00  0.00     0.167 HD
ENDBRANCH  39  41
ENDBRANCH  38  39
ENDBRANCH  31  38
BRANCH  27  43
ATOM     43  C   UNK d   0      -7.520  -4.497  26.737  0.00  0.00     0.052 C 
BRANCH  43  44
ATOM     44  C   UNK d   0      -8.091  -3.221  27.264  0.00  0.00     0.115 C 
BRANCH  44  45
ATOM     45  C   UNK d   0      -9.500  -3.160  26.795  0.00  0.00     0.139 C 
ATOM     46  O   UNK d   0     -10.354  -2.642  27.556  0.00  0.00    -0.650 OA
BRANCH  45  47
ATOM     47  O   UNK d   0      -9.900  -3.642  25.568  0.00  0.00    -0.776 OA
ATOM     48  H   UNK d   0     -10.408  -4.534  25.454  0.00  0.00     0.167 HD
ENDBRANCH  45  47
ENDBRANCH  44  45
ENDBRANCH  43  44
ENDBRANCH  27  43
BRANCH  24  49
ATOM     49  C   UNK d   0      -5.822   0.011  24.006  0.00  0.00     0.052 C 
BRANCH  49  50
ATOM     50  C   UNK d   0      -7.161   0.218  24.666  0.00  0.00     0.115 C 
BRANCH  50  51
ATOM     51  C   UNK d   0      -8.301  -0.483  24.090  0.00  0.00     0.139 C 
ATOM     52  O   UNK d   0      -8.346  -1.732  23.989  0.00  0.00    -0.650 OA
BRANCH  51  53
ATOM     53  O   UNK d   0      -9.389   0.240  23.628  0.00  0.00    -0.776 OA
ATOM     54  H   UNK d   0      -9.405   0.508  22.659  0.00  0.00     0.167 HD
ENDBRANCH  51  53
ENDBRANCH  50  51
ENDBRANCH  49  50
ENDBRANCH  24  49
BRANCH  21  55
ATOM     55  C   UNK d   0      -3.732   1.996  25.119  0.00  0.00     0.151 C 
BRANCH  55  56
ATOM     56  C   UNK d   0      -4.413   2.906  26.053  0.00  0.00     0.143 C 
ATOM     57  O   UNK d   0      -5.654   2.960  26.157  0.00  0.00    -0.650 OA
BRANCH  56  58
ATOM     58  O   UNK d   0      -3.621   3.734  26.846  0.00  0.00    -0.776 OA
ATOM     59  H   UNK d   0      -2.851   3.253  27.345  0.00  0.00     0.167 HD
ENDBRANCH  56  58
ENDBRANCH  55  56
ENDBRANCH  21  55
BRANCH  18  60
ATOM     60  C   UNK d   0       0.945   0.587  27.344  0.00  0.00     0.151 C 
BRANCH  60  61
ATOM     61  C   UNK d   0       1.227   1.653  28.318  0.00  0.00     0.143 C 
ATOM     62  O   UNK d   0       2.283   1.847  28.921  0.00  0.00    -0.650 OA
BRANCH  61  63
ATOM     63  O   UNK d   0       0.151   2.538  28.570  0.00  0.00    -0.776 OA
ATOM     64  H   UNK d   0       0.301   3.419  29.029  0.00  0.00     0.167 HD
ENDBRANCH  61  63
ENDBRANCH  60  61
ENDBRANCH  18  60
BRANCH  14  65
ATOM     65  C   UNK d   0       2.109  -1.456  29.262  0.00  0.00     0.052 C 
BRANCH  65  66
ATOM     66  C   UNK d   0       2.911  -2.235  28.281  0.00  0.00     0.115 C 
BRANCH  66  67
ATOM     67  C   UNK d   0       4.022  -1.614  27.616  0.00  0.00     0.139 C 
ATOM     68  O   UNK d   0       5.068  -1.328  28.307  0.00  0.00    -0.650 OA
BRANCH  67  69
ATOM     69  O   UNK d   0       4.124  -1.263  26.271  0.00  0.00    -0.776 OA
ATOM     70  H   UNK d   0       3.409  -0.609  25.923  0.00  0.00     0.167 HD
ENDBRANCH  67  69
ENDBRANCH  66  67
ENDBRANCH  65  66
ENDBRANCH  14  65
ENDBRANCH   6   7
ENDBRANCH   5   6
ENDBRANCH   2   5
TORSDOF 28
ENDMDL
MODEL 13
REMARK VINA RESULT:      -9.2      2.165      8.427
REMARK  28 active torsions:
REMARK  status: ('A' for Active; 'I' for Inactive)
REMARK    1  A    between atoms: C_2  and  O_3 
REMARK    2  A    between atoms: C_2  and  C_4 
REMARK    3  A    between atoms: C_4  and  C_5 
REMARK    4  A    between atoms: C_5  and  C_6 
REMARK    5  A    between atoms: C_7  and  C_8 
REMARK    6  A    between atoms: C_8  and  C_9 
REMARK    7  A    between atoms: C_9  and  O_11 
REMARK    8  A    between atoms: C_28  and  C_29 
REMARK    9  A    between atoms: C_29  and  C_30 
REMARK   10  A    between atoms: C_30  and  O_32 
REMARK   11  A    between atoms: C_33  and  C_34 
REMARK   12  A    between atoms: C_34  and  C_35 
REMARK   13  A    between atoms: C_35  and  C_36 
REMARK   14  A    between atoms: C_36  and  O_38 
REMARK   15  A    between atoms: C_39  and  C_40 
REMARK   16  A    between atoms: C_40  and  C_41 
REMARK   17  A    between atoms: C_41  and  C_42 
REMARK   18  A    between atoms: C_42  and  O_44 
REMARK   19  A    between atoms: C_45  and  C_46 
REMARK   20  A    between atoms: C_46  and  C_47 
REMARK   21  A    between atoms: C_47  and  O_49 
REMARK   22  A    between atoms: C_50  and  C_51 
REMARK   23  A    between atoms: C_51  and  C_52 
REMARK   24  A    between atoms: C_52  and  O_54 
REMARK   25  A    between atoms: C_55  and  C_56 
REMARK   26  A    between atoms: C_56  and  C_57 
REMARK   27  A    between atoms: C_57  and  C_58 
REMARK   28  A    between atoms: C_58  and  O_60 
ROOT
ATOM      1  O   UNK d   0     -10.113  -8.730  25.365  0.00  0.00    -0.650 OA
ATOM      2  C   UNK d   0     -10.270  -7.719  26.085  0.00  0.00     0.139 C 
ENDROOT
BRANCH   2   3
ATOM      3  O   UNK d   0     -11.521  -7.430  26.576  0.00  0.00    -0.776 OA
ATOM      4  H   UNK d   0     -11.818  -7.767  27.494  0.00  0.00     0.167 HD
ENDBRANCH   2   3
BRANCH   2   5
ATOM      5  C   UNK d   0      -9.110  -6.839  26.404  0.00  0.00     0.115 C 
BRANCH   5   6
ATOM      6  C   UNK d   0      -7.821  -7.554  26.104  0.00  0.00     0.052 C 
BRANCH   6   7
ATOM      7  C   UNK d   0      -6.723  -7.206  27.080  0.00  0.00    -0.020 A 
ATOM      8  C   UNK d   0      -6.281  -7.930  28.076  0.00  0.00    -0.011 A 
ATOM      9  C   UNK d   0      -5.226  -7.180  28.738  0.00  0.00     0.067 A 
ATOM     10  C   UNK d   0      -4.360  -7.392  29.822  0.00  0.00     0.062 C 
ATOM     11  N   UNK d   0      -5.096  -6.007  28.082  0.00  0.00    -0.248 NA
ATOM     12  C   UNK d   0      -3.210  -6.662  30.143  0.00  0.00     0.041 A 
ATOM     13  N   UNK d   0      -2.972  -5.337  30.141  0.00  0.00    -0.355 N 
ATOM     14  C   UNK d   0      -2.037  -7.358  30.487  0.00  0.00    -0.022 A 
ATOM     15  C   UNK d   0      -1.676  -5.174  30.467  0.00  0.00     0.042 A 
ATOM     16  H   UNK d   0      -3.711  -4.532  29.933  0.00  0.00     0.166 HD
ATOM     17  C   UNK d   0      -0.911  -3.999  30.610  0.00  0.00     0.062 C 
ATOM     18  C   UNK d   0      -1.057  -6.418  30.691  0.00  0.00    -0.013 A 
ATOM     19  C   UNK d   0      -0.864  -2.896  29.796  0.00  0.00     0.067 A 
ATOM     20  N   UNK d   0      -1.794  -2.808  28.842  0.00  0.00    -0.248 NA
ATOM     21  C   UNK d   0      -0.011  -1.726  29.671  0.00  0.00    -0.011 A 
ATOM     22  C   UNK d   0      -1.611  -1.666  28.102  0.00  0.00     0.066 A 
ATOM     23  C   UNK d   0      -2.536  -1.429  27.096  0.00  0.00     0.062 C 
ATOM     24  C   UNK d   0      -0.451  -1.012  28.675  0.00  0.00    -0.020 A 
ATOM     25  C   UNK d   0      -3.692  -2.168  26.798  0.00  0.00     0.041 A 
ATOM     26  N   UNK d   0      -3.924  -3.486  26.785  0.00  0.00    -0.355 N 
ATOM     27  C   UNK d   0      -4.870  -1.469  26.457  0.00  0.00    -0.022 A 
ATOM     28  C   UNK d   0      -5.214  -3.652  26.451  0.00  0.00     0.042 A 
ATOM     29  H   UNK d   0      -3.178  -4.294  26.984  0.00  0.00     0.166 HD
ATOM     30  C   UNK d   0      -5.985  -4.814  26.296  0.00  0.00     0.062 C 
ATOM     31  C   UNK d   0      -5.838  -2.400  26.237  0.00  0.00    -0.013 A 
ATOM     32  C   UNK d   0      -5.968  -5.961  27.074  0.00  0.00     0.066 A 
BRANCH   8  33
ATOM     33  C   UNK d   0      -6.756  -9.267  28.478  0.00  0.00     0.151 C 
BRANCH  33  34
ATOM     34  C   UNK d   0      -6.197 -10.345  27.643  0.00  0.00     0.143 C 
ATOM     35  O   UNK d   0      -5.015 -10.696  27.764  0.00  0.00    -0.650 OA
BRANCH  34  36
ATOM     36  O   UNK d   0      -7.002 -10.969  26.717  0.00  0.00    -0.776 OA
ATOM     37  H   UNK d   0      -7.364 -10.463  25.898  0.00  0.00     0.167 HD
ENDBRANCH  34  36
ENDBRANCH  33  34
ENDBRANCH   8  33
BRANCH  31  38
ATOM     38  C   UNK d   0      -7.274  -2.121  25.858  0.00  0.00     0.151 C 
BRANCH  38  39
ATOM     39  C   UNK d   0      -8.157  -2.072  27.004  0.00  0.00     0.143 C 
ATOM     40  O   UNK d   0      -8.327  -1.035  27.670  0.00  0.00    -0.650 OA
BRANCH  39  41
ATOM     41  O   UNK d   0      -8.849  -3.220  27.387  0.00  0.00    -0.776 OA
ATOM     42  H   UNK d   0      -8.853  -4.000  26.722  0.00  0.00     0.167 HD
ENDBRANCH  39  41
ENDBRANCH  38  39
ENDBRANCH  31  38
BRANCH  27  43
ATOM     43  C   UNK d   0      -5.102   0.016  26.334  0.00  0.00     0.052 C 
BRANCH  43  44
ATOM     44  C   UNK d   0      -5.017   0.513  24.927  0.00  0.00     0.115 C 
BRANCH  44  45
ATOM     45  C   UNK d   0      -4.317   1.823  24.981  0.00  0.00     0.139 C 
ATOM     46  O   UNK d   0      -4.409   2.500  26.036  0.00  0.00    -0.650 OA
BRANCH  45  47
ATOM     47  O   UNK d   0      -3.574   2.317  23.932  0.00  0.00    -0.776 OA
ATOM     48  H   UNK d   0      -3.625   3.301  23.623  0.00  0.00     0.167 HD
ENDBRANCH  45  47
ENDBRANCH  44  45
ENDBRANCH  43  44
ENDBRANCH  27  43
BRANCH  24  49
ATOM     49  C   UNK d   0       0.096   0.278  28.223  0.00  0.00     0.052 C 
BRANCH  49  50
ATOM     50  C   UNK d   0      -0.986   1.327  28.199  0.00  0.00     0.115 C 
BRANCH  50  51
ATOM     51  C   UNK d   0      -0.841   2.451  29.114  0.00  0.00     0.139 C 
ATOM     52  O   UNK d   0      -0.160   3.467  28.836  0.00  0.00    -0.650 OA
BRANCH  51  53
ATOM     53  O   UNK d   0      -1.472   2.417  30.349  0.00  0.00    -0.776 OA
ATOM     54  H   UNK d   0      -1.066   2.940  31.105  0.00  0.00     0.167 HD
ENDBRANCH  51  53
ENDBRANCH  50  51
ENDBRANCH  49  50
ENDBRANCH  24  49
BRANCH  21  55
ATOM     55  C   UNK d   0       1.152  -1.441  30.562  0.00  0.00     0.151 C 
BRANCH  55  56
ATOM     56  C   UNK d   0       0.745  -0.752  31.797  0.00  0.00     0.143 C 
ATOM     57  O   UNK d   0       0.090   0.309  31.793  0.00  0.00    -0.650 OA
BRANCH  56  58
ATOM     58  O   UNK d   0       1.116  -1.324  33.012  0.00  0.00    -0.776 OA
ATOM     59  H   UNK d   0       2.119  -1.225  33.253  0.00  0.00     0.167 HD
ENDBRANCH  56  58
ENDBRANCH  55  56
ENDBRANCH  21  55
BRANCH  18  60
ATOM     60  C   UNK d   0       0.370  -6.727  31.072  0.00  0.00     0.151 C 
BRANCH  60  61
ATOM     61  C   UNK d   0       1.092  -6.926  29.806  0.00  0.00     0.143 C 
ATOM     62  O   UNK d   0       0.898  -6.339  28.741  0.00  0.00    -0.650 OA
BRANCH  61  63
ATOM     63  O   UNK d   0       2.115  -7.904  29.843  0.00  0.00    -0.776 OA
ATOM     64  H   UNK d   0       3.084  -7.640  29.860  0.00  0.00     0.167 HD
ENDBRANCH  61  63
ENDBRANCH  60  61
ENDBRANCH  18  60
BRANCH  14  65
ATOM     65  C   UNK d   0      -1.799  -8.821  30.731  0.00  0.00     0.052 C 
BRANCH  65  66
ATOM     66  C   UNK d   0      -1.798  -9.626  29.480  0.00  0.00     0.115 C 
BRANCH  66  67
ATOM     67  C   UNK d   0      -0.574  -9.810  28.753  0.00  0.00     0.139 C 
ATOM     68  O   UNK d   0       0.413 -10.381  29.347  0.00  0.00    -0.650 OA
BRANCH  67  69
ATOM     69  O   UNK d   0      -0.299  -9.436  27.438  0.00  0.00    -0.776 OA
ATOM     70  H   UNK d   0       0.017  -8.465  27.304  0.00  0.00     0.167 HD
ENDBRANCH  67  69
ENDBRANCH  66  67
ENDBRANCH  65  66
ENDBRANCH  14  65
ENDBRANCH   6   7
ENDBRANCH   5   6
ENDBRANCH   2   5
TORSDOF 28
ENDMDL
MODEL 14
REMARK VINA RESULT:      -9.2      1.931      5.980
REMARK  28 active torsions:
REMARK  status: ('A' for Active; 'I' for Inactive)
REMARK    1  A    between atoms: C_2  and  O_3 
REMARK    2  A    between atoms: C_2  and  C_4 
REMARK    3  A    between atoms: C_4  and  C_5 
REMARK    4  A    between atoms: C_5  and  C_6 
REMARK    5  A    between atoms: C_7  and  C_8 
REMARK    6  A    between atoms: C_8  and  C_9 
REMARK    7  A    between atoms: C_9  and  O_11 
REMARK    8  A    between atoms: C_28  and  C_29 
REMARK    9  A    between atoms: C_29  and  C_30 
REMARK   10  A    between atoms: C_30  and  O_32 
REMARK   11  A    between atoms: C_33  and  C_34 
REMARK   12  A    between atoms: C_34  and  C_35 
REMARK   13  A    between atoms: C_35  and  C_36 
REMARK   14  A    between atoms: C_36  and  O_38 
REMARK   15  A    between atoms: C_39  and  C_40 
REMARK   16  A    between atoms: C_40  and  C_41 
REMARK   17  A    between atoms: C_41  and  C_42 
REMARK   18  A    between atoms: C_42  and  O_44 
REMARK   19  A    between atoms: C_45  and  C_46 
REMARK   20  A    between atoms: C_46  and  C_47 
REMARK   21  A    between atoms: C_47  and  O_49 
REMARK   22  A    between atoms: C_50  and  C_51 
REMARK   23  A    between atoms: C_51  and  C_52 
REMARK   24  A    between atoms: C_52  and  O_54 
REMARK   25  A    between atoms: C_55  and  C_56 
REMARK   26  A    between atoms: C_56  and  C_57 
REMARK   27  A    between atoms: C_57  and  C_58 
REMARK   28  A    between atoms: C_58  and  O_60 
ROOT
ATOM      1  O   UNK d   0      -1.034  -3.623  33.156  0.00  0.00    -0.650 OA
ATOM      2  C   UNK d   0       0.139  -4.031  33.007  0.00  0.00     0.139 C 
ENDROOT
BRANCH   2   3
ATOM      3  O   UNK d   0       1.180  -3.140  33.110  0.00  0.00    -0.776 OA
ATOM      4  H   UNK d   0       1.645  -2.972  34.005  0.00  0.00     0.167 HD
ENDBRANCH   2   3
BRANCH   2   5
ATOM      5  C   UNK d   0       0.400  -5.470  32.722  0.00  0.00     0.115 C 
BRANCH   5   6
ATOM      6  C   UNK d   0       0.765  -5.653  31.274  0.00  0.00     0.052 C 
BRANCH   6   7
ATOM      7  C   UNK d   0      -0.445  -5.704  30.372  0.00  0.00    -0.020 A 
ATOM      8  C   UNK d   0      -1.114  -6.763  29.993  0.00  0.00    -0.011 A 
ATOM      9  C   UNK d   0      -2.190  -6.321  29.122  0.00  0.00     0.067 A 
ATOM     10  C   UNK d   0      -3.244  -6.932  28.424  0.00  0.00     0.062 C 
ATOM     11  N   UNK d   0      -2.098  -4.978  29.021  0.00  0.00    -0.248 NA
ATOM     12  C   UNK d   0      -4.358  -6.306  27.854  0.00  0.00     0.041 A 
ATOM     13  N   UNK d   0      -4.467  -5.172  27.136  0.00  0.00    -0.355 N 
ATOM     14  C   UNK d   0      -5.632  -6.864  28.062  0.00  0.00    -0.022 A 
ATOM     15  C   UNK d   0      -5.779  -4.991  26.892  0.00  0.00     0.042 A 
ATOM     16  H   UNK d   0      -3.632  -4.522  26.793  0.00  0.00     0.166 HD
ATOM     17  C   UNK d   0      -6.444  -3.969  26.186  0.00  0.00     0.062 C 
ATOM     18  C   UNK d   0      -6.541  -6.032  27.457  0.00  0.00    -0.013 A 
ATOM     19  C   UNK d   0      -6.250  -2.612  26.246  0.00  0.00     0.067 A 
ATOM     20  N   UNK d   0      -5.167  -2.185  26.901  0.00  0.00    -0.248 NA
ATOM     21  C   UNK d   0      -6.956  -1.434  25.772  0.00  0.00    -0.011 A 
ATOM     22  C   UNK d   0      -5.115  -0.812  26.891  0.00  0.00     0.066 A 
ATOM     23  C   UNK d   0      -4.015  -0.233  27.507  0.00  0.00     0.062 C 
ATOM     24  C   UNK d   0      -6.289  -0.384  26.156  0.00  0.00    -0.020 A 
ATOM     25  C   UNK d   0      -2.900  -0.879  28.062  0.00  0.00     0.041 A 
ATOM     26  N   UNK d   0      -2.793  -1.998  28.788  0.00  0.00    -0.355 N 
ATOM     27  C   UNK d   0      -1.621  -0.321  27.849  0.00  0.00    -0.022 A 
ATOM     28  C   UNK d   0      -1.487  -2.176  29.041  0.00  0.00     0.042 A 
ATOM     29  H   UNK d   0      -3.634  -2.645  29.141  0.00  0.00     0.166 HD
ATOM     30  C   UNK d   0      -0.813  -3.183  29.749  0.00  0.00     0.062 C 
ATOM     31  C   UNK d   0      -0.721  -1.136  28.464  0.00  0.00    -0.013 A 
ATOM     32  C   UNK d   0      -1.068  -4.545  29.750  0.00  0.00     0.066 A 
BRANCH   8  33
ATOM     33  C   UNK d   0      -0.840  -8.163  30.366  0.00  0.00     0.151 C 
BRANCH  33  34
ATOM     34  C   UNK d   0       0.209  -8.780  29.535  0.00  0.00     0.143 C 
ATOM     35  O   UNK d   0       0.011  -9.019  28.335  0.00  0.00    -0.650 OA
BRANCH  34  36
ATOM     36  O   UNK d   0       1.422  -9.095  30.101  0.00  0.00    -0.776 OA
ATOM     37  H   UNK d   0       1.973  -8.390  30.610  0.00  0.00     0.167 HD
ENDBRANCH  34  36
ENDBRANCH  33  34
ENDBRANCH   8  33
BRANCH  31  38
ATOM     38  C   UNK d   0       0.778  -0.947  28.492  0.00  0.00     0.151 C 
BRANCH  38  39
ATOM     39  C   UNK d   0       1.200   0.050  29.452  0.00  0.00     0.143 C 
ATOM     40  O   UNK d   0       0.777   0.071  30.621  0.00  0.00    -0.650 OA
BRANCH  39  41
ATOM     41  O   UNK d   0       2.115   1.030  29.066  0.00  0.00    -0.776 OA
ATOM     42  H   UNK d   0       2.388   1.713  29.779  0.00  0.00     0.167 HD
ENDBRANCH  39  41
ENDBRANCH  38  39
ENDBRANCH  31  38
BRANCH  27  43
ATOM     43  C   UNK d   0      -1.234   0.930  27.100  0.00  0.00     0.052 C 
BRANCH  43  44
ATOM     44  C   UNK d   0      -1.866   2.167  27.651  0.00  0.00     0.115 C 
BRANCH  44  45
ATOM     45  C   UNK d   0      -1.070   2.555  28.845  0.00  0.00     0.139 C 
ATOM     46  O   UNK d   0      -0.017   3.216  28.665  0.00  0.00    -0.650 OA
BRANCH  45  47
ATOM     47  O   UNK d   0      -1.441   2.225  30.130  0.00  0.00    -0.776 OA
ATOM     48  H   UNK d   0      -0.856   1.642  30.750  0.00  0.00     0.167 HD
ENDBRANCH  45  47
ENDBRANCH  44  45
ENDBRANCH  43  44
ENDBRANCH  27  43
BRANCH  24  49
ATOM     49  C   UNK d   0      -6.629   1.018  25.858  0.00  0.00     0.052 C 
BRANCH  49  50
ATOM     50  C   UNK d   0      -6.025   1.436  24.542  0.00  0.00     0.115 C 
BRANCH  50  51
ATOM     51  C   UNK d   0      -4.905   2.366  24.589  0.00  0.00     0.139 C 
ATOM     52  O   UNK d   0      -3.782   2.098  24.101  0.00  0.00    -0.650 OA
BRANCH  51  53
ATOM     53  O   UNK d   0      -5.065   3.602  25.196  0.00  0.00    -0.776 OA
ATOM     54  H   UNK d   0      -5.709   3.675  25.964  0.00  0.00     0.167 HD
ENDBRANCH  51  53
ENDBRANCH  50  51
ENDBRANCH  49  50
ENDBRANCH  24  49
BRANCH  21  55
ATOM     55  C   UNK d   0      -8.221  -1.480  24.981  0.00  0.00     0.151 C 
BRANCH  55  56
ATOM     56  C   UNK d   0      -9.411  -1.490  25.845  0.00  0.00     0.143 C 
ATOM     57  O   UNK d   0      -9.349  -1.663  27.078  0.00  0.00    -0.650 OA
BRANCH  56  58
ATOM     58  O   UNK d   0     -10.653  -1.296  25.241  0.00  0.00    -0.776 OA
ATOM     59  H   UNK d   0     -10.679  -0.543  24.530  0.00  0.00     0.167 HD
ENDBRANCH  56  58
ENDBRANCH  55  56
ENDBRANCH  21  55
BRANCH  18  60
ATOM     60  C   UNK d   0      -8.034  -6.247  27.442  0.00  0.00     0.151 C 
BRANCH  60  61
ATOM     61  C   UNK d   0      -8.418  -6.310  26.024  0.00  0.00     0.143 C 
ATOM     62  O   UNK d   0      -9.275  -5.632  25.456  0.00  0.00    -0.650 OA
BRANCH  61  63
ATOM     63  O   UNK d   0      -7.712  -7.262  25.250  0.00  0.00    -0.776 OA
ATOM     64  H   UNK d   0      -6.919  -7.750  25.626  0.00  0.00     0.167 HD
ENDBRANCH  61  63
ENDBRANCH  60  61
ENDBRANCH  18  60
BRANCH  14  65
ATOM     65  C   UNK d   0      -6.043  -8.161  28.699  0.00  0.00     0.052 C 
BRANCH  65  66
ATOM     66  C   UNK d   0      -5.882  -9.330  27.793  0.00  0.00     0.115 C 
BRANCH  66  67
ATOM     67  C   UNK d   0      -7.041 -10.059  27.359  0.00  0.00     0.139 C 
ATOM     68  O   UNK d   0      -7.442 -11.053  28.069  0.00  0.00    -0.650 OA
BRANCH  67  69
ATOM     69  O   UNK d   0      -7.821  -9.825  26.227  0.00  0.00    -0.776 OA
ATOM     70  H   UNK d   0      -7.680 -10.479  25.444  0.00  0.00     0.167 HD
ENDBRANCH  67  69
ENDBRANCH  66  67
ENDBRANCH  65  66
ENDBRANCH  14  65
ENDBRANCH   6   7
ENDBRANCH   5   6
ENDBRANCH   2   5
TORSDOF 28
ENDMDL
MODEL 15
REMARK VINA RESULT:      -9.1      2.002      2.553
REMARK  28 active torsions:
REMARK  status: ('A' for Active; 'I' for Inactive)
REMARK    1  A    between atoms: C_2  and  O_3 
REMARK    2  A    between atoms: C_2  and  C_4 
REMARK    3  A    between atoms: C_4  and  C_5 
REMARK    4  A    between atoms: C_5  and  C_6 
REMARK    5  A    between atoms: C_7  and  C_8 
REMARK    6  A    between atoms: C_8  and  C_9 
REMARK    7  A    between atoms: C_9  and  O_11 
REMARK    8  A    between atoms: C_28  and  C_29 
REMARK    9  A    between atoms: C_29  and  C_30 
REMARK   10  A    between atoms: C_30  and  O_32 
REMARK   11  A    between atoms: C_33  and  C_34 
REMARK   12  A    between atoms: C_34  and  C_35 
REMARK   13  A    between atoms: C_35  and  C_36 
REMARK   14  A    between atoms: C_36  and  O_38 
REMARK   15  A    between atoms: C_39  and  C_40 
REMARK   16  A    between atoms: C_40  and  C_41 
REMARK   17  A    between atoms: C_41  and  C_42 
REMARK   18  A    between atoms: C_42  and  O_44 
REMARK   19  A    between atoms: C_45  and  C_46 
REMARK   20  A    between atoms: C_46  and  C_47 
REMARK   21  A    between atoms: C_47  and  O_49 
REMARK   22  A    between atoms: C_50  and  C_51 
REMARK   23  A    between atoms: C_51  and  C_52 
REMARK   24  A    between atoms: C_52  and  O_54 
REMARK   25  A    between atoms: C_55  and  C_56 
REMARK   26  A    between atoms: C_56  and  C_57 
REMARK   27  A    between atoms: C_57  and  C_58 
REMARK   28  A    between atoms: C_58  and  O_60 
ROOT
ATOM      1  O   UNK d   0       2.848  -2.031  26.033  0.00  0.00    -0.650 OA
ATOM      2  C   UNK d   0       2.724  -1.440  27.128  0.00  0.00     0.139 C 
ENDROOT
BRANCH   2   3
ATOM      3  O   UNK d   0       3.765  -1.457  28.025  0.00  0.00    -0.776 OA
ATOM      4  H   UNK d   0       4.572  -2.069  27.885  0.00  0.00     0.167 HD
ENDBRANCH   2   3
BRANCH   2   5
ATOM      5  C   UNK d   0       1.457  -0.725  27.454  0.00  0.00     0.115 C 
BRANCH   5   6
ATOM      6  C   UNK d   0       0.842  -1.303  28.699  0.00  0.00     0.052 C 
BRANCH   6   7
ATOM      7  C   UNK d   0      -0.225  -2.329  28.398  0.00  0.00    -0.020 A 
ATOM      8  C   UNK d   0      -0.093  -3.630  28.363  0.00  0.00    -0.011 A 
ATOM      9  C   UNK d   0      -1.387  -4.199  28.023  0.00  0.00     0.067 A 
ATOM     10  C   UNK d   0      -1.912  -5.489  27.852  0.00  0.00     0.062 C 
ATOM     11  N   UNK d   0      -2.247  -3.171  27.864  0.00  0.00    -0.248 NA
ATOM     12  C   UNK d   0      -3.262  -5.854  27.796  0.00  0.00     0.041 A 
ATOM     13  N   UNK d   0      -4.309  -5.285  27.170  0.00  0.00    -0.355 N 
ATOM     14  C   UNK d   0      -3.697  -6.967  28.539  0.00  0.00    -0.022 A 
ATOM     15  C   UNK d   0      -5.399  -6.003  27.502  0.00  0.00     0.042 A 
ATOM     16  H   UNK d   0      -4.276  -4.404  26.491  0.00  0.00     0.166 HD
ATOM     17  C   UNK d   0      -6.747  -5.844  27.125  0.00  0.00     0.062 C 
ATOM     18  C   UNK d   0      -5.054  -7.066  28.359  0.00  0.00    -0.013 A 
ATOM     19  C   UNK d   0      -7.498  -4.697  27.069  0.00  0.00     0.067 A 
ATOM     20  N   UNK d   0      -6.843  -3.540  27.192  0.00  0.00    -0.248 NA
ATOM     21  C   UNK d   0      -8.907  -4.378  26.915  0.00  0.00    -0.011 A 
ATOM     22  C   UNK d   0      -7.723  -2.487  27.132  0.00  0.00     0.066 A 
ATOM     23  C   UNK d   0      -7.170  -1.217  27.209  0.00  0.00     0.062 C 
ATOM     24  C   UNK d   0      -9.033  -3.083  26.957  0.00  0.00    -0.020 A 
ATOM     25  C   UNK d   0      -5.811  -0.871  27.251  0.00  0.00     0.041 A 
ATOM     26  N   UNK d   0      -4.772  -1.428  27.886  0.00  0.00    -0.355 N 
ATOM     27  C   UNK d   0      -5.374   0.243  26.502  0.00  0.00    -0.022 A 
ATOM     28  C   UNK d   0      -3.686  -0.709  27.563  0.00  0.00     0.042 A 
ATOM     29  H   UNK d   0      -4.809  -2.307  28.576  0.00  0.00     0.166 HD
ATOM     30  C   UNK d   0      -2.341  -0.850  27.939  0.00  0.00     0.062 C 
ATOM     31  C   UNK d   0      -4.031   0.353  26.694  0.00  0.00    -0.013 A 
ATOM     32  C   UNK d   0      -1.610  -2.019  28.076  0.00  0.00     0.066 A 
BRANCH   8  33
ATOM     33  C   UNK d   0       1.138  -4.403  28.613  0.00  0.00     0.151 C 
BRANCH  33  34
ATOM     34  C   UNK d   0       1.170  -5.004  29.959  0.00  0.00     0.143 C 
ATOM     35  O   UNK d   0       1.525  -4.340  30.944  0.00  0.00    -0.650 OA
BRANCH  34  36
ATOM     36  O   UNK d   0       0.803  -6.319  30.120  0.00  0.00    -0.776 OA
ATOM     37  H   UNK d   0       0.796  -6.762  31.049  0.00  0.00     0.167 HD
ENDBRANCH  34  36
ENDBRANCH  33  34
ENDBRANCH   8  33
BRANCH  31  38
ATOM     38  C   UNK d   0      -3.125   1.394  26.078  0.00  0.00     0.151 C 
BRANCH  38  39
ATOM     39  C   UNK d   0      -3.017   2.591  26.884  0.00  0.00     0.143 C 
ATOM     40  O   UNK d   0      -3.733   3.590  26.691  0.00  0.00    -0.650 OA
BRANCH  39  41
ATOM     41  O   UNK d   0      -2.082   2.642  27.917  0.00  0.00    -0.776 OA
ATOM     42  H   UNK d   0      -1.235   3.193  27.746  0.00  0.00     0.167 HD
ENDBRANCH  39  41
ENDBRANCH  38  39
ENDBRANCH  31  38
BRANCH  27  43
ATOM     43  C   UNK d   0      -6.169   1.186  25.635  0.00  0.00     0.052 C 
BRANCH  43  44
ATOM     44  C   UNK d   0      -5.848   1.064  24.180  0.00  0.00     0.115 C 
BRANCH  44  45
ATOM     45  C   UNK d   0      -6.272  -0.298  23.764  0.00  0.00     0.139 C 
ATOM     46  O   UNK d   0      -7.502  -0.544  23.711  0.00  0.00    -0.650 OA
BRANCH  45  47
ATOM     47  O   UNK d   0      -5.376  -1.291  23.432  0.00  0.00    -0.776 OA
ATOM     48  H   UNK d   0      -5.236  -2.135  24.010  0.00  0.00     0.167 HD
ENDBRANCH  45  47
ENDBRANCH  44  45
ENDBRANCH  43  44
ENDBRANCH  27  43
BRANCH  24  49
ATOM     49  C   UNK d   0     -10.287  -2.327  26.802  0.00  0.00     0.052 C 
BRANCH  49  50
ATOM     50  C   UNK d   0     -10.375  -1.733  25.419  0.00  0.00     0.115 C 
BRANCH  50  51
ATOM     51  C   UNK d   0     -11.652  -1.842  24.729  0.00  0.00     0.139 C 
ATOM     52  O   UNK d   0     -11.779  -2.431  23.629  0.00  0.00    -0.650 OA
BRANCH  51  53
ATOM     53  O   UNK d   0     -12.787  -1.278  25.291  0.00  0.00    -0.776 OA
ATOM     54  H   UNK d   0     -13.453  -0.840  24.679  0.00  0.00     0.167 HD
ENDBRANCH  51  53
ENDBRANCH  50  51
ENDBRANCH  49  50
ENDBRANCH  24  49
BRANCH  21  55
ATOM     55  C   UNK d   0      -9.980  -5.400  26.738  0.00  0.00     0.151 C 
BRANCH  55  56
ATOM     56  C   UNK d   0     -10.049  -5.893  25.354  0.00  0.00     0.143 C 
ATOM     57  O   UNK d   0      -9.428  -6.902  24.965  0.00  0.00    -0.650 OA
BRANCH  56  58
ATOM     58  O   UNK d   0     -10.848  -5.191  24.453  0.00  0.00    -0.776 OA
ATOM     59  H   UNK d   0     -11.849  -5.459  24.456  0.00  0.00     0.167 HD
ENDBRANCH  56  58
ENDBRANCH  55  56
ENDBRANCH  21  55
BRANCH  18  60
ATOM     60  C   UNK d   0      -5.935  -8.119  28.985  0.00  0.00     0.151 C 
BRANCH  60  61
ATOM     61  C   UNK d   0      -6.108  -9.161  27.961  0.00  0.00     0.143 C 
ATOM     62  O   UNK d   0      -7.011  -9.240  27.128  0.00  0.00    -0.650 OA
BRANCH  61  63
ATOM     63  O   UNK d   0      -5.115 -10.169  27.954  0.00  0.00    -0.776 OA
ATOM     64  H   UNK d   0      -5.205 -10.982  27.371  0.00  0.00     0.167 HD
ENDBRANCH  61  63
ENDBRANCH  60  61
ENDBRANCH  18  60
BRANCH  14  65
ATOM     65  C   UNK d   0      -2.921  -7.991  29.317  0.00  0.00     0.052 C 
BRANCH  65  66
ATOM     66  C   UNK d   0      -3.003  -7.789  30.788  0.00  0.00     0.115 C 
BRANCH  66  67
ATOM     67  C   UNK d   0      -1.927  -8.234  31.629  0.00  0.00     0.139 C 
ATOM     68  O   UNK d   0      -2.121  -8.282  32.899  0.00  0.00    -0.650 OA
BRANCH  67  69
ATOM     69  O   UNK d   0      -0.650  -8.635  31.239  0.00  0.00    -0.776 OA
ATOM     70  H   UNK d   0      -0.195  -8.050  30.524  0.00  0.00     0.167 HD
ENDBRANCH  67  69
ENDBRANCH  66  67
ENDBRANCH  65  66
ENDBRANCH  14  65
ENDBRANCH   6   7
ENDBRANCH   5   6
ENDBRANCH   2   5
TORSDOF 28
ENDMDL
MODEL 16
REMARK VINA RESULT:      -9.0      2.087      7.345
REMARK  28 active torsions:
REMARK  status: ('A' for Active; 'I' for Inactive)
REMARK    1  A    between atoms: C_2  and  O_3 
REMARK    2  A    between atoms: C_2  and  C_4 
REMARK    3  A    between atoms: C_4  and  C_5 
REMARK    4  A    between atoms: C_5  and  C_6 
REMARK    5  A    between atoms: C_7  and  C_8 
REMARK    6  A    between atoms: C_8  and  C_9 
REMARK    7  A    between atoms: C_9  and  O_11 
REMARK    8  A    between atoms: C_28  and  C_29 
REMARK    9  A    between atoms: C_29  and  C_30 
REMARK   10  A    between atoms: C_30  and  O_32 
REMARK   11  A    between atoms: C_33  and  C_34 
REMARK   12  A    between atoms: C_34  and  C_35 
REMARK   13  A    between atoms: C_35  and  C_36 
REMARK   14  A    between atoms: C_36  and  O_38 
REMARK   15  A    between atoms: C_39  and  C_40 
REMARK   16  A    between atoms: C_40  and  C_41 
REMARK   17  A    between atoms: C_41  and  C_42 
REMARK   18  A    between atoms: C_42  and  O_44 
REMARK   19  A    between atoms: C_45  and  C_46 
REMARK   20  A    between atoms: C_46  and  C_47 
REMARK   21  A    between atoms: C_47  and  O_49 
REMARK   22  A    between atoms: C_50  and  C_51 
REMARK   23  A    between atoms: C_51  and  C_52 
REMARK   24  A    between atoms: C_52  and  O_54 
REMARK   25  A    between atoms: C_55  and  C_56 
REMARK   26  A    between atoms: C_56  and  C_57 
REMARK   27  A    between atoms: C_57  and  C_58 
REMARK   28  A    between atoms: C_58  and  O_60 
ROOT
ATOM      1  O   UNK d   0       1.053  -8.362  30.820  0.00  0.00    -0.650 OA
ATOM      2  C   UNK d   0       1.006  -7.132  30.593  0.00  0.00     0.139 C 
ENDROOT
BRANCH   2   3
ATOM      3  O   UNK d   0       1.407  -6.658  29.367  0.00  0.00    -0.776 OA
ATOM      4  H   UNK d   0       1.069  -7.083  28.501  0.00  0.00     0.167 HD
ENDBRANCH   2   3
BRANCH   2   5
ATOM      5  C   UNK d   0       0.520  -6.195  31.645  0.00  0.00     0.115 C 
BRANCH   5   6
ATOM      6  C   UNK d   0      -0.928  -6.465  31.950  0.00  0.00     0.052 C 
BRANCH   6   7
ATOM      7  C   UNK d   0      -1.835  -6.158  30.783  0.00  0.00    -0.020 A 
ATOM      8  C   UNK d   0      -2.710  -6.952  30.221  0.00  0.00    -0.011 A 
ATOM      9  C   UNK d   0      -3.338  -6.223  29.131  0.00  0.00     0.067 A 
ATOM     10  C   UNK d   0      -4.337  -6.485  28.181  0.00  0.00     0.062 C 
ATOM     11  N   UNK d   0      -2.781  -4.994  29.098  0.00  0.00    -0.248 NA
ATOM     12  C   UNK d   0      -5.010  -5.555  27.381  0.00  0.00     0.041 A 
ATOM     13  N   UNK d   0      -4.561  -4.487  26.695  0.00  0.00    -0.355 N 
ATOM     14  C   UNK d   0      -6.408  -5.647  27.259  0.00  0.00    -0.022 A 
ATOM     15  C   UNK d   0      -5.639  -3.894  26.149  0.00  0.00     0.042 A 
ATOM     16  H   UNK d   0      -3.501  -4.169  26.584  0.00  0.00     0.166 HD
ATOM     17  C   UNK d   0      -5.737  -2.746  25.337  0.00  0.00     0.062 C 
ATOM     18  C   UNK d   0      -6.816  -4.593  26.481  0.00  0.00    -0.013 A 
ATOM     19  C   UNK d   0      -5.122  -1.529  25.486  0.00  0.00     0.067 A 
ATOM     20  N   UNK d   0      -4.147  -1.452  26.396  0.00  0.00    -0.248 NA
ATOM     21  C   UNK d   0      -5.260  -0.209  24.895  0.00  0.00    -0.011 A 
ATOM     22  C   UNK d   0      -3.638  -0.177  26.442  0.00  0.00     0.066 A 
ATOM     23  C   UNK d   0      -2.587   0.035  27.322  0.00  0.00     0.062 C 
ATOM     24  C   UNK d   0      -4.392   0.578  25.461  0.00  0.00    -0.020 A 
ATOM     25  C   UNK d   0      -1.917  -0.915  28.108  0.00  0.00     0.041 A 
ATOM     26  N   UNK d   0      -2.365  -1.968  28.802  0.00  0.00    -0.355 N 
ATOM     27  C   UNK d   0      -0.513  -0.825  28.226  0.00  0.00    -0.022 A 
ATOM     28  C   UNK d   0      -1.293  -2.556  29.355  0.00  0.00     0.042 A 
ATOM     29  H   UNK d   0      -3.432  -2.280  28.921  0.00  0.00     0.166 HD
ATOM     30  C   UNK d   0      -1.182  -3.693  30.172  0.00  0.00     0.062 C 
ATOM     31  C   UNK d   0      -0.110  -1.859  29.013  0.00  0.00    -0.013 A 
ATOM     32  C   UNK d   0      -1.870  -4.891  30.067  0.00  0.00     0.066 A 
BRANCH   8  33
ATOM     33  C   UNK d   0      -3.016  -8.343  30.603  0.00  0.00     0.151 C 
BRANCH  33  34
ATOM     34  C   UNK d   0      -2.241  -9.331  29.831  0.00  0.00     0.143 C 
ATOM     35  O   UNK d   0      -2.467  -9.517  28.627  0.00  0.00    -0.650 OA
BRANCH  34  36
ATOM     36  O   UNK d   0      -1.254 -10.056  30.459  0.00  0.00    -0.776 OA
ATOM     37  H   UNK d   0      -1.211 -10.121  31.485  0.00  0.00     0.167 HD
ENDBRANCH  34  36
ENDBRANCH  33  34
ENDBRANCH   8  33
BRANCH  31  38
ATOM     38  C   UNK d   0       1.314  -2.178  29.406  0.00  0.00     0.151 C 
BRANCH  38  39
ATOM     39  C   UNK d   0       2.012  -2.956  28.406  0.00  0.00     0.143 C 
ATOM     40  O   UNK d   0       1.642  -4.096  28.072  0.00  0.00    -0.650 OA
BRANCH  39  41
ATOM     41  O   UNK d   0       3.141  -2.422  27.785  0.00  0.00    -0.776 OA
ATOM     42  H   UNK d   0       4.049  -2.797  28.077  0.00  0.00     0.167 HD
ENDBRANCH  39  41
ENDBRANCH  38  39
ENDBRANCH  31  38
BRANCH  27  43
ATOM     43  C   UNK d   0       0.435   0.188  27.633  0.00  0.00     0.052 C 
BRANCH  43  44
ATOM     44  C   UNK d   0       1.021   1.114  28.649  0.00  0.00     0.115 C 
BRANCH  44  45
ATOM     45  C   UNK d   0       2.436   1.337  28.254  0.00  0.00     0.139 C 
ATOM     46  O   UNK d   0       3.021   2.356  28.697  0.00  0.00    -0.650 OA
BRANCH  45  47
ATOM     47  O   UNK d   0       3.127   0.473  27.432  0.00  0.00    -0.776 OA
ATOM     48  H   UNK d   0       2.662  -0.129  26.734  0.00  0.00     0.167 HD
ENDBRANCH  45  47
ENDBRANCH  44  45
ENDBRANCH  43  44
ENDBRANCH  27  43
BRANCH  24  49
ATOM     49  C   UNK d   0      -4.164   1.997  25.136  0.00  0.00     0.052 C 
BRANCH  49  50
ATOM     50  C   UNK d   0      -5.005   2.880  26.020  0.00  0.00     0.115 C 
BRANCH  50  51
ATOM     51  C   UNK d   0      -6.002   3.718  25.367  0.00  0.00     0.139 C 
ATOM     52  O   UNK d   0      -6.535   4.701  25.934  0.00  0.00    -0.650 OA
BRANCH  51  53
ATOM     53  O   UNK d   0      -6.393   3.434  24.068  0.00  0.00    -0.776 OA
ATOM     54  H   UNK d   0      -5.877   3.853  23.314  0.00  0.00     0.167 HD
ENDBRANCH  51  53
ENDBRANCH  50  51
ENDBRANCH  49  50
ENDBRANCH  24  49
BRANCH  21  55
ATOM     55  C   UNK d   0      -6.243   0.127  23.822  0.00  0.00     0.151 C 
BRANCH  55  56
ATOM     56  C   UNK d   0      -7.614   0.231  24.343  0.00  0.00     0.143 C 
ATOM     57  O   UNK d   0      -7.872   0.670  25.481  0.00  0.00    -0.650 OA
BRANCH  56  58
ATOM     58  O   UNK d   0      -8.656  -0.183  23.515  0.00  0.00    -0.776 OA
ATOM     59  H   UNK d   0      -8.698  -1.203  23.343  0.00  0.00     0.167 HD
ENDBRANCH  56  58
ENDBRANCH  55  56
ENDBRANCH  21  55
BRANCH  18  60
ATOM     60  C   UNK d   0      -8.246  -4.301  26.101  0.00  0.00     0.151 C 
BRANCH  60  61
ATOM     61  C   UNK d   0      -8.765  -3.400  27.141  0.00  0.00     0.143 C 
ATOM     62  O   UNK d   0      -8.165  -2.474  27.687  0.00  0.00    -0.650 OA
BRANCH  61  63
ATOM     63  O   UNK d   0     -10.101  -3.645  27.539  0.00  0.00    -0.776 OA
ATOM     64  H   UNK d   0     -10.389  -4.554  27.856  0.00  0.00     0.167 HD
ENDBRANCH  61  63
ENDBRANCH  60  61
ENDBRANCH  18  60
BRANCH  14  65
ATOM     65  C   UNK d   0      -7.367  -6.701  27.737  0.00  0.00     0.052 C 
BRANCH  65  66
ATOM     66  C   UNK d   0      -7.425  -7.885  26.838  0.00  0.00     0.115 C 
BRANCH  66  67
ATOM     67  C   UNK d   0      -8.506  -8.014  25.901  0.00  0.00     0.139 C 
ATOM     68  O   UNK d   0      -9.659  -7.548  26.226  0.00  0.00    -0.650 OA
BRANCH  67  69
ATOM     69  O   UNK d   0      -8.473  -8.602  24.637  0.00  0.00    -0.776 OA
ATOM     70  H   UNK d   0      -8.933  -9.520  24.558  0.00  0.00     0.167 HD
ENDBRANCH  67  69
ENDBRANCH  66  67
ENDBRANCH  65  66
ENDBRANCH  14  65
ENDBRANCH   6   7
ENDBRANCH   5   6
ENDBRANCH   2   5
TORSDOF 28
ENDMDL
MODEL 17
REMARK VINA RESULT:      -9.0      1.926      6.082
REMARK  28 active torsions:
REMARK  status: ('A' for Active; 'I' for Inactive)
REMARK    1  A    between atoms: C_2  and  O_3 
REMARK    2  A    between atoms: C_2  and  C_4 
REMARK    3  A    between atoms: C_4  and  C_5 
REMARK    4  A    between atoms: C_5  and  C_6 
REMARK    5  A    between atoms: C_7  and  C_8 
REMARK    6  A    between atoms: C_8  and  C_9 
REMARK    7  A    between atoms: C_9  and  O_11 
REMARK    8  A    between atoms: C_28  and  C_29 
REMARK    9  A    between atoms: C_29  and  C_30 
REMARK   10  A    between atoms: C_30  and  O_32 
REMARK   11  A    between atoms: C_33  and  C_34 
REMARK   12  A    between atoms: C_34  and  C_35 
REMARK   13  A    between atoms: C_35  and  C_36 
REMARK   14  A    between atoms: C_36  and  O_38 
REMARK   15  A    between atoms: C_39  and  C_40 
REMARK   16  A    between atoms: C_40  and  C_41 
REMARK   17  A    between atoms: C_41  and  C_42 
REMARK   18  A    between atoms: C_42  and  O_44 
REMARK   19  A    between atoms: C_45  and  C_46 
REMARK   20  A    between atoms: C_46  and  C_47 
REMARK   21  A    between atoms: C_47  and  O_49 
REMARK   22  A    between atoms: C_50  and  C_51 
REMARK   23  A    between atoms: C_51  and  C_52 
REMARK   24  A    between atoms: C_52  and  O_54 
REMARK   25  A    between atoms: C_55  and  C_56 
REMARK   26  A    between atoms: C_56  and  C_57 
REMARK   27  A    between atoms: C_57  and  C_58 
REMARK   28  A    between atoms: C_58  and  O_60 
ROOT
ATOM      1  O   UNK d   0      -5.284   3.986  25.872  0.00  0.00    -0.650 OA
ATOM      2  C   UNK d   0      -5.034   3.026  25.110  0.00  0.00     0.139 C 
ENDROOT
BRANCH   2   3
ATOM      3  O   UNK d   0      -5.891   2.748  24.072  0.00  0.00    -0.776 OA
ATOM      4  H   UNK d   0      -5.547   2.345  23.198  0.00  0.00     0.167 HD
ENDBRANCH   2   3
BRANCH   2   5
ATOM      5  C   UNK d   0      -3.818   2.192  25.332  0.00  0.00     0.115 C 
BRANCH   5   6
ATOM      6  C   UNK d   0      -3.552   2.047  26.806  0.00  0.00     0.052 C 
BRANCH   6   7
ATOM      7  C   UNK d   0      -2.888   0.735  27.149  0.00  0.00    -0.020 A 
ATOM      8  C   UNK d   0      -1.625   0.526  27.421  0.00  0.00    -0.011 A 
ATOM      9  C   UNK d   0      -1.455  -0.893  27.681  0.00  0.00     0.067 A 
ATOM     10  C   UNK d   0      -0.391  -1.737  28.038  0.00  0.00     0.062 C 
ATOM     11  N   UNK d   0      -2.665  -1.475  27.540  0.00  0.00    -0.248 NA
ATOM     12  C   UNK d   0      -0.474  -3.048  28.521  0.00  0.00     0.041 A 
ATOM     13  N   UNK d   0      -1.242  -4.086  28.138  0.00  0.00    -0.355 N 
ATOM     14  C   UNK d   0       0.306  -3.415  29.632  0.00  0.00    -0.022 A 
ATOM     15  C   UNK d   0      -0.974  -5.100  28.982  0.00  0.00     0.042 A 
ATOM     16  H   UNK d   0      -1.945  -4.108  27.276  0.00  0.00     0.166 HD
ATOM     17  C   UNK d   0      -1.494  -6.408  29.032  0.00  0.00     0.062 C 
ATOM     18  C   UNK d   0      -0.008  -4.717  29.933  0.00  0.00    -0.013 A 
ATOM     19  C   UNK d   0      -2.796  -6.824  28.918  0.00  0.00     0.067 A 
ATOM     20  N   UNK d   0      -3.687  -5.916  28.511  0.00  0.00    -0.248 NA
ATOM     21  C   UNK d   0      -3.522  -8.062  29.149  0.00  0.00    -0.011 A 
ATOM     22  C   UNK d   0      -4.943  -6.470  28.460  0.00  0.00     0.066 A 
ATOM     23  C   UNK d   0      -5.963  -5.644  28.014  0.00  0.00     0.062 C 
ATOM     24  C   UNK d   0      -4.778  -7.847  28.883  0.00  0.00    -0.020 A 
ATOM     25  C   UNK d   0      -5.857  -4.334  27.522  0.00  0.00     0.041 A 
ATOM     26  N   UNK d   0      -5.105  -3.297  27.911  0.00  0.00    -0.355 N 
ATOM     27  C   UNK d   0      -6.638  -3.967  26.404  0.00  0.00    -0.022 A 
ATOM     28  C   UNK d   0      -5.377  -2.282  27.076  0.00  0.00     0.042 A 
ATOM     29  H   UNK d   0      -4.407  -3.274  28.784  0.00  0.00     0.166 HD
ATOM     30  C   UNK d   0      -4.874  -0.973  27.021  0.00  0.00     0.062 C 
ATOM     31  C   UNK d   0      -6.340  -2.671  26.115  0.00  0.00    -0.013 A 
ATOM     32  C   UNK d   0      -3.570  -0.549  27.221  0.00  0.00     0.066 A 
BRANCH   8  33
ATOM     33  C   UNK d   0      -0.550   1.534  27.457  0.00  0.00     0.151 C 
BRANCH  33  34
ATOM     34  C   UNK d   0      -0.577   2.354  28.682  0.00  0.00     0.143 C 
ATOM     35  O   UNK d   0      -1.191   1.975  29.688  0.00  0.00    -0.650 OA
BRANCH  34  36
ATOM     36  O   UNK d   0       0.089   3.558  28.703  0.00  0.00    -0.776 OA
ATOM     37  H   UNK d   0      -0.353   4.419  28.353  0.00  0.00     0.167 HD
ENDBRANCH  34  36
ENDBRANCH  33  34
ENDBRANCH   8  33
BRANCH  31  38
ATOM     38  C   UNK d   0      -6.923  -1.853  24.987  0.00  0.00     0.151 C 
BRANCH  38  39
ATOM     39  C   UNK d   0      -8.205  -1.269  25.320  0.00  0.00     0.143 C 
ATOM     40  O   UNK d   0      -8.453  -0.808  26.448  0.00  0.00    -0.650 OA
BRANCH  39  41
ATOM     41  O   UNK d   0      -9.207  -1.215  24.352  0.00  0.00    -0.776 OA
ATOM     42  H   UNK d   0      -9.566  -0.286  24.110  0.00  0.00     0.167 HD
ENDBRANCH  39  41
ENDBRANCH  38  39
ENDBRANCH  31  38
BRANCH  27  43
ATOM     43  C   UNK d   0      -7.634  -4.785  25.621  0.00  0.00     0.052 C 
BRANCH  43  44
ATOM     44  C   UNK d   0      -8.824  -5.195  26.427  0.00  0.00     0.115 C 
BRANCH  44  45
ATOM     45  C   UNK d   0      -9.816  -4.095  26.308  0.00  0.00     0.139 C 
ATOM     46  O   UNK d   0     -10.405  -3.944  25.209  0.00  0.00    -0.650 OA
BRANCH  45  47
ATOM     47  O   UNK d   0     -10.116  -3.244  27.350  0.00  0.00    -0.776 OA
ATOM     48  H   UNK d   0     -10.527  -2.307  27.208  0.00  0.00     0.167 HD
ENDBRANCH  45  47
ENDBRANCH  44  45
ENDBRANCH  43  44
ENDBRANCH  27  43
BRANCH  24  49
ATOM     49  C   UNK d   0      -5.861  -8.843  28.945  0.00  0.00     0.052 C 
BRANCH  49  50
ATOM     50  C   UNK d   0      -6.309  -9.220  27.556  0.00  0.00     0.115 C 
BRANCH  50  51
ATOM     51  C   UNK d   0      -6.638 -10.619  27.320  0.00  0.00     0.139 C 
ATOM     52  O   UNK d   0      -7.774 -11.095  27.553  0.00  0.00    -0.650 OA
BRANCH  51  53
ATOM     53  O   UNK d   0      -5.670 -11.477  26.821  0.00  0.00    -0.776 OA
ATOM     54  H   UNK d   0      -4.743 -11.424  27.206  0.00  0.00     0.167 HD
ENDBRANCH  51  53
ENDBRANCH  50  51
ENDBRANCH  49  50
ENDBRANCH  24  49
BRANCH  21  55
ATOM     55  C   UNK d   0      -2.883  -9.331  29.606  0.00  0.00     0.151 C 
BRANCH  55  56
ATOM     56  C   UNK d   0      -2.346 -10.114  28.483  0.00  0.00     0.143 C 
ATOM     57  O   UNK d   0      -3.065 -10.807  27.737  0.00  0.00    -0.650 OA
BRANCH  56  58
ATOM     58  O   UNK d   0      -0.971 -10.067  28.258  0.00  0.00    -0.776 OA
ATOM     59  H   UNK d   0      -0.420 -10.777  28.774  0.00  0.00     0.167 HD
ENDBRANCH  56  58
ENDBRANCH  55  56
ENDBRANCH  21  55
BRANCH  18  60
ATOM     60  C   UNK d   0       0.593  -5.511  31.066  0.00  0.00     0.151 C 
BRANCH  60  61
ATOM     61  C   UNK d   0      -0.374  -5.435  32.171  0.00  0.00     0.143 C 
ATOM     62  O   UNK d   0      -0.569  -4.479  32.922  0.00  0.00    -0.650 OA
BRANCH  61  63
ATOM     63  O   UNK d   0      -1.154  -6.600  32.370  0.00  0.00    -0.776 OA
ATOM     64  H   UNK d   0      -2.147  -6.541  32.508  0.00  0.00     0.167 HD
ENDBRANCH  61  63
ENDBRANCH  60  61
ENDBRANCH  18  60
BRANCH  14  65
ATOM     65  C   UNK d   0       1.387  -2.668  30.361  0.00  0.00     0.052 C 
BRANCH  65  66
ATOM     66  C   UNK d   0       0.864  -1.817  31.463  0.00  0.00     0.115 C 
BRANCH  66  67
ATOM     67  C   UNK d   0       0.818  -0.391  31.299  0.00  0.00     0.139 C 
ATOM     68  O   UNK d   0       1.550   0.147  30.389  0.00  0.00    -0.650 OA
BRANCH  67  69
ATOM     69  O   UNK d   0       0.057   0.526  32.023  0.00  0.00    -0.776 OA
ATOM     70  H   UNK d   0       0.002   1.475  31.626  0.00  0.00     0.167 HD
ENDBRANCH  67  69
ENDBRANCH  66  67
ENDBRANCH  65  66
ENDBRANCH  14  65
ENDBRANCH   6   7
ENDBRANCH   5   6
ENDBRANCH   2   5
TORSDOF 28
ENDMDL
MODEL 18
REMARK VINA RESULT:      -9.0      2.184      7.675
REMARK  28 active torsions:
REMARK  status: ('A' for Active; 'I' for Inactive)
REMARK    1  A    between atoms: C_2  and  O_3 
REMARK    2  A    between atoms: C_2  and  C_4 
REMARK    3  A    between atoms: C_4  and  C_5 
REMARK    4  A    between atoms: C_5  and  C_6 
REMARK    5  A    between atoms: C_7  and  C_8 
REMARK    6  A    between atoms: C_8  and  C_9 
REMARK    7  A    between atoms: C_9  and  O_11 
REMARK    8  A    between atoms: C_28  and  C_29 
REMARK    9  A    between atoms: C_29  and  C_30 
REMARK   10  A    between atoms: C_30  and  O_32 
REMARK   11  A    between atoms: C_33  and  C_34 
REMARK   12  A    between atoms: C_34  and  C_35 
REMARK   13  A    between atoms: C_35  and  C_36 
REMARK   14  A    between atoms: C_36  and  O_38 
REMARK   15  A    between atoms: C_39  and  C_40 
REMARK   16  A    between atoms: C_40  and  C_41 
REMARK   17  A    between atoms: C_41  and  C_42 
REMARK   18  A    between atoms: C_42  and  O_44 
REMARK   19  A    between atoms: C_45  and  C_46 
REMARK   20  A    between atoms: C_46  and  C_47 
REMARK   21  A    between atoms: C_47  and  O_49 
REMARK   22  A    between atoms: C_50  and  C_51 
REMARK   23  A    between atoms: C_51  and  C_52 
REMARK   24  A    between atoms: C_52  and  O_54 
REMARK   25  A    between atoms: C_55  and  C_56 
REMARK   26  A    between atoms: C_56  and  C_57 
REMARK   27  A    between atoms: C_57  and  C_58 
REMARK   28  A    between atoms: C_58  and  O_60 
ROOT
ATOM      1  O   UNK d   0       1.162  -8.411  30.173  0.00  0.00    -0.650 OA
ATOM      2  C   UNK d   0       1.966  -7.455  30.108  0.00  0.00     0.139 C 
ENDROOT
BRANCH   2   3
ATOM      3  O   UNK d   0       3.283  -7.703  29.803  0.00  0.00    -0.776 OA
ATOM      4  H   UNK d   0       3.757  -8.539  30.150  0.00  0.00     0.167 HD
ENDBRANCH   2   3
BRANCH   2   5
ATOM      5  C   UNK d   0       1.497  -6.064  30.360  0.00  0.00     0.115 C 
BRANCH   5   6
ATOM      6  C   UNK d   0       1.603  -5.246  29.102  0.00  0.00     0.052 C 
BRANCH   6   7
ATOM      7  C   UNK d   0       0.439  -4.301  28.923  0.00  0.00    -0.020 A 
ATOM      8  C   UNK d   0       0.443  -2.997  29.041  0.00  0.00    -0.011 A 
ATOM      9  C   UNK d   0      -0.907  -2.523  28.787  0.00  0.00     0.067 A 
ATOM     10  C   UNK d   0      -1.550  -1.276  28.737  0.00  0.00     0.062 C 
ATOM     11  N   UNK d   0      -1.670  -3.606  28.529  0.00  0.00    -0.248 NA
ATOM     12  C   UNK d   0      -2.810  -0.994  28.199  0.00  0.00     0.041 A 
ATOM     13  N   UNK d   0      -3.980  -1.655  28.287  0.00  0.00    -0.355 N 
ATOM     14  C   UNK d   0      -2.957   0.129  27.365  0.00  0.00    -0.022 A 
ATOM     15  C   UNK d   0      -4.863  -0.985  27.523  0.00  0.00     0.042 A 
ATOM     16  H   UNK d   0      -4.182  -2.566  28.892  0.00  0.00     0.166 HD
ATOM     17  C   UNK d   0      -6.225  -1.241  27.263  0.00  0.00     0.062 C 
ATOM     18  C   UNK d   0      -4.259   0.140  26.929  0.00  0.00    -0.013 A 
ATOM     19  C   UNK d   0      -6.835  -2.430  26.958  0.00  0.00     0.067 A 
ATOM     20  N   UNK d   0      -6.109  -3.540  27.111  0.00  0.00    -0.248 NA
ATOM     21  C   UNK d   0      -8.141  -2.838  26.467  0.00  0.00    -0.011 A 
ATOM     22  C   UNK d   0      -6.844  -4.644  26.755  0.00  0.00     0.066 A 
ATOM     23  C   UNK d   0      -6.219  -5.874  26.902  0.00  0.00     0.062 C 
ATOM     24  C   UNK d   0      -8.138  -4.135  26.346  0.00  0.00    -0.020 A 
ATOM     25  C   UNK d   0      -4.957  -6.138  27.457  0.00  0.00     0.041 A 
ATOM     26  N   UNK d   0      -3.791  -5.489  27.357  0.00  0.00    -0.355 N 
ATOM     27  C   UNK d   0      -4.811  -7.262  28.297  0.00  0.00    -0.022 A 
ATOM     28  C   UNK d   0      -2.906  -6.160  28.111  0.00  0.00     0.042 A 
ATOM     29  H   UNK d   0      -3.587  -4.579  26.740  0.00  0.00     0.166 HD
ATOM     30  C   UNK d   0      -1.547  -5.922  28.371  0.00  0.00     0.062 C 
ATOM     31  C   UNK d   0      -3.516  -7.284  28.716  0.00  0.00    -0.013 A 
ATOM     32  C   UNK d   0      -0.920  -4.707  28.595  0.00  0.00     0.066 A 
BRANCH   8  33
ATOM     33  C   UNK d   0       1.597  -2.143  29.376  0.00  0.00     0.151 C 
BRANCH  33  34
ATOM     34  C   UNK d   0       2.077  -1.356  28.226  0.00  0.00     0.143 C 
ATOM     35  O   UNK d   0       2.172  -1.866  27.100  0.00  0.00    -0.650 OA
BRANCH  34  36
ATOM     36  O   UNK d   0       2.425  -0.037  28.408  0.00  0.00    -0.776 OA
ATOM     37  H   UNK d   0       2.355   0.411  29.332  0.00  0.00     0.167 HD
ENDBRANCH  34  36
ENDBRANCH  33  34
ENDBRANCH   8  33
BRANCH  31  38
ATOM     38  C   UNK d   0      -2.897  -8.301  29.646  0.00  0.00     0.151 C 
BRANCH  38  39
ATOM     39  C   UNK d   0      -2.215  -9.365  28.940  0.00  0.00     0.143 C 
ATOM     40  O   UNK d   0      -2.662 -10.524  28.891  0.00  0.00    -0.650 OA
BRANCH  39  41
ATOM     41  O   UNK d   0      -1.013  -9.094  28.286  0.00  0.00    -0.776 OA
ATOM     42  H   UNK d   0      -0.499  -8.262  28.592  0.00  0.00     0.167 HD
ENDBRANCH  39  41
ENDBRANCH  38  39
ENDBRANCH  31  38
BRANCH  27  43
ATOM     43  C   UNK d   0      -5.834  -8.294  28.705  0.00  0.00     0.052 C 
BRANCH  43  44
ATOM     44  C   UNK d   0      -5.719  -9.573  27.941  0.00  0.00     0.115 C 
BRANCH  44  45
ATOM     45  C   UNK d   0      -7.081  -9.890  27.437  0.00  0.00     0.139 C 
ATOM     46  O   UNK d   0      -7.653  -9.043  26.708  0.00  0.00    -0.650 OA
BRANCH  45  47
ATOM     47  O   UNK d   0      -7.731 -11.068  27.733  0.00  0.00    -0.776 OA
ATOM     48  H   UNK d   0      -7.786 -11.454  28.689  0.00  0.00     0.167 HD
ENDBRANCH  45  47
ENDBRANCH  44  45
ENDBRANCH  43  44
ENDBRANCH  27  43
BRANCH  24  49
ATOM     49  C   UNK d   0      -9.272  -4.969  25.916  0.00  0.00     0.052 C 
BRANCH  49  50
ATOM     50  C   UNK d   0     -10.130  -5.340  27.099  0.00  0.00     0.115 C 
BRANCH  50  51
ATOM     51  C   UNK d   0     -11.555  -5.058  27.001  0.00  0.00     0.139 C 
ATOM     52  O   UNK d   0     -12.431  -5.946  27.132  0.00  0.00    -0.650 OA
BRANCH  51  53
ATOM     53  O   UNK d   0     -11.983  -3.763  26.751  0.00  0.00    -0.776 OA
ATOM     54  H   UNK d   0     -11.809  -3.062  27.450  0.00  0.00     0.167 HD
ENDBRANCH  51  53
ENDBRANCH  50  51
ENDBRANCH  49  50
ENDBRANCH  24  49
BRANCH  21  55
ATOM     55  C   UNK d   0      -9.257  -1.891  26.174  0.00  0.00     0.151 C 
BRANCH  55  56
ATOM     56  C   UNK d   0      -9.198  -1.379  24.797  0.00  0.00     0.143 C 
ATOM     57  O   UNK d   0      -8.457  -0.435  24.458  0.00  0.00    -0.650 OA
BRANCH  56  58
ATOM     58  O   UNK d   0     -10.013  -1.987  23.843  0.00  0.00    -0.776 OA
ATOM     59  H   UNK d   0     -10.942  -1.547  23.718  0.00  0.00     0.167 HD
ENDBRANCH  56  58
ENDBRANCH  55  56
ENDBRANCH  21  55
BRANCH  18  60
ATOM     60  C   UNK d   0      -4.852   1.172  26.001  0.00  0.00     0.151 C 
BRANCH  60  61
ATOM     61  C   UNK d   0      -4.370   0.829  24.655  0.00  0.00     0.143 C 
ATOM     62  O   UNK d   0      -4.330  -0.290  24.143  0.00  0.00    -0.650 OA
BRANCH  61  63
ATOM     63  O   UNK d   0      -3.907   1.923  23.884  0.00  0.00    -0.776 OA
ATOM     64  H   UNK d   0      -3.783   2.831  24.296  0.00  0.00     0.167 HD
ENDBRANCH  61  63
ENDBRANCH  60  61
ENDBRANCH  18  60
BRANCH  14  65
ATOM     65  C   UNK d   0      -1.998   1.236  27.031  0.00  0.00     0.052 C 
BRANCH  65  66
ATOM     66  C   UNK d   0      -1.801   2.193  28.152  0.00  0.00     0.115 C 
BRANCH  66  67
ATOM     67  C   UNK d   0      -0.487   2.393  28.695  0.00  0.00     0.139 C 
ATOM     68  O   UNK d   0       0.071   1.422  29.325  0.00  0.00    -0.650 OA
BRANCH  67  69
ATOM     69  O   UNK d   0       0.297   3.545  28.629  0.00  0.00    -0.776 OA
ATOM     70  H   UNK d   0       0.432   4.046  29.519  0.00  0.00     0.167 HD
ENDBRANCH  67  69
ENDBRANCH  66  67
ENDBRANCH  65  66
ENDBRANCH  14  65
ENDBRANCH   6   7
ENDBRANCH   5   6
ENDBRANCH   2   5
TORSDOF 28
ENDMDL
MODEL 19
REMARK VINA RESULT:      -9.0      1.973     10.712
REMARK  28 active torsions:
REMARK  status: ('A' for Active; 'I' for Inactive)
REMARK    1  A    between atoms: C_2  and  O_3 
REMARK    2  A    between atoms: C_2  and  C_4 
REMARK    3  A    between atoms: C_4  and  C_5 
REMARK    4  A    between atoms: C_5  and  C_6 
REMARK    5  A    between atoms: C_7  and  C_8 
REMARK    6  A    between atoms: C_8  and  C_9 
REMARK    7  A    between atoms: C_9  and  O_11 
REMARK    8  A    between atoms: C_28  and  C_29 
REMARK    9  A    between atoms: C_29  and  C_30 
REMARK   10  A    between atoms: C_30  and  O_32 
REMARK   11  A    between atoms: C_33  and  C_34 
REMARK   12  A    between atoms: C_34  and  C_35 
REMARK   13  A    between atoms: C_35  and  C_36 
REMARK   14  A    between atoms: C_36  and  O_38 
REMARK   15  A    between atoms: C_39  and  C_40 
REMARK   16  A    between atoms: C_40  and  C_41 
REMARK   17  A    between atoms: C_41  and  C_42 
REMARK   18  A    between atoms: C_42  and  O_44 
REMARK   19  A    between atoms: C_45  and  C_46 
REMARK   20  A    between atoms: C_46  and  C_47 
REMARK   21  A    between atoms: C_47  and  O_49 
REMARK   22  A    between atoms: C_50  and  C_51 
REMARK   23  A    between atoms: C_51  and  C_52 
REMARK   24  A    between atoms: C_52  and  O_54 
REMARK   25  A    between atoms: C_55  and  C_56 
REMARK   26  A    between atoms: C_56  and  C_57 
REMARK   27  A    between atoms: C_57  and  C_58 
REMARK   28  A    between atoms: C_58  and  O_60 
ROOT
ATOM      1  O   UNK d   0      -5.739 -11.631  26.930  0.00  0.00    -0.650 OA
ATOM      2  C   UNK d   0      -6.488 -10.717  27.340  0.00  0.00     0.139 C 
ENDROOT
BRANCH   2   3
ATOM      3  O   UNK d   0      -7.850 -10.863  27.233  0.00  0.00    -0.776 OA
ATOM      4  H   UNK d   0      -8.423 -11.081  28.051  0.00  0.00     0.167 HD
ENDBRANCH   2   3
BRANCH   2   5
ATOM      5  C   UNK d   0      -5.904  -9.482  27.937  0.00  0.00     0.115 C 
BRANCH   5   6
ATOM      6  C   UNK d   0      -6.945  -8.397  28.003  0.00  0.00     0.052 C 
BRANCH   6   7
ATOM      7  C   UNK d   0      -6.419  -7.059  27.542  0.00  0.00    -0.020 A 
ATOM      8  C   UNK d   0      -6.897  -6.297  26.592  0.00  0.00    -0.011 A 
ATOM      9  C   UNK d   0      -6.057  -5.115  26.504  0.00  0.00     0.067 A 
ATOM     10  C   UNK d   0      -6.037  -3.941  25.734  0.00  0.00     0.062 C 
ATOM     11  N   UNK d   0      -5.087  -5.242  27.434  0.00  0.00    -0.248 NA
ATOM     12  C   UNK d   0      -5.304  -2.776  25.983  0.00  0.00     0.041 A 
ATOM     13  N   UNK d   0      -4.031  -2.599  26.385  0.00  0.00    -0.355 N 
ATOM     14  C   UNK d   0      -5.946  -1.530  25.870  0.00  0.00    -0.022 A 
ATOM     15  C   UNK d   0      -3.851  -1.274  26.538  0.00  0.00     0.042 A 
ATOM     16  H   UNK d   0      -3.268  -3.395  26.539  0.00  0.00     0.166 HD
ATOM     17  C   UNK d   0      -2.713  -0.546  26.937  0.00  0.00     0.062 C 
ATOM     18  C   UNK d   0      -5.030  -0.570  26.224  0.00  0.00    -0.013 A 
ATOM     19  C   UNK d   0      -1.845  -0.800  27.968  0.00  0.00     0.067 A 
ATOM     20  N   UNK d   0      -1.950  -1.988  28.569  0.00  0.00    -0.248 NA
ATOM     21  C   UNK d   0      -0.780  -0.074  28.640  0.00  0.00    -0.011 A 
ATOM     22  C   UNK d   0      -1.032  -2.092  29.585  0.00  0.00     0.066 A 
ATOM     23  C   UNK d   0      -1.007  -3.297  30.272  0.00  0.00     0.062 C 
ATOM     24  C   UNK d   0      -0.311  -0.834  29.588  0.00  0.00    -0.020 A 
ATOM     25  C   UNK d   0      -1.743  -4.460  29.997  0.00  0.00     0.041 A 
ATOM     26  N   UNK d   0      -3.013  -4.636  29.612  0.00  0.00    -0.355 N 
ATOM     27  C   UNK d   0      -1.096  -5.710  30.107  0.00  0.00    -0.022 A 
ATOM     28  C   UNK d   0      -3.197  -5.958  29.468  0.00  0.00     0.042 A 
ATOM     29  H   UNK d   0      -3.781  -3.837  29.468  0.00  0.00     0.166 HD
ATOM     30  C   UNK d   0      -4.326  -6.696  29.081  0.00  0.00     0.062 C 
ATOM     31  C   UNK d   0      -2.008  -6.663  29.773  0.00  0.00    -0.013 A 
ATOM     32  C   UNK d   0      -5.249  -6.391  28.093  0.00  0.00     0.066 A 
BRANCH   8  33
ATOM     33  C   UNK d   0      -8.073  -6.571  25.746  0.00  0.00     0.151 C 
BRANCH  33  34
ATOM     34  C   UNK d   0      -9.255  -5.781  26.138  0.00  0.00     0.143 C 
ATOM     35  O   UNK d   0      -9.723  -5.860  27.282  0.00  0.00    -0.650 OA
BRANCH  34  36
ATOM     36  O   UNK d   0      -9.844  -4.946  25.217  0.00  0.00    -0.776 OA
ATOM     37  H   UNK d   0      -9.281  -4.308  24.637  0.00  0.00     0.167 HD
ENDBRANCH  34  36
ENDBRANCH  33  34
ENDBRANCH   8  33
BRANCH  31  38
ATOM     38  C   UNK d   0      -1.765  -8.154  29.733  0.00  0.00     0.151 C 
BRANCH  38  39
ATOM     39  C   UNK d   0      -1.810  -8.766  31.044  0.00  0.00     0.143 C 
ATOM     40  O   UNK d   0      -2.540  -8.336  31.954  0.00  0.00    -0.650 OA
BRANCH  39  41
ATOM     41  O   UNK d   0      -1.011  -9.878  31.309  0.00  0.00    -0.776 OA
ATOM     42  H   UNK d   0      -0.302 -10.115  30.609  0.00  0.00     0.167 HD
ENDBRANCH  39  41
ENDBRANCH  38  39
ENDBRANCH  31  38
BRANCH  27  43
ATOM     43  C   UNK d   0       0.323  -6.022  30.510  0.00  0.00     0.052 C 
BRANCH  43  44
ATOM     44  C   UNK d   0       1.300  -5.886  29.387  0.00  0.00     0.115 C 
BRANCH  44  45
ATOM     45  C   UNK d   0       2.652  -6.062  29.977  0.00  0.00     0.139 C 
ATOM     46  O   UNK d   0       3.304  -5.033  30.283  0.00  0.00    -0.650 OA
BRANCH  45  47
ATOM     47  O   UNK d   0       3.212  -7.301  30.206  0.00  0.00    -0.776 OA
ATOM     48  H   UNK d   0       4.016  -7.444  30.839  0.00  0.00     0.167 HD
ENDBRANCH  45  47
ENDBRANCH  44  45
ENDBRANCH  43  44
ENDBRANCH  27  43
BRANCH  24  49
ATOM     49  C   UNK d   0       0.804  -0.507  30.492  0.00  0.00     0.052 C 
BRANCH  49  50
ATOM     50  C   UNK d   0       1.433  -1.767  31.028  0.00  0.00     0.115 C 
BRANCH  50  51
ATOM     51  C   UNK d   0       1.259  -2.046  32.447  0.00  0.00     0.139 C 
ATOM     52  O   UNK d   0       1.831  -3.001  33.024  0.00  0.00    -0.650 OA
BRANCH  51  53
ATOM     53  O   UNK d   0       0.431  -1.236  33.209  0.00  0.00    -0.776 OA
ATOM     54  H   UNK d   0       0.667  -0.263  33.298  0.00  0.00     0.167 HD
ENDBRANCH  51  53
ENDBRANCH  50  51
ENDBRANCH  49  50
ENDBRANCH  24  49
BRANCH  21  55
ATOM     55  C   UNK d   0      -0.339   1.301  28.262  0.00  0.00     0.151 C 
BRANCH  55  56
ATOM     56  C   UNK d   0      -1.281   2.330  28.728  0.00  0.00     0.143 C 
ATOM     57  O   UNK d   0      -2.038   2.951  27.956  0.00  0.00    -0.650 OA
BRANCH  56  58
ATOM     58  O   UNK d   0      -1.314   2.609  30.094  0.00  0.00    -0.776 OA
ATOM     59  H   UNK d   0      -1.133   3.598  30.341  0.00  0.00     0.167 HD
ENDBRANCH  56  58
ENDBRANCH  55  56
ENDBRANCH  21  55
BRANCH  18  60
ATOM     60  C   UNK d   0      -5.300   0.914  26.252  0.00  0.00     0.151 C 
BRANCH  60  61
ATOM     61  C   UNK d   0      -4.987   1.407  24.903  0.00  0.00     0.143 C 
ATOM     62  O   UNK d   0      -5.447   2.408  24.352  0.00  0.00    -0.650 OA
BRANCH  61  63
ATOM     63  O   UNK d   0      -4.051   0.629  24.179  0.00  0.00    -0.776 OA
ATOM     64  H   UNK d   0      -4.227   0.358  23.228  0.00  0.00     0.167 HD
ENDBRANCH  61  63
ENDBRANCH  60  61
ENDBRANCH  18  60
BRANCH  14  65
ATOM     65  C   UNK d   0      -7.315  -1.175  25.363  0.00  0.00     0.052 C 
BRANCH  65  66
ATOM     66  C   UNK d   0      -8.309  -0.990  26.454  0.00  0.00     0.115 C 
BRANCH  66  67
ATOM     67  C   UNK d   0      -9.543  -1.724  26.424  0.00  0.00     0.139 C 
ATOM     68  O   UNK d   0     -10.031  -2.057  25.282  0.00  0.00    -0.650 OA
BRANCH  67  69
ATOM     69  O   UNK d   0     -10.315  -2.140  27.508  0.00  0.00    -0.776 OA
ATOM     70  H   UNK d   0     -10.404  -1.464  28.281  0.00  0.00     0.167 HD
ENDBRANCH  67  69
ENDBRANCH  66  67
ENDBRANCH  65  66
ENDBRANCH  14  65
ENDBRANCH   6   7
ENDBRANCH   5   6
ENDBRANCH   2   5
TORSDOF 28
ENDMDL
MODEL 20
REMARK VINA RESULT:      -8.9      2.495      8.097
REMARK  28 active torsions:
REMARK  status: ('A' for Active; 'I' for Inactive)
REMARK    1  A    between atoms: C_2  and  O_3 
REMARK    2  A    between atoms: C_2  and  C_4 
REMARK    3  A    between atoms: C_4  and  C_5 
REMARK    4  A    between atoms: C_5  and  C_6 
REMARK    5  A    between atoms: C_7  and  C_8 
REMARK    6  A    between atoms: C_8  and  C_9 
REMARK    7  A    between atoms: C_9  and  O_11 
REMARK    8  A    between atoms: C_28  and  C_29 
REMARK    9  A    between atoms: C_29  and  C_30 
REMARK   10  A    between atoms: C_30  and  O_32 
REMARK   11  A    between atoms: C_33  and  C_34 
REMARK   12  A    between atoms: C_34  and  C_35 
REMARK   13  A    between atoms: C_35  and  C_36 
REMARK   14  A    between atoms: C_36  and  O_38 
REMARK   15  A    between atoms: C_39  and  C_40 
REMARK   16  A    between atoms: C_40  and  C_41 
REMARK   17  A    between atoms: C_41  and  C_42 
REMARK   18  A    between atoms: C_42  and  O_44 
REMARK   19  A    between atoms: C_45  and  C_46 
REMARK   20  A    between atoms: C_46  and  C_47 
REMARK   21  A    between atoms: C_47  and  O_49 
REMARK   22  A    between atoms: C_50  and  C_51 
REMARK   23  A    between atoms: C_51  and  C_52 
REMARK   24  A    between atoms: C_52  and  O_54 
REMARK   25  A    between atoms: C_55  and  C_56 
REMARK   26  A    between atoms: C_56  and  C_57 
REMARK   27  A    between atoms: C_57  and  C_58 
REMARK   28  A    between atoms: C_58  and  O_60 
ROOT
ATOM      1  O   UNK d   0       0.065 -10.491  31.295  0.00  0.00    -0.650 OA
ATOM      2  C   UNK d   0       0.615  -9.668  30.529  0.00  0.00     0.139 C 
ENDROOT
BRANCH   2   3
ATOM      3  O   UNK d   0       1.566 -10.108  29.640  0.00  0.00    -0.776 OA
ATOM      4  H   UNK d   0       1.410 -10.942  29.070  0.00  0.00     0.167 HD
ENDBRANCH   2   3
BRANCH   2   5
ATOM      5  C   UNK d   0       0.240  -8.227  30.586  0.00  0.00     0.115 C 
BRANCH   5   6
ATOM      6  C   UNK d   0       0.763  -7.508  29.371  0.00  0.00     0.052 C 
BRANCH   6   7
ATOM      7  C   UNK d   0       0.348  -6.057  29.332  0.00  0.00    -0.020 A 
ATOM      8  C   UNK d   0       0.978  -5.032  29.847  0.00  0.00    -0.011 A 
ATOM      9  C   UNK d   0       0.195  -3.841  29.565  0.00  0.00     0.067 A 
ATOM     10  C   UNK d   0       0.320  -2.465  29.813  0.00  0.00     0.062 C 
ATOM     11  N   UNK d   0      -0.898  -4.233  28.878  0.00  0.00    -0.248 NA
ATOM     12  C   UNK d   0      -0.404  -1.427  29.217  0.00  0.00     0.041 A 
ATOM     13  N   UNK d   0      -1.715  -1.313  28.928  0.00  0.00    -0.355 N 
ATOM     14  C   UNK d   0       0.287  -0.290  28.760  0.00  0.00    -0.022 A 
ATOM     15  C   UNK d   0      -1.872  -0.136  28.293  0.00  0.00     0.042 A 
ATOM     16  H   UNK d   0      -2.516  -2.040  29.185  0.00  0.00     0.166 HD
ATOM     17  C   UNK d   0      -3.031   0.476  27.777  0.00  0.00     0.062 C 
ATOM     18  C   UNK d   0      -0.639   0.534  28.169  0.00  0.00    -0.013 A 
ATOM     19  C   UNK d   0      -4.042  -0.080  27.034  0.00  0.00     0.067 A 
ATOM     20  N   UNK d   0      -4.058  -1.412  26.937  0.00  0.00    -0.248 NA
ATOM     21  C   UNK d   0      -5.166   0.419  26.261  0.00  0.00    -0.011 A 
ATOM     22  C   UNK d   0      -5.111  -1.820  26.155  0.00  0.00     0.066 A 
ATOM     23  C   UNK d   0      -5.270  -3.189  26.000  0.00  0.00     0.062 C 
ATOM     24  C   UNK d   0      -5.786  -0.603  25.746  0.00  0.00    -0.020 A 
ATOM     25  C   UNK d   0      -4.539  -4.215  26.618  0.00  0.00     0.041 A 
ATOM     26  N   UNK d   0      -3.235  -4.336  26.892  0.00  0.00    -0.355 N 
ATOM     27  C   UNK d   0      -5.234  -5.354  27.080  0.00  0.00    -0.022 A 
ATOM     28  C   UNK d   0      -3.074  -5.513  27.517  0.00  0.00     0.042 A 
ATOM     29  H   UNK d   0      -2.429  -3.609  26.623  0.00  0.00     0.166 HD
ATOM     30  C   UNK d   0      -1.925  -6.137  28.028  0.00  0.00     0.062 C 
ATOM     31  C   UNK d   0      -4.315  -6.180  27.651  0.00  0.00    -0.013 A 
ATOM     32  C   UNK d   0      -0.865  -5.555  28.704  0.00  0.00     0.066 A 
BRANCH   8  33
ATOM     33  C   UNK d   0       2.251  -5.059  30.591  0.00  0.00     0.151 C 
BRANCH  33  34
ATOM     34  C   UNK d   0       3.425  -4.878  29.718  0.00  0.00     0.143 C 
ATOM     35  O   UNK d   0       4.044  -5.855  29.273  0.00  0.00    -0.650 OA
BRANCH  34  36
ATOM     36  O   UNK d   0       3.838  -3.606  29.397  0.00  0.00    -0.776 OA
ATOM     37  H   UNK d   0       4.835  -3.349  29.407  0.00  0.00     0.167 HD
ENDBRANCH  34  36
ENDBRANCH  33  34
ENDBRANCH   8  33
BRANCH  31  38
ATOM     38  C   UNK d   0      -4.596  -7.516  28.297  0.00  0.00     0.151 C 
BRANCH  38  39
ATOM     39  C   UNK d   0      -4.660  -7.440  29.741  0.00  0.00     0.143 C 
ATOM     40  O   UNK d   0      -3.722  -7.808  30.469  0.00  0.00    -0.650 OA
BRANCH  39  41
ATOM     41  O   UNK d   0      -5.809  -6.936  30.351  0.00  0.00    -0.776 OA
ATOM     42  H   UNK d   0      -5.671  -6.253  31.102  0.00  0.00     0.167 HD
ENDBRANCH  39  41
ENDBRANCH  38  39
ENDBRANCH  31  38
BRANCH  27  43
ATOM     43  C   UNK d   0      -6.705  -5.678  26.998  0.00  0.00     0.052 C 
BRANCH  43  44
ATOM     44  C   UNK d   0      -7.095  -6.332  25.713  0.00  0.00     0.115 C 
BRANCH  44  45
ATOM     45  C   UNK d   0      -8.547  -6.631  25.812  0.00  0.00     0.139 C 
ATOM     46  O   UNK d   0      -9.347  -5.664  25.879  0.00  0.00    -0.650 OA
BRANCH  45  47
ATOM     47  O   UNK d   0      -9.047  -7.915  25.828  0.00  0.00    -0.776 OA
ATOM     48  H   UNK d   0      -8.938  -8.549  26.636  0.00  0.00     0.167 HD
ENDBRANCH  45  47
ENDBRANCH  44  45
ENDBRANCH  43  44
ENDBRANCH  27  43
BRANCH  24  49
ATOM     49  C   UNK d   0      -7.005  -0.555  24.921  0.00  0.00     0.052 C 
BRANCH  49  50
ATOM     50  C   UNK d   0      -8.229  -0.731  25.783  0.00  0.00     0.115 C 
BRANCH  50  51
ATOM     51  C   UNK d   0      -8.929  -2.005  25.692  0.00  0.00     0.139 C 
ATOM     52  O   UNK d   0      -9.671  -2.301  24.726  0.00  0.00    -0.650 OA
BRANCH  51  53
ATOM     53  O   UNK d   0      -8.785  -2.941  26.704  0.00  0.00    -0.776 OA
ATOM     54  H   UNK d   0      -9.372  -2.858  27.516  0.00  0.00     0.167 HD
ENDBRANCH  51  53
ENDBRANCH  50  51
ENDBRANCH  49  50
ENDBRANCH  24  49
BRANCH  21  55
ATOM     55  C   UNK d   0      -5.507   1.866  26.122  0.00  0.00     0.151 C 
BRANCH  55  56
ATOM     56  C   UNK d   0      -4.629   2.550  25.160  0.00  0.00     0.143 C 
ATOM     57  O   UNK d   0      -4.268   2.028  24.087  0.00  0.00    -0.650 OA
BRANCH  56  58
ATOM     58  O   UNK d   0      -4.191   3.834  25.480  0.00  0.00    -0.776 OA
ATOM     59  H   UNK d   0      -4.634   4.594  24.934  0.00  0.00     0.167 HD
ENDBRANCH  56  58
ENDBRANCH  55  56
ENDBRANCH  21  55
BRANCH  18  60
ATOM     60  C   UNK d   0      -0.329   1.867  27.533  0.00  0.00     0.151 C 
BRANCH  60  61
ATOM     61  C   UNK d   0      -0.360   2.852  28.625  0.00  0.00     0.143 C 
ATOM     62  O   UNK d   0      -1.194   2.933  29.528  0.00  0.00    -0.650 OA
BRANCH  61  63
ATOM     63  O   UNK d   0       0.694   3.797  28.615  0.00  0.00    -0.776 OA
ATOM     64  H   UNK d   0       1.338   3.863  29.383  0.00  0.00     0.167 HD
ENDBRANCH  61  63
ENDBRANCH  60  61
ENDBRANCH  18  60
BRANCH  14  65
ATOM     65  C   UNK d   0       1.723   0.117  28.926  0.00  0.00     0.052 C 
BRANCH  65  66
ATOM     66  C   UNK d   0       2.626  -0.514  27.926  0.00  0.00     0.115 C 
BRANCH  66  67
ATOM     67  C   UNK d   0       4.029  -0.213  27.944  0.00  0.00     0.139 C 
ATOM     68  O   UNK d   0       4.834  -1.070  28.465  0.00  0.00    -0.650 OA
BRANCH  67  69
ATOM     69  O   UNK d   0       4.664   0.928  27.454  0.00  0.00    -0.776 OA
ATOM     70  H   UNK d   0       4.057   1.747  27.301  0.00  0.00     0.167 HD
ENDBRANCH  67  69
ENDBRANCH  66  67
ENDBRANCH  65  66
ENDBRANCH  14  65
ENDBRANCH   6   7
ENDBRANCH   5   6
ENDBRANCH   2   5
TORSDOF 28
ENDMDL
