MODEL 1
REMARK VINA RESULT:      -8.8      0.000      0.000
REMARK  16 active torsions:
REMARK  status: ('A' for Active; 'I' for Inactive)
REMARK    1  A    between atoms: C_6  and  C_7 
REMARK    2  A    between atoms: C_7  and  C_8 
REMARK    3  A    between atoms: C_8  and  C_9 
REMARK    4  A    between atoms: C_9  and  O_11 
REMARK    5  A    between atoms: C_16  and  C_17 
REMARK    6  A    between atoms: C_17  and  C_18 
REMARK    7  A    between atoms: C_18  and  C_19 
REMARK    8  A    between atoms: C_19  and  O_21 
REMARK    9  A    between atoms: C_28  and  C_29 
REMARK   10  A    between atoms: C_29  and  C_30 
REMARK   11  A    between atoms: C_30  and  C_31 
REMARK   12  A    between atoms: C_31  and  O_33 
REMARK   13  A    between atoms: C_42  and  C_43 
REMARK   14  A    between atoms: C_43  and  C_44 
REMARK   15  A    between atoms: C_44  and  C_45 
REMARK   16  A    between atoms: C_45  and  O_47 
ROOT
HETATM    1  C   UNK     0     -34.265  -5.605  11.434  0.00  0.00     0.051 C 
HETATM    2  C   UNK     0     -34.232  -4.116  11.154  0.00  0.00    -0.031 A 
HETATM    3  C   UNK     0     -33.303  -3.376  10.440  0.00  0.00     0.021 A 
HETATM    4  N   UNK     0     -33.658  -2.069  10.475  0.00  0.00    -0.361 N 
HETATM    5  C   UNK     0     -34.798  -1.962  11.190  0.00  0.00     0.022 A 
HETATM    6  C   UNK     0     -35.183  -3.224  11.632  0.00  0.00    -0.027 A 
HETATM    7  C   UNK     0     -35.650  -0.759  11.448  0.00  0.00     0.115 C 
HETATM    8  C   UNK     0     -35.892   0.170  10.272  0.00  0.00     0.021 A 
HETATM    9  N   UNK     0     -36.047  -0.144   8.976  0.00  0.00    -0.361 N 
HETATM   10  C   UNK     0     -36.145   1.005   8.275  0.00  0.00     0.022 A 
HETATM   11  C   UNK     0     -36.060   2.089   9.143  0.00  0.00    -0.027 A 
HETATM   12  C   UNK     0     -35.901   1.570  10.403  0.00  0.00    -0.031 A 
HETATM   13  C   UNK     0     -35.768   2.381  11.672  0.00  0.00     0.051 C 
HETATM   14  C   UNK     0     -36.269   1.128   6.759  0.00  0.00     0.115 C 
HETATM   15  C   UNK     0     -35.091   0.544   5.996  0.00  0.00     0.021 A 
HETATM   16  N   UNK     0     -34.633  -0.722   6.033  0.00  0.00    -0.361 N 
HETATM   17  C   UNK     0     -33.539  -0.815   5.275  0.00  0.00     0.022 A 
HETATM   18  C   UNK     0     -33.275   0.448   4.709  0.00  0.00    -0.027 A 
HETATM   19  C   UNK     0     -34.255   1.290   5.167  0.00  0.00    -0.031 A 
HETATM   20  C   UNK     0     -34.367   2.750   4.768  0.00  0.00     0.051 C 
HETATM   21  C   UNK     0     -32.616  -1.990   5.042  0.00  0.00     0.115 C 
HETATM   22  C   UNK     0     -32.400  -2.947   6.190  0.00  0.00     0.022 A 
HETATM   23  N   UNK     0     -32.246  -2.662   7.490  0.00  0.00    -0.361 N 
HETATM   24  C   UNK     0     -32.229  -3.821   8.178  0.00  0.00     0.021 A 
HETATM   25  C   UNK     0     -32.365  -4.879   7.299  0.00  0.00    -0.031 A 
HETATM   26  C   UNK     0     -32.362  -6.365   7.589  0.00  0.00     0.051 C 
HETATM   27  C   UNK     0     -32.475  -4.344   6.021  0.00  0.00    -0.027 A 
HETATM   28  C   UNK     0     -32.168  -4.007   9.685  0.00  0.00     0.115 C 
HETATM   29  H   UNK     0     -33.080  -1.227  10.029  0.00  0.00     0.165 HD
HETATM   30  H   UNK     0     -36.138  -1.177   8.559  0.00  0.00     0.165 HD
HETATM   31  H   UNK     0     -35.120  -1.579   6.567  0.00  0.00     0.165 HD
HETATM   32  H   UNK     0     -32.105  -1.641   7.930  0.00  0.00     0.165 HD
ENDROOT
BRANCH   6  33
HETATM   33  C   UNK     0     -36.369  -3.639  12.465  0.00  0.00     0.051 C 
BRANCH  33  34
HETATM   34  C   UNK     0     -37.639  -3.586  11.651  0.00  0.00     0.114 C 
BRANCH  34  35
HETATM   35  C   UNK     0     -37.931  -4.973  11.187  0.00  0.00     0.139 C 
HETATM   36  O   UNK     0     -37.812  -5.949  11.983  0.00  0.00    -0.650 OA
BRANCH  35  37
HETATM   37  O   UNK     0     -38.341  -5.258   9.890  0.00  0.00    -0.776 OA
HETATM   38  H   UNK     0     -37.818  -4.953   9.085  0.00  0.00     0.167 HD
ENDBRANCH  35  37
ENDBRANCH  34  35
ENDBRANCH  33  34
ENDBRANCH   6  33
BRANCH  27  39
HETATM   39  C   UNK     0     -32.566  -5.184   4.796  0.00  0.00     0.051 C 
BRANCH  39  40
HETATM   40  C   UNK     0     -31.323  -5.610   4.153  0.00  0.00     0.114 C 
BRANCH  40  41
HETATM   41  C   UNK     0     -30.814  -6.958   4.277  0.00  0.00     0.139 C 
HETATM   42  O   UNK     0     -31.394  -7.952   3.819  0.00  0.00    -0.650 OA
BRANCH  41  43
HETATM   43  O   UNK     0     -29.583  -7.172   4.959  0.00  0.00    -0.776 OA
HETATM   44  H   UNK     0     -29.526  -8.052   5.456  0.00  0.00     0.167 HD
ENDBRANCH  41  43
ENDBRANCH  40  41
ENDBRANCH  39  40
ENDBRANCH  27  39
BRANCH  11  45
HETATM   45  C   UNK     0     -36.126   3.558   8.825  0.00  0.00     0.051 C 
BRANCH  45  46
HETATM   46  C   UNK     0     -37.492   4.048   8.505  0.00  0.00     0.114 C 
BRANCH  46  47
HETATM   47  C   UNK     0     -37.447   4.609   7.124  0.00  0.00     0.139 C 
HETATM   48  O   UNK     0     -36.758   5.617   6.916  0.00  0.00    -0.650 OA
BRANCH  47  49
HETATM   49  O   UNK     0     -38.155   4.023   6.105  0.00  0.00    -0.776 OA
HETATM   50  H   UNK     0     -37.864   4.102   5.123  0.00  0.00     0.167 HD
ENDBRANCH  47  49
ENDBRANCH  46  47
ENDBRANCH  45  46
ENDBRANCH  11  45
BRANCH  18  51
HETATM   51  C   UNK     0     -32.162   0.827   3.766  0.00  0.00     0.051 C 
BRANCH  51  52
HETATM   52  C   UNK     0     -31.166   1.634   4.585  0.00  0.00     0.114 C 
BRANCH  52  53
HETATM   53  C   UNK     0     -30.401   0.782   5.516  0.00  0.00     0.139 C 
HETATM   54  O   UNK     0     -29.598  -0.056   5.074  0.00  0.00    -0.650 OA
BRANCH  53  55
HETATM   55  O   UNK     0     -30.586   0.918   6.870  0.00  0.00    -0.776 OA
HETATM   56  H   UNK     0     -31.125   1.621   7.318  0.00  0.00     0.167 HD
ENDBRANCH  53  55
ENDBRANCH  52  53
ENDBRANCH  51  52
ENDBRANCH  18  51
TORSDOF 16
ENDMDL
MODEL 2
REMARK VINA RESULT:      -8.0     21.755     24.985
REMARK  16 active torsions:
REMARK  status: ('A' for Active; 'I' for Inactive)
REMARK    1  A    between atoms: C_6  and  C_7 
REMARK    2  A    between atoms: C_7  and  C_8 
REMARK    3  A    between atoms: C_8  and  C_9 
REMARK    4  A    between atoms: C_9  and  O_11 
REMARK    5  A    between atoms: C_16  and  C_17 
REMARK    6  A    between atoms: C_17  and  C_18 
REMARK    7  A    between atoms: C_18  and  C_19 
REMARK    8  A    between atoms: C_19  and  O_21 
REMARK    9  A    between atoms: C_28  and  C_29 
REMARK   10  A    between atoms: C_29  and  C_30 
REMARK   11  A    between atoms: C_30  and  C_31 
REMARK   12  A    between atoms: C_31  and  O_33 
REMARK   13  A    between atoms: C_42  and  C_43 
REMARK   14  A    between atoms: C_43  and  C_44 
REMARK   15  A    between atoms: C_44  and  C_45 
REMARK   16  A    between atoms: C_45  and  O_47 
ROOT
HETATM    1  C   UNK     0      -9.742   0.443  18.311  0.00  0.00     0.051 C 
HETATM    2  C   UNK     0     -10.779   0.938  17.323  0.00  0.00    -0.031 A 
HETATM    3  C   UNK     0     -11.188   2.234  17.053  0.00  0.00     0.021 A 
HETATM    4  N   UNK     0     -12.164   2.202  16.115  0.00  0.00    -0.361 N 
HETATM    5  C   UNK     0     -12.380   0.914  15.775  0.00  0.00     0.022 A 
HETATM    6  C   UNK     0     -11.531   0.096  16.514  0.00  0.00    -0.027 A 
HETATM    7  C   UNK     0     -13.281   0.345  14.724  0.00  0.00     0.115 C 
HETATM    8  C   UNK     0     -13.307   1.063  13.387  0.00  0.00     0.021 A 
HETATM    9  N   UNK     0     -12.298   1.672  12.744  0.00  0.00    -0.361 N 
HETATM   10  C   UNK     0     -12.799   2.255  11.635  0.00  0.00     0.022 A 
HETATM   11  C   UNK     0     -14.167   2.008  11.555  0.00  0.00    -0.027 A 
HETATM   12  C   UNK     0     -14.493   1.257  12.656  0.00  0.00    -0.031 A 
HETATM   13  C   UNK     0     -15.878   0.747  12.986  0.00  0.00     0.051 C 
HETATM   14  C   UNK     0     -12.023   3.110  10.637  0.00  0.00     0.115 C 
HETATM   15  C   UNK     0     -11.410   4.361  11.245  0.00  0.00     0.021 A 
HETATM   16  N   UNK     0     -10.531   4.435  12.262  0.00  0.00    -0.361 N 
HETATM   17  C   UNK     0     -10.292   5.718  12.543  0.00  0.00     0.022 A 
HETATM   18  C   UNK     0     -11.044   6.519  11.660  0.00  0.00    -0.027 A 
HETATM   19  C   UNK     0     -11.739   5.657  10.852  0.00  0.00    -0.031 A 
HETATM   20  C   UNK     0     -12.652   6.107   9.726  0.00  0.00     0.051 C 
HETATM   21  C   UNK     0      -9.444   6.332  13.633  0.00  0.00     0.115 C 
HETATM   22  C   UNK     0      -9.373   5.604  14.955  0.00  0.00     0.022 A 
HETATM   23  N   UNK     0     -10.361   4.986  15.616  0.00  0.00    -0.361 N 
HETATM   24  C   UNK     0      -9.825   4.347  16.676  0.00  0.00     0.021 A 
HETATM   25  C   UNK     0      -8.462   4.568  16.704  0.00  0.00    -0.031 A 
HETATM   26  C   UNK     0      -7.440   4.095  17.717  0.00  0.00     0.051 C 
HETATM   27  C   UNK     0      -8.149   5.370  15.613  0.00  0.00    -0.027 A 
HETATM   28  C   UNK     0     -10.532   3.438  17.667  0.00  0.00     0.115 C 
HETATM   29  H   UNK     0     -12.722   3.086  15.728  0.00  0.00     0.165 HD
HETATM   30  H   UNK     0     -11.222   1.649  13.045  0.00  0.00     0.165 HD
HETATM   31  H   UNK     0     -10.031   3.564  12.761  0.00  0.00     0.165 HD
HETATM   32  H   UNK     0     -11.452   5.031  15.365  0.00  0.00     0.165 HD
ENDROOT
BRANCH   6  33
HETATM   33  C   UNK     0     -11.386  -1.405  16.512  0.00  0.00     0.051 C 
BRANCH  33  34
HETATM   34  C   UNK     0     -12.309  -2.033  17.528  0.00  0.00     0.114 C 
BRANCH  34  35
HETATM   35  C   UNK     0     -11.590  -3.196  18.125  0.00  0.00     0.139 C 
HETATM   36  O   UNK     0     -10.758  -3.018  19.062  0.00  0.00    -0.650 OA
BRANCH  35  37
HETATM   37  O   UNK     0     -11.794  -4.502  17.697  0.00  0.00    -0.776 OA
HETATM   38  H   UNK     0     -12.184  -5.208  18.301  0.00  0.00     0.167 HD
ENDBRANCH  35  37
ENDBRANCH  34  35
ENDBRANCH  33  34
ENDBRANCH   6  33
BRANCH  27  39
HETATM   39  C   UNK     0      -6.775   5.879  15.349  0.00  0.00     0.051 C 
BRANCH  39  40
HETATM   40  C   UNK     0      -6.439   7.232  15.794  0.00  0.00     0.114 C 
BRANCH  40  41
HETATM   41  C   UNK     0      -7.453   8.219  16.092  0.00  0.00     0.139 C 
HETATM   42  O   UNK     0      -8.039   8.289  17.180  0.00  0.00    -0.650 OA
BRANCH  41  43
HETATM   43  O   UNK     0      -7.808   9.168  15.092  0.00  0.00    -0.776 OA
HETATM   44  H   UNK     0      -8.804   9.324  14.997  0.00  0.00     0.167 HD
ENDBRANCH  41  43
ENDBRANCH  40  41
ENDBRANCH  39  40
ENDBRANCH  27  39
BRANCH  11  45
HETATM   45  C   UNK     0     -15.143   2.446  10.497  0.00  0.00     0.051 C 
BRANCH  45  46
HETATM   46  C   UNK     0     -14.536   3.256   9.411  0.00  0.00     0.114 C 
BRANCH  46  47
HETATM   47  C   UNK     0     -14.996   2.675   8.117  0.00  0.00     0.139 C 
HETATM   48  O   UNK     0     -16.213   2.562   7.918  0.00  0.00    -0.650 OA
BRANCH  47  49
HETATM   49  O   UNK     0     -14.092   2.272   7.167  0.00  0.00    -0.776 OA
HETATM   50  H   UNK     0     -14.387   1.889   6.261  0.00  0.00     0.167 HD
ENDBRANCH  47  49
ENDBRANCH  46  47
ENDBRANCH  45  46
ENDBRANCH  11  45
BRANCH  18  51
HETATM   51  C   UNK     0     -11.082   8.023  11.578  0.00  0.00     0.051 C 
BRANCH  51  52
HETATM   52  C   UNK     0     -12.078   8.482  12.633  0.00  0.00     0.114 C 
BRANCH  52  53
HETATM   53  C   UNK     0     -11.458   9.395  13.613  0.00  0.00     0.139 C 
HETATM   54  O   UNK     0     -12.097   9.758  14.613  0.00  0.00    -0.650 OA
BRANCH  53  55
HETATM   55  O   UNK     0     -10.175   9.842  13.409  0.00  0.00    -0.776 OA
HETATM   56  H   UNK     0      -9.417   9.748  14.042  0.00  0.00     0.167 HD
ENDBRANCH  53  55
ENDBRANCH  52  53
ENDBRANCH  51  52
ENDBRANCH  18  51
TORSDOF 16
ENDMDL
MODEL 3
REMARK VINA RESULT:      -8.0     22.468     26.493
REMARK  16 active torsions:
REMARK  status: ('A' for Active; 'I' for Inactive)
REMARK    1  A    between atoms: C_6  and  C_7 
REMARK    2  A    between atoms: C_7  and  C_8 
REMARK    3  A    between atoms: C_8  and  C_9 
REMARK    4  A    between atoms: C_9  and  O_11 
REMARK    5  A    between atoms: C_16  and  C_17 
REMARK    6  A    between atoms: C_17  and  C_18 
REMARK    7  A    between atoms: C_18  and  C_19 
REMARK    8  A    between atoms: C_19  and  O_21 
REMARK    9  A    between atoms: C_28  and  C_29 
REMARK   10  A    between atoms: C_29  and  C_30 
REMARK   11  A    between atoms: C_30  and  C_31 
REMARK   12  A    between atoms: C_31  and  O_33 
REMARK   13  A    between atoms: C_42  and  C_43 
REMARK   14  A    between atoms: C_43  and  C_44 
REMARK   15  A    between atoms: C_44  and  C_45 
REMARK   16  A    between atoms: C_45  and  O_47 
ROOT
HETATM    1  C   UNK     0     -14.872   6.526   9.745  0.00  0.00     0.051 C 
HETATM    2  C   UNK     0     -13.808   5.655  10.381  0.00  0.00    -0.031 A 
HETATM    3  C   UNK     0     -12.466   5.923  10.599  0.00  0.00     0.021 A 
HETATM    4  N   UNK     0     -11.887   4.841  11.170  0.00  0.00    -0.361 N 
HETATM    5  C   UNK     0     -12.832   3.892  11.330  0.00  0.00     0.022 A 
HETATM    6  C   UNK     0     -14.046   4.367  10.844  0.00  0.00    -0.027 A 
HETATM    7  C   UNK     0     -12.736   2.553  11.993  0.00  0.00     0.115 C 
HETATM    8  C   UNK     0     -11.964   2.494  13.300  0.00  0.00     0.021 A 
HETATM    9  N   UNK     0     -11.897   3.416  14.273  0.00  0.00    -0.361 N 
HETATM   10  C   UNK     0     -11.021   2.979  15.203  0.00  0.00     0.022 A 
HETATM   11  C   UNK     0     -10.517   1.739  14.823  0.00  0.00    -0.027 A 
HETATM   12  C   UNK     0     -11.108   1.427  13.624  0.00  0.00    -0.031 A 
HETATM   13  C   UNK     0     -10.864   0.162  12.833  0.00  0.00     0.051 C 
HETATM   14  C   UNK     0     -10.585   3.735  16.455  0.00  0.00     0.115 C 
HETATM   15  C   UNK     0      -9.904   5.063  16.167  0.00  0.00     0.021 A 
HETATM   16  N   UNK     0     -10.407   6.115  15.493  0.00  0.00    -0.361 N 
HETATM   17  C   UNK     0      -9.471   7.062  15.396  0.00  0.00     0.022 A 
HETATM   18  C   UNK     0      -8.306   6.609  16.047  0.00  0.00    -0.027 A 
HETATM   19  C   UNK     0      -8.591   5.357  16.526  0.00  0.00    -0.031 A 
HETATM   20  C   UNK     0      -7.613   4.519  17.330  0.00  0.00     0.051 C 
HETATM   21  C   UNK     0      -9.506   8.393  14.682  0.00  0.00     0.115 C 
HETATM   22  C   UNK     0     -10.306   8.478  13.403  0.00  0.00     0.022 A 
HETATM   23  N   UNK     0     -10.395   7.574  12.418  0.00  0.00    -0.361 N 
HETATM   24  C   UNK     0     -11.331   7.993  11.543  0.00  0.00     0.021 A 
HETATM   25  C   UNK     0     -11.850   9.201  11.969  0.00  0.00    -0.031 A 
HETATM   26  C   UNK     0     -12.890  10.079  11.304  0.00  0.00     0.051 C 
HETATM   27  C   UNK     0     -11.209   9.532  13.157  0.00  0.00    -0.027 A 
HETATM   28  C   UNK     0     -11.849   7.263  10.315  0.00  0.00     0.115 C 
HETATM   29  H   UNK     0     -10.805   4.740  11.420  0.00  0.00     0.165 HD
HETATM   30  H   UNK     0     -12.504   4.352  14.332  0.00  0.00     0.165 HD
HETATM   31  H   UNK     0     -11.459   6.211  15.119  0.00  0.00     0.165 HD
HETATM   32  H   UNK     0      -9.767   6.653  12.310  0.00  0.00     0.165 HD
ENDROOT
BRANCH   6  33
HETATM   33  C   UNK     0     -15.396   3.699  10.785  0.00  0.00     0.051 C 
BRANCH  33  34
HETATM   34  C   UNK     0     -15.398   2.585   9.766  0.00  0.00     0.114 C 
BRANCH  34  35
HETATM   35  C   UNK     0     -15.938   3.144   8.494  0.00  0.00     0.139 C 
HETATM   36  O   UNK     0     -17.168   3.026   8.217  0.00  0.00    -0.650 OA
BRANCH  35  37
HETATM   37  O   UNK     0     -15.143   3.811   7.570  0.00  0.00    -0.776 OA
HETATM   38  H   UNK     0     -14.854   4.766   7.704  0.00  0.00     0.167 HD
ENDBRANCH  35  37
ENDBRANCH  34  35
ENDBRANCH  33  34
ENDBRANCH   6  33
BRANCH  27  39
HETATM   39  C   UNK     0     -11.455  10.808  13.883  0.00  0.00     0.051 C 
BRANCH  39  40
HETATM   40  C   UNK     0     -10.789  12.018  13.403  0.00  0.00     0.114 C 
BRANCH  40  41
HETATM   41  C   UNK     0      -9.384  12.269  13.638  0.00  0.00     0.139 C 
HETATM   42  O   UNK     0      -8.753  11.785  14.587  0.00  0.00    -0.650 OA
BRANCH  41  43
HETATM   43  O   UNK     0      -8.674  13.115  12.739  0.00  0.00    -0.776 OA
HETATM   44  H   UNK     0      -9.201  13.394  11.921  0.00  0.00     0.167 HD
ENDBRANCH  41  43
ENDBRANCH  40  41
ENDBRANCH  39  40
ENDBRANCH  27  39
BRANCH  11  45
HETATM   45  C   UNK     0      -9.525   0.865  15.541  0.00  0.00     0.051 C 
BRANCH  45  46
HETATM   46  C   UNK     0     -10.126  -0.001  16.587  0.00  0.00     0.114 C 
BRANCH  46  47
HETATM   47  C   UNK     0      -9.345   0.212  17.840  0.00  0.00     0.139 C 
HETATM   48  O   UNK     0      -8.582   1.186  17.903  0.00  0.00    -0.650 OA
BRANCH  47  49
HETATM   49  O   UNK     0      -9.468  -0.650  18.900  0.00  0.00    -0.776 OA
HETATM   50  H   UNK     0      -9.435  -1.669  18.780  0.00  0.00     0.167 HD
ENDBRANCH  47  49
ENDBRANCH  46  47
ENDBRANCH  45  46
ENDBRANCH  11  45
BRANCH  18  51
HETATM   51  C   UNK     0      -6.999   7.339  16.220  0.00  0.00     0.051 C 
BRANCH  51  52
HETATM   52  C   UNK     0      -7.194   8.288  17.394  0.00  0.00     0.114 C 
BRANCH  52  53
HETATM   53  C   UNK     0      -6.467   9.558  17.200  0.00  0.00     0.139 C 
HETATM   54  O   UNK     0      -5.495   9.834  17.921  0.00  0.00    -0.650 OA
BRANCH  53  55
HETATM   55  O   UNK     0      -6.875  10.432  16.221  0.00  0.00    -0.776 OA
HETATM   56  H   UNK     0      -6.323  10.759  15.464  0.00  0.00     0.167 HD
ENDBRANCH  53  55
ENDBRANCH  52  53
ENDBRANCH  51  52
ENDBRANCH  18  51
TORSDOF 16
ENDMDL
MODEL 4
REMARK VINA RESULT:      -7.9      1.784      2.394
REMARK  16 active torsions:
REMARK  status: ('A' for Active; 'I' for Inactive)
REMARK    1  A    between atoms: C_6  and  C_7 
REMARK    2  A    between atoms: C_7  and  C_8 
REMARK    3  A    between atoms: C_8  and  C_9 
REMARK    4  A    between atoms: C_9  and  O_11 
REMARK    5  A    between atoms: C_16  and  C_17 
REMARK    6  A    between atoms: C_17  and  C_18 
REMARK    7  A    between atoms: C_18  and  C_19 
REMARK    8  A    between atoms: C_19  and  O_21 
REMARK    9  A    between atoms: C_28  and  C_29 
REMARK   10  A    between atoms: C_29  and  C_30 
REMARK   11  A    between atoms: C_30  and  C_31 
REMARK   12  A    between atoms: C_31  and  O_33 
REMARK   13  A    between atoms: C_42  and  C_43 
REMARK   14  A    between atoms: C_43  and  C_44 
REMARK   15  A    between atoms: C_44  and  C_45 
REMARK   16  A    between atoms: C_45  and  O_47 
ROOT
HETATM    1  C   UNK     0     -34.121  -7.673  11.598  0.00  0.00     0.051 C 
HETATM    2  C   UNK     0     -33.875  -6.182  11.495  0.00  0.00    -0.031 A 
HETATM    3  C   UNK     0     -32.799  -5.504  10.944  0.00  0.00     0.021 A 
HETATM    4  N   UNK     0     -32.988  -4.173  11.102  0.00  0.00    -0.361 N 
HETATM    5  C   UNK     0     -34.166  -3.987  11.734  0.00  0.00     0.022 A 
HETATM    6  C   UNK     0     -34.746  -5.224  11.997  0.00  0.00    -0.027 A 
HETATM    7  C   UNK     0     -34.880  -2.713  12.062  0.00  0.00     0.115 C 
HETATM    8  C   UNK     0     -34.894  -1.642  10.985  0.00  0.00     0.021 A 
HETATM    9  N   UNK     0     -34.967  -1.797   9.654  0.00  0.00    -0.361 N 
HETATM   10  C   UNK     0     -34.855  -0.578   9.084  0.00  0.00     0.022 A 
HETATM   11  C   UNK     0     -34.714   0.388  10.076  0.00  0.00    -0.027 A 
HETATM   12  C   UNK     0     -34.738  -0.275  11.276  0.00  0.00    -0.031 A 
HETATM   13  C   UNK     0     -34.622   0.374  12.636  0.00  0.00     0.051 C 
HETATM   14  C   UNK     0     -34.822  -0.283   7.587  0.00  0.00     0.115 C 
HETATM   15  C   UNK     0     -33.662  -0.938   6.856  0.00  0.00     0.021 A 
HETATM   16  N   UNK     0     -33.373  -2.251   6.782  0.00  0.00    -0.361 N 
HETATM   17  C   UNK     0     -32.234  -2.412   6.106  0.00  0.00     0.022 A 
HETATM   18  C   UNK     0     -31.762  -1.145   5.711  0.00  0.00    -0.027 A 
HETATM   19  C   UNK     0     -32.666  -0.230   6.186  0.00  0.00    -0.031 A 
HETATM   20  C   UNK     0     -32.556   1.265   5.950  0.00  0.00     0.051 C 
HETATM   21  C   UNK     0     -31.448  -3.670   5.811  0.00  0.00     0.115 C 
HETATM   22  C   UNK     0     -31.462  -4.762   6.855  0.00  0.00     0.022 A 
HETATM   23  N   UNK     0     -31.394  -4.637   8.187  0.00  0.00    -0.361 N 
HETATM   24  C   UNK     0     -31.586  -5.854   8.737  0.00  0.00     0.021 A 
HETATM   25  C   UNK     0     -31.773  -6.786   7.734  0.00  0.00    -0.031 A 
HETATM   26  C   UNK     0     -31.984  -8.281   7.850  0.00  0.00     0.051 C 
HETATM   27  C   UNK     0     -31.697  -6.111   6.521  0.00  0.00    -0.027 A 
HETATM   28  C   UNK     0     -31.688  -6.202  10.212  0.00  0.00     0.115 C 
HETATM   29  H   UNK     0     -32.270  -3.375  10.802  0.00  0.00     0.165 HD
HETATM   30  H   UNK     0     -35.149  -2.759   9.115  0.00  0.00     0.165 HD
HETATM   31  H   UNK     0     -34.011  -3.085   7.175  0.00  0.00     0.165 HD
HETATM   32  H   UNK     0     -31.166  -3.696   8.751  0.00  0.00     0.165 HD
ENDROOT
BRANCH   6  33
HETATM   33  C   UNK     0     -36.047  -5.559  12.682  0.00  0.00     0.051 C 
BRANCH  33  34
HETATM   34  C   UNK     0     -37.135  -5.816  11.667  0.00  0.00     0.114 C 
BRANCH  34  35
HETATM   35  C   UNK     0     -37.294  -4.573  10.858  0.00  0.00     0.139 C 
HETATM   36  O   UNK     0     -37.845  -3.551  11.361  0.00  0.00    -0.650 OA
BRANCH  35  37
HETATM   37  O   UNK     0     -36.853  -4.474   9.544  0.00  0.00    -0.776 OA
HETATM   38  H   UNK     0     -37.076  -3.681   8.964  0.00  0.00     0.167 HD
ENDBRANCH  35  37
ENDBRANCH  34  35
ENDBRANCH  33  34
ENDBRANCH   6  33
BRANCH  27  39
HETATM   39  C   UNK     0     -31.779  -6.799   5.204  0.00  0.00     0.051 C 
BRANCH  39  40
HETATM   40  C   UNK     0     -30.538  -7.051   4.473  0.00  0.00     0.114 C 
BRANCH  40  41
HETATM   41  C   UNK     0     -29.792  -8.281   4.622  0.00  0.00     0.139 C 
HETATM   42  O   UNK     0     -28.776  -8.384   5.321  0.00  0.00    -0.650 OA
BRANCH  41  43
HETATM   43  O   UNK     0     -30.237  -9.446   3.933  0.00  0.00    -0.776 OA
HETATM   44  H   UNK     0     -30.752 -10.101   4.508  0.00  0.00     0.167 HD
ENDBRANCH  41  43
ENDBRANCH  40  41
ENDBRANCH  39  40
ENDBRANCH  27  39
BRANCH  11  45
HETATM   45  C   UNK     0     -34.565   1.878   9.924  0.00  0.00     0.051 C 
BRANCH  45  46
HETATM   46  C   UNK     0     -35.042   2.406   8.620  0.00  0.00     0.114 C 
BRANCH  46  47
HETATM   47  C   UNK     0     -36.481   2.756   8.785  0.00  0.00     0.139 C 
HETATM   48  O   UNK     0     -36.837   3.921   8.558  0.00  0.00    -0.650 OA
BRANCH  47  49
HETATM   49  O   UNK     0     -37.394   1.811   9.181  0.00  0.00    -0.776 OA
HETATM   50  H   UNK     0     -37.628   1.661  10.169  0.00  0.00     0.167 HD
ENDBRANCH  47  49
ENDBRANCH  46  47
ENDBRANCH  45  46
ENDBRANCH  11  45
BRANCH  18  51
HETATM   51  C   UNK     0     -30.528  -0.824   4.908  0.00  0.00     0.051 C 
BRANCH  51  52
HETATM   52  C   UNK     0     -29.419  -0.563   5.915  0.00  0.00     0.114 C 
BRANCH  52  53
HETATM   53  C   UNK     0     -28.297  -1.507   5.754  0.00  0.00     0.139 C 
HETATM   54  O   UNK     0     -27.720  -1.606   4.659  0.00  0.00    -0.650 OA
BRANCH  53  55
HETATM   55  O   UNK     0     -27.898  -2.277   6.820  0.00  0.00    -0.776 OA
HETATM   56  H   UNK     0     -26.988  -2.647   6.965  0.00  0.00     0.167 HD
ENDBRANCH  53  55
ENDBRANCH  52  53
ENDBRANCH  51  52
ENDBRANCH  18  51
TORSDOF 16
ENDMDL
MODEL 5
REMARK VINA RESULT:      -7.8     22.349     26.268
REMARK  16 active torsions:
REMARK  status: ('A' for Active; 'I' for Inactive)
REMARK    1  A    between atoms: C_6  and  C_7 
REMARK    2  A    between atoms: C_7  and  C_8 
REMARK    3  A    between atoms: C_8  and  C_9 
REMARK    4  A    between atoms: C_9  and  O_11 
REMARK    5  A    between atoms: C_16  and  C_17 
REMARK    6  A    between atoms: C_17  and  C_18 
REMARK    7  A    between atoms: C_18  and  C_19 
REMARK    8  A    between atoms: C_19  and  O_21 
REMARK    9  A    between atoms: C_28  and  C_29 
REMARK   10  A    between atoms: C_29  and  C_30 
REMARK   11  A    between atoms: C_30  and  C_31 
REMARK   12  A    between atoms: C_31  and  O_33 
REMARK   13  A    between atoms: C_42  and  C_43 
REMARK   14  A    between atoms: C_43  and  C_44 
REMARK   15  A    between atoms: C_44  and  C_45 
REMARK   16  A    between atoms: C_45  and  O_47 
ROOT
HETATM    1  C   UNK     0     -14.714   6.196   9.690  0.00  0.00     0.051 C 
HETATM    2  C   UNK     0     -13.669   5.312  10.340  0.00  0.00    -0.031 A 
HETATM    3  C   UNK     0     -12.327   5.564  10.575  0.00  0.00     0.021 A 
HETATM    4  N   UNK     0     -11.768   4.474  11.154  0.00  0.00    -0.361 N 
HETATM    5  C   UNK     0     -12.727   3.537  11.300  0.00  0.00     0.022 A 
HETATM    6  C   UNK     0     -13.929   4.027  10.799  0.00  0.00    -0.027 A 
HETATM    7  C   UNK     0     -12.656   2.197  11.964  0.00  0.00     0.115 C 
HETATM    8  C   UNK     0     -11.902   2.128  13.281  0.00  0.00     0.021 A 
HETATM    9  N   UNK     0     -11.836   3.048  14.256  0.00  0.00    -0.361 N 
HETATM   10  C   UNK     0     -10.978   2.601  15.197  0.00  0.00     0.022 A 
HETATM   11  C   UNK     0     -10.484   1.355  14.822  0.00  0.00    -0.027 A 
HETATM   12  C   UNK     0     -11.063   1.051  13.616  0.00  0.00    -0.031 A 
HETATM   13  C   UNK     0     -10.823  -0.217  12.827  0.00  0.00     0.051 C 
HETATM   14  C   UNK     0     -10.550   3.351  16.455  0.00  0.00     0.115 C 
HETATM   15  C   UNK     0      -9.849   4.671  16.177  0.00  0.00     0.021 A 
HETATM   16  N   UNK     0     -10.330   5.729  15.497  0.00  0.00    -0.361 N 
HETATM   17  C   UNK     0      -9.382   6.664  15.413  0.00  0.00     0.022 A 
HETATM   18  C   UNK     0      -8.231   6.198  16.078  0.00  0.00    -0.027 A 
HETATM   19  C   UNK     0      -8.537   4.949  16.553  0.00  0.00    -0.031 A 
HETATM   20  C   UNK     0      -7.580   4.098  17.369  0.00  0.00     0.051 C 
HETATM   21  C   UNK     0      -9.391   7.997  14.698  0.00  0.00     0.115 C 
HETATM   22  C   UNK     0     -10.174   8.091  13.409  0.00  0.00     0.022 A 
HETATM   23  N   UNK     0     -10.261   7.189  12.423  0.00  0.00    -0.361 N 
HETATM   24  C   UNK     0     -11.180   7.620  11.535  0.00  0.00     0.021 A 
HETATM   25  C   UNK     0     -11.689   8.833  11.955  0.00  0.00    -0.031 A 
HETATM   26  C   UNK     0     -12.710   9.724  11.277  0.00  0.00     0.051 C 
HETATM   27  C   UNK     0     -11.061   9.156  13.152  0.00  0.00    -0.027 A 
HETATM   28  C   UNK     0     -11.690   6.896  10.301  0.00  0.00     0.115 C 
HETATM   29  H   UNK     0     -10.691   4.360  11.418  0.00  0.00     0.165 HD
HETATM   30  H   UNK     0     -12.433   3.992  14.307  0.00  0.00     0.165 HD
HETATM   31  H   UNK     0     -11.376   5.838  15.109  0.00  0.00     0.165 HD
HETATM   32  H   UNK     0      -9.642   6.260  12.322  0.00  0.00     0.165 HD
ENDROOT
BRANCH   6  33
HETATM   33  C   UNK     0     -15.286   3.375  10.722  0.00  0.00     0.051 C 
BRANCH  33  34
HETATM   34  C   UNK     0     -15.803   3.051  12.104  0.00  0.00     0.114 C 
BRANCH  34  35
HETATM   35  C   UNK     0     -16.293   1.643  12.079  0.00  0.00     0.139 C 
HETATM   36  O   UNK     0     -17.330   1.317  12.728  0.00  0.00    -0.650 OA
BRANCH  35  37
HETATM   37  O   UNK     0     -15.656   0.640  11.358  0.00  0.00    -0.776 OA
HETATM   38  H   UNK     0     -14.765   0.787  10.912  0.00  0.00     0.167 HD
ENDBRANCH  35  37
ENDBRANCH  34  35
ENDBRANCH  33  34
ENDBRANCH   6  33
BRANCH  27  39
HETATM   39  C   UNK     0     -11.301  10.435  13.875  0.00  0.00     0.051 C 
BRANCH  39  40
HETATM   40  C   UNK     0     -10.490  11.598  13.516  0.00  0.00     0.114 C 
BRANCH  40  41
HETATM   41  C   UNK     0      -9.115  11.739  13.939  0.00  0.00     0.139 C 
HETATM   42  O   UNK     0      -8.721  12.635  14.697  0.00  0.00    -0.650 OA
BRANCH  41  43
HETATM   43  O   UNK     0      -8.148  10.805  13.469  0.00  0.00    -0.776 OA
HETATM   44  H   UNK     0      -8.177   9.903  13.930  0.00  0.00     0.167 HD
ENDBRANCH  41  43
ENDBRANCH  40  41
ENDBRANCH  39  40
ENDBRANCH  27  39
BRANCH  11  45
HETATM   45  C   UNK     0      -9.512   0.469  15.553  0.00  0.00     0.051 C 
BRANCH  45  46
HETATM   46  C   UNK     0      -9.976   0.038  16.897  0.00  0.00     0.114 C 
BRANCH  46  47
HETATM   47  C   UNK     0     -10.667  -1.272  16.727  0.00  0.00     0.139 C 
HETATM   48  O   UNK     0     -11.904  -1.287  16.671  0.00  0.00    -0.650 OA
BRANCH  47  49
HETATM   49  O   UNK     0      -9.949  -2.438  16.637  0.00  0.00    -0.776 OA
HETATM   50  H   UNK     0     -10.381  -3.357  16.786  0.00  0.00     0.167 HD
ENDBRANCH  47  49
ENDBRANCH  46  47
ENDBRANCH  45  46
ENDBRANCH  11  45
BRANCH  18  51
HETATM   51  C   UNK     0      -6.918   6.912  16.269  0.00  0.00     0.051 C 
BRANCH  51  52
HETATM   52  C   UNK     0      -7.071   7.756  17.526  0.00  0.00     0.114 C 
BRANCH  52  53
HETATM   53  C   UNK     0      -6.667   9.157  17.300  0.00  0.00     0.139 C 
HETATM   54  O   UNK     0      -6.180   9.821  18.229  0.00  0.00    -0.650 OA
BRANCH  53  55
HETATM   55  O   UNK     0      -6.836   9.721  16.059  0.00  0.00    -0.776 OA
HETATM   56  H   UNK     0      -6.210   9.645  15.292  0.00  0.00     0.167 HD
ENDBRANCH  53  55
ENDBRANCH  52  53
ENDBRANCH  51  52
ENDBRANCH  18  51
TORSDOF 16
ENDMDL
MODEL 6
REMARK VINA RESULT:      -7.7     20.480     24.035
REMARK  16 active torsions:
REMARK  status: ('A' for Active; 'I' for Inactive)
REMARK    1  A    between atoms: C_6  and  C_7 
REMARK    2  A    between atoms: C_7  and  C_8 
REMARK    3  A    between atoms: C_8  and  C_9 
REMARK    4  A    between atoms: C_9  and  O_11 
REMARK    5  A    between atoms: C_16  and  C_17 
REMARK    6  A    between atoms: C_17  and  C_18 
REMARK    7  A    between atoms: C_18  and  C_19 
REMARK    8  A    between atoms: C_19  and  O_21 
REMARK    9  A    between atoms: C_28  and  C_29 
REMARK   10  A    between atoms: C_29  and  C_30 
REMARK   11  A    between atoms: C_30  and  C_31 
REMARK   12  A    between atoms: C_31  and  O_33 
REMARK   13  A    between atoms: C_42  and  C_43 
REMARK   14  A    between atoms: C_43  and  C_44 
REMARK   15  A    between atoms: C_44  and  C_45 
REMARK   16  A    between atoms: C_45  and  O_47 
ROOT
HETATM    1  C   UNK     0     -15.452  -0.046  11.772  0.00  0.00     0.051 C 
HETATM    2  C   UNK     0     -14.659   0.200  13.039  0.00  0.00    -0.031 A 
HETATM    3  C   UNK     0     -15.076   0.160  14.360  0.00  0.00     0.021 A 
HETATM    4  N   UNK     0     -14.032   0.478  15.162  0.00  0.00    -0.361 N 
HETATM    5  C   UNK     0     -12.957   0.711  14.382  0.00  0.00     0.022 A 
HETATM    6  C   UNK     0     -13.314   0.549  13.047  0.00  0.00    -0.027 A 
HETATM    7  C   UNK     0     -11.543   1.005  14.773  0.00  0.00     0.115 C 
HETATM    8  C   UNK     0     -10.968   0.188  15.917  0.00  0.00     0.021 A 
HETATM    9  N   UNK     0     -11.195  -1.099  16.222  0.00  0.00    -0.361 N 
HETATM   10  C   UNK     0     -10.547  -1.378  17.372  0.00  0.00     0.022 A 
HETATM   11  C   UNK     0      -9.876  -0.242  17.816  0.00  0.00    -0.027 A 
HETATM   12  C   UNK     0     -10.137   0.748  16.904  0.00  0.00    -0.031 A 
HETATM   13  C   UNK     0      -9.609   2.163  16.975  0.00  0.00     0.051 C 
HETATM   14  C   UNK     0     -10.577  -2.706  18.125  0.00  0.00     0.115 C 
HETATM   15  C   UNK     0     -11.965  -3.120  18.587  0.00  0.00     0.021 A 
HETATM   16  N   UNK     0     -13.057  -3.323  17.828  0.00  0.00    -0.361 N 
HETATM   17  C   UNK     0     -14.095  -3.606  18.619  0.00  0.00     0.022 A 
HETATM   18  C   UNK     0     -13.655  -3.596  19.957  0.00  0.00    -0.027 A 
HETATM   19  C   UNK     0     -12.319  -3.292  19.924  0.00  0.00    -0.031 A 
HETATM   20  C   UNK     0     -11.440  -3.213  21.159  0.00  0.00     0.051 C 
HETATM   21  C   UNK     0     -15.547  -3.843  18.270  0.00  0.00     0.115 C 
HETATM   22  C   UNK     0     -16.120  -3.069  17.106  0.00  0.00     0.022 A 
HETATM   23  N   UNK     0     -15.908  -1.788  16.776  0.00  0.00    -0.361 N 
HETATM   24  C   UNK     0     -16.498  -1.554  15.587  0.00  0.00     0.021 A 
HETATM   25  C   UNK     0     -17.114  -2.709  15.145  0.00  0.00    -0.031 A 
HETATM   26  C   UNK     0     -17.934  -2.933  13.891  0.00  0.00     0.051 C 
HETATM   27  C   UNK     0     -16.886  -3.693  16.101  0.00  0.00    -0.027 A 
HETATM   28  C   UNK     0     -16.455  -0.278  14.763  0.00  0.00     0.115 C 
HETATM   29  H   UNK     0     -14.073   0.574  16.272  0.00  0.00     0.165 HD
HETATM   30  H   UNK     0     -11.772  -1.827  15.600  0.00  0.00     0.165 HD
HETATM   31  H   UNK     0     -13.088  -3.313  16.707  0.00  0.00     0.165 HD
HETATM   32  H   UNK     0     -15.375  -1.025  17.401  0.00  0.00     0.165 HD
ENDROOT
BRANCH   6  33
HETATM   33  C   UNK     0     -12.487   0.700  11.796  0.00  0.00     0.051 C 
BRANCH  33  34
HETATM   34  C   UNK     0     -12.549   2.119  11.282  0.00  0.00     0.114 C 
BRANCH  34  35
HETATM   35  C   UNK     0     -12.003   2.115   9.894  0.00  0.00     0.139 C 
HETATM   36  O   UNK     0     -10.755   2.032   9.701  0.00  0.00    -0.650 OA
BRANCH  35  37
HETATM   37  O   UNK     0     -12.815   2.199   8.770  0.00  0.00    -0.776 OA
HETATM   38  H   UNK     0     -12.595   1.713   7.915  0.00  0.00     0.167 HD
ENDBRANCH  35  37
ENDBRANCH  34  35
ENDBRANCH  33  34
ENDBRANCH   6  33
BRANCH  27  39
HETATM   39  C   UNK     0     -17.459  -5.063  16.006  0.00  0.00     0.051 C 
BRANCH  39  40
HETATM   40  C   UNK     0     -16.788  -6.038  15.147  0.00  0.00     0.114 C 
BRANCH  40  41
HETATM   41  C   UNK     0     -16.271  -7.288  15.657  0.00  0.00     0.139 C 
HETATM   42  O   UNK     0     -16.767  -7.892  16.618  0.00  0.00    -0.650 OA
BRANCH  41  43
HETATM   43  O   UNK     0     -15.130  -7.870  15.034  0.00  0.00    -0.776 OA
HETATM   44  H   UNK     0     -15.344  -8.613  14.380  0.00  0.00     0.167 HD
ENDBRANCH  41  43
ENDBRANCH  40  41
ENDBRANCH  39  40
ENDBRANCH  27  39
BRANCH  11  45
HETATM   45  C   UNK     0      -9.019  -0.073  19.042  0.00  0.00     0.051 C 
BRANCH  45  46
HETATM   46  C   UNK     0      -9.779   0.271  20.270  0.00  0.00     0.114 C 
BRANCH  46  47
HETATM   47  C   UNK     0      -9.300   1.608  20.725  0.00  0.00     0.139 C 
HETATM   48  O   UNK     0     -10.065   2.578  20.622  0.00  0.00    -0.650 OA
BRANCH  47  49
HETATM   49  O   UNK     0      -8.040   1.764  21.246  0.00  0.00    -0.776 OA
HETATM   50  H   UNK     0      -7.612   1.057  21.856  0.00  0.00     0.167 HD
ENDBRANCH  47  49
ENDBRANCH  46  47
ENDBRANCH  45  46
ENDBRANCH  11  45
BRANCH  18  51
HETATM   51  C   UNK     0     -14.459  -3.883  21.199  0.00  0.00     0.051 C 
BRANCH  51  52
HETATM   52  C   UNK     0     -14.379  -5.386  21.421  0.00  0.00     0.114 C 
BRANCH  52  53
HETATM   53  C   UNK     0     -15.717  -5.995  21.546  0.00  0.00     0.139 C 
HETATM   54  O   UNK     0     -16.706  -5.281  21.772  0.00  0.00    -0.650 OA
BRANCH  53  55
HETATM   55  O   UNK     0     -15.859  -7.355  21.414  0.00  0.00    -0.776 OA
HETATM   56  H   UNK     0     -15.150  -7.992  21.133  0.00  0.00     0.167 HD
ENDBRANCH  53  55
ENDBRANCH  52  53
ENDBRANCH  51  52
ENDBRANCH  18  51
TORSDOF 16
ENDMDL
MODEL 7
REMARK VINA RESULT:      -7.5     20.184     23.455
REMARK  16 active torsions:
REMARK  status: ('A' for Active; 'I' for Inactive)
REMARK    1  A    between atoms: C_6  and  C_7 
REMARK    2  A    between atoms: C_7  and  C_8 
REMARK    3  A    between atoms: C_8  and  C_9 
REMARK    4  A    between atoms: C_9  and  O_11 
REMARK    5  A    between atoms: C_16  and  C_17 
REMARK    6  A    between atoms: C_17  and  C_18 
REMARK    7  A    between atoms: C_18  and  C_19 
REMARK    8  A    between atoms: C_19  and  O_21 
REMARK    9  A    between atoms: C_28  and  C_29 
REMARK   10  A    between atoms: C_29  and  C_30 
REMARK   11  A    between atoms: C_30  and  C_31 
REMARK   12  A    between atoms: C_31  and  O_33 
REMARK   13  A    between atoms: C_42  and  C_43 
REMARK   14  A    between atoms: C_43  and  C_44 
REMARK   15  A    between atoms: C_44  and  C_45 
REMARK   16  A    between atoms: C_45  and  O_47 
ROOT
HETATM    1  C   UNK     0      -9.677  -0.875  20.097  0.00  0.00     0.051 C 
HETATM    2  C   UNK     0     -10.262  -0.907  18.700  0.00  0.00    -0.031 A 
HETATM    3  C   UNK     0     -10.838  -1.963  18.011  0.00  0.00     0.021 A 
HETATM    4  N   UNK     0     -11.195  -1.541  16.775  0.00  0.00    -0.361 N 
HETATM    5  C   UNK     0     -10.867  -0.238  16.663  0.00  0.00     0.022 A 
HETATM    6  C   UNK     0     -10.278   0.190  17.849  0.00  0.00    -0.027 A 
HETATM    7  C   UNK     0     -11.130   0.718  15.542  0.00  0.00     0.115 C 
HETATM    8  C   UNK     0     -12.504   0.652  14.899  0.00  0.00     0.021 A 
HETATM    9  N   UNK     0     -13.688   0.400  15.480  0.00  0.00    -0.361 N 
HETATM   10  C   UNK     0     -14.627   0.350  14.512  0.00  0.00     0.022 A 
HETATM   11  C   UNK     0     -14.034   0.585  13.275  0.00  0.00    -0.027 A 
HETATM   12  C   UNK     0     -12.697   0.777  13.512  0.00  0.00    -0.031 A 
HETATM   13  C   UNK     0     -11.656   1.070  12.455  0.00  0.00     0.051 C 
HETATM   14  C   UNK     0     -16.106   0.027  14.707  0.00  0.00     0.115 C 
HETATM   15  C   UNK     0     -16.363  -1.354  15.287  0.00  0.00     0.021 A 
HETATM   16  N   UNK     0     -15.919  -1.849  16.458  0.00  0.00    -0.361 N 
HETATM   17  C   UNK     0     -16.303  -3.123  16.570  0.00  0.00     0.022 A 
HETATM   18  C   UNK     0     -17.042  -3.471  15.422  0.00  0.00    -0.027 A 
HETATM   19  C   UNK     0     -17.073  -2.355  14.627  0.00  0.00    -0.031 A 
HETATM   20  C   UNK     0     -17.804  -2.285  13.299  0.00  0.00     0.051 C 
HETATM   21  C   UNK     0     -16.003  -4.137  17.650  0.00  0.00     0.115 C 
HETATM   22  C   UNK     0     -14.656  -4.056  18.329  0.00  0.00     0.022 A 
HETATM   23  N   UNK     0     -13.463  -3.803  17.777  0.00  0.00    -0.361 N 
HETATM   24  C   UNK     0     -12.555  -3.680  18.766  0.00  0.00     0.021 A 
HETATM   25  C   UNK     0     -13.178  -3.869  19.985  0.00  0.00    -0.031 A 
HETATM   26  C   UNK     0     -12.574  -3.868  21.374  0.00  0.00     0.051 C 
HETATM   27  C   UNK     0     -14.523  -4.111  19.731  0.00  0.00    -0.027 A 
HETATM   28  C   UNK     0     -11.089  -3.304  18.642  0.00  0.00     0.115 C 
HETATM   29  H   UNK     0     -11.641  -2.178  15.976  0.00  0.00     0.165 HD
HETATM   30  H   UNK     0     -13.871   0.307  16.578  0.00  0.00     0.165 HD
HETATM   31  H   UNK     0     -15.362  -1.275  17.244  0.00  0.00     0.165 HD
HETATM   32  H   UNK     0     -13.241  -3.751  16.679  0.00  0.00     0.165 HD
ENDROOT
BRANCH   6  33
HETATM   33  C   UNK     0      -9.734   1.545  18.228  0.00  0.00     0.051 C 
BRANCH  33  34
HETATM   34  C   UNK     0      -8.356   1.750  17.645  0.00  0.00     0.114 C 
BRANCH  34  35
HETATM   35  C   UNK     0      -7.400   1.852  18.785  0.00  0.00     0.139 C 
HETATM   36  O   UNK     0      -7.822   2.121  19.948  0.00  0.00    -0.650 OA
BRANCH  35  37
HETATM   37  O   UNK     0      -6.032   1.659  18.636  0.00  0.00    -0.776 OA
HETATM   38  H   UNK     0      -5.629   1.343  17.769  0.00  0.00     0.167 HD
ENDBRANCH  35  37
ENDBRANCH  34  35
ENDBRANCH  33  34
ENDBRANCH   6  33
BRANCH  27  39
HETATM   39  C   UNK     0     -15.505  -4.433  20.802  0.00  0.00     0.051 C 
BRANCH  39  40
HETATM   40  C   UNK     0     -16.413  -3.378  21.251  0.00  0.00     0.114 C 
BRANCH  40  41
HETATM   41  C   UNK     0     -16.218  -1.991  20.895  0.00  0.00     0.139 C 
HETATM   42  O   UNK     0     -15.551  -1.198  21.574  0.00  0.00    -0.650 OA
BRANCH  41  43
HETATM   43  O   UNK     0     -16.818  -1.491  19.705  0.00  0.00    -0.776 OA
HETATM   44  H   UNK     0     -16.649  -2.057  18.881  0.00  0.00     0.167 HD
ENDBRANCH  41  43
ENDBRANCH  40  41
ENDBRANCH  39  40
ENDBRANCH  27  39
BRANCH  11  45
HETATM   45  C   UNK     0     -14.679   0.636  11.916  0.00  0.00     0.051 C 
BRANCH  45  46
HETATM   46  C   UNK     0     -15.399   1.904  11.633  0.00  0.00     0.114 C 
BRANCH  46  47
HETATM   47  C   UNK     0     -14.855   2.443  10.353  0.00  0.00     0.139 C 
HETATM   48  O   UNK     0     -13.787   3.069  10.380  0.00  0.00    -0.650 OA
BRANCH  47  49
HETATM   49  O   UNK     0     -15.524   2.253   9.170  0.00  0.00    -0.776 OA
HETATM   50  H   UNK     0     -15.192   2.655   8.286  0.00  0.00     0.167 HD
ENDBRANCH  47  49
ENDBRANCH  46  47
ENDBRANCH  45  46
ENDBRANCH  11  45
BRANCH  18  51
HETATM   51  C   UNK     0     -17.700  -4.790  15.109  0.00  0.00     0.051 C 
BRANCH  51  52
HETATM   52  C   UNK     0     -16.694  -5.585  14.290  0.00  0.00     0.114 C 
BRANCH  52  53
HETATM   53  C   UNK     0     -16.646  -7.001  14.702  0.00  0.00     0.139 C 
HETATM   54  O   UNK     0     -17.575  -7.768  14.400  0.00  0.00    -0.650 OA
BRANCH  53  55
HETATM   55  O   UNK     0     -15.572  -7.464  15.422  0.00  0.00    -0.776 OA
HETATM   56  H   UNK     0     -14.715  -6.984  15.566  0.00  0.00     0.167 HD
ENDBRANCH  53  55
ENDBRANCH  52  53
ENDBRANCH  51  52
ENDBRANCH  18  51
TORSDOF 16
ENDMDL
MODEL 8
REMARK VINA RESULT:      -7.5     20.481     23.675
REMARK  16 active torsions:
REMARK  status: ('A' for Active; 'I' for Inactive)
REMARK    1  A    between atoms: C_6  and  C_7 
REMARK    2  A    between atoms: C_7  and  C_8 
REMARK    3  A    between atoms: C_8  and  C_9 
REMARK    4  A    between atoms: C_9  and  O_11 
REMARK    5  A    between atoms: C_16  and  C_17 
REMARK    6  A    between atoms: C_17  and  C_18 
REMARK    7  A    between atoms: C_18  and  C_19 
REMARK    8  A    between atoms: C_19  and  O_21 
REMARK    9  A    between atoms: C_28  and  C_29 
REMARK   10  A    between atoms: C_29  and  C_30 
REMARK   11  A    between atoms: C_30  and  C_31 
REMARK   12  A    between atoms: C_31  and  O_33 
REMARK   13  A    between atoms: C_42  and  C_43 
REMARK   14  A    between atoms: C_43  and  C_44 
REMARK   15  A    between atoms: C_44  and  C_45 
REMARK   16  A    between atoms: C_45  and  O_47 
ROOT
HETATM    1  C   UNK     0      -9.481  -0.763  20.168  0.00  0.00     0.051 C 
HETATM    2  C   UNK     0     -10.086  -0.843  18.781  0.00  0.00    -0.031 A 
HETATM    3  C   UNK     0     -10.662  -1.925  18.134  0.00  0.00     0.021 A 
HETATM    4  N   UNK     0     -11.041  -1.544  16.891  0.00  0.00    -0.361 N 
HETATM    5  C   UNK     0     -10.727  -0.241  16.735  0.00  0.00     0.022 A 
HETATM    6  C   UNK     0     -10.126   0.228  17.898  0.00  0.00    -0.027 A 
HETATM    7  C   UNK     0     -11.017   0.677  15.589  0.00  0.00     0.115 C 
HETATM    8  C   UNK     0     -12.399   0.579  14.970  0.00  0.00     0.021 A 
HETATM    9  N   UNK     0     -13.572   0.334  15.575  0.00  0.00    -0.361 N 
HETATM   10  C   UNK     0     -14.525   0.245  14.623  0.00  0.00     0.022 A 
HETATM   11  C   UNK     0     -13.952   0.449  13.371  0.00  0.00    -0.027 A 
HETATM   12  C   UNK     0     -12.614   0.660  13.582  0.00  0.00    -0.031 A 
HETATM   13  C   UNK     0     -11.591   0.931  12.502  0.00  0.00     0.051 C 
HETATM   14  C   UNK     0     -15.997  -0.086  14.850  0.00  0.00     0.115 C 
HETATM   15  C   UNK     0     -16.232  -1.451  15.476  0.00  0.00     0.021 A 
HETATM   16  N   UNK     0     -15.765  -1.906  16.654  0.00  0.00    -0.361 N 
HETATM   17  C   UNK     0     -16.136  -3.179  16.810  0.00  0.00     0.022 A 
HETATM   18  C   UNK     0     -16.887  -3.570  15.684  0.00  0.00    -0.027 A 
HETATM   19  C   UNK     0     -16.941  -2.478  14.856  0.00  0.00    -0.031 A 
HETATM   20  C   UNK     0     -17.692  -2.455  13.537  0.00  0.00     0.051 C 
HETATM   21  C   UNK     0     -15.810  -4.157  17.916  0.00  0.00     0.115 C 
HETATM   22  C   UNK     0     -14.454  -4.043  18.571  0.00  0.00     0.022 A 
HETATM   23  N   UNK     0     -13.271  -3.795  17.994  0.00  0.00    -0.361 N 
HETATM   24  C   UNK     0     -12.351  -3.634  18.966  0.00  0.00     0.021 A 
HETATM   25  C   UNK     0     -12.954  -3.792  20.199  0.00  0.00    -0.031 A 
HETATM   26  C   UNK     0     -12.330  -3.743  21.578  0.00  0.00     0.051 C 
HETATM   27  C   UNK     0     -14.300  -4.055  19.972  0.00  0.00    -0.027 A 
HETATM   28  C   UNK     0     -10.890  -3.248  18.808  0.00  0.00     0.115 C 
HETATM   29  H   UNK     0     -11.492  -2.209  16.118  0.00  0.00     0.165 HD
HETATM   30  H   UNK     0     -13.738   0.272  16.678  0.00  0.00     0.165 HD
HETATM   31  H   UNK     0     -15.203  -1.303  17.413  0.00  0.00     0.165 HD
HETATM   32  H   UNK     0     -13.066  -3.775  16.892  0.00  0.00     0.165 HD
ENDROOT
BRANCH   6  33
HETATM   33  C   UNK     0      -9.590   1.598  18.228  0.00  0.00     0.051 C 
BRANCH  33  34
HETATM   34  C   UNK     0      -8.210   1.788  17.646  0.00  0.00     0.114 C 
BRANCH  34  35
HETATM   35  C   UNK     0      -7.265   1.968  18.786  0.00  0.00     0.139 C 
HETATM   36  O   UNK     0      -7.678   2.435  19.887  0.00  0.00    -0.650 OA
BRANCH  35  37
HETATM   37  O   UNK     0      -5.918   1.639  18.701  0.00  0.00    -0.776 OA
HETATM   38  H   UNK     0      -5.453   1.100  19.414  0.00  0.00     0.167 HD
ENDBRANCH  35  37
ENDBRANCH  34  35
ENDBRANCH  33  34
ENDBRANCH   6  33
BRANCH  27  39
HETATM   39  C   UNK     0     -15.263  -4.354  21.067  0.00  0.00     0.051 C 
BRANCH  39  40
HETATM   40  C   UNK     0     -15.891  -5.674  21.097  0.00  0.00     0.114 C 
BRANCH  40  41
HETATM   41  C   UNK     0     -15.272  -6.808  21.746  0.00  0.00     0.139 C 
HETATM   42  O   UNK     0     -14.258  -6.721  22.453  0.00  0.00    -0.650 OA
BRANCH  41  43
HETATM   43  O   UNK     0     -15.844  -8.100  21.574  0.00  0.00    -0.776 OA
HETATM   44  H   UNK     0     -16.760  -8.099  21.142  0.00  0.00     0.167 HD
ENDBRANCH  41  43
ENDBRANCH  40  41
ENDBRANCH  39  40
ENDBRANCH  27  39
BRANCH  11  45
HETATM   45  C   UNK     0     -14.617   0.452  12.021  0.00  0.00     0.051 C 
BRANCH  45  46
HETATM   46  C   UNK     0     -15.464   1.645  11.765  0.00  0.00     0.114 C 
BRANCH  46  47
HETATM   47  C   UNK     0     -14.916   2.325  10.556  0.00  0.00     0.139 C 
HETATM   48  O   UNK     0     -13.835   2.922  10.652  0.00  0.00    -0.650 OA
BRANCH  47  49
HETATM   49  O   UNK     0     -15.593   2.291   9.363  0.00  0.00    -0.776 OA
HETATM   50  H   UNK     0     -16.553   1.935   9.291  0.00  0.00     0.167 HD
ENDBRANCH  47  49
ENDBRANCH  46  47
ENDBRANCH  45  46
ENDBRANCH  11  45
BRANCH  18  51
HETATM   51  C   UNK     0     -17.537  -4.903  15.421  0.00  0.00     0.051 C 
BRANCH  51  52
HETATM   52  C   UNK     0     -16.604  -5.654  14.482  0.00  0.00     0.114 C 
BRANCH  52  53
HETATM   53  C   UNK     0     -16.473  -7.075  14.857  0.00  0.00     0.139 C 
HETATM   54  O   UNK     0     -15.451  -7.472  15.439  0.00  0.00    -0.650 OA
BRANCH  53  55
HETATM   55  O   UNK     0     -17.485  -7.954  14.556  0.00  0.00    -0.776 OA
HETATM   56  H   UNK     0     -17.632  -8.396  13.680  0.00  0.00     0.167 HD
ENDBRANCH  53  55
ENDBRANCH  52  53
ENDBRANCH  51  52
ENDBRANCH  18  51
TORSDOF 16
ENDMDL
MODEL 9
REMARK VINA RESULT:      -7.5      5.433     10.770
REMARK  16 active torsions:
REMARK  status: ('A' for Active; 'I' for Inactive)
REMARK    1  A    between atoms: C_6  and  C_7 
REMARK    2  A    between atoms: C_7  and  C_8 
REMARK    3  A    between atoms: C_8  and  C_9 
REMARK    4  A    between atoms: C_9  and  O_11 
REMARK    5  A    between atoms: C_16  and  C_17 
REMARK    6  A    between atoms: C_17  and  C_18 
REMARK    7  A    between atoms: C_18  and  C_19 
REMARK    8  A    between atoms: C_19  and  O_21 
REMARK    9  A    between atoms: C_28  and  C_29 
REMARK   10  A    between atoms: C_29  and  C_30 
REMARK   11  A    between atoms: C_30  and  C_31 
REMARK   12  A    between atoms: C_31  and  O_33 
REMARK   13  A    between atoms: C_42  and  C_43 
REMARK   14  A    between atoms: C_43  and  C_44 
REMARK   15  A    between atoms: C_44  and  C_45 
REMARK   16  A    between atoms: C_45  and  O_47 
ROOT
HETATM    1  C   UNK     0     -33.588   1.651  -0.125  0.00  0.00     0.051 C 
HETATM    2  C   UNK     0     -32.278   2.011   0.545  0.00  0.00    -0.031 A 
HETATM    3  C   UNK     0     -31.992   2.163   1.893  0.00  0.00     0.021 A 
HETATM    4  N   UNK     0     -30.693   2.520   2.031  0.00  0.00    -0.361 N 
HETATM    5  C   UNK     0     -30.143   2.591   0.801  0.00  0.00     0.022 A 
HETATM    6  C   UNK     0     -31.107   2.281  -0.152  0.00  0.00    -0.027 A 
HETATM    7  C   UNK     0     -28.722   2.851   0.407  0.00  0.00     0.115 C 
HETATM    8  C   UNK     0     -27.649   2.154   1.225  0.00  0.00     0.021 A 
HETATM    9  N   UNK     0     -27.681   0.931   1.777  0.00  0.00    -0.361 N 
HETATM   10  C   UNK     0     -26.547   0.764   2.491  0.00  0.00     0.022 A 
HETATM   11  C   UNK     0     -25.760   1.907   2.388  0.00  0.00    -0.027 A 
HETATM   12  C   UNK     0     -26.448   2.787   1.592  0.00  0.00    -0.031 A 
HETATM   13  C   UNK     0     -25.972   4.167   1.199  0.00  0.00     0.051 C 
HETATM   14  C   UNK     0     -26.187  -0.453   3.338  0.00  0.00     0.115 C 
HETATM   15  C   UNK     0     -27.162  -0.725   4.471  0.00  0.00     0.021 A 
HETATM   16  N   UNK     0     -28.485  -0.961   4.379  0.00  0.00    -0.361 N 
HETATM   17  C   UNK     0     -28.996  -1.081   5.606  0.00  0.00     0.022 A 
HETATM   18  C   UNK     0     -27.955  -0.927   6.543  0.00  0.00    -0.027 A 
HETATM   19  C   UNK     0     -26.812  -0.705   5.820  0.00  0.00    -0.031 A 
HETATM   20  C   UNK     0     -25.441  -0.520   6.444  0.00  0.00     0.051 C 
HETATM   21  C   UNK     0     -30.428  -1.278   6.047  0.00  0.00     0.115 C 
HETATM   22  C   UNK     0     -31.509  -0.626   5.216  0.00  0.00     0.022 A 
HETATM   23  N   UNK     0     -31.503   0.588   4.651  0.00  0.00    -0.361 N 
HETATM   24  C   UNK     0     -32.605   0.702   3.882  0.00  0.00     0.021 A 
HETATM   25  C   UNK     0     -33.344  -0.463   3.962  0.00  0.00    -0.031 A 
HETATM   26  C   UNK     0     -34.671  -0.796   3.313  0.00  0.00     0.051 C 
HETATM   27  C   UNK     0     -32.663  -1.328   4.811  0.00  0.00    -0.027 A 
HETATM   28  C   UNK     0     -32.989   1.858   2.975  0.00  0.00     0.115 C 
HETATM   29  H   UNK     0     -30.184   2.759   2.993  0.00  0.00     0.165 HD
HETATM   30  H   UNK     0     -28.479   0.164   1.624  0.00  0.00     0.165 HD
HETATM   31  H   UNK     0     -29.062  -1.092   3.426  0.00  0.00     0.165 HD
HETATM   32  H   UNK     0     -30.742   1.393   4.824  0.00  0.00     0.165 HD
ENDROOT
BRANCH   6  33
HETATM   33  C   UNK     0     -31.003   2.225  -1.655  0.00  0.00     0.051 C 
BRANCH  33  34
HETATM   34  C   UNK     0     -31.214   3.593  -2.257  0.00  0.00     0.114 C 
BRANCH  34  35
HETATM   35  C   UNK     0     -30.208   3.762  -3.345  0.00  0.00     0.139 C 
HETATM   36  O   UNK     0     -30.521   4.363  -4.415  0.00  0.00    -0.650 OA
BRANCH  35  37
HETATM   37  O   UNK     0     -28.908   3.284  -3.244  0.00  0.00    -0.776 OA
HETATM   38  H   UNK     0     -28.549   2.888  -2.390  0.00  0.00     0.167 HD
ENDBRANCH  35  37
ENDBRANCH  34  35
ENDBRANCH  33  34
ENDBRANCH   6  33
BRANCH  27  39
HETATM   39  C   UNK     0     -33.190  -2.664   5.199  0.00  0.00     0.051 C 
BRANCH  39  40
HETATM   40  C   UNK     0     -32.535  -3.854   4.656  0.00  0.00     0.114 C 
BRANCH  40  41
HETATM   41  C   UNK     0     -32.725  -5.168   5.229  0.00  0.00     0.139 C 
HETATM   42  O   UNK     0     -32.827  -6.200   4.552  0.00  0.00    -0.650 OA
BRANCH  41  43
HETATM   43  O   UNK     0     -32.801  -5.300   6.644  0.00  0.00    -0.776 OA
HETATM   44  H   UNK     0     -33.705  -5.600   6.989  0.00  0.00     0.167 HD
ENDBRANCH  41  43
ENDBRANCH  40  41
ENDBRANCH  39  40
ENDBRANCH  27  39
BRANCH  11  45
HETATM   45  C   UNK     0     -24.413   2.181   3.002  0.00  0.00     0.051 C 
BRANCH  45  46
HETATM   46  C   UNK     0     -24.474   2.680   4.400  0.00  0.00     0.114 C 
BRANCH  46  47
HETATM   47  C   UNK     0     -23.178   2.333   5.050  0.00  0.00     0.139 C 
HETATM   48  O   UNK     0     -23.037   2.576   6.256  0.00  0.00    -0.650 OA
BRANCH  47  49
HETATM   49  O   UNK     0     -22.162   1.758   4.328  0.00  0.00    -0.776 OA
HETATM   50  H   UNK     0     -22.068   1.895   3.315  0.00  0.00     0.167 HD
ENDBRANCH  47  49
ENDBRANCH  46  47
ENDBRANCH  45  46
ENDBRANCH  11  45
BRANCH  18  51
HETATM   51  C   UNK     0     -28.042  -1.007   8.045  0.00  0.00     0.051 C 
BRANCH  51  52
HETATM   52  C   UNK     0     -28.285   0.414   8.534  0.00  0.00     0.114 C 
BRANCH  52  53
HETATM   53  C   UNK     0     -27.654   0.658   9.846  0.00  0.00     0.139 C 
HETATM   54  O   UNK     0     -28.154   1.478  10.632  0.00  0.00    -0.650 OA
BRANCH  53  55
HETATM   55  O   UNK     0     -26.511  -0.023  10.188  0.00  0.00    -0.776 OA
HETATM   56  H   UNK     0     -25.615   0.096   9.777  0.00  0.00     0.167 HD
ENDBRANCH  53  55
ENDBRANCH  52  53
ENDBRANCH  51  52
ENDBRANCH  18  51
TORSDOF 16
ENDMDL
MODEL 10
REMARK VINA RESULT:      -7.3     21.594     25.657
REMARK  16 active torsions:
REMARK  status: ('A' for Active; 'I' for Inactive)
REMARK    1  A    between atoms: C_6  and  C_7 
REMARK    2  A    between atoms: C_7  and  C_8 
REMARK    3  A    between atoms: C_8  and  C_9 
REMARK    4  A    between atoms: C_9  and  O_11 
REMARK    5  A    between atoms: C_16  and  C_17 
REMARK    6  A    between atoms: C_17  and  C_18 
REMARK    7  A    between atoms: C_18  and  C_19 
REMARK    8  A    between atoms: C_19  and  O_21 
REMARK    9  A    between atoms: C_28  and  C_29 
REMARK   10  A    between atoms: C_29  and  C_30 
REMARK   11  A    between atoms: C_30  and  C_31 
REMARK   12  A    between atoms: C_31  and  O_33 
REMARK   13  A    between atoms: C_42  and  C_43 
REMARK   14  A    between atoms: C_43  and  C_44 
REMARK   15  A    between atoms: C_44  and  C_45 
REMARK   16  A    between atoms: C_45  and  O_47 
ROOT
HETATM    1  C   UNK     0     -14.354   5.664   8.596  0.00  0.00     0.051 C 
HETATM    2  C   UNK     0     -13.375   4.921   9.482  0.00  0.00    -0.031 A 
HETATM    3  C   UNK     0     -12.222   5.381  10.098  0.00  0.00     0.021 A 
HETATM    4  N   UNK     0     -11.642   4.358  10.769  0.00  0.00    -0.361 N 
HETATM    5  C   UNK     0     -12.405   3.258  10.603  0.00  0.00     0.022 A 
HETATM    6  C   UNK     0     -13.497   3.574   9.801  0.00  0.00    -0.027 A 
HETATM    7  C   UNK     0     -12.260   1.897  11.209  0.00  0.00     0.115 C 
HETATM    8  C   UNK     0     -11.893   1.843  12.682  0.00  0.00     0.021 A 
HETATM    9  N   UNK     0     -12.273   2.669  13.669  0.00  0.00    -0.361 N 
HETATM   10  C   UNK     0     -11.633   2.295  14.797  0.00  0.00     0.022 A 
HETATM   11  C   UNK     0     -10.826   1.193  14.532  0.00  0.00    -0.027 A 
HETATM   12  C   UNK     0     -10.985   0.903  13.201  0.00  0.00    -0.031 A 
HETATM   13  C   UNK     0     -10.301  -0.227  12.465  0.00  0.00     0.051 C 
HETATM   14  C   UNK     0     -11.715   2.992  16.153  0.00  0.00     0.115 C 
HETATM   15  C   UNK     0     -11.234   4.434  16.134  0.00  0.00     0.021 A 
HETATM   16  N   UNK     0     -11.706   5.448  15.386  0.00  0.00    -0.361 N 
HETATM   17  C   UNK     0     -10.970   6.539  15.609  0.00  0.00     0.022 A 
HETATM   18  C   UNK     0      -9.975   6.222  16.556  0.00  0.00    -0.027 A 
HETATM   19  C   UNK     0     -10.152   4.901  16.877  0.00  0.00    -0.031 A 
HETATM   20  C   UNK     0      -9.307   4.161  17.898  0.00  0.00     0.051 C 
HETATM   21  C   UNK     0     -11.041   7.908  14.972  0.00  0.00     0.115 C 
HETATM   22  C   UNK     0     -11.448   7.980  13.519  0.00  0.00     0.022 A 
HETATM   23  N   UNK     0     -11.088   7.169  12.515  0.00  0.00    -0.361 N 
HETATM   24  C   UNK     0     -11.797   7.511  11.420  0.00  0.00     0.021 A 
HETATM   25  C   UNK     0     -12.625   8.574  11.723  0.00  0.00    -0.031 A 
HETATM   26  C   UNK     0     -13.575   9.331  10.818  0.00  0.00     0.051 C 
HETATM   27  C   UNK     0     -12.419   8.892  13.061  0.00  0.00    -0.027 A 
HETATM   28  C   UNK     0     -11.803   6.824  10.065  0.00  0.00     0.115 C 
HETATM   29  H   UNK     0     -10.676   4.410  11.324  0.00  0.00     0.165 HD
HETATM   30  H   UNK     0     -13.032   3.485  13.584  0.00  0.00     0.165 HD
HETATM   31  H   UNK     0     -12.609   5.408  14.721  0.00  0.00     0.165 HD
HETATM   32  H   UNK     0     -10.298   6.375  12.559  0.00  0.00     0.165 HD
ENDROOT
BRANCH   6  33
HETATM   33  C   UNK     0     -14.630   2.705   9.318  0.00  0.00     0.051 C 
BRANCH  33  34
HETATM   34  C   UNK     0     -15.867   2.925  10.155  0.00  0.00     0.114 C 
BRANCH  34  35
HETATM   35  C   UNK     0     -15.704   2.134  11.409  0.00  0.00     0.139 C 
HETATM   36  O   UNK     0     -15.882   0.881  11.399  0.00  0.00    -0.650 OA
BRANCH  35  37
HETATM   37  O   UNK     0     -15.354   2.715  12.621  0.00  0.00    -0.776 OA
HETATM   38  H   UNK     0     -15.307   2.183  13.475  0.00  0.00     0.167 HD
ENDBRANCH  35  37
ENDBRANCH  34  35
ENDBRANCH  33  34
ENDBRANCH   6  33
BRANCH  27  39
HETATM   39  C   UNK     0     -13.088  10.039  13.733  0.00  0.00     0.051 C 
BRANCH  39  40
HETATM   40  C   UNK     0     -12.325  11.271  13.928  0.00  0.00     0.114 C 
BRANCH  40  41
HETATM   41  C   UNK     0     -12.410  12.384  13.008  0.00  0.00     0.139 C 
HETATM   42  O   UNK     0     -12.956  13.460  13.286  0.00  0.00    -0.650 OA
BRANCH  41  43
HETATM   43  O   UNK     0     -11.839  12.253  11.710  0.00  0.00    -0.776 OA
HETATM   44  H   UNK     0     -12.225  12.884  11.018  0.00  0.00     0.167 HD
ENDBRANCH  41  43
ENDBRANCH  40  41
ENDBRANCH  39  40
ENDBRANCH  27  39
BRANCH  11  45
HETATM   45  C   UNK     0      -9.937   0.428  15.475  0.00  0.00     0.051 C 
BRANCH  45  46
HETATM   46  C   UNK     0     -10.619  -0.687  16.180  0.00  0.00     0.114 C 
BRANCH  46  47
HETATM   47  C   UNK     0     -10.183  -0.639  17.606  0.00  0.00     0.139 C 
HETATM   48  O   UNK     0     -10.857  -1.243  18.452  0.00  0.00    -0.650 OA
BRANCH  47  49
HETATM   49  O   UNK     0      -9.061   0.059  17.974  0.00  0.00    -0.776 OA
HETATM   50  H   UNK     0      -9.008   1.082  17.907  0.00  0.00     0.167 HD
ENDBRANCH  47  49
ENDBRANCH  46  47
ENDBRANCH  45  46
ENDBRANCH  11  45
BRANCH  18  51
HETATM   51  C   UNK     0      -8.926   7.134  17.138  0.00  0.00     0.051 C 
BRANCH  51  52
HETATM   52  C   UNK     0      -7.766   7.133  16.153  0.00  0.00     0.114 C 
BRANCH  52  53
HETATM   53  C   UNK     0      -7.336   8.502  15.809  0.00  0.00     0.139 C 
HETATM   54  O   UNK     0      -8.026   9.197  15.046  0.00  0.00    -0.650 OA
BRANCH  53  55
HETATM   55  O   UNK     0      -6.168   8.999  16.334  0.00  0.00    -0.776 OA
HETATM   56  H   UNK     0      -5.771   8.755  17.211  0.00  0.00     0.167 HD
ENDBRANCH  53  55
ENDBRANCH  52  53
ENDBRANCH  51  52
ENDBRANCH  18  51
TORSDOF 16
ENDMDL
MODEL 11
REMARK VINA RESULT:      -7.2     19.982     23.200
REMARK  16 active torsions:
REMARK  status: ('A' for Active; 'I' for Inactive)
REMARK    1  A    between atoms: C_6  and  C_7 
REMARK    2  A    between atoms: C_7  and  C_8 
REMARK    3  A    between atoms: C_8  and  C_9 
REMARK    4  A    between atoms: C_9  and  O_11 
REMARK    5  A    between atoms: C_16  and  C_17 
REMARK    6  A    between atoms: C_17  and  C_18 
REMARK    7  A    between atoms: C_18  and  C_19 
REMARK    8  A    between atoms: C_19  and  O_21 
REMARK    9  A    between atoms: C_28  and  C_29 
REMARK   10  A    between atoms: C_29  and  C_30 
REMARK   11  A    between atoms: C_30  and  C_31 
REMARK   12  A    between atoms: C_31  and  O_33 
REMARK   13  A    between atoms: C_42  and  C_43 
REMARK   14  A    between atoms: C_43  and  C_44 
REMARK   15  A    between atoms: C_44  and  C_45 
REMARK   16  A    between atoms: C_45  and  O_47 
ROOT
HETATM    1  C   UNK     0      -9.560  -1.355  20.338  0.00  0.00     0.051 C 
HETATM    2  C   UNK     0     -10.044  -1.303  18.902  0.00  0.00    -0.031 A 
HETATM    3  C   UNK     0     -10.692  -2.276  18.157  0.00  0.00     0.021 A 
HETATM    4  N   UNK     0     -10.907  -1.803  16.907  0.00  0.00    -0.361 N 
HETATM    5  C   UNK     0     -10.417  -0.547  16.841  0.00  0.00     0.022 A 
HETATM    6  C   UNK     0      -9.867  -0.204  18.072  0.00  0.00    -0.027 A 
HETATM    7  C   UNK     0     -10.483   0.443  15.721  0.00  0.00     0.115 C 
HETATM    8  C   UNK     0     -11.806   0.550  14.983  0.00  0.00     0.021 A 
HETATM    9  N   UNK     0     -13.050   0.437  15.475  0.00  0.00    -0.361 N 
HETATM   10  C   UNK     0     -13.917   0.510  14.443  0.00  0.00     0.022 A 
HETATM   11  C   UNK     0     -13.213   0.683  13.255  0.00  0.00    -0.027 A 
HETATM   12  C   UNK     0     -11.883   0.709  13.587  0.00  0.00    -0.031 A 
HETATM   13  C   UNK     0     -10.741   0.884  12.612  0.00  0.00     0.051 C 
HETATM   14  C   UNK     0     -15.434   0.366  14.529  0.00  0.00     0.115 C 
HETATM   15  C   UNK     0     -15.895  -0.980  15.065  0.00  0.00     0.021 A 
HETATM   16  N   UNK     0     -15.598  -1.535  16.255  0.00  0.00    -0.361 N 
HETATM   17  C   UNK     0     -16.139  -2.754  16.318  0.00  0.00     0.022 A 
HETATM   18  C   UNK     0     -16.831  -3.000  15.115  0.00  0.00    -0.027 A 
HETATM   19  C   UNK     0     -16.671  -1.881  14.339  0.00  0.00    -0.031 A 
HETATM   20  C   UNK     0     -17.291  -1.711  12.965  0.00  0.00     0.051 C 
HETATM   21  C   UNK     0     -16.041  -3.806  17.398  0.00  0.00     0.115 C 
HETATM   22  C   UNK     0     -14.746  -3.895  18.171  0.00  0.00     0.022 A 
HETATM   23  N   UNK     0     -13.494  -3.783  17.707  0.00  0.00    -0.361 N 
HETATM   24  C   UNK     0     -12.652  -3.779  18.760  0.00  0.00     0.021 A 
HETATM   25  C   UNK     0     -13.378  -3.902  19.929  0.00  0.00    -0.031 A 
HETATM   26  C   UNK     0     -12.880  -3.987  21.357  0.00  0.00     0.051 C 
HETATM   27  C   UNK     0     -14.721  -3.978  19.577  0.00  0.00    -0.027 A 
HETATM   28  C   UNK     0     -11.146  -3.582  18.745  0.00  0.00     0.115 C 
HETATM   29  H   UNK     0     -11.367  -2.374  16.067  0.00  0.00     0.165 HD
HETATM   30  H   UNK     0     -13.321   0.357  16.556  0.00  0.00     0.165 HD
HETATM   31  H   UNK     0     -15.034  -1.039  17.088  0.00  0.00     0.165 HD
HETATM   32  H   UNK     0     -13.190  -3.748  16.629  0.00  0.00     0.165 HD
ENDROOT
BRANCH   6  33
HETATM   33  C   UNK     0      -9.194   1.071  18.512  0.00  0.00     0.051 C 
BRANCH  33  34
HETATM   34  C   UNK     0     -10.154   1.944  19.285  0.00  0.00     0.114 C 
BRANCH  34  35
HETATM   35  C   UNK     0     -10.916   2.757  18.293  0.00  0.00     0.139 C 
HETATM   36  O   UNK     0     -10.368   3.746  17.726  0.00  0.00    -0.650 OA
BRANCH  35  37
HETATM   37  O   UNK     0     -12.232   2.476  17.947  0.00  0.00    -0.776 OA
HETATM   38  H   UNK     0     -12.988   2.564  18.607  0.00  0.00     0.167 HD
ENDBRANCH  35  37
ENDBRANCH  34  35
ENDBRANCH  33  34
ENDBRANCH   6  33
BRANCH  27  39
HETATM   39  C   UNK     0     -15.809  -4.189  20.571  0.00  0.00     0.051 C 
BRANCH  39  40
HETATM   40  C   UNK     0     -16.487  -3.014  21.117  0.00  0.00     0.114 C 
BRANCH  40  41
HETATM   41  C   UNK     0     -16.163  -1.671  20.693  0.00  0.00     0.139 C 
HETATM   42  O   UNK     0     -15.317  -0.962  21.254  0.00  0.00    -0.650 OA
BRANCH  41  43
HETATM   43  O   UNK     0     -16.845  -1.117  19.572  0.00  0.00    -0.776 OA
HETATM   44  H   UNK     0     -17.482  -0.363  19.799  0.00  0.00     0.167 HD
ENDBRANCH  41  43
ENDBRANCH  40  41
ENDBRANCH  39  40
ENDBRANCH  27  39
BRANCH  11  45
HETATM   45  C   UNK     0     -13.749   0.823  11.855  0.00  0.00     0.051 C 
BRANCH  45  46
HETATM   46  C   UNK     0     -14.068   2.220  11.465  0.00  0.00     0.114 C 
BRANCH  46  47
HETATM   47  C   UNK     0     -15.433   2.210  10.864  0.00  0.00     0.139 C 
HETATM   48  O   UNK     0     -16.413   2.188  11.621  0.00  0.00    -0.650 OA
BRANCH  47  49
HETATM   49  O   UNK     0     -15.601   2.222   9.502  0.00  0.00    -0.776 OA
HETATM   50  H   UNK     0     -16.238   2.880   9.038  0.00  0.00     0.167 HD
ENDBRANCH  47  49
ENDBRANCH  46  47
ENDBRANCH  45  46
ENDBRANCH  11  45
BRANCH  18  51
HETATM   51  C   UNK     0     -17.618  -4.227  14.734  0.00  0.00     0.051 C 
BRANCH  51  52
HETATM   52  C   UNK     0     -16.664  -5.121  13.955  0.00  0.00     0.114 C 
BRANCH  52  53
HETATM   53  C   UNK     0     -16.807  -6.540  14.335  0.00  0.00     0.139 C 
HETATM   54  O   UNK     0     -15.860  -7.139  14.867  0.00  0.00    -0.650 OA
BRANCH  53  55
HETATM   55  O   UNK     0     -17.992  -7.192  14.092  0.00  0.00    -0.776 OA
HETATM   56  H   UNK     0     -18.894  -6.777  14.077  0.00  0.00     0.167 HD
ENDBRANCH  53  55
ENDBRANCH  52  53
ENDBRANCH  51  52
ENDBRANCH  18  51
TORSDOF 16
ENDMDL
MODEL 12
REMARK VINA RESULT:      -7.2      4.500      7.537
REMARK  16 active torsions:
REMARK  status: ('A' for Active; 'I' for Inactive)
REMARK    1  A    between atoms: C_6  and  C_7 
REMARK    2  A    between atoms: C_7  and  C_8 
REMARK    3  A    between atoms: C_8  and  C_9 
REMARK    4  A    between atoms: C_9  and  O_11 
REMARK    5  A    between atoms: C_16  and  C_17 
REMARK    6  A    between atoms: C_17  and  C_18 
REMARK    7  A    between atoms: C_18  and  C_19 
REMARK    8  A    between atoms: C_19  and  O_21 
REMARK    9  A    between atoms: C_28  and  C_29 
REMARK   10  A    between atoms: C_29  and  C_30 
REMARK   11  A    between atoms: C_30  and  C_31 
REMARK   12  A    between atoms: C_31  and  O_33 
REMARK   13  A    between atoms: C_42  and  C_43 
REMARK   14  A    between atoms: C_43  and  C_44 
REMARK   15  A    between atoms: C_44  and  C_45 
REMARK   16  A    between atoms: C_45  and  O_47 
ROOT
HETATM    1  C   UNK     0     -26.996  -1.017   5.029  0.00  0.00     0.051 C 
HETATM    2  C   UNK     0     -28.289  -0.302   5.363  0.00  0.00    -0.031 A 
HETATM    3  C   UNK     0     -28.764   0.917   4.905  0.00  0.00     0.021 A 
HETATM    4  N   UNK     0     -29.954   1.177   5.497  0.00  0.00    -0.361 N 
HETATM    5  C   UNK     0     -30.252   0.146   6.315  0.00  0.00     0.022 A 
HETATM    6  C   UNK     0     -29.230  -0.796   6.257  0.00  0.00    -0.027 A 
HETATM    7  C   UNK     0     -31.487  -0.102   7.122  0.00  0.00     0.115 C 
HETATM    8  C   UNK     0     -32.814   0.197   6.447  0.00  0.00     0.021 A 
HETATM    9  N   UNK     0     -33.153   0.032   5.159  0.00  0.00    -0.361 N 
HETATM   10  C   UNK     0     -34.402   0.516   4.989  0.00  0.00     0.022 A 
HETATM   11  C   UNK     0     -34.884   0.997   6.202  0.00  0.00    -0.027 A 
HETATM   12  C   UNK     0     -33.889   0.800   7.125  0.00  0.00    -0.031 A 
HETATM   13  C   UNK     0     -33.970   1.168   8.590  0.00  0.00     0.051 C 
HETATM   14  C   UNK     0     -35.167   0.592   3.670  0.00  0.00     0.115 C 
HETATM   15  C   UNK     0     -34.489   1.449   2.614  0.00  0.00     0.021 A 
HETATM   16  N   UNK     0     -33.257   1.292   2.094  0.00  0.00    -0.361 N 
HETATM   17  C   UNK     0     -33.007   2.293   1.247  0.00  0.00     0.022 A 
HETATM   18  C   UNK     0     -34.134   3.138   1.205  0.00  0.00    -0.027 A 
HETATM   19  C   UNK     0     -35.055   2.598   2.065  0.00  0.00    -0.031 A 
HETATM   20  C   UNK     0     -36.438   3.181   2.295  0.00  0.00     0.051 C 
HETATM   21  C   UNK     0     -31.754   2.615   0.465  0.00  0.00     0.115 C 
HETATM   22  C   UNK     0     -30.427   2.282   1.107  0.00  0.00     0.022 A 
HETATM   23  N   UNK     0     -30.063   2.432   2.387  0.00  0.00    -0.361 N 
HETATM   24  C   UNK     0     -28.847   1.873   2.551  0.00  0.00     0.021 A 
HETATM   25  C   UNK     0     -28.413   1.359   1.344  0.00  0.00    -0.031 A 
HETATM   26  C   UNK     0     -27.102   0.676   1.015  0.00  0.00     0.051 C 
HETATM   27  C   UNK     0     -29.407   1.609   0.404  0.00  0.00    -0.027 A 
HETATM   28  C   UNK     0     -28.063   1.714   3.842  0.00  0.00     0.115 C 
HETATM   29  H   UNK     0     -30.556   2.105   5.362  0.00  0.00     0.165 HD
HETATM   30  H   UNK     0     -32.532  -0.472   4.378  0.00  0.00     0.165 HD
HETATM   31  H   UNK     0     -32.567   0.431   2.292  0.00  0.00     0.165 HD
HETATM   32  H   UNK     0     -30.644   2.974   3.179  0.00  0.00     0.165 HD
ENDROOT
BRANCH   6  33
HETATM   33  C   UNK     0     -29.081  -2.110   6.980  0.00  0.00     0.051 C 
BRANCH  33  34
HETATM   34  C   UNK     0     -29.988  -3.158   6.379  0.00  0.00     0.114 C 
BRANCH  34  35
HETATM   35  C   UNK     0     -30.648  -3.877   7.507  0.00  0.00     0.139 C 
HETATM   36  O   UNK     0     -30.441  -5.113   7.682  0.00  0.00    -0.650 OA
BRANCH  35  37
HETATM   37  O   UNK     0     -31.500  -3.244   8.403  0.00  0.00    -0.776 OA
HETATM   38  H   UNK     0     -32.486  -3.143   8.222  0.00  0.00     0.167 HD
ENDBRANCH  35  37
ENDBRANCH  34  35
ENDBRANCH  33  34
ENDBRANCH   6  33
BRANCH  27  39
HETATM   39  C   UNK     0     -29.267   1.262  -1.036  0.00  0.00     0.051 C 
BRANCH  39  40
HETATM   40  C   UNK     0     -28.646   2.240  -1.928  0.00  0.00     0.114 C 
BRANCH  40  41
HETATM   41  C   UNK     0     -27.644   1.868  -2.902  0.00  0.00     0.139 C 
HETATM   42  O   UNK     0     -26.517   2.380  -2.952  0.00  0.00    -0.650 OA
BRANCH  41  43
HETATM   43  O   UNK     0     -27.952   0.862  -3.861  0.00  0.00    -0.776 OA
HETATM   44  H   UNK     0     -27.377   0.889  -4.695  0.00  0.00     0.167 HD
ENDBRANCH  41  43
ENDBRANCH  40  41
ENDBRANCH  39  40
ENDBRANCH  27  39
BRANCH  11  45
HETATM   45  C   UNK     0     -36.221   1.618   6.504  0.00  0.00     0.051 C 
BRANCH  45  46
HETATM   46  C   UNK     0     -36.349   3.029   6.057  0.00  0.00     0.114 C 
BRANCH  46  47
HETATM   47  C   UNK     0     -36.002   3.894   7.221  0.00  0.00     0.139 C 
HETATM   48  O   UNK     0     -36.745   3.881   8.212  0.00  0.00    -0.650 OA
BRANCH  47  49
HETATM   49  O   UNK     0     -34.884   4.690   7.196  0.00  0.00    -0.776 OA
HETATM   50  H   UNK     0     -33.938   4.299   7.109  0.00  0.00     0.167 HD
ENDBRANCH  47  49
ENDBRANCH  46  47
ENDBRANCH  45  46
ENDBRANCH  11  45
BRANCH  18  51
HETATM   51  C   UNK     0     -34.330   4.380   0.376  0.00  0.00     0.051 C 
BRANCH  51  52
HETATM   52  C   UNK     0     -35.038   3.936  -0.896  0.00  0.00     0.114 C 
BRANCH  52  53
HETATM   53  C   UNK     0     -34.229   4.209  -2.099  0.00  0.00     0.139 C 
HETATM   54  O   UNK     0     -33.137   4.789  -1.995  0.00  0.00    -0.650 OA
BRANCH  53  55
HETATM   55  O   UNK     0     -34.693   3.820  -3.332  0.00  0.00    -0.776 OA
HETATM   56  H   UNK     0     -35.506   4.165  -3.786  0.00  0.00     0.167 HD
ENDBRANCH  53  55
ENDBRANCH  52  53
ENDBRANCH  51  52
ENDBRANCH  18  51
TORSDOF 16
ENDMDL
MODEL 13
REMARK VINA RESULT:      -7.2      4.550      8.719
REMARK  16 active torsions:
REMARK  status: ('A' for Active; 'I' for Inactive)
REMARK    1  A    between atoms: C_6  and  C_7 
REMARK    2  A    between atoms: C_7  and  C_8 
REMARK    3  A    between atoms: C_8  and  C_9 
REMARK    4  A    between atoms: C_9  and  O_11 
REMARK    5  A    between atoms: C_16  and  C_17 
REMARK    6  A    between atoms: C_17  and  C_18 
REMARK    7  A    between atoms: C_18  and  C_19 
REMARK    8  A    between atoms: C_19  and  O_21 
REMARK    9  A    between atoms: C_28  and  C_29 
REMARK   10  A    between atoms: C_29  and  C_30 
REMARK   11  A    between atoms: C_30  and  C_31 
REMARK   12  A    between atoms: C_31  and  O_33 
REMARK   13  A    between atoms: C_42  and  C_43 
REMARK   14  A    between atoms: C_43  and  C_44 
REMARK   15  A    between atoms: C_44  and  C_45 
REMARK   16  A    between atoms: C_45  and  O_47 
ROOT
HETATM    1  C   UNK     0     -36.145   1.495   6.749  0.00  0.00     0.051 C 
HETATM    2  C   UNK     0     -34.831   0.807   6.441  0.00  0.00    -0.031 A 
HETATM    3  C   UNK     0     -34.373   0.280   5.243  0.00  0.00     0.021 A 
HETATM    4  N   UNK     0     -33.151  -0.268   5.441  0.00  0.00    -0.361 N 
HETATM    5  C   UNK     0     -32.816  -0.094   6.736  0.00  0.00     0.022 A 
HETATM    6  C   UNK     0     -33.846   0.573   7.391  0.00  0.00    -0.027 A 
HETATM    7  C   UNK     0     -31.540  -0.430   7.443  0.00  0.00     0.115 C 
HETATM    8  C   UNK     0     -30.250  -0.113   6.708  0.00  0.00     0.021 A 
HETATM    9  N   UNK     0     -29.983   0.922   5.896  0.00  0.00    -0.361 N 
HETATM   10  C   UNK     0     -28.742   0.751   5.392  0.00  0.00     0.022 A 
HETATM   11  C   UNK     0     -28.191  -0.422   5.901  0.00  0.00    -0.027 A 
HETATM   12  C   UNK     0     -29.136  -0.970   6.731  0.00  0.00    -0.031 A 
HETATM   13  C   UNK     0     -28.972  -2.255   7.512  0.00  0.00     0.051 C 
HETATM   14  C   UNK     0     -28.050   1.653   4.374  0.00  0.00     0.115 C 
HETATM   15  C   UNK     0     -28.778   1.752   3.044  0.00  0.00     0.021 A 
HETATM   16  N   UNK     0     -30.038   2.175   2.826  0.00  0.00    -0.361 N 
HETATM   17  C   UNK     0     -30.326   2.045   1.530  0.00  0.00     0.022 A 
HETATM   18  C   UNK     0     -29.198   1.521   0.869  0.00  0.00    -0.027 A 
HETATM   19  C   UNK     0     -28.235   1.343   1.828  0.00  0.00    -0.031 A 
HETATM   20  C   UNK     0     -26.838   0.826   1.536  0.00  0.00     0.051 C 
HETATM   21  C   UNK     0     -31.619   2.309   0.791  0.00  0.00     0.115 C 
HETATM   22  C   UNK     0     -32.910   2.039   1.526  0.00  0.00     0.022 A 
HETATM   23  N   UNK     0     -33.203   1.020   2.344  0.00  0.00    -0.361 N 
HETATM   24  C   UNK     0     -34.412   1.251   2.894  0.00  0.00     0.021 A 
HETATM   25  C   UNK     0     -34.915   2.444   2.410  0.00  0.00    -0.031 A 
HETATM   26  C   UNK     0     -36.247   3.104   2.700  0.00  0.00     0.051 C 
HETATM   27  C   UNK     0     -33.972   2.967   1.533  0.00  0.00    -0.027 A 
HETATM   28  C   UNK     0     -35.125   0.426   3.951  0.00  0.00     0.115 C 
HETATM   29  H   UNK     0     -32.551  -0.810   4.674  0.00  0.00     0.165 HD
HETATM   30  H   UNK     0     -30.649   1.801   5.714  0.00  0.00     0.165 HD
HETATM   31  H   UNK     0     -30.722   2.620   3.595  0.00  0.00     0.165 HD
HETATM   32  H   UNK     0     -32.576   0.104   2.508  0.00  0.00     0.165 HD
ENDROOT
BRANCH   6  33
HETATM   33  C   UNK     0     -33.965   0.997   8.833  0.00  0.00     0.051 C 
BRANCH  33  34
HETATM   34  C   UNK     0     -34.439  -0.152   9.691  0.00  0.00     0.114 C 
BRANCH  34  35
HETATM   35  C   UNK     0     -35.729   0.260  10.316  0.00  0.00     0.139 C 
HETATM   36  O   UNK     0     -35.734   0.865  11.427  0.00  0.00    -0.650 OA
BRANCH  35  37
HETATM   37  O   UNK     0     -36.961   0.010   9.724  0.00  0.00    -0.776 OA
HETATM   38  H   UNK     0     -37.297   0.547   8.941  0.00  0.00     0.167 HD
ENDBRANCH  35  37
ENDBRANCH  34  35
ENDBRANCH  33  34
ENDBRANCH   6  33
BRANCH  27  39
HETATM   39  C   UNK     0     -34.193   4.217   0.756  0.00  0.00     0.051 C 
BRANCH  39  40
HETATM   40  C   UNK     0     -34.368   4.112  -0.692  0.00  0.00     0.114 C 
BRANCH  40  41
HETATM   41  C   UNK     0     -35.322   3.204  -1.289  0.00  0.00     0.139 C 
HETATM   42  O   UNK     0     -36.413   2.924  -0.775  0.00  0.00    -0.650 OA
BRANCH  41  43
HETATM   43  O   UNK     0     -35.006   2.591  -2.535  0.00  0.00    -0.776 OA
HETATM   44  H   UNK     0     -35.301   3.118  -3.348  0.00  0.00     0.167 HD
ENDBRANCH  41  43
ENDBRANCH  40  41
ENDBRANCH  39  40
ENDBRANCH  27  39
BRANCH  11  45
HETATM   45  C   UNK     0     -26.835  -1.018   5.635  0.00  0.00     0.051 C 
BRANCH  45  46
HETATM   46  C   UNK     0     -25.727  -0.358   6.372  0.00  0.00     0.114 C 
BRANCH  46  47
HETATM   47  C   UNK     0     -25.446  -1.186   7.580  0.00  0.00     0.139 C 
HETATM   48  O   UNK     0     -26.046  -0.922   8.631  0.00  0.00    -0.650 OA
BRANCH  47  49
HETATM   49  O   UNK     0     -24.542  -2.217   7.531  0.00  0.00    -0.776 OA
HETATM   50  H   UNK     0     -24.813  -3.167   7.249  0.00  0.00     0.167 HD
ENDBRANCH  47  49
ENDBRANCH  46  47
ENDBRANCH  45  46
ENDBRANCH  11  45
BRANCH  18  51
HETATM   51  C   UNK     0     -29.039   1.225  -0.600  0.00  0.00     0.051 C 
BRANCH  51  52
HETATM   52  C   UNK     0     -28.613   2.531  -1.254  0.00  0.00     0.114 C 
BRANCH  52  53
HETATM   53  C   UNK     0     -28.724   2.472  -2.724  0.00  0.00     0.139 C 
HETATM   54  O   UNK     0     -29.127   3.460  -3.358  0.00  0.00    -0.650 OA
BRANCH  53  55
HETATM   55  O   UNK     0     -28.384   1.317  -3.385  0.00  0.00    -0.776 OA
HETATM   56  H   UNK     0     -28.208   1.231  -4.358  0.00  0.00     0.167 HD
ENDBRANCH  53  55
ENDBRANCH  52  53
ENDBRANCH  51  52
ENDBRANCH  18  51
TORSDOF 16
ENDMDL
MODEL 14
REMARK VINA RESULT:      -7.1     21.801     24.896
REMARK  16 active torsions:
REMARK  status: ('A' for Active; 'I' for Inactive)
REMARK    1  A    between atoms: C_6  and  C_7 
REMARK    2  A    between atoms: C_7  and  C_8 
REMARK    3  A    between atoms: C_8  and  C_9 
REMARK    4  A    between atoms: C_9  and  O_11 
REMARK    5  A    between atoms: C_16  and  C_17 
REMARK    6  A    between atoms: C_17  and  C_18 
REMARK    7  A    between atoms: C_18  and  C_19 
REMARK    8  A    between atoms: C_19  and  O_21 
REMARK    9  A    between atoms: C_28  and  C_29 
REMARK   10  A    between atoms: C_29  and  C_30 
REMARK   11  A    between atoms: C_30  and  C_31 
REMARK   12  A    between atoms: C_31  and  O_33 
REMARK   13  A    between atoms: C_42  and  C_43 
REMARK   14  A    between atoms: C_43  and  C_44 
REMARK   15  A    between atoms: C_44  and  C_45 
REMARK   16  A    between atoms: C_45  and  O_47 
ROOT
HETATM    1  C   UNK     0     -10.106   1.615  20.266  0.00  0.00     0.051 C 
HETATM    2  C   UNK     0     -11.106   1.665  19.129  0.00  0.00    -0.031 A 
HETATM    3  C   UNK     0     -11.526   2.749  18.374  0.00  0.00     0.021 A 
HETATM    4  N   UNK     0     -12.458   2.332  17.484  0.00  0.00    -0.361 N 
HETATM    5  C   UNK     0     -12.634   1.005  17.649  0.00  0.00     0.022 A 
HETATM    6  C   UNK     0     -11.806   0.556  18.672  0.00  0.00    -0.027 A 
HETATM    7  C   UNK     0     -13.476   0.051  16.861  0.00  0.00     0.115 C 
HETATM    8  C   UNK     0     -13.455   0.211  15.351  0.00  0.00     0.021 A 
HETATM    9  N   UNK     0     -12.429   0.565  14.562  0.00  0.00    -0.361 N 
HETATM   10  C   UNK     0     -12.889   0.670  13.297  0.00  0.00     0.022 A 
HETATM   11  C   UNK     0     -14.247   0.365  13.269  0.00  0.00    -0.027 A 
HETATM   12  C   UNK     0     -14.610   0.074  14.559  0.00  0.00    -0.031 A 
HETATM   13  C   UNK     0     -15.998  -0.321  15.009  0.00  0.00     0.051 C 
HETATM   14  C   UNK     0     -12.083   1.111  12.078  0.00  0.00     0.115 C 
HETATM   15  C   UNK     0     -11.522   2.519  12.189  0.00  0.00     0.021 A 
HETATM   16  N   UNK     0     -10.691   3.001  13.132  0.00  0.00    -0.361 N 
HETATM   17  C   UNK     0     -10.489   4.302  12.915  0.00  0.00     0.022 A 
HETATM   18  C   UNK     0     -11.214   4.685  11.770  0.00  0.00    -0.027 A 
HETATM   19  C   UNK     0     -11.856   3.559  11.323  0.00  0.00    -0.031 A 
HETATM   20  C   UNK     0     -12.725   3.520  10.080  0.00  0.00     0.051 C 
HETATM   21  C   UNK     0      -9.703   5.311  13.722  0.00  0.00     0.115 C 
HETATM   22  C   UNK     0      -9.679   5.139  15.222  0.00  0.00     0.022 A 
HETATM   23  N   UNK     0     -10.684   4.783  16.033  0.00  0.00    -0.361 N 
HETATM   24  C   UNK     0     -10.186   4.609  17.274  0.00  0.00     0.021 A 
HETATM   25  C   UNK     0      -8.830   4.870  17.264  0.00  0.00    -0.031 A 
HETATM   26  C   UNK     0      -7.847   4.849  18.417  0.00  0.00     0.051 C 
HETATM   27  C   UNK     0      -8.482   5.211  15.962  0.00  0.00    -0.027 A 
HETATM   28  C   UNK     0     -10.920   4.117  18.509  0.00  0.00     0.115 C 
HETATM   29  H   UNK     0     -13.013   2.986  16.772  0.00  0.00     0.165 HD
HETATM   30  H   UNK     0     -11.367   0.694  14.887  0.00  0.00     0.165 HD
HETATM   31  H   UNK     0     -10.200   2.400  13.941  0.00  0.00     0.165 HD
HETATM   32  H   UNK     0     -11.764   4.692  15.745  0.00  0.00     0.165 HD
ENDROOT
BRANCH   6  33
HETATM   33  C   UNK     0     -11.633  -0.829  19.243  0.00  0.00     0.051 C 
BRANCH  33  34
HETATM   34  C   UNK     0     -10.377  -1.475  18.708  0.00  0.00     0.114 C 
BRANCH  34  35
HETATM   35  C   UNK     0     -10.789  -2.445  17.652  0.00  0.00     0.139 C 
HETATM   36  O   UNK     0     -11.906  -3.034  17.729  0.00  0.00    -0.650 OA
BRANCH  35  37
HETATM   37  O   UNK     0      -9.989  -2.743  16.556  0.00  0.00    -0.776 OA
HETATM   38  H   UNK     0      -9.507  -3.623  16.469  0.00  0.00     0.167 HD
ENDBRANCH  35  37
ENDBRANCH  34  35
ENDBRANCH  33  34
ENDBRANCH   6  33
BRANCH  27  39
HETATM   39  C   UNK     0      -7.107   5.630  15.574  0.00  0.00     0.051 C 
BRANCH  39  40
HETATM   40  C   UNK     0      -6.851   7.054  15.356  0.00  0.00     0.114 C 
BRANCH  40  41
HETATM   41  C   UNK     0      -7.763   8.079  15.810  0.00  0.00     0.139 C 
HETATM   42  O   UNK     0      -8.548   8.676  15.061  0.00  0.00    -0.650 OA
BRANCH  41  43
HETATM   43  O   UNK     0      -7.774   8.434  17.189  0.00  0.00    -0.776 OA
HETATM   44  H   UNK     0      -8.609   8.922  17.490  0.00  0.00     0.167 HD
ENDBRANCH  41  43
ENDBRANCH  40  41
ENDBRANCH  39  40
ENDBRANCH  27  39
BRANCH  11  45
HETATM   45  C   UNK     0     -15.182   0.338  12.090  0.00  0.00     0.051 C 
BRANCH  45  46
HETATM   46  C   UNK     0     -15.514   1.681  11.549  0.00  0.00     0.114 C 
BRANCH  46  47
HETATM   47  C   UNK     0     -16.529   2.284  12.459  0.00  0.00     0.139 C 
HETATM   48  O   UNK     0     -17.654   1.768  12.517  0.00  0.00    -0.650 OA
BRANCH  47  49
HETATM   49  O   UNK     0     -16.227   3.388  13.216  0.00  0.00    -0.776 OA
HETATM   50  H   UNK     0     -16.513   3.471  14.199  0.00  0.00     0.167 HD
ENDBRANCH  47  49
ENDBRANCH  46  47
ENDBRANCH  45  46
ENDBRANCH  11  45
BRANCH  18  51
HETATM   51  C   UNK     0     -11.276   6.045  11.123  0.00  0.00     0.051 C 
BRANCH  51  52
HETATM   52  C   UNK     0     -11.997   6.953  12.109  0.00  0.00     0.114 C 
BRANCH  52  53
HETATM   53  C   UNK     0     -11.441   8.320  12.103  0.00  0.00     0.139 C 
HETATM   54  O   UNK     0     -12.180   9.290  11.867  0.00  0.00    -0.650 OA
BRANCH  53  55
HETATM   55  O   UNK     0     -10.105   8.512  12.358  0.00  0.00    -0.776 OA
HETATM   56  H   UNK     0      -9.470   7.826  12.694  0.00  0.00     0.167 HD
ENDBRANCH  53  55
ENDBRANCH  52  53
ENDBRANCH  51  52
ENDBRANCH  18  51
TORSDOF 16
ENDMDL
MODEL 15
REMARK VINA RESULT:      -7.0     22.126     25.725
REMARK  16 active torsions:
REMARK  status: ('A' for Active; 'I' for Inactive)
REMARK    1  A    between atoms: C_6  and  C_7 
REMARK    2  A    between atoms: C_7  and  C_8 
REMARK    3  A    between atoms: C_8  and  C_9 
REMARK    4  A    between atoms: C_9  and  O_11 
REMARK    5  A    between atoms: C_16  and  C_17 
REMARK    6  A    between atoms: C_17  and  C_18 
REMARK    7  A    between atoms: C_18  and  C_19 
REMARK    8  A    between atoms: C_19  and  O_21 
REMARK    9  A    between atoms: C_28  and  C_29 
REMARK   10  A    between atoms: C_29  and  C_30 
REMARK   11  A    between atoms: C_30  and  C_31 
REMARK   12  A    between atoms: C_31  and  O_33 
REMARK   13  A    between atoms: C_42  and  C_43 
REMARK   14  A    between atoms: C_43  and  C_44 
REMARK   15  A    between atoms: C_44  and  C_45 
REMARK   16  A    between atoms: C_45  and  O_47 
ROOT
HETATM    1  C   UNK     0     -14.514   2.432  10.219  0.00  0.00     0.051 C 
HETATM    2  C   UNK     0     -13.478   2.000  11.237  0.00  0.00    -0.031 A 
HETATM    3  C   UNK     0     -12.149   2.375  11.353  0.00  0.00     0.021 A 
HETATM    4  N   UNK     0     -11.593   1.712  12.395  0.00  0.00    -0.361 N 
HETATM    5  C   UNK     0     -12.542   0.930  12.951  0.00  0.00     0.022 A 
HETATM    6  C   UNK     0     -13.733   1.083  12.249  0.00  0.00    -0.027 A 
HETATM    7  C   UNK     0     -12.471   0.073  14.176  0.00  0.00     0.115 C 
HETATM    8  C   UNK     0     -11.763   0.666  15.382  0.00  0.00     0.021 A 
HETATM    9  N   UNK     0     -11.747   1.941  15.799  0.00  0.00    -0.361 N 
HETATM   10  C   UNK     0     -10.915   2.025  16.858  0.00  0.00     0.022 A 
HETATM   11  C   UNK     0     -10.388   0.768  17.138  0.00  0.00    -0.027 A 
HETATM   12  C   UNK     0     -10.919  -0.094  16.211  0.00  0.00    -0.031 A 
HETATM   13  C   UNK     0     -10.631  -1.576  16.131  0.00  0.00     0.051 C 
HETATM   14  C   UNK     0     -10.543   3.298  17.614  0.00  0.00     0.115 C 
HETATM   15  C   UNK     0      -9.855   4.346  16.753  0.00  0.00     0.021 A 
HETATM   16  N   UNK     0     -10.329   4.934  15.639  0.00  0.00    -0.361 N 
HETATM   17  C   UNK     0      -9.394   5.745  15.139  0.00  0.00     0.022 A 
HETATM   18  C   UNK     0      -8.259   5.690  15.973  0.00  0.00    -0.027 A 
HETATM   19  C   UNK     0      -8.562   4.811  16.981  0.00  0.00    -0.031 A 
HETATM   20  C   UNK     0      -7.621   4.484  18.126  0.00  0.00     0.051 C 
HETATM   21  C   UNK     0      -9.401   6.573  13.874  0.00  0.00     0.115 C 
HETATM   22  C   UNK     0     -10.139   6.015  12.680  0.00  0.00     0.022 A 
HETATM   23  N   UNK     0     -10.176   4.749  12.244  0.00  0.00    -0.361 N 
HETATM   24  C   UNK     0     -11.070   4.674  11.237  0.00  0.00     0.021 A 
HETATM   25  C   UNK     0     -11.614   5.924  11.013  0.00  0.00    -0.031 A 
HETATM   26  C   UNK     0     -12.625   6.351   9.969  0.00  0.00     0.051 C 
HETATM   27  C   UNK     0     -11.033   6.800  11.924  0.00  0.00    -0.027 A 
HETATM   28  C   UNK     0     -11.525   3.433  10.489  0.00  0.00     0.115 C 
HETATM   29  H   UNK     0     -10.525   1.772  12.706  0.00  0.00     0.165 HD
HETATM   30  H   UNK     0     -12.361   2.775  15.378  0.00  0.00     0.165 HD
HETATM   31  H   UNK     0     -11.363   4.812  15.222  0.00  0.00     0.165 HD
HETATM   32  H   UNK     0      -9.539   3.905  12.614  0.00  0.00     0.165 HD
ENDROOT
BRANCH   6  33
HETATM   33  C   UNK     0     -15.075   0.431  12.462  0.00  0.00     0.051 C 
BRANCH  33  34
HETATM   34  C   UNK     0     -15.929   1.258  13.394  0.00  0.00     0.114 C 
BRANCH  34  35
HETATM   35  C   UNK     0     -17.324   0.739  13.301  0.00  0.00     0.139 C 
HETATM   36  O   UNK     0     -18.243   1.252  14.003  0.00  0.00    -0.650 OA
BRANCH  35  37
HETATM   37  O   UNK     0     -17.679  -0.307  12.458  0.00  0.00    -0.776 OA
HETATM   38  H   UNK     0     -18.637  -0.489  12.207  0.00  0.00     0.167 HD
ENDBRANCH  35  37
ENDBRANCH  34  35
ENDBRANCH  33  34
ENDBRANCH   6  33
BRANCH  27  39
HETATM   39  C   UNK     0     -11.320   8.260  11.941  0.00  0.00     0.051 C 
BRANCH  39  40
HETATM   40  C   UNK     0     -12.243   8.775  12.951  0.00  0.00     0.114 C 
BRANCH  40  41
HETATM   41  C   UNK     0     -11.832   9.728  13.957  0.00  0.00     0.139 C 
HETATM   42  O   UNK     0     -12.620  10.471  14.557  0.00  0.00    -0.650 OA
BRANCH  41  43
HETATM   43  O   UNK     0     -10.451   9.830  14.288  0.00  0.00    -0.776 OA
HETATM   44  H   UNK     0      -9.985  10.640  13.896  0.00  0.00     0.167 HD
ENDBRANCH  41  43
ENDBRANCH  40  41
ENDBRANCH  39  40
ENDBRANCH  27  39
BRANCH  11  45
HETATM   45  C   UNK     0      -9.428   0.370  18.226  0.00  0.00     0.051 C 
BRANCH  45  46
HETATM   46  C   UNK     0     -10.050   0.246  19.569  0.00  0.00     0.114 C 
BRANCH  46  47
HETATM   47  C   UNK     0     -10.440  -1.182  19.745  0.00  0.00     0.139 C 
HETATM   48  O   UNK     0     -11.640  -1.455  19.893  0.00  0.00    -0.650 OA
BRANCH  47  49
HETATM   49  O   UNK     0      -9.492  -2.174  19.745  0.00  0.00    -0.776 OA
HETATM   50  H   UNK     0      -9.724  -3.150  19.524  0.00  0.00     0.167 HD
ENDBRANCH  47  49
ENDBRANCH  46  47
ENDBRANCH  45  46
ENDBRANCH  11  45
BRANCH  18  51
HETATM   51  C   UNK     0      -6.966   6.449  15.829  0.00  0.00     0.051 C 
BRANCH  51  52
HETATM   52  C   UNK     0      -6.970   7.508  16.921  0.00  0.00     0.114 C 
BRANCH  52  53
HETATM   53  C   UNK     0      -7.008   8.873  16.363  0.00  0.00     0.139 C 
HETATM   54  O   UNK     0      -6.455   9.807  16.966  0.00  0.00    -0.650 OA
BRANCH  53  55
HETATM   55  O   UNK     0      -7.661   9.104  15.176  0.00  0.00    -0.776 OA
HETATM   56  H   UNK     0      -7.410   9.779  14.493  0.00  0.00     0.167 HD
ENDBRANCH  53  55
ENDBRANCH  52  53
ENDBRANCH  51  52
ENDBRANCH  18  51
TORSDOF 16
ENDMDL
MODEL 16
REMARK VINA RESULT:      -7.0     20.757     24.543
REMARK  16 active torsions:
REMARK  status: ('A' for Active; 'I' for Inactive)
REMARK    1  A    between atoms: C_6  and  C_7 
REMARK    2  A    between atoms: C_7  and  C_8 
REMARK    3  A    between atoms: C_8  and  C_9 
REMARK    4  A    between atoms: C_9  and  O_11 
REMARK    5  A    between atoms: C_16  and  C_17 
REMARK    6  A    between atoms: C_17  and  C_18 
REMARK    7  A    between atoms: C_18  and  C_19 
REMARK    8  A    between atoms: C_19  and  O_21 
REMARK    9  A    between atoms: C_28  and  C_29 
REMARK   10  A    between atoms: C_29  and  C_30 
REMARK   11  A    between atoms: C_30  and  C_31 
REMARK   12  A    between atoms: C_31  and  O_33 
REMARK   13  A    between atoms: C_42  and  C_43 
REMARK   14  A    between atoms: C_43  and  C_44 
REMARK   15  A    between atoms: C_44  and  C_45 
REMARK   16  A    between atoms: C_45  and  O_47 
ROOT
HETATM    1  C   UNK     0     -13.618   7.120   9.908  0.00  0.00     0.051 C 
HETATM    2  C   UNK     0     -13.608   5.712  10.467  0.00  0.00    -0.031 A 
HETATM    3  C   UNK     0     -12.538   4.943  10.897  0.00  0.00     0.021 A 
HETATM    4  N   UNK     0     -12.995   3.730  11.289  0.00  0.00    -0.361 N 
HETATM    5  C   UNK     0     -14.334   3.712  11.126  0.00  0.00     0.022 A 
HETATM    6  C   UNK     0     -14.750   4.935  10.611  0.00  0.00    -0.027 A 
HETATM    7  C   UNK     0     -15.323   2.650  11.494  0.00  0.00     0.115 C 
HETATM    8  C   UNK     0     -15.130   1.976  12.841  0.00  0.00     0.021 A 
HETATM    9  N   UNK     0     -14.693   2.514  13.990  0.00  0.00    -0.361 N 
HETATM   10  C   UNK     0     -14.592   1.525  14.904  0.00  0.00     0.022 A 
HETATM   11  C   UNK     0     -14.984   0.319  14.330  0.00  0.00    -0.027 A 
HETATM   12  C   UNK     0     -15.324   0.596  13.031  0.00  0.00    -0.031 A 
HETATM   13  C   UNK     0     -15.817  -0.416  12.021  0.00  0.00     0.051 C 
HETATM   14  C   UNK     0     -14.074   1.668  16.332  0.00  0.00     0.115 C 
HETATM   15  C   UNK     0     -12.635   2.150  16.420  0.00  0.00     0.021 A 
HETATM   16  N   UNK     0     -12.121   3.294  15.931  0.00  0.00    -0.361 N 
HETATM   17  C   UNK     0     -10.805   3.314  16.154  0.00  0.00     0.022 A 
HETATM   18  C   UNK     0     -10.446   2.130  16.828  0.00  0.00    -0.027 A 
HETATM   19  C   UNK     0     -11.601   1.410  16.990  0.00  0.00    -0.031 A 
HETATM   20  C   UNK     0     -11.670   0.074  17.707  0.00  0.00     0.051 C 
HETATM   21  C   UNK     0      -9.765   4.331  15.742  0.00  0.00     0.115 C 
HETATM   22  C   UNK     0      -9.967   5.041  14.424  0.00  0.00     0.022 A 
HETATM   23  N   UNK     0     -10.405   4.532  13.265  0.00  0.00    -0.361 N 
HETATM   24  C   UNK     0     -10.572   5.547  12.393  0.00  0.00     0.021 A 
HETATM   25  C   UNK     0     -10.224   6.737  13.002  0.00  0.00    -0.031 A 
HETATM   26  C   UNK     0     -10.206   8.136  12.421  0.00  0.00     0.051 C 
HETATM   27  C   UNK     0      -9.833   6.439  14.303  0.00  0.00    -0.027 A 
HETATM   28  C   UNK     0     -11.136   5.478  10.985  0.00  0.00     0.115 C 
HETATM   29  H   UNK     0     -12.363   2.881  11.641  0.00  0.00     0.165 HD
HETATM   30  H   UNK     0     -14.503   3.600  14.174  0.00  0.00     0.165 HD
HETATM   31  H   UNK     0     -12.706   4.128  15.462  0.00  0.00     0.165 HD
HETATM   32  H   UNK     0     -10.558   3.445  13.038  0.00  0.00     0.165 HD
ENDROOT
BRANCH   6  33
HETATM   33  C   UNK     0     -16.133   5.414  10.248  0.00  0.00     0.051 C 
BRANCH  33  34
HETATM   34  C   UNK     0     -16.400   5.210   8.775  0.00  0.00     0.114 C 
BRANCH  34  35
HETATM   35  C   UNK     0     -17.152   3.930   8.631  0.00  0.00     0.139 C 
HETATM   36  O   UNK     0     -18.354   3.850   9.021  0.00  0.00    -0.650 OA
BRANCH  35  37
HETATM   37  O   UNK     0     -16.589   2.789   8.074  0.00  0.00    -0.776 OA
HETATM   38  H   UNK     0     -15.623   2.752   7.793  0.00  0.00     0.167 HD
ENDBRANCH  35  37
ENDBRANCH  34  35
ENDBRANCH  33  34
ENDBRANCH   6  33
BRANCH  27  39
HETATM   39  C   UNK     0      -9.319   7.466  15.250  0.00  0.00     0.051 C 
BRANCH  39  40
HETATM   40  C   UNK     0      -7.872   7.655  15.349  0.00  0.00     0.114 C 
BRANCH  40  41
HETATM   41  C   UNK     0      -7.013   6.700  16.013  0.00  0.00     0.139 C 
HETATM   42  O   UNK     0      -6.393   5.808  15.417  0.00  0.00    -0.650 OA
BRANCH  41  43
HETATM   43  O   UNK     0      -6.861   6.773  17.427  0.00  0.00    -0.776 OA
HETATM   44  H   UNK     0      -5.963   7.127  17.734  0.00  0.00     0.167 HD
ENDBRANCH  41  43
ENDBRANCH  40  41
ENDBRANCH  39  40
ENDBRANCH  27  39
BRANCH  11  45
HETATM   45  C   UNK     0     -15.046  -1.047  14.959  0.00  0.00     0.051 C 
BRANCH  45  46
HETATM   46  C   UNK     0     -16.375  -1.394  15.524  0.00  0.00     0.114 C 
BRANCH  46  47
HETATM   47  C   UNK     0     -16.765  -2.715  14.953  0.00  0.00     0.139 C 
HETATM   48  O   UNK     0     -17.701  -3.334  15.478  0.00  0.00    -0.650 OA
BRANCH  47  49
HETATM   49  O   UNK     0     -16.102  -3.237  13.870  0.00  0.00    -0.776 OA
HETATM   50  H   UNK     0     -16.592  -3.505  13.009  0.00  0.00     0.167 HD
ENDBRANCH  47  49
ENDBRANCH  46  47
ENDBRANCH  45  46
ENDBRANCH  11  45
BRANCH  18  51
HETATM   51  C   UNK     0      -9.079   1.717  17.310  0.00  0.00     0.051 C 
BRANCH  51  52
HETATM   52  C   UNK     0      -8.838   2.476  18.607  0.00  0.00     0.114 C 
BRANCH  52  53
HETATM   53  C   UNK     0      -7.441   2.937  18.721  0.00  0.00     0.139 C 
HETATM   54  O   UNK     0      -7.095   4.009  18.200  0.00  0.00    -0.650 OA
BRANCH  53  55
HETATM   55  O   UNK     0      -6.526   2.171  19.403  0.00  0.00    -0.776 OA
HETATM   56  H   UNK     0      -5.768   1.672  19.002  0.00  0.00     0.167 HD
ENDBRANCH  53  55
ENDBRANCH  52  53
ENDBRANCH  51  52
ENDBRANCH  18  51
TORSDOF 16
ENDMDL
MODEL 17
REMARK VINA RESULT:      -7.0     17.273     20.830
REMARK  16 active torsions:
REMARK  status: ('A' for Active; 'I' for Inactive)
REMARK    1  A    between atoms: C_6  and  C_7 
REMARK    2  A    between atoms: C_7  and  C_8 
REMARK    3  A    between atoms: C_8  and  C_9 
REMARK    4  A    between atoms: C_9  and  O_11 
REMARK    5  A    between atoms: C_16  and  C_17 
REMARK    6  A    between atoms: C_17  and  C_18 
REMARK    7  A    between atoms: C_18  and  C_19 
REMARK    8  A    between atoms: C_19  and  O_21 
REMARK    9  A    between atoms: C_28  and  C_29 
REMARK   10  A    between atoms: C_29  and  C_30 
REMARK   11  A    between atoms: C_30  and  C_31 
REMARK   12  A    between atoms: C_31  and  O_33 
REMARK   13  A    between atoms: C_42  and  C_43 
REMARK   14  A    between atoms: C_43  and  C_44 
REMARK   15  A    between atoms: C_44  and  C_45 
REMARK   16  A    between atoms: C_45  and  O_47 
ROOT
HETATM    1  C   UNK     0     -12.755   1.567  18.108  0.00  0.00     0.051 C 
HETATM    2  C   UNK     0     -13.797   0.467  18.082  0.00  0.00    -0.031 A 
HETATM    3  C   UNK     0     -15.153   0.547  17.809  0.00  0.00     0.021 A 
HETATM    4  N   UNK     0     -15.701  -0.686  17.931  0.00  0.00    -0.361 N 
HETATM    5  C   UNK     0     -14.721  -1.550  18.267  0.00  0.00     0.022 A 
HETATM    6  C   UNK     0     -13.518  -0.862  18.373  0.00  0.00    -0.027 A 
HETATM    7  C   UNK     0     -14.779  -3.037  18.430  0.00  0.00     0.115 C 
HETATM    8  C   UNK     0     -15.576  -3.806  17.391  0.00  0.00     0.021 A 
HETATM    9  N   UNK     0     -15.702  -3.554  16.079  0.00  0.00    -0.361 N 
HETATM   10  C   UNK     0     -16.580  -4.441  15.565  0.00  0.00     0.022 A 
HETATM   11  C   UNK     0     -17.025  -5.293  16.571  0.00  0.00    -0.027 A 
HETATM   12  C   UNK     0     -16.396  -4.899  17.725  0.00  0.00    -0.031 A 
HETATM   13  C   UNK     0     -16.571  -5.545  19.081  0.00  0.00     0.051 C 
HETATM   14  C   UNK     0     -17.074  -4.487  14.121  0.00  0.00     0.115 C 
HETATM   15  C   UNK     0     -17.801  -3.227  13.679  0.00  0.00     0.021 A 
HETATM   16  N   UNK     0     -17.326  -1.968  13.663  0.00  0.00    -0.361 N 
HETATM   17  C   UNK     0     -18.297  -1.138  13.275  0.00  0.00     0.022 A 
HETATM   18  C   UNK     0     -19.458  -1.894  13.016  0.00  0.00    -0.027 A 
HETATM   19  C   UNK     0     -19.133  -3.201  13.272  0.00  0.00    -0.031 A 
HETATM   20  C   UNK     0     -20.094  -4.362  13.084  0.00  0.00     0.051 C 
HETATM   21  C   UNK     0     -18.300   0.370  13.161  0.00  0.00     0.115 C 
HETATM   22  C   UNK     0     -17.475   1.146  14.161  0.00  0.00     0.022 A 
HETATM   23  N   UNK     0     -17.328   0.915  15.473  0.00  0.00    -0.361 N 
HETATM   24  C   UNK     0     -16.391   1.760  15.948  0.00  0.00     0.021 A 
HETATM   25  C   UNK     0     -15.931   2.560  14.921  0.00  0.00    -0.031 A 
HETATM   26  C   UNK     0     -14.913   3.681  14.968  0.00  0.00     0.051 C 
HETATM   27  C   UNK     0     -16.610   2.186  13.767  0.00  0.00    -0.027 A 
HETATM   28  C   UNK     0     -15.817   1.815  17.354  0.00  0.00     0.115 C 
HETATM   29  H   UNK     0     -16.783  -0.929  17.818  0.00  0.00     0.165 HD
HETATM   30  H   UNK     0     -15.135  -2.783  15.503  0.00  0.00     0.165 HD
HETATM   31  H   UNK     0     -16.271  -1.662  13.884  0.00  0.00     0.165 HD
HETATM   32  H   UNK     0     -17.917   0.183  16.084  0.00  0.00     0.165 HD
ENDROOT
BRANCH   6  33
HETATM   33  C   UNK     0     -12.141  -1.364  18.726  0.00  0.00     0.051 C 
BRANCH  33  34
HETATM   34  C   UNK     0     -11.557  -2.171  17.591  0.00  0.00     0.114 C 
BRANCH  34  35
HETATM   35  C   UNK     0     -10.698  -1.254  16.787  0.00  0.00     0.139 C 
HETATM   36  O   UNK     0     -11.078  -0.862  15.646  0.00  0.00    -0.650 OA
BRANCH  35  37
HETATM   37  O   UNK     0      -9.467  -0.793  17.239  0.00  0.00    -0.776 OA
HETATM   38  H   UNK     0      -9.230  -0.775  18.218  0.00  0.00     0.167 HD
ENDBRANCH  35  37
ENDBRANCH  34  35
ENDBRANCH  33  34
ENDBRANCH   6  33
BRANCH  27  39
HETATM   39  C   UNK     0     -16.432   2.877  12.461  0.00  0.00     0.051 C 
BRANCH  39  40
HETATM   40  C   UNK     0     -15.620   2.224  11.435  0.00  0.00     0.114 C 
BRANCH  40  41
HETATM   41  C   UNK     0     -14.945   0.968  11.671  0.00  0.00     0.139 C 
HETATM   42  O   UNK     0     -13.797   0.884  12.130  0.00  0.00    -0.650 OA
BRANCH  41  43
HETATM   43  O   UNK     0     -15.620  -0.248  11.366  0.00  0.00    -0.776 OA
HETATM   44  H   UNK     0     -16.569  -0.128  11.032  0.00  0.00     0.167 HD
ENDBRANCH  41  43
ENDBRANCH  40  41
ENDBRANCH  39  40
ENDBRANCH  27  39
BRANCH  11  45
HETATM   45  C   UNK     0     -17.997  -6.438  16.474  0.00  0.00     0.051 C 
BRANCH  45  46
HETATM   46  C   UNK     0     -17.356  -7.777  16.444  0.00  0.00     0.114 C 
BRANCH  46  47
HETATM   47  C   UNK     0     -16.636  -7.893  15.144  0.00  0.00     0.139 C 
HETATM   48  O   UNK     0     -17.302  -8.035  14.109  0.00  0.00    -0.650 OA
BRANCH  47  49
HETATM   49  O   UNK     0     -15.265  -7.846  15.092  0.00  0.00    -0.776 OA
HETATM   50  H   UNK     0     -14.750  -6.958  15.102  0.00  0.00     0.167 HD
ENDBRANCH  47  49
ENDBRANCH  46  47
ENDBRANCH  45  46
ENDBRANCH  11  45
BRANCH  18  51
HETATM   51  C   UNK     0     -20.796  -1.401  12.531  0.00  0.00     0.051 C 
BRANCH  51  52
HETATM   52  C   UNK     0     -21.619  -1.108  13.776  0.00  0.00     0.114 C 
BRANCH  52  53
HETATM   53  C   UNK     0     -22.324   0.185  13.677  0.00  0.00     0.139 C 
HETATM   54  O   UNK     0     -21.847   1.102  12.991  0.00  0.00    -0.650 OA
BRANCH  53  55
HETATM   55  O   UNK     0     -23.508   0.366  14.351  0.00  0.00    -0.776 OA
HETATM   56  H   UNK     0     -24.323  -0.193  14.260  0.00  0.00     0.167 HD
ENDBRANCH  53  55
ENDBRANCH  52  53
ENDBRANCH  51  52
ENDBRANCH  18  51
TORSDOF 16
ENDMDL
MODEL 18
REMARK VINA RESULT:      -6.9      5.278     10.695
REMARK  16 active torsions:
REMARK  status: ('A' for Active; 'I' for Inactive)
REMARK    1  A    between atoms: C_6  and  C_7 
REMARK    2  A    between atoms: C_7  and  C_8 
REMARK    3  A    between atoms: C_8  and  C_9 
REMARK    4  A    between atoms: C_9  and  O_11 
REMARK    5  A    between atoms: C_16  and  C_17 
REMARK    6  A    between atoms: C_17  and  C_18 
REMARK    7  A    between atoms: C_18  and  C_19 
REMARK    8  A    between atoms: C_19  and  O_21 
REMARK    9  A    between atoms: C_28  and  C_29 
REMARK   10  A    between atoms: C_29  and  C_30 
REMARK   11  A    between atoms: C_30  and  C_31 
REMARK   12  A    between atoms: C_31  and  O_33 
REMARK   13  A    between atoms: C_42  and  C_43 
REMARK   14  A    between atoms: C_43  and  C_44 
REMARK   15  A    between atoms: C_44  and  C_45 
REMARK   16  A    between atoms: C_45  and  O_47 
ROOT
HETATM    1  C   UNK     0     -33.554   1.365   1.023  0.00  0.00     0.051 C 
HETATM    2  C   UNK     0     -32.345   2.026   1.652  0.00  0.00    -0.031 A 
HETATM    3  C   UNK     0     -31.986   2.116   2.987  0.00  0.00     0.021 A 
HETATM    4  N   UNK     0     -30.837   2.827   3.089  0.00  0.00    -0.361 N 
HETATM    5  C   UNK     0     -30.452   3.184   1.846  0.00  0.00     0.022 A 
HETATM    6  C   UNK     0     -31.374   2.702   0.923  0.00  0.00    -0.027 A 
HETATM    7  C   UNK     0     -29.212   3.894   1.402  0.00  0.00     0.115 C 
HETATM    8  C   UNK     0     -27.910   3.467   2.057  0.00  0.00     0.021 A 
HETATM    9  N   UNK     0     -27.535   2.240   2.449  0.00  0.00    -0.361 N 
HETATM   10  C   UNK     0     -26.338   2.344   3.065  0.00  0.00     0.022 A 
HETATM   11  C   UNK     0     -25.926   3.673   3.060  0.00  0.00    -0.027 A 
HETATM   12  C   UNK     0     -26.912   4.386   2.426  0.00  0.00    -0.031 A 
HETATM   13  C   UNK     0     -26.893   5.879   2.183  0.00  0.00     0.051 C 
HETATM   14  C   UNK     0     -25.563   1.208   3.726  0.00  0.00     0.115 C 
HETATM   15  C   UNK     0     -26.305   0.543   4.874  0.00  0.00     0.021 A 
HETATM   16  N   UNK     0     -27.506  -0.064   4.834  0.00  0.00    -0.361 N 
HETATM   17  C   UNK     0     -27.840  -0.457   6.065  0.00  0.00     0.022 A 
HETATM   18  C   UNK     0     -26.802  -0.098   6.948  0.00  0.00    -0.027 A 
HETATM   19  C   UNK     0     -25.846   0.526   6.190  0.00  0.00    -0.031 A 
HETATM   20  C   UNK     0     -24.533   1.044   6.747  0.00  0.00     0.051 C 
HETATM   21  C   UNK     0     -29.106  -1.115   6.565  0.00  0.00     0.115 C 
HETATM   22  C   UNK     0     -30.403  -0.732   5.893  0.00  0.00     0.022 A 
HETATM   23  N   UNK     0     -30.801   0.481   5.487  0.00  0.00    -0.361 N 
HETATM   24  C   UNK     0     -31.958   0.342   4.809  0.00  0.00     0.021 A 
HETATM   25  C   UNK     0     -32.319  -0.991   4.786  0.00  0.00    -0.031 A 
HETATM   26  C   UNK     0     -33.550  -1.635   4.183  0.00  0.00     0.051 C 
HETATM   27  C   UNK     0     -31.340  -1.698   5.473  0.00  0.00    -0.027 A 
HETATM   28  C   UNK     0     -32.744   1.419   4.081  0.00  0.00     0.115 C 
HETATM   29  H   UNK     0     -30.328   3.105   4.041  0.00  0.00     0.165 HD
HETATM   30  H   UNK     0     -28.090   1.290   2.250  0.00  0.00     0.165 HD
HETATM   31  H   UNK     0     -28.110  -0.262   3.910  0.00  0.00     0.165 HD
HETATM   32  H   UNK     0     -30.291   1.453   5.714  0.00  0.00     0.165 HD
ENDROOT
BRANCH   6  33
HETATM   33  C   UNK     0     -31.404   2.835  -0.578  0.00  0.00     0.051 C 
BRANCH  33  34
HETATM   34  C   UNK     0     -30.648   1.702  -1.231  0.00  0.00     0.114 C 
BRANCH  34  35
HETATM   35  C   UNK     0     -29.691   2.305  -2.203  0.00  0.00     0.139 C 
HETATM   36  O   UNK     0     -29.602   3.562  -2.312  0.00  0.00    -0.650 OA
BRANCH  35  37
HETATM   37  O   UNK     0     -28.867   1.537  -3.016  0.00  0.00    -0.776 OA
HETATM   38  H   UNK     0     -28.686   0.564  -2.829  0.00  0.00     0.167 HD
ENDBRANCH  35  37
ENDBRANCH  34  35
ENDBRANCH  33  34
ENDBRANCH   6  33
BRANCH  27  39
HETATM   39  C   UNK     0     -31.420  -3.164   5.721  0.00  0.00     0.051 C 
BRANCH  39  40
HETATM   40  C   UNK     0     -31.684  -3.624   7.084  0.00  0.00     0.114 C 
BRANCH  40  41
HETATM   41  C   UNK     0     -32.585  -2.925   7.972  0.00  0.00     0.139 C 
HETATM   42  O   UNK     0     -32.204  -2.142   8.854  0.00  0.00    -0.650 OA
BRANCH  41  43
HETATM   43  O   UNK     0     -33.987  -3.134   7.841  0.00  0.00    -0.776 OA
HETATM   44  H   UNK     0     -34.443  -3.456   8.687  0.00  0.00     0.167 HD
ENDBRANCH  41  43
ENDBRANCH  40  41
ENDBRANCH  39  40
ENDBRANCH  27  39
BRANCH  11  45
HETATM   45  C   UNK     0     -24.663   4.270   3.619  0.00  0.00     0.051 C 
BRANCH  45  46
HETATM   46  C   UNK     0     -23.472   4.090   2.751  0.00  0.00     0.114 C 
BRANCH  46  47
HETATM   47  C   UNK     0     -22.380   3.543   3.606  0.00  0.00     0.139 C 
HETATM   48  O   UNK     0     -22.667   3.121   4.735  0.00  0.00    -0.650 OA
BRANCH  47  49
HETATM   49  O   UNK     0     -21.084   3.509   3.156  0.00  0.00    -0.776 OA
HETATM   50  H   UNK     0     -20.553   2.633   3.089  0.00  0.00     0.167 HD
ENDBRANCH  47  49
ENDBRANCH  46  47
ENDBRANCH  45  46
ENDBRANCH  11  45
BRANCH  18  51
HETATM   51  C   UNK     0     -26.717  -0.355   8.431  0.00  0.00     0.051 C 
BRANCH  51  52
HETATM   52  C   UNK     0     -26.206  -1.780   8.587  0.00  0.00     0.114 C 
BRANCH  52  53
HETATM   53  C   UNK     0     -24.778  -1.814   8.957  0.00  0.00     0.139 C 
HETATM   54  O   UNK     0     -23.941  -2.273   8.163  0.00  0.00    -0.650 OA
BRANCH  53  55
HETATM   55  O   UNK     0     -24.381  -1.338  10.183  0.00  0.00    -0.776 OA
HETATM   56  H   UNK     0     -24.979  -1.112  10.943  0.00  0.00     0.167 HD
ENDBRANCH  53  55
ENDBRANCH  52  53
ENDBRANCH  51  52
ENDBRANCH  18  51
TORSDOF 16
ENDMDL
MODEL 19
REMARK VINA RESULT:      -6.9     20.886     24.696
REMARK  16 active torsions:
REMARK  status: ('A' for Active; 'I' for Inactive)
REMARK    1  A    between atoms: C_6  and  C_7 
REMARK    2  A    between atoms: C_7  and  C_8 
REMARK    3  A    between atoms: C_8  and  C_9 
REMARK    4  A    between atoms: C_9  and  O_11 
REMARK    5  A    between atoms: C_16  and  C_17 
REMARK    6  A    between atoms: C_17  and  C_18 
REMARK    7  A    between atoms: C_18  and  C_19 
REMARK    8  A    between atoms: C_19  and  O_21 
REMARK    9  A    between atoms: C_28  and  C_29 
REMARK   10  A    between atoms: C_29  and  C_30 
REMARK   11  A    between atoms: C_30  and  C_31 
REMARK   12  A    between atoms: C_31  and  O_33 
REMARK   13  A    between atoms: C_42  and  C_43 
REMARK   14  A    between atoms: C_43  and  C_44 
REMARK   15  A    between atoms: C_44  and  C_45 
REMARK   16  A    between atoms: C_45  and  O_47 
ROOT
HETATM    1  C   UNK     0      -9.767   7.841  13.220  0.00  0.00     0.051 C 
HETATM    2  C   UNK     0     -10.247   6.809  14.219  0.00  0.00    -0.031 A 
HETATM    3  C   UNK     0     -11.540   6.414  14.524  0.00  0.00     0.021 A 
HETATM    4  N   UNK     0     -11.498   5.482  15.505  0.00  0.00    -0.361 N 
HETATM    5  C   UNK     0     -10.205   5.268  15.827  0.00  0.00     0.022 A 
HETATM    6  C   UNK     0      -9.396   6.084  15.043  0.00  0.00    -0.027 A 
HETATM    7  C   UNK     0      -9.613   4.276  16.778  0.00  0.00     0.115 C 
HETATM    8  C   UNK     0     -10.199   2.875  16.755  0.00  0.00     0.021 A 
HETATM    9  N   UNK     0     -10.658   2.178  15.704  0.00  0.00    -0.361 N 
HETATM   10  C   UNK     0     -11.170   1.017  16.162  0.00  0.00     0.022 A 
HETATM   11  C   UNK     0     -11.029   0.960  17.546  0.00  0.00    -0.027 A 
HETATM   12  C   UNK     0     -10.417   2.127  17.926  0.00  0.00    -0.031 A 
HETATM   13  C   UNK     0     -10.056   2.503  19.345  0.00  0.00     0.051 C 
HETATM   14  C   UNK     0     -11.858  -0.058  15.325  0.00  0.00     0.115 C 
HETATM   15  C   UNK     0     -13.108   0.427  14.609  0.00  0.00     0.021 A 
HETATM   16  N   UNK     0     -13.208   1.433  13.720  0.00  0.00    -0.361 N 
HETATM   17  C   UNK     0     -14.488   1.589  13.375  0.00  0.00     0.022 A 
HETATM   18  C   UNK     0     -15.259   0.632  14.065  0.00  0.00    -0.027 A 
HETATM   19  C   UNK     0     -14.383  -0.090  14.833  0.00  0.00    -0.031 A 
HETATM   20  C   UNK     0     -14.795  -1.255  15.714  0.00  0.00     0.051 C 
HETATM   21  C   UNK     0     -15.133   2.616  12.473  0.00  0.00     0.115 C 
HETATM   22  C   UNK     0     -14.533   4.003  12.454  0.00  0.00     0.022 A 
HETATM   23  N   UNK     0     -14.065   4.719  13.484  0.00  0.00    -0.361 N 
HETATM   24  C   UNK     0     -13.489   5.836  12.996  0.00  0.00     0.021 A 
HETATM   25  C   UNK     0     -13.599   5.845  11.618  0.00  0.00    -0.031 A 
HETATM   26  C   UNK     0     -13.145   6.900  10.632  0.00  0.00     0.051 C 
HETATM   27  C   UNK     0     -14.264   4.681  11.248  0.00  0.00    -0.027 A 
HETATM   28  C   UNK     0     -12.741   6.909  13.767  0.00  0.00     0.115 C 
HETATM   29  H   UNK     0     -12.383   5.011  15.991  0.00  0.00     0.165 HD
HETATM   30  H   UNK     0     -10.576   2.481  14.631  0.00  0.00     0.165 HD
HETATM   31  H   UNK     0     -12.351   2.015  13.290  0.00  0.00     0.165 HD
HETATM   32  H   UNK     0     -14.174   4.463  14.570  0.00  0.00     0.165 HD
ENDROOT
BRANCH   6  33
HETATM   33  C   UNK     0      -7.895   6.227  15.020  0.00  0.00     0.051 C 
BRANCH  33  34
HETATM   34  C   UNK     0      -7.471   7.524  15.667  0.00  0.00     0.114 C 
BRANCH  34  35
HETATM   35  C   UNK     0      -7.441   7.299  17.141  0.00  0.00     0.139 C 
HETATM   36  O   UNK     0      -6.874   6.273  17.617  0.00  0.00    -0.650 OA
BRANCH  35  37
HETATM   37  O   UNK     0      -8.018   8.182  18.046  0.00  0.00    -0.776 OA
HETATM   38  H   UNK     0      -9.016   8.302  18.114  0.00  0.00     0.167 HD
ENDBRANCH  35  37
ENDBRANCH  34  35
ENDBRANCH  33  34
ENDBRANCH   6  33
BRANCH  27  39
HETATM   39  C   UNK     0     -14.632   4.371   9.840  0.00  0.00     0.051 C 
BRANCH  39  40
HETATM   40  C   UNK     0     -13.951   3.261   9.173  0.00  0.00     0.114 C 
BRANCH  40  41
HETATM   41  C   UNK     0     -13.111   3.458   8.013  0.00  0.00     0.139 C 
HETATM   42  O   UNK     0     -12.318   4.402   7.895  0.00  0.00    -0.650 OA
BRANCH  41  43
HETATM   43  O   UNK     0     -13.187   2.526   6.939  0.00  0.00    -0.776 OA
HETATM   44  H   UNK     0     -13.809   2.801   6.189  0.00  0.00     0.167 HD
ENDBRANCH  41  43
ENDBRANCH  40  41
ENDBRANCH  39  40
ENDBRANCH  27  39
BRANCH  11  45
HETATM   45  C   UNK     0     -11.441  -0.137  18.490  0.00  0.00     0.051 C 
BRANCH  45  46
HETATM   46  C   UNK     0     -10.402  -1.176  18.704  0.00  0.00     0.114 C 
BRANCH  46  47
HETATM   47  C   UNK     0     -10.760  -2.343  17.847  0.00  0.00     0.139 C 
HETATM   48  O   UNK     0     -11.816  -2.947  18.080  0.00  0.00    -0.650 OA
BRANCH  47  49
HETATM   49  O   UNK     0      -9.939  -2.740  16.822  0.00  0.00    -0.776 OA
HETATM   50  H   UNK     0     -10.124  -3.588  16.273  0.00  0.00     0.167 HD
ENDBRANCH  47  49
ENDBRANCH  46  47
ENDBRANCH  45  46
ENDBRANCH  11  45
BRANCH  18  51
HETATM   51  C   UNK     0     -16.746   0.405  13.981  0.00  0.00     0.051 C 
BRANCH  51  52
HETATM   52  C   UNK     0     -16.959  -0.609  12.867  0.00  0.00     0.114 C 
BRANCH  52  53
HETATM   53  C   UNK     0     -18.375  -1.007  12.750  0.00  0.00     0.139 C 
HETATM   54  O   UNK     0     -18.709  -2.185  12.954  0.00  0.00    -0.650 OA
BRANCH  53  55
HETATM   55  O   UNK     0     -19.319  -0.068  12.410  0.00  0.00    -0.776 OA
HETATM   56  H   UNK     0     -20.170  -0.243  11.930  0.00  0.00     0.167 HD
ENDBRANCH  53  55
ENDBRANCH  52  53
ENDBRANCH  51  52
ENDBRANCH  18  51
TORSDOF 16
ENDMDL
MODEL 20
REMARK VINA RESULT:      -6.7     19.017     21.798
REMARK  16 active torsions:
REMARK  status: ('A' for Active; 'I' for Inactive)
REMARK    1  A    between atoms: C_6  and  C_7 
REMARK    2  A    between atoms: C_7  and  C_8 
REMARK    3  A    between atoms: C_8  and  C_9 
REMARK    4  A    between atoms: C_9  and  O_11 
REMARK    5  A    between atoms: C_16  and  C_17 
REMARK    6  A    between atoms: C_17  and  C_18 
REMARK    7  A    between atoms: C_18  and  C_19 
REMARK    8  A    between atoms: C_19  and  O_21 
REMARK    9  A    between atoms: C_28  and  C_29 
REMARK   10  A    between atoms: C_29  and  C_30 
REMARK   11  A    between atoms: C_30  and  C_31 
REMARK   12  A    between atoms: C_31  and  O_33 
REMARK   13  A    between atoms: C_42  and  C_43 
REMARK   14  A    between atoms: C_43  and  C_44 
REMARK   15  A    between atoms: C_44  and  C_45 
REMARK   16  A    between atoms: C_45  and  O_47 
ROOT
HETATM    1  C   UNK     0     -19.123  -3.652  17.255  0.00  0.00     0.051 C 
HETATM    2  C   UNK     0     -18.589  -2.359  16.671  0.00  0.00    -0.031 A 
HETATM    3  C   UNK     0     -17.763  -1.408  17.249  0.00  0.00     0.021 A 
HETATM    4  N   UNK     0     -17.569  -0.398  16.368  0.00  0.00    -0.361 N 
HETATM    5  C   UNK     0     -18.245  -0.690  15.238  0.00  0.00     0.022 A 
HETATM    6  C   UNK     0     -18.897  -1.908  15.394  0.00  0.00    -0.027 A 
HETATM    7  C   UNK     0     -18.285   0.047  13.935  0.00  0.00     0.115 C 
HETATM    8  C   UNK     0     -16.963   0.585  13.416  0.00  0.00     0.021 A 
HETATM    9  N   UNK     0     -15.741   0.040  13.517  0.00  0.00    -0.361 N 
HETATM   10  C   UNK     0     -14.850   0.909  12.995  0.00  0.00     0.022 A 
HETATM   11  C   UNK     0     -15.517   2.041  12.537  0.00  0.00    -0.027 A 
HETATM   12  C   UNK     0     -16.849   1.843  12.799  0.00  0.00    -0.031 A 
HETATM   13  C   UNK     0     -17.959   2.815  12.467  0.00  0.00     0.051 C 
HETATM   14  C   UNK     0     -13.334   0.732  12.956  0.00  0.00     0.115 C 
HETATM   15  C   UNK     0     -12.693   0.610  14.329  0.00  0.00     0.021 A 
HETATM   16  N   UNK     0     -12.953  -0.308  15.278  0.00  0.00    -0.361 N 
HETATM   17  C   UNK     0     -12.231  -0.031  16.366  0.00  0.00     0.022 A 
HETATM   18  C   UNK     0     -11.456   1.118  16.110  0.00  0.00    -0.027 A 
HETATM   19  C   UNK     0     -11.753   1.508  14.830  0.00  0.00    -0.031 A 
HETATM   20  C   UNK     0     -11.106   2.694  14.137  0.00  0.00     0.051 C 
HETATM   21  C   UNK     0     -12.211  -0.707  17.718  0.00  0.00     0.115 C 
HETATM   22  C   UNK     0     -13.511  -1.286  18.227  0.00  0.00     0.022 A 
HETATM   23  N   UNK     0     -14.742  -0.767  18.137  0.00  0.00    -0.361 N 
HETATM   24  C   UNK     0     -15.621  -1.683  18.592  0.00  0.00     0.021 A 
HETATM   25  C   UNK     0     -14.938  -2.814  18.994  0.00  0.00    -0.031 A 
HETATM   26  C   UNK     0     -15.482  -4.088  19.608  0.00  0.00     0.051 C 
HETATM   27  C   UNK     0     -13.586  -2.584  18.771  0.00  0.00    -0.027 A 
HETATM   28  C   UNK     0     -17.137  -1.590  18.603  0.00  0.00     0.115 C 
HETATM   29  H   UNK     0     -16.987   0.532  16.565  0.00  0.00     0.165 HD
HETATM   30  H   UNK     0     -15.509  -0.980  13.911  0.00  0.00     0.165 HD
HETATM   31  H   UNK     0     -13.624  -1.199  15.163  0.00  0.00     0.165 HD
HETATM   32  H   UNK     0     -14.999   0.268  17.792  0.00  0.00     0.165 HD
ENDROOT
BRANCH   6  33
HETATM   33  C   UNK     0     -19.781  -2.666  14.436  0.00  0.00     0.051 C 
BRANCH  33  34
HETATM   34  C   UNK     0     -18.956  -3.557  13.537  0.00  0.00     0.114 C 
BRANCH  34  35
HETATM   35  C   UNK     0     -19.447  -3.361  12.143  0.00  0.00     0.139 C 
HETATM   36  O   UNK     0     -19.611  -2.193  11.683  0.00  0.00    -0.650 OA
BRANCH  35  37
HETATM   37  O   UNK     0     -19.738  -4.422  11.295  0.00  0.00    -0.776 OA
HETATM   38  H   UNK     0     -19.018  -4.926  10.802  0.00  0.00     0.167 HD
ENDBRANCH  35  37
ENDBRANCH  34  35
ENDBRANCH  33  34
ENDBRANCH   6  33
BRANCH  27  39
HETATM   39  C   UNK     0     -12.525  -3.557  19.149  0.00  0.00     0.051 C 
BRANCH  39  40
HETATM   40  C   UNK     0     -11.798  -3.339  20.399  0.00  0.00     0.114 C 
BRANCH  40  41
HETATM   41  C   UNK     0     -10.788  -2.314  20.536  0.00  0.00     0.139 C 
HETATM   42  O   UNK     0     -11.012  -1.193  21.011  0.00  0.00    -0.650 OA
BRANCH  41  43
HETATM   43  O   UNK     0      -9.460  -2.591  20.105  0.00  0.00    -0.776 OA
HETATM   44  H   UNK     0      -9.349  -3.481  19.634  0.00  0.00     0.167 HD
ENDBRANCH  41  43
ENDBRANCH  40  41
ENDBRANCH  39  40
ENDBRANCH  27  39
BRANCH  11  45
HETATM   45  C   UNK     0     -14.948   3.267  11.875  0.00  0.00     0.051 C 
BRANCH  45  46
HETATM   46  C   UNK     0     -14.376   3.018  10.527  0.00  0.00     0.114 C 
BRANCH  46  47
HETATM   47  C   UNK     0     -15.482   3.185   9.541  0.00  0.00     0.139 C 
HETATM   48  O   UNK     0     -16.259   4.140   9.678  0.00  0.00    -0.650 OA
BRANCH  47  49
HETATM   49  O   UNK     0     -15.638   2.299   8.505  0.00  0.00    -0.776 OA
HETATM   50  H   UNK     0     -16.518   2.224   7.980  0.00  0.00     0.167 HD
ENDBRANCH  47  49
ENDBRANCH  46  47
ENDBRANCH  45  46
ENDBRANCH  11  45
BRANCH  18  51
HETATM   51  C   UNK     0     -10.470   1.794  17.027  0.00  0.00     0.051 C 
BRANCH  51  52
HETATM   52  C   UNK     0      -9.157   1.040  16.871  0.00  0.00     0.114 C 
BRANCH  52  53
HETATM   53  C   UNK     0      -8.436   0.921  18.152  0.00  0.00     0.139 C 
HETATM   54  O   UNK     0      -7.424   1.609  18.362  0.00  0.00    -0.650 OA
BRANCH  53  55
HETATM   55  O   UNK     0      -8.889   0.044  19.108  0.00  0.00    -0.776 OA
HETATM   56  H   UNK     0      -8.325  -0.466  19.746  0.00  0.00     0.167 HD
ENDBRANCH  53  55
ENDBRANCH  52  53
ENDBRANCH  51  52
ENDBRANCH  18  51
TORSDOF 16
ENDMDL
