MODEL 1
REMARK VINA RESULT:     -10.5      0.000      0.000
REMARK  28 active torsions:
REMARK  status: ('A' for Active; 'I' for Inactive)
REMARK    1  A    between atoms: C_2  and  O_3 
REMARK    2  A    between atoms: C_2  and  C_4 
REMARK    3  A    between atoms: C_4  and  C_5 
REMARK    4  A    between atoms: C_5  and  C_6 
REMARK    5  A    between atoms: C_7  and  C_8 
REMARK    6  A    between atoms: C_8  and  C_9 
REMARK    7  A    between atoms: C_9  and  O_11 
REMARK    8  A    between atoms: C_28  and  C_29 
REMARK    9  A    between atoms: C_29  and  C_30 
REMARK   10  A    between atoms: C_30  and  O_32 
REMARK   11  A    between atoms: C_33  and  C_34 
REMARK   12  A    between atoms: C_34  and  C_35 
REMARK   13  A    between atoms: C_35  and  C_36 
REMARK   14  A    between atoms: C_36  and  O_38 
REMARK   15  A    between atoms: C_39  and  C_40 
REMARK   16  A    between atoms: C_40  and  C_41 
REMARK   17  A    between atoms: C_41  and  C_42 
REMARK   18  A    between atoms: C_42  and  O_44 
REMARK   19  A    between atoms: C_45  and  C_46 
REMARK   20  A    between atoms: C_46  and  C_47 
REMARK   21  A    between atoms: C_47  and  O_49 
REMARK   22  A    between atoms: C_50  and  C_51 
REMARK   23  A    between atoms: C_51  and  C_52 
REMARK   24  A    between atoms: C_52  and  O_54 
REMARK   25  A    between atoms: C_55  and  C_56 
REMARK   26  A    between atoms: C_56  and  C_57 
REMARK   27  A    between atoms: C_57  and  C_58 
REMARK   28  A    between atoms: C_58  and  O_60 
ROOT
ATOM      1  O   UNK d   0      18.738  27.623  -6.449  0.00  0.00    -0.650 OA
ATOM      2  C   UNK d   0      17.925  26.944  -7.114  0.00  0.00     0.139 C 
ENDROOT
BRANCH   2   3
ATOM      3  O   UNK d   0      18.286  26.490  -8.360  0.00  0.00    -0.776 OA
ATOM      4  H   UNK d   0      19.106  26.865  -8.841  0.00  0.00     0.167 HD
ENDBRANCH   2   3
BRANCH   2   5
ATOM      5  C   UNK d   0      16.578  26.633  -6.557  0.00  0.00     0.115 C 
BRANCH   5   6
ATOM      6  C   UNK d   0      16.707  25.717  -5.370  0.00  0.00     0.052 C 
BRANCH   6   7
ATOM      7  C   UNK d   0      15.438  24.950  -5.086  0.00  0.00    -0.020 A 
ATOM      8  C   UNK d   0      14.671  25.039  -4.030  0.00  0.00    -0.011 A 
ATOM      9  C   UNK d   0      13.572  24.103  -4.199  0.00  0.00     0.067 A 
ATOM     10  C   UNK d   0      12.433  23.736  -3.466  0.00  0.00     0.062 C 
ATOM     11  N   UNK d   0      13.752  23.482  -5.384  0.00  0.00    -0.248 NA
ATOM     12  C   UNK d   0      11.330  23.006  -3.923  0.00  0.00     0.041 A 
ATOM     13  N   UNK d   0      11.253  21.908  -4.698  0.00  0.00    -0.355 N 
ATOM     14  C   UNK d   0      10.036  23.461  -3.609  0.00  0.00    -0.022 A 
ATOM     15  C   UNK d   0       9.943  21.658  -4.890  0.00  0.00     0.042 A 
ATOM     16  H   UNK d   0      12.106  21.309  -5.085  0.00  0.00     0.166 HD
ATOM     17  C   UNK d   0       9.306  20.634  -5.617  0.00  0.00     0.062 C 
ATOM     18  C   UNK d   0       9.150  22.611  -4.223  0.00  0.00    -0.013 A 
ATOM     19  C   UNK d   0       9.600  20.153  -6.868  0.00  0.00     0.067 A 
ATOM     20  N   UNK d   0      10.752  20.551  -7.413  0.00  0.00    -0.248 NA
ATOM     21  C   UNK d   0       8.949  19.282  -7.832  0.00  0.00    -0.011 A 
ATOM     22  C   UNK d   0      10.901  20.004  -8.664  0.00  0.00     0.066 A 
ATOM     23  C   UNK d   0      12.079  20.306  -9.333  0.00  0.00     0.062 C 
ATOM     24  C   UNK d   0       9.713  19.202  -8.883  0.00  0.00    -0.020 A 
ATOM     25  C   UNK d   0      13.180  21.029  -8.851  0.00  0.00     0.041 A 
ATOM     26  N   UNK d   0      13.257  22.130  -8.093  0.00  0.00    -0.355 N 
ATOM     27  C   UNK d   0      14.478  20.570  -9.163  0.00  0.00    -0.022 A 
ATOM     28  C   UNK d   0      14.561  22.386  -7.908  0.00  0.00     0.042 A 
ATOM     29  H   UNK d   0      12.398  22.737  -7.714  0.00  0.00     0.166 HD
ATOM     30  C   UNK d   0      15.209  23.407  -7.194  0.00  0.00     0.062 C 
ATOM     31  C   UNK d   0      15.358  21.422  -8.569  0.00  0.00    -0.013 A 
ATOM     32  C   UNK d   0      14.858  23.948  -5.967  0.00  0.00     0.066 A 
BRANCH   8  33
ATOM     33  C   UNK d   0      14.869  25.918  -2.864  0.00  0.00     0.151 C 
BRANCH  33  34
ATOM     34  C   UNK d   0      14.031  27.130  -2.914  0.00  0.00     0.143 C 
ATOM     35  O   UNK d   0      13.785  27.776  -1.885  0.00  0.00    -0.650 OA
BRANCH  34  36
ATOM     36  O   UNK d   0      13.516  27.546  -4.120  0.00  0.00    -0.776 OA
ATOM     37  H   UNK d   0      13.914  28.351  -4.621  0.00  0.00     0.167 HD
ENDBRANCH  34  36
ENDBRANCH  33  34
ENDBRANCH   8  33
BRANCH  31  38
ATOM     38  C   UNK d   0      16.865  21.322  -8.615  0.00  0.00     0.151 C 
BRANCH  38  39
ATOM     39  C   UNK d   0      17.471  22.349  -9.435  0.00  0.00     0.143 C 
ATOM     40  O   UNK d   0      18.154  22.082 -10.440  0.00  0.00    -0.650 OA
BRANCH  39  41
ATOM     41  O   UNK d   0      17.292  23.690  -9.099  0.00  0.00    -0.776 OA
ATOM     42  H   UNK d   0      16.481  24.165  -9.508  0.00  0.00     0.167 HD
ENDBRANCH  39  41
ENDBRANCH  38  39
ENDBRANCH  31  38
BRANCH  27  43
ATOM     43  C   UNK d   0      14.901  19.380  -9.987  0.00  0.00     0.052 C 
BRANCH  43  44
ATOM     44  C   UNK d   0      15.016  18.120  -9.191  0.00  0.00     0.115 C 
BRANCH  44  45
ATOM     45  C   UNK d   0      14.072  17.147  -9.799  0.00  0.00     0.139 C 
ATOM     46  O   UNK d   0      14.448  16.514 -10.816  0.00  0.00    -0.650 OA
BRANCH  45  47
ATOM     47  O   UNK d   0      12.813  16.910  -9.291  0.00  0.00    -0.776 OA
ATOM     48  H   UNK d   0      12.040  16.530  -9.862  0.00  0.00     0.167 HD
ENDBRANCH  45  47
ENDBRANCH  44  45
ENDBRANCH  43  44
ENDBRANCH  27  43
BRANCH  24  49
ATOM     49  C   UNK d   0       9.454  18.393 -10.086  0.00  0.00     0.052 C 
BRANCH  49  50
ATOM     50  C   UNK d   0       8.076  18.679 -10.624  0.00  0.00     0.115 C 
BRANCH  50  51
ATOM     51  C   UNK d   0       7.873  19.960 -11.287  0.00  0.00     0.139 C 
ATOM     52  O   UNK d   0       8.738  20.867 -11.283  0.00  0.00    -0.650 OA
BRANCH  51  53
ATOM     53  O   UNK d   0       6.683  20.207 -11.953  0.00  0.00    -0.776 OA
ATOM     54  H   UNK d   0       6.413  21.163 -12.105  0.00  0.00     0.167 HD
ENDBRANCH  51  53
ENDBRANCH  50  51
ENDBRANCH  49  50
ENDBRANCH  24  49
BRANCH  21  55
ATOM     55  C   UNK d   0       7.632  18.617  -7.601  0.00  0.00     0.151 C 
BRANCH  55  56
ATOM     56  C   UNK d   0       6.887  19.238  -6.495  0.00  0.00     0.143 C 
ATOM     57  O   UNK d   0       6.141  20.224  -6.654  0.00  0.00    -0.650 OA
BRANCH  56  58
ATOM     58  O   UNK d   0       7.034  18.688  -5.223  0.00  0.00    -0.776 OA
ATOM     59  H   UNK d   0       7.190  17.664  -5.206  0.00  0.00     0.167 HD
ENDBRANCH  56  58
ENDBRANCH  55  56
ENDBRANCH  21  55
BRANCH  18  60
ATOM     60  C   UNK d   0       7.647  22.734  -4.157  0.00  0.00     0.151 C 
BRANCH  60  61
ATOM     61  C   UNK d   0       7.179  21.559  -3.406  0.00  0.00     0.143 C 
ATOM     62  O   UNK d   0       7.766  20.979  -2.493  0.00  0.00    -0.650 OA
BRANCH  61  63
ATOM     63  O   UNK d   0       5.912  21.061  -3.796  0.00  0.00    -0.776 OA
ATOM     64  H   UNK d   0       5.260  20.714  -3.115  0.00  0.00     0.167 HD
ENDBRANCH  61  63
ENDBRANCH  60  61
ENDBRANCH  18  60
BRANCH  14  65
ATOM     65  C   UNK d   0       9.578  24.567  -2.701  0.00  0.00     0.052 C 
BRANCH  65  66
ATOM     66  C   UNK d   0      10.664  25.525  -2.359  0.00  0.00     0.115 C 
BRANCH  66  67
ATOM     67  C   UNK d   0      10.356  26.916  -2.182  0.00  0.00     0.139 C 
ATOM     68  O   UNK d   0       9.463  27.448  -2.939  0.00  0.00    -0.650 OA
BRANCH  67  69
ATOM     69  O   UNK d   0      10.917  27.805  -1.265  0.00  0.00    -0.776 OA
ATOM     70  H   UNK d   0      10.766  27.578  -0.272  0.00  0.00     0.167 HD
ENDBRANCH  67  69
ENDBRANCH  66  67
ENDBRANCH  65  66
ENDBRANCH  14  65
ENDBRANCH   6   7
ENDBRANCH   5   6
ENDBRANCH   2   5
TORSDOF 28
ENDMDL
MODEL 2
REMARK VINA RESULT:     -10.1      1.708      3.967
REMARK  28 active torsions:
REMARK  status: ('A' for Active; 'I' for Inactive)
REMARK    1  A    between atoms: C_2  and  O_3 
REMARK    2  A    between atoms: C_2  and  C_4 
REMARK    3  A    between atoms: C_4  and  C_5 
REMARK    4  A    between atoms: C_5  and  C_6 
REMARK    5  A    between atoms: C_7  and  C_8 
REMARK    6  A    between atoms: C_8  and  C_9 
REMARK    7  A    between atoms: C_9  and  O_11 
REMARK    8  A    between atoms: C_28  and  C_29 
REMARK    9  A    between atoms: C_29  and  C_30 
REMARK   10  A    between atoms: C_30  and  O_32 
REMARK   11  A    between atoms: C_33  and  C_34 
REMARK   12  A    between atoms: C_34  and  C_35 
REMARK   13  A    between atoms: C_35  and  C_36 
REMARK   14  A    between atoms: C_36  and  O_38 
REMARK   15  A    between atoms: C_39  and  C_40 
REMARK   16  A    between atoms: C_40  and  C_41 
REMARK   17  A    between atoms: C_41  and  C_42 
REMARK   18  A    between atoms: C_42  and  O_44 
REMARK   19  A    between atoms: C_45  and  C_46 
REMARK   20  A    between atoms: C_46  and  C_47 
REMARK   21  A    between atoms: C_47  and  O_49 
REMARK   22  A    between atoms: C_50  and  C_51 
REMARK   23  A    between atoms: C_51  and  C_52 
REMARK   24  A    between atoms: C_52  and  O_54 
REMARK   25  A    between atoms: C_55  and  C_56 
REMARK   26  A    between atoms: C_56  and  C_57 
REMARK   27  A    between atoms: C_57  and  C_58 
REMARK   28  A    between atoms: C_58  and  O_60 
ROOT
ATOM      1  O   UNK d   0      16.815  26.928  -3.888  0.00  0.00    -0.650 OA
ATOM      2  C   UNK d   0      16.079  26.665  -2.911  0.00  0.00     0.139 C 
ENDROOT
BRANCH   2   3
ATOM      3  O   UNK d   0      16.299  25.513  -2.194  0.00  0.00    -0.776 OA
ATOM      4  H   UNK d   0      15.936  25.406  -1.244  0.00  0.00     0.167 HD
ENDBRANCH   2   3
BRANCH   2   5
ATOM      5  C   UNK d   0      14.977  27.594  -2.532  0.00  0.00     0.115 C 
BRANCH   5   6
ATOM      6  C   UNK d   0      13.997  27.723  -3.667  0.00  0.00     0.052 C 
BRANCH   6   7
ATOM      7  C   UNK d   0      13.236  26.445  -3.926  0.00  0.00    -0.020 A 
ATOM      8  C   UNK d   0      12.237  25.958  -3.236  0.00  0.00    -0.011 A 
ATOM      9  C   UNK d   0      11.836  24.706  -3.857  0.00  0.00     0.067 A 
ATOM     10  C   UNK d   0      10.850  23.733  -3.630  0.00  0.00     0.062 C 
ATOM     11  N   UNK d   0      12.648  24.506  -4.916  0.00  0.00    -0.248 NA
ATOM     12  C   UNK d   0      10.435  22.726  -4.508  0.00  0.00     0.041 A 
ATOM     13  N   UNK d   0      11.139  21.905  -5.311  0.00  0.00    -0.355 N 
ATOM     14  C   UNK d   0       9.058  22.501  -4.684  0.00  0.00    -0.022 A 
ATOM     15  C   UNK d   0      10.243  21.171  -5.997  0.00  0.00     0.042 A 
ATOM     16  H   UNK d   0      12.247  21.833  -5.377  0.00  0.00     0.166 HD
ATOM     17  C   UNK d   0      10.437  20.165  -6.965  0.00  0.00     0.062 C 
ATOM     18  C   UNK d   0       8.928  21.516  -5.632  0.00  0.00    -0.013 A 
ATOM     19  C   UNK d   0      11.296  20.150  -8.034  0.00  0.00     0.067 A 
ATOM     20  N   UNK d   0      12.220  21.114  -8.081  0.00  0.00    -0.248 NA
ATOM     21  C   UNK d   0      11.477  19.326  -9.217  0.00  0.00    -0.011 A 
ATOM     22  C   UNK d   0      12.991  20.979  -9.209  0.00  0.00     0.066 A 
ATOM     23  C   UNK d   0      14.020  21.897  -9.365  0.00  0.00     0.062 C 
ATOM     24  C   UNK d   0      12.468  19.819  -9.903  0.00  0.00    -0.020 A 
ATOM     25  C   UNK d   0      14.428  22.893  -8.465  0.00  0.00     0.041 A 
ATOM     26  N   UNK d   0      13.728  23.719  -7.678  0.00  0.00    -0.355 N 
ATOM     27  C   UNK d   0      15.811  23.116  -8.285  0.00  0.00    -0.022 A 
ATOM     28  C   UNK d   0      14.619  24.459  -6.999  0.00  0.00     0.042 A 
ATOM     29  H   UNK d   0      12.615  23.798  -7.621  0.00  0.00     0.166 HD
ATOM     30  C   UNK d   0      14.440  25.470  -6.041  0.00  0.00     0.062 C 
ATOM     31  C   UNK d   0      15.940  24.104  -7.359  0.00  0.00    -0.013 A 
ATOM     32  C   UNK d   0      13.513  25.518  -5.012  0.00  0.00     0.066 A 
BRANCH   8  33
ATOM     33  C   UNK d   0      11.616  26.551  -2.036  0.00  0.00     0.151 C 
BRANCH  33  34
ATOM     34  C   UNK d   0      10.159  26.727  -2.176  0.00  0.00     0.143 C 
ATOM     35  O   UNK d   0       9.692  27.559  -2.966  0.00  0.00    -0.650 OA
BRANCH  34  36
ATOM     36  O   UNK d   0       9.310  25.957  -1.415  0.00  0.00    -0.776 OA
ATOM     37  H   UNK d   0       8.427  25.596  -1.801  0.00  0.00     0.167 HD
ENDBRANCH  34  36
ENDBRANCH  33  34
ENDBRANCH   8  33
BRANCH  31  38
ATOM     38  C   UNK d   0      17.240  24.671  -6.836  0.00  0.00     0.151 C 
BRANCH  38  39
ATOM     39  C   UNK d   0      17.690  25.826  -7.583  0.00  0.00     0.143 C 
ATOM     40  O   UNK d   0      17.368  26.986  -7.272  0.00  0.00    -0.650 OA
BRANCH  39  41
ATOM     41  O   UNK d   0      18.515  25.646  -8.693  0.00  0.00    -0.776 OA
ATOM     42  H   UNK d   0      18.393  24.778  -9.223  0.00  0.00     0.167 HD
ENDBRANCH  39  41
ENDBRANCH  38  39
ENDBRANCH  31  38
BRANCH  27  43
ATOM     43  C   UNK d   0      16.984  22.439  -8.949  0.00  0.00     0.052 C 
BRANCH  43  44
ATOM     44  C   UNK d   0      16.902  20.948  -8.917  0.00  0.00     0.115 C 
BRANCH  44  45
ATOM     45  C   UNK d   0      17.964  20.444  -9.826  0.00  0.00     0.139 C 
ATOM     46  O   UNK d   0      18.864  21.244 -10.185  0.00  0.00    -0.650 OA
BRANCH  45  47
ATOM     47  O   UNK d   0      18.004  19.144 -10.282  0.00  0.00    -0.776 OA
ATOM     48  H   UNK d   0      18.886  18.657 -10.509  0.00  0.00     0.167 HD
ENDBRANCH  45  47
ENDBRANCH  44  45
ENDBRANCH  43  44
ENDBRANCH  27  43
BRANCH  24  49
ATOM     49  C   UNK d   0      13.016  19.270 -11.155  0.00  0.00     0.052 C 
BRANCH  49  50
ATOM     50  C   UNK d   0      13.560  17.883 -10.926  0.00  0.00     0.115 C 
BRANCH  50  51
ATOM     51  C   UNK d   0      14.837  17.776 -10.233  0.00  0.00     0.139 C 
ATOM     52  O   UNK d   0      14.959  17.989  -9.003  0.00  0.00    -0.650 OA
BRANCH  51  53
ATOM     53  O   UNK d   0      15.976  17.427 -10.942  0.00  0.00    -0.776 OA
ATOM     54  H   UNK d   0      15.928  16.635 -11.559  0.00  0.00     0.167 HD
ENDBRANCH  51  53
ENDBRANCH  50  51
ENDBRANCH  49  50
ENDBRANCH  24  49
BRANCH  21  55
ATOM     55  C   UNK d   0      10.644  18.129  -9.537  0.00  0.00     0.151 C 
BRANCH  55  56
ATOM     56  C   UNK d   0       9.206  18.435  -9.510  0.00  0.00     0.143 C 
ATOM     57  O   UNK d   0       8.635  19.077 -10.414  0.00  0.00    -0.650 OA
BRANCH  56  58
ATOM     58  O   UNK d   0       8.466  17.980  -8.420  0.00  0.00    -0.776 OA
ATOM     59  H   UNK d   0       7.586  17.490  -8.665  0.00  0.00     0.167 HD
ENDBRANCH  56  58
ENDBRANCH  55  56
ENDBRANCH  21  55
BRANCH  18  60
ATOM     60  C   UNK d   0       7.616  20.967  -6.134  0.00  0.00     0.151 C 
BRANCH  60  61
ATOM     61  C   UNK d   0       7.260  19.872  -5.219  0.00  0.00     0.143 C 
ATOM     62  O   UNK d   0       7.250  19.906  -3.988  0.00  0.00    -0.650 OA
BRANCH  61  63
ATOM     63  O   UNK d   0       6.892  18.657  -5.847  0.00  0.00    -0.776 OA
ATOM     64  H   UNK d   0       6.780  17.812  -5.316  0.00  0.00     0.167 HD
ENDBRANCH  61  63
ENDBRANCH  60  61
ENDBRANCH  18  60
BRANCH  14  65
ATOM     65  C   UNK d   0       7.871  23.071  -3.961  0.00  0.00     0.052 C 
BRANCH  65  66
ATOM     66  C   UNK d   0       6.899  23.735  -4.871  0.00  0.00     0.115 C 
BRANCH  66  67
ATOM     67  C   UNK d   0       7.173  25.055  -5.364  0.00  0.00     0.139 C 
ATOM     68  O   UNK d   0       7.307  26.012  -4.515  0.00  0.00    -0.650 OA
BRANCH  67  69
ATOM     69  O   UNK d   0       7.321  25.458  -6.691  0.00  0.00    -0.776 OA
ATOM     70  H   UNK d   0       8.268  25.755  -6.966  0.00  0.00     0.167 HD
ENDBRANCH  67  69
ENDBRANCH  66  67
ENDBRANCH  65  66
ENDBRANCH  14  65
ENDBRANCH   6   7
ENDBRANCH   5   6
ENDBRANCH   2   5
TORSDOF 28
ENDMDL
MODEL 3
REMARK VINA RESULT:     -10.1      1.801      4.491
REMARK  28 active torsions:
REMARK  status: ('A' for Active; 'I' for Inactive)
REMARK    1  A    between atoms: C_2  and  O_3 
REMARK    2  A    between atoms: C_2  and  C_4 
REMARK    3  A    between atoms: C_4  and  C_5 
REMARK    4  A    between atoms: C_5  and  C_6 
REMARK    5  A    between atoms: C_7  and  C_8 
REMARK    6  A    between atoms: C_8  and  C_9 
REMARK    7  A    between atoms: C_9  and  O_11 
REMARK    8  A    between atoms: C_28  and  C_29 
REMARK    9  A    between atoms: C_29  and  C_30 
REMARK   10  A    between atoms: C_30  and  O_32 
REMARK   11  A    between atoms: C_33  and  C_34 
REMARK   12  A    between atoms: C_34  and  C_35 
REMARK   13  A    between atoms: C_35  and  C_36 
REMARK   14  A    between atoms: C_36  and  O_38 
REMARK   15  A    between atoms: C_39  and  C_40 
REMARK   16  A    between atoms: C_40  and  C_41 
REMARK   17  A    between atoms: C_41  and  C_42 
REMARK   18  A    between atoms: C_42  and  O_44 
REMARK   19  A    between atoms: C_45  and  C_46 
REMARK   20  A    between atoms: C_46  and  C_47 
REMARK   21  A    between atoms: C_47  and  O_49 
REMARK   22  A    between atoms: C_50  and  C_51 
REMARK   23  A    between atoms: C_51  and  C_52 
REMARK   24  A    between atoms: C_52  and  O_54 
REMARK   25  A    between atoms: C_55  and  C_56 
REMARK   26  A    between atoms: C_56  and  C_57 
REMARK   27  A    between atoms: C_57  and  C_58 
REMARK   28  A    between atoms: C_58  and  O_60 
ROOT
ATOM      1  O   UNK d   0      19.270  23.431 -12.104  0.00  0.00    -0.650 OA
ATOM      2  C   UNK d   0      19.017  23.399 -10.879  0.00  0.00     0.139 C 
ENDROOT
BRANCH   2   3
ATOM      3  O   UNK d   0      19.209  22.231 -10.182  0.00  0.00    -0.776 OA
ATOM      4  H   UNK d   0      18.528  21.912  -9.490  0.00  0.00     0.167 HD
ENDBRANCH   2   3
BRANCH   2   5
ATOM      5  C   UNK d   0      18.510  24.619 -10.188  0.00  0.00     0.115 C 
BRANCH   5   6
ATOM      6  C   UNK d   0      19.057  24.685  -8.788  0.00  0.00     0.052 C 
BRANCH   6   7
ATOM      7  C   UNK d   0      17.969  24.756  -7.743  0.00  0.00    -0.020 A 
ATOM      8  C   UNK d   0      17.948  25.494  -6.663  0.00  0.00    -0.011 A 
ATOM      9  C   UNK d   0      16.705  25.220  -5.961  0.00  0.00     0.067 A 
ATOM     10  C   UNK d   0      16.079  25.679  -4.791  0.00  0.00     0.062 C 
ATOM     11  N   UNK d   0      16.033  24.298  -6.682  0.00  0.00    -0.248 NA
ATOM     12  C   UNK d   0      14.743  25.499  -4.418  0.00  0.00     0.041 A 
ATOM     13  N   UNK d   0      13.940  24.420  -4.490  0.00  0.00    -0.355 N 
ATOM     14  C   UNK d   0      14.021  26.600  -3.922  0.00  0.00    -0.022 A 
ATOM     15  C   UNK d   0      12.725  24.811  -4.060  0.00  0.00     0.042 A 
ATOM     16  H   UNK d   0      14.231  23.399  -4.820  0.00  0.00     0.166 HD
ATOM     17  C   UNK d   0      11.525  24.083  -3.930  0.00  0.00     0.062 C 
ATOM     18  C   UNK d   0      12.737  26.171  -3.695  0.00  0.00    -0.013 A 
ATOM     19  C   UNK d   0      10.950  23.203  -4.811  0.00  0.00     0.067 A 
ATOM     20  N   UNK d   0      11.695  22.814  -5.849  0.00  0.00    -0.248 NA
ATOM     21  C   UNK d   0       9.661  22.546  -4.939  0.00  0.00    -0.011 A 
ATOM     22  C   UNK d   0      10.985  21.951  -6.647  0.00  0.00     0.066 A 
ATOM     23  C   UNK d   0      11.655  21.436  -7.747  0.00  0.00     0.062 C 
ATOM     24  C   UNK d   0       9.686  21.817  -6.017  0.00  0.00    -0.020 A 
ATOM     25  C   UNK d   0      13.002  21.619  -8.097  0.00  0.00     0.041 A 
ATOM     26  N   UNK d   0      13.796  22.695  -8.040  0.00  0.00    -0.355 N 
ATOM     27  C   UNK d   0      13.727  20.512  -8.591  0.00  0.00    -0.022 A 
ATOM     28  C   UNK d   0      15.006  22.310  -8.477  0.00  0.00     0.042 A 
ATOM     29  H   UNK d   0      13.499  23.723  -7.718  0.00  0.00     0.166 HD
ATOM     30  C   UNK d   0      16.205  23.025  -8.620  0.00  0.00     0.062 C 
ATOM     31  C   UNK d   0      14.996  20.941  -8.833  0.00  0.00    -0.013 A 
ATOM     32  C   UNK d   0      16.740  23.977  -7.767  0.00  0.00     0.066 A 
BRANCH   8  33
ATOM     33  C   UNK d   0      18.988  26.438  -6.214  0.00  0.00     0.151 C 
BRANCH  33  34
ATOM     34  C   UNK d   0      18.653  27.841  -6.514  0.00  0.00     0.143 C 
ATOM     35  O   UNK d   0      17.642  28.128  -7.170  0.00  0.00    -0.650 OA
BRANCH  34  36
ATOM     36  O   UNK d   0      19.477  28.845  -6.058  0.00  0.00    -0.776 OA
ATOM     37  H   UNK d   0      19.528  29.753  -6.539  0.00  0.00     0.167 HD
ENDBRANCH  34  36
ENDBRANCH  33  34
ENDBRANCH   8  33
BRANCH  31  38
ATOM     38  C   UNK d   0      16.136  20.100  -9.359  0.00  0.00     0.151 C 
BRANCH  38  39
ATOM     39  C   UNK d   0      16.325  18.878  -8.607  0.00  0.00     0.143 C 
ATOM     40  O   UNK d   0      16.972  17.915  -9.054  0.00  0.00    -0.650 OA
BRANCH  39  41
ATOM     41  O   UNK d   0      15.767  18.762  -7.334  0.00  0.00    -0.776 OA
ATOM     42  H   UNK d   0      16.379  18.407  -6.592  0.00  0.00     0.167 HD
ENDBRANCH  39  41
ENDBRANCH  38  39
ENDBRANCH  31  38
BRANCH  27  43
ATOM     43  C   UNK d   0      13.266  19.097  -8.837  0.00  0.00     0.052 C 
BRANCH  43  44
ATOM     44  C   UNK d   0      13.010  18.802 -10.279  0.00  0.00     0.115 C 
BRANCH  44  45
ATOM     45  C   UNK d   0      13.607  17.469 -10.552  0.00  0.00     0.139 C 
ATOM     46  O   UNK d   0      13.281  16.511  -9.809  0.00  0.00    -0.650 OA
BRANCH  45  47
ATOM     47  O   UNK d   0      14.493  17.244 -11.584  0.00  0.00    -0.776 OA
ATOM     48  H   UNK d   0      15.321  17.838 -11.751  0.00  0.00     0.167 HD
ENDBRANCH  45  47
ENDBRANCH  44  45
ENDBRANCH  43  44
ENDBRANCH  27  43
BRANCH  24  49
ATOM     49  C   UNK d   0       8.599  20.952  -6.507  0.00  0.00     0.052 C 
BRANCH  49  50
ATOM     50  C   UNK d   0       9.156  19.846  -7.365  0.00  0.00     0.115 C 
BRANCH  50  51
ATOM     51  C   UNK d   0       8.199  18.935  -7.979  0.00  0.00     0.139 C 
ATOM     52  O   UNK d   0       8.542  18.025  -8.770  0.00  0.00    -0.650 OA
BRANCH  51  53
ATOM     53  O   UNK d   0       6.848  19.062  -7.691  0.00  0.00    -0.776 OA
ATOM     54  H   UNK d   0       6.323  19.768  -8.178  0.00  0.00     0.167 HD
ENDBRANCH  51  53
ENDBRANCH  50  51
ENDBRANCH  49  50
ENDBRANCH  24  49
BRANCH  21  55
ATOM     55  C   UNK d   0       8.539  22.710  -3.967  0.00  0.00     0.151 C 
BRANCH  55  56
ATOM     56  C   UNK d   0       8.550  21.668  -2.930  0.00  0.00     0.143 C 
ATOM     57  O   UNK d   0       7.742  20.719  -2.918  0.00  0.00    -0.650 OA
BRANCH  56  58
ATOM     58  O   UNK d   0       9.513  21.761  -1.926  0.00  0.00    -0.776 OA
ATOM     59  H   UNK d   0       9.803  20.855  -1.515  0.00  0.00     0.167 HD
ENDBRANCH  56  58
ENDBRANCH  55  56
ENDBRANCH  21  55
BRANCH  18  60
ATOM     60  C   UNK d   0      11.618  27.033  -3.166  0.00  0.00     0.151 C 
BRANCH  60  61
ATOM     61  C   UNK d   0      11.480  26.688  -1.743  0.00  0.00     0.143 C 
ATOM     62  O   UNK d   0      12.171  27.097  -0.809  0.00  0.00    -0.650 OA
BRANCH  61  63
ATOM     63  O   UNK d   0      10.431  25.786  -1.441  0.00  0.00    -0.776 OA
ATOM     64  H   UNK d   0       9.553  25.831  -1.927  0.00  0.00     0.167 HD
ENDBRANCH  61  63
ENDBRANCH  60  61
ENDBRANCH  18  60
BRANCH  14  65
ATOM     65  C   UNK d   0      14.473  27.985  -3.556  0.00  0.00     0.052 C 
BRANCH  65  66
ATOM     66  C   UNK d   0      14.939  28.093  -2.148  0.00  0.00     0.115 C 
BRANCH  66  67
ATOM     67  C   UNK d   0      16.230  27.581  -1.784  0.00  0.00     0.139 C 
ATOM     68  O   UNK d   0      16.335  26.895  -0.701  0.00  0.00    -0.650 OA
BRANCH  67  69
ATOM     69  O   UNK d   0      17.433  27.733  -2.472  0.00  0.00    -0.776 OA
ATOM     70  H   UNK d   0      18.205  27.124  -2.165  0.00  0.00     0.167 HD
ENDBRANCH  67  69
ENDBRANCH  66  67
ENDBRANCH  65  66
ENDBRANCH  14  65
ENDBRANCH   6   7
ENDBRANCH   5   6
ENDBRANCH   2   5
TORSDOF 28
ENDMDL
MODEL 4
REMARK VINA RESULT:     -10.1      2.019      8.087
REMARK  28 active torsions:
REMARK  status: ('A' for Active; 'I' for Inactive)
REMARK    1  A    between atoms: C_2  and  O_3 
REMARK    2  A    between atoms: C_2  and  C_4 
REMARK    3  A    between atoms: C_4  and  C_5 
REMARK    4  A    between atoms: C_5  and  C_6 
REMARK    5  A    between atoms: C_7  and  C_8 
REMARK    6  A    between atoms: C_8  and  C_9 
REMARK    7  A    between atoms: C_9  and  O_11 
REMARK    8  A    between atoms: C_28  and  C_29 
REMARK    9  A    between atoms: C_29  and  C_30 
REMARK   10  A    between atoms: C_30  and  O_32 
REMARK   11  A    between atoms: C_33  and  C_34 
REMARK   12  A    between atoms: C_34  and  C_35 
REMARK   13  A    between atoms: C_35  and  C_36 
REMARK   14  A    between atoms: C_36  and  O_38 
REMARK   15  A    between atoms: C_39  and  C_40 
REMARK   16  A    between atoms: C_40  and  C_41 
REMARK   17  A    between atoms: C_41  and  C_42 
REMARK   18  A    between atoms: C_42  and  O_44 
REMARK   19  A    between atoms: C_45  and  C_46 
REMARK   20  A    between atoms: C_46  and  C_47 
REMARK   21  A    between atoms: C_47  and  O_49 
REMARK   22  A    between atoms: C_50  and  C_51 
REMARK   23  A    between atoms: C_51  and  C_52 
REMARK   24  A    between atoms: C_52  and  O_54 
REMARK   25  A    between atoms: C_55  and  C_56 
REMARK   26  A    between atoms: C_56  and  C_57 
REMARK   27  A    between atoms: C_57  and  C_58 
REMARK   28  A    between atoms: C_58  and  O_60 
ROOT
ATOM      1  O   UNK d   0       9.312  21.314  -2.107  0.00  0.00    -0.650 OA
ATOM      2  C   UNK d   0       8.576  21.632  -3.067  0.00  0.00     0.139 C 
ENDROOT
BRANCH   2   3
ATOM      3  O   UNK d   0       7.567  20.782  -3.453  0.00  0.00    -0.776 OA
ATOM      4  H   UNK d   0       7.249  20.746  -4.424  0.00  0.00     0.167 HD
ENDBRANCH   2   3
BRANCH   2   5
ATOM      5  C   UNK d   0       8.795  22.920  -3.784  0.00  0.00     0.115 C 
BRANCH   5   6
ATOM      6  C   UNK d   0       9.581  23.867  -2.918  0.00  0.00     0.052 C 
BRANCH   6   7
ATOM      7  C   UNK d   0      10.869  24.314  -3.566  0.00  0.00    -0.020 A 
ATOM      8  C   UNK d   0      11.566  25.389  -3.299  0.00  0.00    -0.011 A 
ATOM      9  C   UNK d   0      12.721  25.401  -4.181  0.00  0.00     0.067 A 
ATOM     10  C   UNK d   0      13.832  26.235  -4.383  0.00  0.00     0.062 C 
ATOM     11  N   UNK d   0      12.644  24.299  -4.957  0.00  0.00    -0.248 NA
ATOM     12  C   UNK d   0      14.997  25.936  -5.097  0.00  0.00     0.041 A 
ATOM     13  N   UNK d   0      15.178  25.316  -6.279  0.00  0.00    -0.355 N 
ATOM     14  C   UNK d   0      16.244  26.255  -4.530  0.00  0.00    -0.022 A 
ATOM     15  C   UNK d   0      16.507  25.227  -6.472  0.00  0.00     0.042 A 
ATOM     16  H   UNK d   0      14.381  24.965  -6.972  0.00  0.00     0.166 HD
ATOM     17  C   UNK d   0      17.240  24.673  -7.541  0.00  0.00     0.062 C 
ATOM     18  C   UNK d   0      17.209  25.805  -5.397  0.00  0.00    -0.013 A 
ATOM     19  C   UNK d   0      17.047  23.482  -8.193  0.00  0.00     0.067 A 
ATOM     20  N   UNK d   0      15.910  22.830  -7.938  0.00  0.00    -0.248 NA
ATOM     21  C   UNK d   0      17.800  22.675  -9.140  0.00  0.00    -0.011 A 
ATOM     22  C   UNK d   0      15.865  21.654  -8.647  0.00  0.00     0.066 A 
ATOM     23  C   UNK d   0      14.716  20.891  -8.504  0.00  0.00     0.062 C 
ATOM     24  C   UNK d   0      17.105  21.605  -9.398  0.00  0.00    -0.020 A 
ATOM     25  C   UNK d   0      13.551  21.216  -7.791  0.00  0.00     0.041 A 
ATOM     26  N   UNK d   0      13.372  21.819  -6.610  0.00  0.00    -0.355 N 
ATOM     27  C   UNK d   0      12.300  20.899  -8.364  0.00  0.00    -0.022 A 
ATOM     28  C   UNK d   0      12.047  21.901  -6.411  0.00  0.00     0.042 A 
ATOM     29  H   UNK d   0      14.173  22.161  -5.910  0.00  0.00     0.166 HD
ATOM     30  C   UNK d   0      11.305  22.440  -5.348  0.00  0.00     0.062 C 
ATOM     31  C   UNK d   0      11.342  21.329  -7.497  0.00  0.00    -0.013 A 
ATOM     32  C   UNK d   0      11.553  23.603  -4.636  0.00  0.00     0.066 A 
BRANCH   8  33
ATOM     33  C   UNK d   0      11.252  26.419  -2.291  0.00  0.00     0.151 C 
BRANCH  33  34
ATOM     34  C   UNK d   0       9.868  26.915  -2.394  0.00  0.00     0.143 C 
ATOM     35  O   UNK d   0       9.524  27.650  -3.331  0.00  0.00    -0.650 OA
BRANCH  34  36
ATOM     36  O   UNK d   0       8.949  26.558  -1.435  0.00  0.00    -0.776 OA
ATOM     37  H   UNK d   0       8.412  25.683  -1.509  0.00  0.00     0.167 HD
ENDBRANCH  34  36
ENDBRANCH  33  34
ENDBRANCH   8  33
BRANCH  31  38
ATOM     38  C   UNK d   0       9.848  21.218  -7.692  0.00  0.00     0.151 C 
BRANCH  38  39
ATOM     39  C   UNK d   0       9.297  20.005  -7.125  0.00  0.00     0.143 C 
ATOM     40  O   UNK d   0       8.725  19.147  -7.819  0.00  0.00    -0.650 OA
BRANCH  39  41
ATOM     41  O   UNK d   0       9.405  19.778  -5.754  0.00  0.00    -0.776 OA
ATOM     42  H   UNK d   0      10.345  19.831  -5.350  0.00  0.00     0.167 HD
ENDBRANCH  39  41
ENDBRANCH  38  39
ENDBRANCH  31  38
BRANCH  27  43
ATOM     43  C   UNK d   0      11.990  20.215  -9.672  0.00  0.00     0.052 C 
BRANCH  43  44
ATOM     44  C   UNK d   0      11.764  18.745  -9.532  0.00  0.00     0.115 C 
BRANCH  44  45
ATOM     45  C   UNK d   0      13.020  18.080  -9.968  0.00  0.00     0.139 C 
ATOM     46  O   UNK d   0      13.652  18.582 -10.930  0.00  0.00    -0.650 OA
BRANCH  45  47
ATOM     47  O   UNK d   0      13.515  16.947  -9.360  0.00  0.00    -0.776 OA
ATOM     48  H   UNK d   0      14.444  16.913  -8.909  0.00  0.00     0.167 HD
ENDBRANCH  45  47
ENDBRANCH  44  45
ENDBRANCH  43  44
ENDBRANCH  27  43
BRANCH  24  49
ATOM     49  C   UNK d   0      17.477  20.533 -10.336  0.00  0.00     0.052 C 
BRANCH  49  50
ATOM     50  C   UNK d   0      17.862  19.286  -9.582  0.00  0.00     0.115 C 
BRANCH  50  51
ATOM     51  C   UNK d   0      16.885  18.205  -9.543  0.00  0.00     0.139 C 
ATOM     52  O   UNK d   0      16.415  17.758  -8.470  0.00  0.00    -0.650 OA
BRANCH  51  53
ATOM     53  O   UNK d   0      16.446  17.633 -10.727  0.00  0.00    -0.776 OA
ATOM     54  H   UNK d   0      16.734  16.693 -10.935  0.00  0.00     0.167 HD
ENDBRANCH  51  53
ENDBRANCH  50  51
ENDBRANCH  49  50
ENDBRANCH  24  49
BRANCH  21  55
ATOM     55  C   UNK d   0      19.133  23.060  -9.690  0.00  0.00     0.151 C 
BRANCH  55  56
ATOM     56  C   UNK d   0      19.012  23.857 -10.921  0.00  0.00     0.143 C 
ATOM     57  O   UNK d   0      19.232  23.386 -12.054  0.00  0.00    -0.650 OA
BRANCH  56  58
ATOM     58  O   UNK d   0      18.634  25.193 -10.795  0.00  0.00    -0.776 OA
ATOM     59  H   UNK d   0      18.108  25.418  -9.931  0.00  0.00     0.167 HD
ENDBRANCH  56  58
ENDBRANCH  55  56
ENDBRANCH  21  55
BRANCH  18  60
ATOM     60  C   UNK d   0      18.696  25.933  -5.177  0.00  0.00     0.151 C 
BRANCH  60  61
ATOM     61  C   UNK d   0      19.121  27.101  -5.963  0.00  0.00     0.143 C 
ATOM     62  O   UNK d   0      18.401  27.862  -6.611  0.00  0.00    -0.650 OA
BRANCH  61  63
ATOM     63  O   UNK d   0      20.513  27.357  -5.958  0.00  0.00    -0.776 OA
ATOM     64  H   UNK d   0      21.120  26.909  -5.293  0.00  0.00     0.167 HD
ENDBRANCH  61  63
ENDBRANCH  60  61
ENDBRANCH  18  60
BRANCH  14  65
ATOM     65  C   UNK d   0      16.588  27.034  -3.292  0.00  0.00     0.052 C 
BRANCH  65  66
ATOM     66  C   UNK d   0      16.932  26.164  -2.135  0.00  0.00     0.115 C 
BRANCH  66  67
ATOM     67  C   UNK d   0      16.825  26.681  -0.800  0.00  0.00     0.139 C 
ATOM     68  O   UNK d   0      16.108  27.730  -0.604  0.00  0.00    -0.650 OA
BRANCH  67  69
ATOM     69  O   UNK d   0      17.417  26.179   0.359  0.00  0.00    -0.776 OA
ATOM     70  H   UNK d   0      18.225  26.709   0.715  0.00  0.00     0.167 HD
ENDBRANCH  67  69
ENDBRANCH  66  67
ENDBRANCH  65  66
ENDBRANCH  14  65
ENDBRANCH   6   7
ENDBRANCH   5   6
ENDBRANCH   2   5
TORSDOF 28
ENDMDL
MODEL 5
REMARK VINA RESULT:      -9.4      2.067      7.872
REMARK  28 active torsions:
REMARK  status: ('A' for Active; 'I' for Inactive)
REMARK    1  A    between atoms: C_2  and  O_3 
REMARK    2  A    between atoms: C_2  and  C_4 
REMARK    3  A    between atoms: C_4  and  C_5 
REMARK    4  A    between atoms: C_5  and  C_6 
REMARK    5  A    between atoms: C_7  and  C_8 
REMARK    6  A    between atoms: C_8  and  C_9 
REMARK    7  A    between atoms: C_9  and  O_11 
REMARK    8  A    between atoms: C_28  and  C_29 
REMARK    9  A    between atoms: C_29  and  C_30 
REMARK   10  A    between atoms: C_30  and  O_32 
REMARK   11  A    between atoms: C_33  and  C_34 
REMARK   12  A    between atoms: C_34  and  C_35 
REMARK   13  A    between atoms: C_35  and  C_36 
REMARK   14  A    between atoms: C_36  and  O_38 
REMARK   15  A    between atoms: C_39  and  C_40 
REMARK   16  A    between atoms: C_40  and  C_41 
REMARK   17  A    between atoms: C_41  and  C_42 
REMARK   18  A    between atoms: C_42  and  O_44 
REMARK   19  A    between atoms: C_45  and  C_46 
REMARK   20  A    between atoms: C_46  and  C_47 
REMARK   21  A    between atoms: C_47  and  O_49 
REMARK   22  A    between atoms: C_50  and  C_51 
REMARK   23  A    between atoms: C_51  and  C_52 
REMARK   24  A    between atoms: C_52  and  O_54 
REMARK   25  A    between atoms: C_55  and  C_56 
REMARK   26  A    between atoms: C_56  and  C_57 
REMARK   27  A    between atoms: C_57  and  C_58 
REMARK   28  A    between atoms: C_58  and  O_60 
ROOT
ATOM      1  O   UNK d   0      21.733  25.682  -5.976  0.00  0.00    -0.650 OA
ATOM      2  C   UNK d   0      21.052  25.164  -5.064  0.00  0.00     0.139 C 
ENDROOT
BRANCH   2   3
ATOM      3  O   UNK d   0      21.441  23.957  -4.535  0.00  0.00    -0.776 OA
ATOM      4  H   UNK d   0      21.650  23.860  -3.540  0.00  0.00     0.167 HD
ENDBRANCH   2   3
BRANCH   2   5
ATOM      5  C   UNK d   0      19.830  25.853  -4.558  0.00  0.00     0.115 C 
BRANCH   5   6
ATOM      6  C   UNK d   0      19.119  26.543  -5.691  0.00  0.00     0.052 C 
BRANCH   6   7
ATOM      7  C   UNK d   0      18.054  25.678  -6.321  0.00  0.00    -0.020 A 
ATOM      8  C   UNK d   0      18.129  25.014  -7.446  0.00  0.00    -0.011 A 
ATOM      9  C   UNK d   0      16.859  24.335  -7.647  0.00  0.00     0.067 A 
ATOM     10  C   UNK d   0      16.312  23.474  -8.611  0.00  0.00     0.062 C 
ATOM     11  N   UNK d   0      16.068  24.647  -6.599  0.00  0.00    -0.248 NA
ATOM     12  C   UNK d   0      15.157  22.693  -8.492  0.00  0.00     0.041 A 
ATOM     13  N   UNK d   0      13.945  22.976  -7.978  0.00  0.00    -0.355 N 
ATOM     14  C   UNK d   0      15.197  21.351  -8.910  0.00  0.00    -0.022 A 
ATOM     15  C   UNK d   0      13.218  21.845  -8.051  0.00  0.00     0.042 A 
ATOM     16  H   UNK d   0      13.604  23.961  -7.589  0.00  0.00     0.166 HD
ATOM     17  C   UNK d   0      11.891  21.586  -7.656  0.00  0.00     0.062 C 
ATOM     18  C   UNK d   0      13.970  20.804  -8.629  0.00  0.00    -0.013 A 
ATOM     19  C   UNK d   0      11.250  21.945  -6.498  0.00  0.00     0.067 A 
ATOM     20  N   UNK d   0      11.875  22.821  -5.707  0.00  0.00    -0.248 NA
ATOM     21  C   UNK d   0       9.998  21.597  -5.846  0.00  0.00    -0.011 A 
ATOM     22  C   UNK d   0      11.123  23.070  -4.585  0.00  0.00     0.066 A 
ATOM     23  C   UNK d   0      11.640  23.997  -3.691  0.00  0.00     0.062 C 
ATOM     24  C   UNK d   0       9.932  22.256  -4.725  0.00  0.00    -0.020 A 
ATOM     25  C   UNK d   0      12.796  24.780  -3.835  0.00  0.00     0.041 A 
ATOM     26  N   UNK d   0      14.005  24.494  -4.333  0.00  0.00    -0.355 N 
ATOM     27  C   UNK d   0      12.753  26.128  -3.420  0.00  0.00    -0.022 A 
ATOM     28  C   UNK d   0      14.735  25.618  -4.253  0.00  0.00     0.042 A 
ATOM     29  H   UNK d   0      14.350  23.502  -4.713  0.00  0.00     0.166 HD
ATOM     30  C   UNK d   0      16.059  25.888  -4.633  0.00  0.00     0.062 C 
ATOM     31  C   UNK d   0      13.976  26.667  -3.681  0.00  0.00    -0.013 A 
ATOM     32  C   UNK d   0      16.729  25.451  -5.765  0.00  0.00     0.066 A 
BRANCH   8  33
ATOM     33  C   UNK d   0      19.281  24.954  -8.364  0.00  0.00     0.151 C 
BRANCH  33  34
ATOM     34  C   UNK d   0      18.908  25.217  -9.766  0.00  0.00     0.143 C 
ATOM     35  O   UNK d   0      19.006  24.331 -10.628  0.00  0.00    -0.650 OA
BRANCH  34  36
ATOM     36  O   UNK d   0      18.447  26.464 -10.120  0.00  0.00    -0.776 OA
ATOM     37  H   UNK d   0      18.421  26.764 -11.104  0.00  0.00     0.167 HD
ENDBRANCH  34  36
ENDBRANCH  33  34
ENDBRANCH   8  33
BRANCH  31  38
ATOM     38  C   UNK d   0      14.396  28.094  -3.417  0.00  0.00     0.151 C 
BRANCH  38  39
ATOM     39  C   UNK d   0      15.017  28.266  -2.121  0.00  0.00     0.143 C 
ATOM     40  O   UNK d   0      14.364  28.568  -1.106  0.00  0.00    -0.650 OA
BRANCH  39  41
ATOM     41  O   UNK d   0      16.394  28.089  -1.990  0.00  0.00    -0.776 OA
ATOM     42  H   UNK d   0      16.966  28.938  -1.944  0.00  0.00     0.167 HD
ENDBRANCH  39  41
ENDBRANCH  38  39
ENDBRANCH  31  38
BRANCH  27  43
ATOM     43  C   UNK d   0      11.620  26.904  -2.796  0.00  0.00     0.052 C 
BRANCH  43  44
ATOM     44  C   UNK d   0      10.572  26.031  -2.186  0.00  0.00     0.115 C 
BRANCH  44  45
ATOM     45  C   UNK d   0       9.287  26.769  -2.297  0.00  0.00     0.139 C 
ATOM     46  O   UNK d   0       8.531  26.499  -3.264  0.00  0.00    -0.650 OA
BRANCH  45  47
ATOM     47  O   UNK d   0       8.893  27.726  -1.387  0.00  0.00    -0.776 OA
ATOM     48  H   UNK d   0       9.018  28.738  -1.549  0.00  0.00     0.167 HD
ENDBRANCH  45  47
ENDBRANCH  44  45
ENDBRANCH  43  44
ENDBRANCH  27  43
BRANCH  24  49
ATOM     49  C   UNK d   0       8.813  22.231  -3.767  0.00  0.00     0.052 C 
BRANCH  49  50
ATOM     50  C   UNK d   0       7.496  22.296  -4.497  0.00  0.00     0.115 C 
BRANCH  50  51
ATOM     51  C   UNK d   0       6.564  21.197  -4.286  0.00  0.00     0.139 C 
ATOM     52  O   UNK d   0       6.935  20.057  -3.920  0.00  0.00    -0.650 OA
BRANCH  51  53
ATOM     53  O   UNK d   0       5.208  21.397  -4.495  0.00  0.00    -0.776 OA
ATOM     54  H   UNK d   0       4.637  21.642  -3.706  0.00  0.00     0.167 HD
ENDBRANCH  51  53
ENDBRANCH  50  51
ENDBRANCH  49  50
ENDBRANCH  24  49
BRANCH  21  55
ATOM     55  C   UNK d   0       8.997  20.647  -6.413  0.00  0.00     0.151 C 
BRANCH  55  56
ATOM     56  C   UNK d   0       9.484  20.000  -7.642  0.00  0.00     0.143 C 
ATOM     57  O   UNK d   0       9.426  20.547  -8.761  0.00  0.00    -0.650 OA
BRANCH  56  58
ATOM     58  O   UNK d   0      10.030  18.723  -7.530  0.00  0.00    -0.776 OA
ATOM     59  H   UNK d   0      10.003  18.159  -8.398  0.00  0.00     0.167 HD
ENDBRANCH  56  58
ENDBRANCH  55  56
ENDBRANCH  21  55
BRANCH  18  60
ATOM     60  C   UNK d   0      13.576  19.374  -8.907  0.00  0.00     0.151 C 
BRANCH  60  61
ATOM     61  C   UNK d   0      12.727  19.415 -10.107  0.00  0.00     0.143 C 
ATOM     62  O   UNK d   0      12.964  20.001 -11.164  0.00  0.00    -0.650 OA
BRANCH  61  63
ATOM     63  O   UNK d   0      11.512  18.695 -10.010  0.00  0.00    -0.776 OA
ATOM     64  H   UNK d   0      10.884  18.838  -9.239  0.00  0.00     0.167 HD
ENDBRANCH  61  63
ENDBRANCH  60  61
ENDBRANCH  18  60
BRANCH  14  65
ATOM     65  C   UNK d   0      16.264  20.581  -9.636  0.00  0.00     0.052 C 
BRANCH  65  66
ATOM     66  C   UNK d   0      16.740  19.392  -8.879  0.00  0.00     0.115 C 
BRANCH  66  67
ATOM     67  C   UNK d   0      17.521  18.389  -9.547  0.00  0.00     0.139 C 
ATOM     68  O   UNK d   0      17.973  17.403  -8.857  0.00  0.00    -0.650 OA
BRANCH  67  69
ATOM     69  O   UNK d   0      17.869  18.337 -10.896  0.00  0.00    -0.776 OA
ATOM     70  H   UNK d   0      17.126  18.030 -11.539  0.00  0.00     0.167 HD
ENDBRANCH  67  69
ENDBRANCH  66  67
ENDBRANCH  65  66
ENDBRANCH  14  65
ENDBRANCH   6   7
ENDBRANCH   5   6
ENDBRANCH   2   5
TORSDOF 28
ENDMDL
MODEL 6
REMARK VINA RESULT:      -8.3     26.031     29.703
REMARK  28 active torsions:
REMARK  status: ('A' for Active; 'I' for Inactive)
REMARK    1  A    between atoms: C_2  and  O_3 
REMARK    2  A    between atoms: C_2  and  C_4 
REMARK    3  A    between atoms: C_4  and  C_5 
REMARK    4  A    between atoms: C_5  and  C_6 
REMARK    5  A    between atoms: C_7  and  C_8 
REMARK    6  A    between atoms: C_8  and  C_9 
REMARK    7  A    between atoms: C_9  and  O_11 
REMARK    8  A    between atoms: C_28  and  C_29 
REMARK    9  A    between atoms: C_29  and  C_30 
REMARK   10  A    between atoms: C_30  and  O_32 
REMARK   11  A    between atoms: C_33  and  C_34 
REMARK   12  A    between atoms: C_34  and  C_35 
REMARK   13  A    between atoms: C_35  and  C_36 
REMARK   14  A    between atoms: C_36  and  O_38 
REMARK   15  A    between atoms: C_39  and  C_40 
REMARK   16  A    between atoms: C_40  and  C_41 
REMARK   17  A    between atoms: C_41  and  C_42 
REMARK   18  A    between atoms: C_42  and  O_44 
REMARK   19  A    between atoms: C_45  and  C_46 
REMARK   20  A    between atoms: C_46  and  C_47 
REMARK   21  A    between atoms: C_47  and  O_49 
REMARK   22  A    between atoms: C_50  and  C_51 
REMARK   23  A    between atoms: C_51  and  C_52 
REMARK   24  A    between atoms: C_52  and  O_54 
REMARK   25  A    between atoms: C_55  and  C_56 
REMARK   26  A    between atoms: C_56  and  C_57 
REMARK   27  A    between atoms: C_57  and  C_58 
REMARK   28  A    between atoms: C_58  and  O_60 
ROOT
ATOM      1  O   UNK d   0      17.357  -1.452  -1.624  0.00  0.00    -0.650 OA
ATOM      2  C   UNK d   0      17.424  -2.554  -1.035  0.00  0.00     0.139 C 
ENDROOT
BRANCH   2   3
ATOM      3  O   UNK d   0      17.617  -3.700  -1.768  0.00  0.00    -0.776 OA
ATOM      4  H   UNK d   0      18.402  -3.784  -2.418  0.00  0.00     0.167 HD
ENDBRANCH   2   3
BRANCH   2   5
ATOM      5  C   UNK d   0      17.295  -2.618   0.449  0.00  0.00     0.115 C 
BRANCH   5   6
ATOM      6  C   UNK d   0      17.659  -3.992   0.941  0.00  0.00     0.052 C 
BRANCH   6   7
ATOM      7  C   UNK d   0      17.664  -4.087   2.448  0.00  0.00    -0.020 A 
ATOM      8  C   UNK d   0      17.515  -5.161   3.181  0.00  0.00    -0.011 A 
ATOM      9  C   UNK d   0      17.583  -4.761   4.576  0.00  0.00     0.067 A 
ATOM     10  C   UNK d   0      17.519  -5.408   5.820  0.00  0.00     0.062 C 
ATOM     11  N   UNK d   0      17.768  -3.424   4.601  0.00  0.00    -0.248 NA
ATOM     12  C   UNK d   0      17.885  -4.888   7.066  0.00  0.00     0.041 A 
ATOM     13  N   UNK d   0      17.664  -3.681   7.621  0.00  0.00    -0.355 N 
ATOM     14  C   UNK d   0      18.665  -5.676   7.931  0.00  0.00    -0.022 A 
ATOM     15  C   UNK d   0      18.292  -3.681   8.813  0.00  0.00     0.042 A 
ATOM     16  H   UNK d   0      17.062  -2.852   7.188  0.00  0.00     0.166 HD
ATOM     17  C   UNK d   0      18.382  -2.677   9.798  0.00  0.00     0.062 C 
ATOM     18  C   UNK d   0      18.930  -4.915   9.042  0.00  0.00    -0.013 A 
ATOM     19  C   UNK d   0      18.636  -1.338   9.643  0.00  0.00     0.067 A 
ATOM     20  N   UNK d   0      18.605  -0.856   8.398  0.00  0.00    -0.248 NA
ATOM     21  C   UNK d   0      18.966  -0.229  10.523  0.00  0.00    -0.011 A 
ATOM     22  C   UNK d   0      18.892   0.487   8.400  0.00  0.00     0.066 A 
ATOM     23  C   UNK d   0      18.857   1.126   7.169  0.00  0.00     0.062 C 
ATOM     24  C   UNK d   0      19.119   0.835   9.789  0.00  0.00    -0.020 A 
ATOM     25  C   UNK d   0      18.475   0.588   5.931  0.00  0.00     0.041 A 
ATOM     26  N   UNK d   0      18.706  -0.606   5.372  0.00  0.00    -0.355 N 
ATOM     27  C   UNK d   0      17.688   1.379   5.065  0.00  0.00    -0.022 A 
ATOM     28  C   UNK d   0      18.089  -0.605   4.180  0.00  0.00     0.042 A 
ATOM     29  H   UNK d   0      19.321  -1.434   5.804  0.00  0.00     0.166 HD
ATOM     30  C   UNK d   0      17.999  -1.593   3.187  0.00  0.00     0.062 C 
ATOM     31  C   UNK d   0      17.439   0.631   3.955  0.00  0.00    -0.013 A 
ATOM     32  C   UNK d   0      17.827  -2.959   3.353  0.00  0.00     0.066 A 
BRANCH   8  33
ATOM     33  C   UNK d   0      17.310  -6.540   2.699  0.00  0.00     0.151 C 
BRANCH  33  34
ATOM     34  C   UNK d   0      18.547  -7.340   2.715  0.00  0.00     0.143 C 
ATOM     35  O   UNK d   0      18.505  -8.575   2.817  0.00  0.00    -0.650 OA
BRANCH  34  36
ATOM     36  O   UNK d   0      19.764  -6.706   2.617  0.00  0.00    -0.776 OA
ATOM     37  H   UNK d   0      20.129  -6.389   1.708  0.00  0.00     0.167 HD
ENDBRANCH  34  36
ENDBRANCH  33  34
ENDBRANCH   8  33
BRANCH  31  38
ATOM     38  C   UNK d   0      16.621   1.058   2.758  0.00  0.00     0.151 C 
BRANCH  38  39
ATOM     39  C   UNK d   0      15.343   0.383   2.681  0.00  0.00     0.143 C 
ATOM     40  O   UNK d   0      14.703   0.054   3.695  0.00  0.00    -0.650 OA
BRANCH  39  41
ATOM     41  O   UNK d   0      14.798   0.085   1.433  0.00  0.00    -0.776 OA
ATOM     42  H   UNK d   0      15.150   0.625   0.635  0.00  0.00     0.167 HD
ENDBRANCH  39  41
ENDBRANCH  38  39
ENDBRANCH  31  38
BRANCH  27  43
ATOM     43  C   UNK d   0      17.179   2.787   5.250  0.00  0.00     0.052 C 
BRANCH  43  44
ATOM     44  C   UNK d   0      18.112   3.827   4.720  0.00  0.00     0.115 C 
BRANCH  44  45
ATOM     45  C   UNK d   0      18.395   4.756   5.845  0.00  0.00     0.139 C 
ATOM     46  O   UNK d   0      19.375   4.504   6.588  0.00  0.00    -0.650 OA
BRANCH  45  47
ATOM     47  O   UNK d   0      17.633   5.876   6.098  0.00  0.00    -0.776 OA
ATOM     48  H   UNK d   0      17.358   6.545   5.361  0.00  0.00     0.167 HD
ENDBRANCH  45  47
ENDBRANCH  44  45
ENDBRANCH  43  44
ENDBRANCH  27  43
BRANCH  24  49
ATOM     49  C   UNK d   0      19.421   2.191  10.277  0.00  0.00     0.052 C 
BRANCH  49  50
ATOM     50  C   UNK d   0      20.898   2.471  10.166  0.00  0.00     0.115 C 
BRANCH  50  51
ATOM     51  C   UNK d   0      21.350   3.204   8.992  0.00  0.00     0.139 C 
ATOM     52  O   UNK d   0      21.961   2.654   8.045  0.00  0.00    -0.650 OA
BRANCH  51  53
ATOM     53  O   UNK d   0      21.107   4.566   8.897  0.00  0.00    -0.776 OA
ATOM     54  H   UNK d   0      21.804   5.199   9.247  0.00  0.00     0.167 HD
ENDBRANCH  51  53
ENDBRANCH  50  51
ENDBRANCH  49  50
ENDBRANCH  24  49
BRANCH  21  55
ATOM     55  C   UNK d   0      19.090  -0.348  12.006  0.00  0.00     0.151 C 
BRANCH  55  56
ATOM     56  C   UNK d   0      20.491  -0.277  12.450  0.00  0.00     0.143 C 
ATOM     57  O   UNK d   0      20.876   0.497  13.347  0.00  0.00    -0.650 OA
BRANCH  56  58
ATOM     58  O   UNK d   0      21.411  -1.120  11.828  0.00  0.00    -0.776 OA
ATOM     59  H   UNK d   0      22.115  -1.540  12.462  0.00  0.00     0.167 HD
ENDBRANCH  56  58
ENDBRANCH  55  56
ENDBRANCH  21  55
BRANCH  18  60
ATOM     60  C   UNK d   0      19.748  -5.369  10.226  0.00  0.00     0.151 C 
BRANCH  60  61
ATOM     61  C   UNK d   0      21.121  -4.907   9.969  0.00  0.00     0.143 C 
ATOM     62  O   UNK d   0      21.912  -5.358   9.140  0.00  0.00    -0.650 OA
BRANCH  61  63
ATOM     63  O   UNK d   0      21.554  -3.827  10.774  0.00  0.00    -0.776 OA
ATOM     64  H   UNK d   0      22.213  -3.152  10.427  0.00  0.00     0.167 HD
ENDBRANCH  61  63
ENDBRANCH  60  61
ENDBRANCH  18  60
BRANCH  14  65
ATOM     65  C   UNK d   0      19.091  -7.114   7.832  0.00  0.00     0.052 C 
BRANCH  65  66
ATOM     66  C   UNK d   0      17.967  -8.068   8.032  0.00  0.00     0.115 C 
BRANCH  66  67
ATOM     67  C   UNK d   0      17.024  -7.845   9.092  0.00  0.00     0.139 C 
ATOM     68  O   UNK d   0      15.793  -7.638   8.784  0.00  0.00    -0.650 OA
BRANCH  67  69
ATOM     69  O   UNK d   0      17.272  -7.821  10.464  0.00  0.00    -0.776 OA
ATOM     70  H   UNK d   0      16.650  -8.404  11.042  0.00  0.00     0.167 HD
ENDBRANCH  67  69
ENDBRANCH  66  67
ENDBRANCH  65  66
ENDBRANCH  14  65
ENDBRANCH   6   7
ENDBRANCH   5   6
ENDBRANCH   2   5
TORSDOF 28
ENDMDL
MODEL 7
REMARK VINA RESULT:      -8.1      1.867      4.588
REMARK  28 active torsions:
REMARK  status: ('A' for Active; 'I' for Inactive)
REMARK    1  A    between atoms: C_2  and  O_3 
REMARK    2  A    between atoms: C_2  and  C_4 
REMARK    3  A    between atoms: C_4  and  C_5 
REMARK    4  A    between atoms: C_5  and  C_6 
REMARK    5  A    between atoms: C_7  and  C_8 
REMARK    6  A    between atoms: C_8  and  C_9 
REMARK    7  A    between atoms: C_9  and  O_11 
REMARK    8  A    between atoms: C_28  and  C_29 
REMARK    9  A    between atoms: C_29  and  C_30 
REMARK   10  A    between atoms: C_30  and  O_32 
REMARK   11  A    between atoms: C_33  and  C_34 
REMARK   12  A    between atoms: C_34  and  C_35 
REMARK   13  A    between atoms: C_35  and  C_36 
REMARK   14  A    between atoms: C_36  and  O_38 
REMARK   15  A    between atoms: C_39  and  C_40 
REMARK   16  A    between atoms: C_40  and  C_41 
REMARK   17  A    between atoms: C_41  and  C_42 
REMARK   18  A    between atoms: C_42  and  O_44 
REMARK   19  A    between atoms: C_45  and  C_46 
REMARK   20  A    between atoms: C_46  and  C_47 
REMARK   21  A    between atoms: C_47  and  O_49 
REMARK   22  A    between atoms: C_50  and  C_51 
REMARK   23  A    between atoms: C_51  and  C_52 
REMARK   24  A    between atoms: C_52  and  O_54 
REMARK   25  A    between atoms: C_55  and  C_56 
REMARK   26  A    between atoms: C_56  and  C_57 
REMARK   27  A    between atoms: C_57  and  C_58 
REMARK   28  A    between atoms: C_58  and  O_60 
ROOT
ATOM      1  O   UNK d   0      19.292  22.639 -11.143  0.00  0.00    -0.650 OA
ATOM      2  C   UNK d   0      19.031  23.627 -10.420  0.00  0.00     0.139 C 
ENDROOT
BRANCH   2   3
ATOM      3  O   UNK d   0      19.722  24.800 -10.607  0.00  0.00    -0.776 OA
ATOM      4  H   UNK d   0      19.242  25.655 -10.897  0.00  0.00     0.167 HD
ENDBRANCH   2   3
BRANCH   2   5
ATOM      5  C   UNK d   0      17.980  23.527  -9.368  0.00  0.00     0.115 C 
BRANCH   5   6
ATOM      6  C   UNK d   0      17.656  24.894  -8.829  0.00  0.00     0.052 C 
BRANCH   6   7
ATOM      7  C   UNK d   0      16.745  24.843  -7.626  0.00  0.00    -0.020 A 
ATOM      8  C   UNK d   0      16.898  25.461  -6.483  0.00  0.00    -0.011 A 
ATOM      9  C   UNK d   0      15.777  25.102  -5.630  0.00  0.00     0.067 A 
ATOM     10  C   UNK d   0      15.345  25.428  -4.334  0.00  0.00     0.062 C 
ATOM     11  N   UNK d   0      14.994  24.257  -6.332  0.00  0.00    -0.248 NA
ATOM     12  C   UNK d   0      14.082  25.198  -3.779  0.00  0.00     0.041 A 
ATOM     13  N   UNK d   0      13.269  24.126  -3.841  0.00  0.00    -0.355 N 
ATOM     14  C   UNK d   0      13.455  26.232  -3.061  0.00  0.00    -0.022 A 
ATOM     15  C   UNK d   0      12.139  24.457  -3.187  0.00  0.00     0.042 A 
ATOM     16  H   UNK d   0      13.496  23.148  -4.320  0.00  0.00     0.166 HD
ATOM     17  C   UNK d   0      10.968  23.710  -2.951  0.00  0.00     0.062 C 
ATOM     18  C   UNK d   0      12.219  25.770  -2.685  0.00  0.00    -0.013 A 
ATOM     19  C   UNK d   0      10.256  22.924  -3.821  0.00  0.00     0.067 A 
ATOM     20  N   UNK d   0      10.826  22.655  -4.998  0.00  0.00    -0.248 NA
ATOM     21  C   UNK d   0       8.956  22.273  -3.816  0.00  0.00    -0.011 A 
ATOM     22  C   UNK d   0       9.994  21.876  -5.764  0.00  0.00     0.066 A 
ATOM     23  C   UNK d   0      10.480  21.489  -7.004  0.00  0.00     0.062 C 
ATOM     24  C   UNK d   0       8.807  21.665  -4.958  0.00  0.00    -0.020 A 
ATOM     25  C   UNK d   0      11.757  21.720  -7.537  0.00  0.00     0.041 A 
ATOM     26  N   UNK d   0      12.560  22.790  -7.489  0.00  0.00    -0.355 N 
ATOM     27  C   UNK d   0      12.388  20.679  -8.254  0.00  0.00    -0.022 A 
ATOM     28  C   UNK d   0      13.683  22.465  -8.148  0.00  0.00     0.042 A 
ATOM     29  H   UNK d   0      12.325  23.775  -7.016  0.00  0.00     0.166 HD
ATOM     30  C   UNK d   0      14.852  23.202  -8.398  0.00  0.00     0.062 C 
ATOM     31  C   UNK d   0      13.607  21.142  -8.643  0.00  0.00    -0.013 A 
ATOM     32  C   UNK d   0      15.521  24.061  -7.542  0.00  0.00     0.066 A 
BRANCH   8  33
ATOM     33  C   UNK d   0      18.003  26.360  -6.103  0.00  0.00     0.151 C 
BRANCH  33  34
ATOM     34  C   UNK d   0      18.690  25.932  -4.871  0.00  0.00     0.143 C 
ATOM     35  O   UNK d   0      18.438  26.468  -3.783  0.00  0.00    -0.650 OA
BRANCH  34  36
ATOM     36  O   UNK d   0      19.624  24.924  -4.934  0.00  0.00    -0.776 OA
ATOM     37  H   UNK d   0      20.407  24.879  -4.268  0.00  0.00     0.167 HD
ENDBRANCH  34  36
ENDBRANCH  33  34
ENDBRANCH   8  33
BRANCH  31  38
ATOM     38  C   UNK d   0      14.644  20.372  -9.427  0.00  0.00     0.151 C 
BRANCH  38  39
ATOM     39  C   UNK d   0      15.707  19.853  -8.593  0.00  0.00     0.143 C 
ATOM     40  O   UNK d   0      15.537  18.898  -7.816  0.00  0.00    -0.650 OA
BRANCH  39  41
ATOM     41  O   UNK d   0      16.973  20.436  -8.654  0.00  0.00    -0.776 OA
ATOM     42  H   UNK d   0      17.057  21.301  -9.197  0.00  0.00     0.167 HD
ENDBRANCH  39  41
ENDBRANCH  38  39
ENDBRANCH  31  38
BRANCH  27  43
ATOM     43  C   UNK d   0      11.883  19.294  -8.576  0.00  0.00     0.052 C 
BRANCH  43  44
ATOM     44  C   UNK d   0      10.514  19.289  -9.174  0.00  0.00     0.115 C 
BRANCH  44  45
ATOM     45  C   UNK d   0      10.545  20.243 -10.314  0.00  0.00     0.139 C 
ATOM     46  O   UNK d   0      11.577  20.277 -11.029  0.00  0.00    -0.650 OA
BRANCH  45  47
ATOM     47  O   UNK d   0       9.493  21.079 -10.617  0.00  0.00    -0.776 OA
ATOM     48  H   UNK d   0       8.659  20.764 -11.141  0.00  0.00     0.167 HD
ENDBRANCH  45  47
ENDBRANCH  44  45
ENDBRANCH  43  44
ENDBRANCH  27  43
BRANCH  24  49
ATOM     49  C   UNK d   0       7.651  20.848  -5.362  0.00  0.00     0.052 C 
BRANCH  49  50
ATOM     50  C   UNK d   0       8.109  19.623  -6.110  0.00  0.00     0.115 C 
BRANCH  50  51
ATOM     51  C   UNK d   0       7.086  18.827  -6.774  0.00  0.00     0.139 C 
ATOM     52  O   UNK d   0       6.622  19.124  -7.900  0.00  0.00    -0.650 OA
BRANCH  51  53
ATOM     53  O   UNK d   0       6.589  17.692  -6.152  0.00  0.00    -0.776 OA
ATOM     54  H   UNK d   0       5.639  17.707  -5.823  0.00  0.00     0.167 HD
ENDBRANCH  51  53
ENDBRANCH  50  51
ENDBRANCH  49  50
ENDBRANCH  24  49
BRANCH  21  55
ATOM     55  C   UNK d   0       8.001  22.323  -2.670  0.00  0.00     0.151 C 
BRANCH  55  56
ATOM     56  C   UNK d   0       8.350  21.355  -1.619  0.00  0.00     0.143 C 
ATOM     57  O   UNK d   0       9.524  21.002  -1.388  0.00  0.00    -0.650 OA
BRANCH  56  58
ATOM     58  O   UNK d   0       7.312  20.820  -0.858  0.00  0.00    -0.776 OA
ATOM     59  H   UNK d   0       7.576  20.011  -0.267  0.00  0.00     0.167 HD
ENDBRANCH  56  58
ENDBRANCH  55  56
ENDBRANCH  21  55
BRANCH  18  60
ATOM     60  C   UNK d   0      11.203  26.562  -1.898  0.00  0.00     0.151 C 
BRANCH  60  61
ATOM     61  C   UNK d   0      10.170  26.965  -2.864  0.00  0.00     0.143 C 
ATOM     62  O   UNK d   0       9.034  26.502  -2.973  0.00  0.00    -0.650 OA
BRANCH  61  63
ATOM     63  O   UNK d   0      10.547  28.001  -3.753  0.00  0.00    -0.776 OA
ATOM     64  H   UNK d   0      10.873  27.795  -4.681  0.00  0.00     0.167 HD
ENDBRANCH  61  63
ENDBRANCH  60  61
ENDBRANCH  18  60
BRANCH  14  65
ATOM     65  C   UNK d   0      13.970  27.574  -2.624  0.00  0.00     0.052 C 
BRANCH  65  66
ATOM     66  C   UNK d   0      14.638  27.537  -1.296  0.00  0.00     0.115 C 
BRANCH  66  67
ATOM     67  C   UNK d   0      16.058  27.341  -1.218  0.00  0.00     0.139 C 
ATOM     68  O   UNK d   0      16.822  28.108  -1.911  0.00  0.00    -0.650 OA
BRANCH  67  69
ATOM     69  O   UNK d   0      16.748  26.393  -0.464  0.00  0.00    -0.776 OA
ATOM     70  H   UNK d   0      17.316  25.720  -1.000  0.00  0.00     0.167 HD
ENDBRANCH  67  69
ENDBRANCH  66  67
ENDBRANCH  65  66
ENDBRANCH  14  65
ENDBRANCH   6   7
ENDBRANCH   5   6
ENDBRANCH   2   5
TORSDOF 28
ENDMDL
MODEL 8
REMARK VINA RESULT:      -7.9     26.501     31.920
REMARK  28 active torsions:
REMARK  status: ('A' for Active; 'I' for Inactive)
REMARK    1  A    between atoms: C_2  and  O_3 
REMARK    2  A    between atoms: C_2  and  C_4 
REMARK    3  A    between atoms: C_4  and  C_5 
REMARK    4  A    between atoms: C_5  and  C_6 
REMARK    5  A    between atoms: C_7  and  C_8 
REMARK    6  A    between atoms: C_8  and  C_9 
REMARK    7  A    between atoms: C_9  and  O_11 
REMARK    8  A    between atoms: C_28  and  C_29 
REMARK    9  A    between atoms: C_29  and  C_30 
REMARK   10  A    between atoms: C_30  and  O_32 
REMARK   11  A    between atoms: C_33  and  C_34 
REMARK   12  A    between atoms: C_34  and  C_35 
REMARK   13  A    between atoms: C_35  and  C_36 
REMARK   14  A    between atoms: C_36  and  O_38 
REMARK   15  A    between atoms: C_39  and  C_40 
REMARK   16  A    between atoms: C_40  and  C_41 
REMARK   17  A    between atoms: C_41  and  C_42 
REMARK   18  A    between atoms: C_42  and  O_44 
REMARK   19  A    between atoms: C_45  and  C_46 
REMARK   20  A    between atoms: C_46  and  C_47 
REMARK   21  A    between atoms: C_47  and  O_49 
REMARK   22  A    between atoms: C_50  and  C_51 
REMARK   23  A    between atoms: C_51  and  C_52 
REMARK   24  A    between atoms: C_52  and  O_54 
REMARK   25  A    between atoms: C_55  and  C_56 
REMARK   26  A    between atoms: C_56  and  C_57 
REMARK   27  A    between atoms: C_57  and  C_58 
REMARK   28  A    between atoms: C_58  and  O_60 
ROOT
ATOM      1  O   UNK d   0     -12.434  22.303  20.685  0.00  0.00    -0.650 OA
ATOM      2  C   UNK d   0     -11.672  21.443  20.190  0.00  0.00     0.139 C 
ENDROOT
BRANCH   2   3
ATOM      3  O   UNK d   0     -10.378  21.786  19.883  0.00  0.00    -0.776 OA
ATOM      4  H   UNK d   0      -9.991  22.690  20.161  0.00  0.00     0.167 HD
ENDBRANCH   2   3
BRANCH   2   5
ATOM      5  C   UNK d   0     -12.169  20.060  19.938  0.00  0.00     0.115 C 
BRANCH   5   6
ATOM      6  C   UNK d   0     -11.064  19.064  20.160  0.00  0.00     0.052 C 
BRANCH   6   7
ATOM      7  C   UNK d   0     -10.887  18.123  18.992  0.00  0.00    -0.020 A 
ATOM      8  C   UNK d   0     -11.058  16.826  18.979  0.00  0.00    -0.011 A 
ATOM      9  C   UNK d   0     -10.764  16.352  17.637  0.00  0.00     0.067 A 
ATOM     10  C   UNK d   0     -10.775  15.114  16.976  0.00  0.00     0.062 C 
ATOM     11  N   UNK d   0     -10.416  17.427  16.900  0.00  0.00    -0.248 NA
ATOM     12  C   UNK d   0     -10.728  14.891  15.595  0.00  0.00     0.041 A 
ATOM     13  N   UNK d   0      -9.983  15.462  14.630  0.00  0.00    -0.355 N 
ATOM     14  C   UNK d   0     -11.618  13.962  15.025  0.00  0.00    -0.022 A 
ATOM     15  C   UNK d   0     -10.383  14.925  13.461  0.00  0.00     0.042 A 
ATOM     16  H   UNK d   0      -9.178  16.215  14.773  0.00  0.00     0.166 HD
ATOM     17  C   UNK d   0      -9.937  15.165  12.146  0.00  0.00     0.062 C 
ATOM     18  C   UNK d   0     -11.406  13.981  13.669  0.00  0.00    -0.013 A 
ATOM     19  C   UNK d   0      -9.676  16.362  11.529  0.00  0.00     0.067 A 
ATOM     20  N   UNK d   0      -9.643  17.448  12.304  0.00  0.00    -0.248 NA
ATOM     21  C   UNK d   0      -9.424  16.801  10.166  0.00  0.00    -0.011 A 
ATOM     22  C   UNK d   0      -9.388  18.566  11.548  0.00  0.00     0.066 A 
ATOM     23  C   UNK d   0      -9.288  19.766  12.236  0.00  0.00     0.062 C 
ATOM     24  C   UNK d   0      -9.260  18.092  10.184  0.00  0.00    -0.020 A 
ATOM     25  C   UNK d   0      -9.325  19.967  13.625  0.00  0.00     0.041 A 
ATOM     26  N   UNK d   0     -10.076  19.410  14.583  0.00  0.00    -0.355 N 
ATOM     27  C   UNK d   0      -8.429  20.896  14.197  0.00  0.00    -0.022 A 
ATOM     28  C   UNK d   0      -9.685  19.950  15.748  0.00  0.00     0.042 A 
ATOM     29  H   UNK d   0     -10.892  18.661  14.436  0.00  0.00     0.166 HD
ATOM     30  C   UNK d   0     -10.127  19.728  17.062  0.00  0.00     0.062 C 
ATOM     31  C   UNK d   0      -8.650  20.891  15.540  0.00  0.00    -0.013 A 
ATOM     32  C   UNK d   0     -10.470  18.524  17.656  0.00  0.00     0.066 A 
BRANCH   8  33
ATOM     33  C   UNK d   0     -11.470  15.977  20.112  0.00  0.00     0.151 C 
BRANCH  33  34
ATOM     34  C   UNK d   0     -12.862  15.506  19.996  0.00  0.00     0.143 C 
ATOM     35  O   UNK d   0     -13.113  14.321  19.735  0.00  0.00    -0.650 OA
BRANCH  34  36
ATOM     36  O   UNK d   0     -13.894  16.398  20.179  0.00  0.00    -0.776 OA
ATOM     37  H   UNK d   0     -14.741  16.134  20.700  0.00  0.00     0.167 HD
ENDBRANCH  34  36
ENDBRANCH  33  34
ENDBRANCH   8  33
BRANCH  31  38
ATOM     38  C   UNK d   0      -7.914  21.720  16.567  0.00  0.00     0.151 C 
BRANCH  38  39
ATOM     39  C   UNK d   0      -8.538  23.003  16.805  0.00  0.00     0.143 C 
ATOM     40  O   UNK d   0      -9.662  23.290  16.357  0.00  0.00    -0.650 OA
BRANCH  39  41
ATOM     41  O   UNK d   0      -7.868  23.963  17.564  0.00  0.00    -0.776 OA
ATOM     42  H   UNK d   0      -6.852  23.854  17.652  0.00  0.00     0.167 HD
ENDBRANCH  39  41
ENDBRANCH  38  39
ENDBRANCH  31  38
BRANCH  27  43
ATOM     43  C   UNK d   0      -7.397  21.769  13.527  0.00  0.00     0.052 C 
BRANCH  43  44
ATOM     44  C   UNK d   0      -6.140  21.039  13.182  0.00  0.00     0.115 C 
BRANCH  44  45
ATOM     45  C   UNK d   0      -6.214  20.728  11.731  0.00  0.00     0.139 C 
ATOM     46  O   UNK d   0      -6.576  21.641  10.948  0.00  0.00    -0.650 OA
BRANCH  45  47
ATOM     47  O   UNK d   0      -5.899  19.490  11.215  0.00  0.00    -0.776 OA
ATOM     48  H   UNK d   0      -6.513  18.984  10.556  0.00  0.00     0.167 HD
ENDBRANCH  45  47
ENDBRANCH  44  45
ENDBRANCH  43  44
ENDBRANCH  27  43
BRANCH  24  49
ATOM     49  C   UNK d   0      -8.945  18.943   9.024  0.00  0.00     0.052 C 
BRANCH  49  50
ATOM     50  C   UNK d   0     -10.050  19.941   8.789  0.00  0.00     0.115 C 
BRANCH  50  51
ATOM     51  C   UNK d   0     -10.375  20.259   7.406  0.00  0.00     0.139 C 
ATOM     52  O   UNK d   0      -9.982  21.308   6.843  0.00  0.00    -0.650 OA
BRANCH  51  53
ATOM     53  O   UNK d   0     -11.151  19.382   6.663  0.00  0.00    -0.776 OA
ATOM     54  H   UNK d   0     -12.117  19.271   6.917  0.00  0.00     0.167 HD
ENDBRANCH  51  53
ENDBRANCH  50  51
ENDBRANCH  49  50
ENDBRANCH  24  49
BRANCH  21  55
ATOM     55  C   UNK d   0      -9.368  15.883   8.990  0.00  0.00     0.151 C 
BRANCH  55  56
ATOM     56  C   UNK d   0     -10.626  15.889   8.226  0.00  0.00     0.143 C 
ATOM     57  O   UNK d   0     -11.663  15.328   8.629  0.00  0.00    -0.650 OA
BRANCH  56  58
ATOM     58  O   UNK d   0     -10.638  16.557   7.002  0.00  0.00    -0.776 OA
ATOM     59  H   UNK d   0     -11.237  17.402   6.972  0.00  0.00     0.167 HD
ENDBRANCH  56  58
ENDBRANCH  55  56
ENDBRANCH  21  55
BRANCH  18  60
ATOM     60  C   UNK d   0     -12.155  13.139  12.666  0.00  0.00     0.151 C 
BRANCH  60  61
ATOM     61  C   UNK d   0     -13.244  13.988  12.159  0.00  0.00     0.143 C 
ATOM     62  O   UNK d   0     -14.301  14.260  12.730  0.00  0.00    -0.650 OA
BRANCH  61  63
ATOM     63  O   UNK d   0     -13.028  14.541  10.874  0.00  0.00    -0.776 OA
ATOM     64  H   UNK d   0     -13.500  15.380  10.584  0.00  0.00     0.167 HD
ENDBRANCH  61  63
ENDBRANCH  60  61
ENDBRANCH  18  60
BRANCH  14  65
ATOM     65  C   UNK d   0     -12.573  12.996  15.668  0.00  0.00     0.052 C 
BRANCH  65  66
ATOM     66  C   UNK d   0     -11.916  11.739  16.116  0.00  0.00     0.115 C 
BRANCH  66  67
ATOM     67  C   UNK d   0     -12.628  10.495  16.033  0.00  0.00     0.139 C 
ATOM     68  O   UNK d   0     -12.631   9.720  17.059  0.00  0.00    -0.650 OA
BRANCH  67  69
ATOM     69  O   UNK d   0     -13.345   9.993  14.948  0.00  0.00    -0.776 OA
ATOM     70  H   UNK d   0     -14.284  10.394  14.807  0.00  0.00     0.167 HD
ENDBRANCH  67  69
ENDBRANCH  66  67
ENDBRANCH  65  66
ENDBRANCH  14  65
ENDBRANCH   6   7
ENDBRANCH   5   6
ENDBRANCH   2   5
TORSDOF 28
ENDMDL
MODEL 9
REMARK VINA RESULT:      -7.9     23.039     28.912
REMARK  28 active torsions:
REMARK  status: ('A' for Active; 'I' for Inactive)
REMARK    1  A    between atoms: C_2  and  O_3 
REMARK    2  A    between atoms: C_2  and  C_4 
REMARK    3  A    between atoms: C_4  and  C_5 
REMARK    4  A    between atoms: C_5  and  C_6 
REMARK    5  A    between atoms: C_7  and  C_8 
REMARK    6  A    between atoms: C_8  and  C_9 
REMARK    7  A    between atoms: C_9  and  O_11 
REMARK    8  A    between atoms: C_28  and  C_29 
REMARK    9  A    between atoms: C_29  and  C_30 
REMARK   10  A    between atoms: C_30  and  O_32 
REMARK   11  A    between atoms: C_33  and  C_34 
REMARK   12  A    between atoms: C_34  and  C_35 
REMARK   13  A    between atoms: C_35  and  C_36 
REMARK   14  A    between atoms: C_36  and  O_38 
REMARK   15  A    between atoms: C_39  and  C_40 
REMARK   16  A    between atoms: C_40  and  C_41 
REMARK   17  A    between atoms: C_41  and  C_42 
REMARK   18  A    between atoms: C_42  and  O_44 
REMARK   19  A    between atoms: C_45  and  C_46 
REMARK   20  A    between atoms: C_46  and  C_47 
REMARK   21  A    between atoms: C_47  and  O_49 
REMARK   22  A    between atoms: C_50  and  C_51 
REMARK   23  A    between atoms: C_51  and  C_52 
REMARK   24  A    between atoms: C_52  and  O_54 
REMARK   25  A    between atoms: C_55  and  C_56 
REMARK   26  A    between atoms: C_56  and  C_57 
REMARK   27  A    between atoms: C_57  and  C_58 
REMARK   28  A    between atoms: C_58  and  O_60 
ROOT
ATOM      1  O   UNK d   0      -7.755  15.913  17.288  0.00  0.00    -0.650 OA
ATOM      2  C   UNK d   0      -8.892  15.955  16.769  0.00  0.00     0.139 C 
ENDROOT
BRANCH   2   3
ATOM      3  O   UNK d   0      -9.851  15.058  17.174  0.00  0.00    -0.776 OA
ATOM      4  H   UNK d   0     -10.824  15.157  16.878  0.00  0.00     0.167 HD
ENDBRANCH   2   3
BRANCH   2   5
ATOM      5  C   UNK d   0      -9.199  16.970  15.721  0.00  0.00     0.115 C 
BRANCH   5   6
ATOM      6  C   UNK d   0      -8.171  18.067  15.746  0.00  0.00     0.052 C 
BRANCH   6   7
ATOM      7  C   UNK d   0      -8.670  19.347  15.119  0.00  0.00    -0.020 A 
ATOM      8  C   UNK d   0      -9.101  20.421  15.730  0.00  0.00    -0.011 A 
ATOM      9  C   UNK d   0      -9.483  21.387  14.714  0.00  0.00     0.067 A 
ATOM     10  C   UNK d   0      -9.984  22.699  14.702  0.00  0.00     0.062 C 
ATOM     11  N   UNK d   0      -9.258  20.816  13.512  0.00  0.00    -0.248 NA
ATOM     12  C   UNK d   0     -10.030  23.578  13.614  0.00  0.00     0.041 A 
ATOM     13  N   UNK d   0     -10.369  23.377  12.327  0.00  0.00    -0.355 N 
ATOM     14  C   UNK d   0      -9.617  24.910  13.798  0.00  0.00    -0.022 A 
ATOM     15  C   UNK d   0     -10.173  24.546  11.687  0.00  0.00     0.042 A 
ATOM     16  H   UNK d   0     -10.757  22.434  11.883  0.00  0.00     0.166 HD
ATOM     17  C   UNK d   0     -10.371  24.891  10.335  0.00  0.00     0.062 C 
ATOM     18  C   UNK d   0      -9.702  25.530  12.576  0.00  0.00    -0.013 A 
ATOM     19  C   UNK d   0     -10.022  24.194   9.207  0.00  0.00     0.067 A 
ATOM     20  N   UNK d   0      -9.617  22.932   9.376  0.00  0.00    -0.248 NA
ATOM     21  C   UNK d   0      -9.954  24.477   7.783  0.00  0.00    -0.011 A 
ATOM     22  C   UNK d   0      -9.288  22.371   8.167  0.00  0.00     0.066 A 
ATOM     23  C   UNK d   0      -8.885  21.044   8.193  0.00  0.00     0.062 C 
ATOM     24  C   UNK d   0      -9.520  23.407   7.180  0.00  0.00    -0.020 A 
ATOM     25  C   UNK d   0      -8.858  20.174   9.294  0.00  0.00     0.041 A 
ATOM     26  N   UNK d   0      -8.507  20.369  10.571  0.00  0.00    -0.355 N 
ATOM     27  C   UNK d   0      -9.277  18.839   9.110  0.00  0.00    -0.022 A 
ATOM     28  C   UNK d   0      -8.693  19.203  11.210  0.00  0.00     0.042 A 
ATOM     29  H   UNK d   0      -8.107  21.315  11.013  0.00  0.00     0.166 HD
ATOM     30  C   UNK d   0      -8.491  18.843  12.551  0.00  0.00     0.062 C 
ATOM     31  C   UNK d   0      -9.177  18.217  10.317  0.00  0.00    -0.013 A 
ATOM     32  C   UNK d   0      -8.768  19.588  13.687  0.00  0.00     0.066 A 
BRANCH   8  33
ATOM     33  C   UNK d   0      -9.195  20.632  17.186  0.00  0.00     0.151 C 
BRANCH  33  34
ATOM     34  C   UNK d   0     -10.444  20.099  17.760  0.00  0.00     0.143 C 
ATOM     35  O   UNK d   0     -11.511  20.718  17.647  0.00  0.00    -0.650 OA
BRANCH  34  36
ATOM     36  O   UNK d   0     -10.420  18.899  18.432  0.00  0.00    -0.776 OA
ATOM     37  H   UNK d   0      -9.734  18.717  19.177  0.00  0.00     0.167 HD
ENDBRANCH  34  36
ENDBRANCH  33  34
ENDBRANCH   8  33
BRANCH  31  38
ATOM     38  C   UNK d   0      -9.531  16.778  10.611  0.00  0.00     0.151 C 
BRANCH  38  39
ATOM     39  C   UNK d   0     -10.950  16.579  10.813  0.00  0.00     0.143 C 
ATOM     40  O   UNK d   0     -11.620  17.293  11.580  0.00  0.00    -0.650 OA
BRANCH  39  41
ATOM     41  O   UNK d   0     -11.603  15.555  10.129  0.00  0.00    -0.776 OA
ATOM     42  H   UNK d   0     -11.035  14.747   9.855  0.00  0.00     0.167 HD
ENDBRANCH  39  41
ENDBRANCH  38  39
ENDBRANCH  31  38
BRANCH  27  43
ATOM     43  C   UNK d   0      -9.757  18.149   7.858  0.00  0.00     0.052 C 
BRANCH  43  44
ATOM     44  C   UNK d   0     -11.183  18.449   7.527  0.00  0.00     0.115 C 
BRANCH  44  45
ATOM     45  C   UNK d   0     -11.780  17.180   7.034  0.00  0.00     0.139 C 
ATOM     46  O   UNK d   0     -12.949  17.216   6.576  0.00  0.00    -0.650 OA
BRANCH  45  47
ATOM     47  O   UNK d   0     -11.105  15.979   7.055  0.00  0.00    -0.776 OA
ATOM     48  H   UNK d   0     -11.001  15.380   6.219  0.00  0.00     0.167 HD
ENDBRANCH  45  47
ENDBRANCH  44  45
ENDBRANCH  43  44
ENDBRANCH  27  43
BRANCH  24  49
ATOM     49  C   UNK d   0      -9.338  23.242   5.728  0.00  0.00     0.052 C 
BRANCH  49  50
ATOM     50  C   UNK d   0      -7.871  23.147   5.391  0.00  0.00     0.115 C 
BRANCH  50  51
ATOM     51  C   UNK d   0      -7.384  23.983   4.303  0.00  0.00     0.139 C 
ATOM     52  O   UNK d   0      -6.274  23.796   3.751  0.00  0.00    -0.650 OA
BRANCH  51  53
ATOM     53  O   UNK d   0      -8.162  25.035   3.844  0.00  0.00    -0.776 OA
ATOM     54  H   UNK d   0      -8.326  25.109   2.855  0.00  0.00     0.167 HD
ENDBRANCH  51  53
ENDBRANCH  50  51
ENDBRANCH  49  50
ENDBRANCH  24  49
BRANCH  21  55
ATOM     55  C   UNK d   0     -10.335  25.785   7.172  0.00  0.00     0.151 C 
BRANCH  55  56
ATOM     56  C   UNK d   0      -9.166  26.649   6.948  0.00  0.00     0.143 C 
ATOM     57  O   UNK d   0      -8.260  26.791   7.792  0.00  0.00    -0.650 OA
BRANCH  56  58
ATOM     58  O   UNK d   0      -9.086  27.331   5.735  0.00  0.00    -0.776 OA
ATOM     59  H   UNK d   0      -8.372  28.081   5.702  0.00  0.00     0.167 HD
ENDBRANCH  56  58
ENDBRANCH  55  56
ENDBRANCH  21  55
BRANCH  18  60
ATOM     60  C   UNK d   0      -9.344  26.972  12.312  0.00  0.00     0.151 C 
BRANCH  60  61
ATOM     61  C   UNK d   0      -7.900  26.984  12.030  0.00  0.00     0.143 C 
ATOM     62  O   UNK d   0      -6.994  27.283  12.809  0.00  0.00    -0.650 OA
BRANCH  61  63
ATOM     63  O   UNK d   0      -7.540  26.608  10.714  0.00  0.00    -0.776 OA
ATOM     64  H   UNK d   0      -7.758  25.694  10.358  0.00  0.00     0.167 HD
ENDBRANCH  61  63
ENDBRANCH  60  61
ENDBRANCH  18  60
BRANCH  14  65
ATOM     65  C   UNK d   0      -9.245  25.658  15.046  0.00  0.00     0.052 C 
BRANCH  65  66
ATOM     66  C   UNK d   0      -7.898  25.297  15.562  0.00  0.00     0.115 C 
BRANCH  66  67
ATOM     67  C   UNK d   0      -7.717  25.043  16.964  0.00  0.00     0.139 C 
ATOM     68  O   UNK d   0      -7.389  26.024  17.728  0.00  0.00    -0.650 OA
BRANCH  67  69
ATOM     69  O   UNK d   0      -7.854  23.829  17.636  0.00  0.00    -0.776 OA
ATOM     70  H   UNK d   0      -8.821  23.531  17.830  0.00  0.00     0.167 HD
ENDBRANCH  67  69
ENDBRANCH  66  67
ENDBRANCH  65  66
ENDBRANCH  14  65
ENDBRANCH   6   7
ENDBRANCH   5   6
ENDBRANCH   2   5
TORSDOF 28
ENDMDL
MODEL 10
REMARK VINA RESULT:      -7.8     26.229     32.123
REMARK  28 active torsions:
REMARK  status: ('A' for Active; 'I' for Inactive)
REMARK    1  A    between atoms: C_2  and  O_3 
REMARK    2  A    between atoms: C_2  and  C_4 
REMARK    3  A    between atoms: C_4  and  C_5 
REMARK    4  A    between atoms: C_5  and  C_6 
REMARK    5  A    between atoms: C_7  and  C_8 
REMARK    6  A    between atoms: C_8  and  C_9 
REMARK    7  A    between atoms: C_9  and  O_11 
REMARK    8  A    between atoms: C_28  and  C_29 
REMARK    9  A    between atoms: C_29  and  C_30 
REMARK   10  A    between atoms: C_30  and  O_32 
REMARK   11  A    between atoms: C_33  and  C_34 
REMARK   12  A    between atoms: C_34  and  C_35 
REMARK   13  A    between atoms: C_35  and  C_36 
REMARK   14  A    between atoms: C_36  and  O_38 
REMARK   15  A    between atoms: C_39  and  C_40 
REMARK   16  A    between atoms: C_40  and  C_41 
REMARK   17  A    between atoms: C_41  and  C_42 
REMARK   18  A    between atoms: C_42  and  O_44 
REMARK   19  A    between atoms: C_45  and  C_46 
REMARK   20  A    between atoms: C_46  and  C_47 
REMARK   21  A    between atoms: C_47  and  O_49 
REMARK   22  A    between atoms: C_50  and  C_51 
REMARK   23  A    between atoms: C_51  and  C_52 
REMARK   24  A    between atoms: C_52  and  O_54 
REMARK   25  A    between atoms: C_55  and  C_56 
REMARK   26  A    between atoms: C_56  and  C_57 
REMARK   27  A    between atoms: C_57  and  C_58 
REMARK   28  A    between atoms: C_58  and  O_60 
ROOT
ATOM      1  O   UNK d   0     -15.504  17.370   8.542  0.00  0.00    -0.650 OA
ATOM      2  C   UNK d   0     -15.508  16.177   8.167  0.00  0.00     0.139 C 
ENDROOT
BRANCH   2   3
ATOM      3  O   UNK d   0     -15.444  15.893   6.824  0.00  0.00    -0.776 OA
ATOM      4  H   UNK d   0     -14.705  15.298   6.445  0.00  0.00     0.167 HD
ENDBRANCH   2   3
BRANCH   2   5
ATOM      5  C   UNK d   0     -15.580  15.077   9.171  0.00  0.00     0.115 C 
BRANCH   5   6
ATOM      6  C   UNK d   0     -14.311  14.269   9.146  0.00  0.00     0.052 C 
BRANCH   6   7
ATOM      7  C   UNK d   0     -13.121  15.041   9.663  0.00  0.00    -0.020 A 
ATOM      8  C   UNK d   0     -12.121  15.524   8.971  0.00  0.00    -0.011 A 
ATOM      9  C   UNK d   0     -11.213  16.180   9.898  0.00  0.00     0.067 A 
ATOM     10  C   UNK d   0     -10.006  16.890   9.801  0.00  0.00     0.062 C 
ATOM     11  N   UNK d   0     -11.736  16.044  11.134  0.00  0.00    -0.248 NA
ATOM     12  C   UNK d   0      -9.417  17.695  10.782  0.00  0.00     0.041 A 
ATOM     13  N   UNK d   0      -9.267  17.511  12.108  0.00  0.00    -0.355 N 
ATOM     14  C   UNK d   0      -8.915  18.957  10.416  0.00  0.00    -0.022 A 
ATOM     15  C   UNK d   0      -8.690  18.627  12.593  0.00  0.00     0.042 A 
ATOM     16  H   UNK d   0      -9.545  16.602  12.686  0.00  0.00     0.166 HD
ATOM     17  C   UNK d   0      -8.311  18.961  13.908  0.00  0.00     0.062 C 
ATOM     18  C   UNK d   0      -8.454  19.556  11.561  0.00  0.00    -0.013 A 
ATOM     19  C   UNK d   0      -9.010  18.793  15.076  0.00  0.00     0.067 A 
ATOM     20  N   UNK d   0     -10.112  18.041  15.018  0.00  0.00    -0.248 NA
ATOM     21  C   UNK d   0      -8.878  19.253  16.448  0.00  0.00    -0.011 A 
ATOM     22  C   UNK d   0     -10.710  17.977  16.253  0.00  0.00     0.066 A 
ATOM     23  C   UNK d   0     -11.851  17.192  16.345  0.00  0.00     0.062 C 
ATOM     24  C   UNK d   0      -9.878  18.775  17.131  0.00  0.00    -0.020 A 
ATOM     25  C   UNK d   0     -12.420  16.381  15.351  0.00  0.00     0.041 A 
ATOM     26  N   UNK d   0     -12.582  16.570  14.036  0.00  0.00    -0.355 N 
ATOM     27  C   UNK d   0     -12.919  15.113  15.719  0.00  0.00    -0.022 A 
ATOM     28  C   UNK d   0     -13.165  15.462  13.552  0.00  0.00     0.042 A 
ATOM     29  H   UNK d   0     -12.312  17.488  13.459  0.00  0.00     0.166 HD
ATOM     30  C   UNK d   0     -13.556  15.120  12.248  0.00  0.00     0.062 C 
ATOM     31  C   UNK d   0     -13.392  14.524  14.587  0.00  0.00    -0.013 A 
ATOM     32  C   UNK d   0     -12.884  15.368  11.061  0.00  0.00     0.066 A 
BRANCH   8  33
ATOM     33  C   UNK d   0     -11.925  15.426   7.512  0.00  0.00     0.151 C 
BRANCH  33  34
ATOM     34  C   UNK d   0     -11.862  16.745   6.856  0.00  0.00     0.143 C 
ATOM     35  O   UNK d   0     -10.799  17.169   6.381  0.00  0.00    -0.650 OA
BRANCH  34  36
ATOM     36  O   UNK d   0     -13.001  17.512   6.772  0.00  0.00    -0.776 OA
ATOM     37  H   UNK d   0     -13.009  18.492   7.086  0.00  0.00     0.167 HD
ENDBRANCH  34  36
ENDBRANCH  33  34
ENDBRANCH   8  33
BRANCH  31  38
ATOM     38  C   UNK d   0     -14.011  13.149  14.488  0.00  0.00     0.151 C 
BRANCH  38  39
ATOM     39  C   UNK d   0     -13.109  12.167  13.925  0.00  0.00     0.143 C 
ATOM     40  O   UNK d   0     -13.357  11.566  12.865  0.00  0.00    -0.650 OA
BRANCH  39  41
ATOM     41  O   UNK d   0     -11.915  11.875  14.584  0.00  0.00    -0.776 OA
ATOM     42  H   UNK d   0     -11.783  12.295  15.509  0.00  0.00     0.167 HD
ENDBRANCH  39  41
ENDBRANCH  38  39
ENDBRANCH  31  38
BRANCH  27  43
ATOM     43  C   UNK d   0     -12.964  14.457  17.077  0.00  0.00     0.052 C 
BRANCH  43  44
ATOM     44  C   UNK d   0     -11.752  13.634  17.376  0.00  0.00     0.115 C 
BRANCH  44  45
ATOM     45  C   UNK d   0     -11.262  14.070  18.709  0.00  0.00     0.139 C 
ATOM     46  O   UNK d   0     -12.095  14.165  19.644  0.00  0.00    -0.650 OA
BRANCH  45  47
ATOM     47  O   UNK d   0      -9.939  14.365  18.959  0.00  0.00    -0.776 OA
ATOM     48  H   UNK d   0      -9.446  14.051  19.811  0.00  0.00     0.167 HD
ENDBRANCH  45  47
ENDBRANCH  44  45
ENDBRANCH  43  44
ENDBRANCH  27  43
BRANCH  24  49
ATOM     49  C   UNK d   0     -10.114  18.962  18.573  0.00  0.00     0.052 C 
BRANCH  49  50
ATOM     50  C   UNK d   0     -11.082  20.094  18.803  0.00  0.00     0.115 C 
BRANCH  50  51
ATOM     51  C   UNK d   0     -10.574  21.276  19.486  0.00  0.00     0.139 C 
ATOM     52  O   UNK d   0     -10.383  21.311  20.725  0.00  0.00    -0.650 OA
BRANCH  51  53
ATOM     53  O   UNK d   0     -10.285  22.419  18.757  0.00  0.00    -0.776 OA
ATOM     54  H   UNK d   0     -10.984  23.139  18.706  0.00  0.00     0.167 HD
ENDBRANCH  51  53
ENDBRANCH  50  51
ENDBRANCH  49  50
ENDBRANCH  24  49
BRANCH  21  55
ATOM     55  C   UNK d   0      -7.763  20.118  16.935  0.00  0.00     0.151 C 
BRANCH  55  56
ATOM     56  C   UNK d   0      -7.793  21.454  16.320  0.00  0.00     0.143 C 
ATOM     57  O   UNK d   0      -8.720  22.266  16.513  0.00  0.00    -0.650 OA
BRANCH  56  58
ATOM     58  O   UNK d   0      -6.731  21.811  15.490  0.00  0.00    -0.776 OA
ATOM     59  H   UNK d   0      -6.475  22.814  15.517  0.00  0.00     0.167 HD
ENDBRANCH  56  58
ENDBRANCH  55  56
ENDBRANCH  21  55
BRANCH  18  60
ATOM     60  C   UNK d   0      -7.838  20.931  11.630  0.00  0.00     0.151 C 
BRANCH  60  61
ATOM     61  C   UNK d   0      -6.454  20.777  11.156  0.00  0.00     0.143 C 
ATOM     62  O   UNK d   0      -5.728  19.792  11.293  0.00  0.00    -0.650 OA
BRANCH  61  63
ATOM     63  O   UNK d   0      -5.923  21.897  10.471  0.00  0.00    -0.776 OA
ATOM     64  H   UNK d   0      -4.954  22.147  10.558  0.00  0.00     0.167 HD
ENDBRANCH  61  63
ENDBRANCH  60  61
ENDBRANCH  18  60
BRANCH  14  65
ATOM     65  C   UNK d   0      -8.749  19.592   9.064  0.00  0.00     0.052 C 
BRANCH  65  66
ATOM     66  C   UNK d   0      -9.830  20.562   8.741  0.00  0.00     0.115 C 
BRANCH  66  67
ATOM     67  C   UNK d   0     -11.005  20.113   8.048  0.00  0.00     0.139 C 
ATOM     68  O   UNK d   0     -12.010  19.709   8.742  0.00  0.00    -0.650 OA
BRANCH  67  69
ATOM     69  O   UNK d   0     -11.213  20.053   6.671  0.00  0.00    -0.776 OA
ATOM     70  H   UNK d   0     -11.705  19.215   6.328  0.00  0.00     0.167 HD
ENDBRANCH  67  69
ENDBRANCH  66  67
ENDBRANCH  65  66
ENDBRANCH  14  65
ENDBRANCH   6   7
ENDBRANCH   5   6
ENDBRANCH   2   5
TORSDOF 28
ENDMDL
MODEL 11
REMARK VINA RESULT:      -7.8     23.331     28.389
REMARK  28 active torsions:
REMARK  status: ('A' for Active; 'I' for Inactive)
REMARK    1  A    between atoms: C_2  and  O_3 
REMARK    2  A    between atoms: C_2  and  C_4 
REMARK    3  A    between atoms: C_4  and  C_5 
REMARK    4  A    between atoms: C_5  and  C_6 
REMARK    5  A    between atoms: C_7  and  C_8 
REMARK    6  A    between atoms: C_8  and  C_9 
REMARK    7  A    between atoms: C_9  and  O_11 
REMARK    8  A    between atoms: C_28  and  C_29 
REMARK    9  A    between atoms: C_29  and  C_30 
REMARK   10  A    between atoms: C_30  and  O_32 
REMARK   11  A    between atoms: C_33  and  C_34 
REMARK   12  A    between atoms: C_34  and  C_35 
REMARK   13  A    between atoms: C_35  and  C_36 
REMARK   14  A    between atoms: C_36  and  O_38 
REMARK   15  A    between atoms: C_39  and  C_40 
REMARK   16  A    between atoms: C_40  and  C_41 
REMARK   17  A    between atoms: C_41  and  C_42 
REMARK   18  A    between atoms: C_42  and  O_44 
REMARK   19  A    between atoms: C_45  and  C_46 
REMARK   20  A    between atoms: C_46  and  C_47 
REMARK   21  A    between atoms: C_47  and  O_49 
REMARK   22  A    between atoms: C_50  and  C_51 
REMARK   23  A    between atoms: C_51  and  C_52 
REMARK   24  A    between atoms: C_52  and  O_54 
REMARK   25  A    between atoms: C_55  and  C_56 
REMARK   26  A    between atoms: C_56  and  C_57 
REMARK   27  A    between atoms: C_57  and  C_58 
REMARK   28  A    between atoms: C_58  and  O_60 
ROOT
ATOM      1  O   UNK d   0      -7.042  24.446  16.177  0.00  0.00    -0.650 OA
ATOM      2  C   UNK d   0      -7.952  23.966  16.889  0.00  0.00     0.139 C 
ENDROOT
BRANCH   2   3
ATOM      3  O   UNK d   0      -7.647  22.982  17.798  0.00  0.00    -0.776 OA
ATOM      4  H   UNK d   0      -7.425  22.032  17.493  0.00  0.00     0.167 HD
ENDBRANCH   2   3
BRANCH   2   5
ATOM      5  C   UNK d   0      -9.351  24.460  16.750  0.00  0.00     0.115 C 
BRANCH   5   6
ATOM      6  C   UNK d   0     -10.262  23.329  16.353  0.00  0.00     0.052 C 
BRANCH   6   7
ATOM      7  C   UNK d   0      -9.953  22.790  14.976  0.00  0.00    -0.020 A 
ATOM      8  C   UNK d   0      -9.709  21.549  14.642  0.00  0.00    -0.011 A 
ATOM      9  C   UNK d   0      -9.459  21.515  13.210  0.00  0.00     0.067 A 
ATOM     10  C   UNK d   0      -9.168  20.527  12.256  0.00  0.00     0.062 C 
ATOM     11  N   UNK d   0      -9.564  22.781  12.755  0.00  0.00    -0.248 NA
ATOM     12  C   UNK d   0      -9.234  20.649  10.864  0.00  0.00     0.041 A 
ATOM     13  N   UNK d   0      -8.838  21.639  10.041  0.00  0.00    -0.355 N 
ATOM     14  C   UNK d   0      -9.854  19.629  10.120  0.00  0.00    -0.022 A 
ATOM     15  C   UNK d   0      -9.199  21.276   8.795  0.00  0.00     0.042 A 
ATOM     16  H   UNK d   0      -8.298  22.566  10.332  0.00  0.00     0.166 HD
ATOM     17  C   UNK d   0      -9.025  21.940   7.565  0.00  0.00     0.062 C 
ATOM     18  C   UNK d   0      -9.838  20.022   8.805  0.00  0.00    -0.013 A 
ATOM     19  C   UNK d   0      -9.236  23.261   7.260  0.00  0.00     0.067 A 
ATOM     20  N   UNK d   0      -9.443  24.092   8.285  0.00  0.00    -0.248 NA
ATOM     21  C   UNK d   0      -9.314  24.053   6.045  0.00  0.00    -0.011 A 
ATOM     22  C   UNK d   0      -9.652  25.370   7.828  0.00  0.00     0.066 A 
ATOM     23  C   UNK d   0      -9.844  26.347   8.793  0.00  0.00     0.062 C 
ATOM     24  C   UNK d   0      -9.562  25.286   6.383  0.00  0.00    -0.020 A 
ATOM     25  C   UNK d   0      -9.761  26.206  10.187  0.00  0.00     0.041 A 
ATOM     26  N   UNK d   0     -10.168  25.230  11.007  0.00  0.00    -0.355 N 
ATOM     27  C   UNK d   0      -9.135  27.229  10.933  0.00  0.00    -0.022 A 
ATOM     28  C   UNK d   0      -9.818  25.593  12.251  0.00  0.00     0.042 A 
ATOM     29  H   UNK d   0     -10.721  24.303  10.714  0.00  0.00     0.166 HD
ATOM     30  C   UNK d   0      -9.992  24.947  13.485  0.00  0.00     0.062 C 
ATOM     31  C   UNK d   0      -9.166  26.849  12.239  0.00  0.00    -0.013 A 
ATOM     32  C   UNK d   0      -9.861  23.596  13.768  0.00  0.00     0.066 A 
BRANCH   8  33
ATOM     33  C   UNK d   0      -9.683  20.379  15.539  0.00  0.00     0.151 C 
BRANCH  33  34
ATOM     34  C   UNK d   0      -8.316  19.991  15.930  0.00  0.00     0.143 C 
ATOM     35  O   UNK d   0      -7.378  20.798  15.853  0.00  0.00    -0.650 OA
BRANCH  34  36
ATOM     36  O   UNK d   0      -8.080  18.715  16.386  0.00  0.00    -0.776 OA
ATOM     37  H   UNK d   0      -7.290  18.158  16.032  0.00  0.00     0.167 HD
ENDBRANCH  34  36
ENDBRANCH  33  34
ENDBRANCH   8  33
BRANCH  31  38
ATOM     38  C   UNK d   0      -8.599  27.623  13.406  0.00  0.00     0.151 C 
BRANCH  38  39
ATOM     39  C   UNK d   0      -7.180  27.402  13.590  0.00  0.00     0.143 C 
ATOM     40  O   UNK d   0      -6.330  28.264  13.305  0.00  0.00    -0.650 OA
BRANCH  39  41
ATOM     41  O   UNK d   0      -6.736  26.185  14.106  0.00  0.00    -0.776 OA
ATOM     42  H   UNK d   0      -6.793  26.066  15.122  0.00  0.00     0.167 HD
ENDBRANCH  39  41
ENDBRANCH  38  39
ENDBRANCH  31  38
BRANCH  27  43
ATOM     43  C   UNK d   0      -8.525  28.524  10.458  0.00  0.00     0.052 C 
BRANCH  43  44
ATOM     44  C   UNK d   0      -7.106  28.381  10.011  0.00  0.00     0.115 C 
BRANCH  44  45
ATOM     45  C   UNK d   0      -7.069  28.788   8.582  0.00  0.00     0.139 C 
ATOM     46  O   UNK d   0      -8.152  28.824   7.948  0.00  0.00    -0.650 OA
BRANCH  45  47
ATOM     47  O   UNK d   0      -5.902  29.131   7.934  0.00  0.00    -0.776 OA
ATOM     48  H   UNK d   0      -5.818  29.150   6.904  0.00  0.00     0.167 HD
ENDBRANCH  45  47
ENDBRANCH  44  45
ENDBRANCH  43  44
ENDBRANCH  27  43
BRANCH  24  49
ATOM     49  C   UNK d   0      -9.683  26.431   5.465  0.00  0.00     0.052 C 
BRANCH  49  50
ATOM     50  C   UNK d   0     -11.129  26.825   5.305  0.00  0.00     0.115 C 
BRANCH  50  51
ATOM     51  C   UNK d   0     -11.523  28.131   5.815  0.00  0.00     0.139 C 
ATOM     52  O   UNK d   0     -12.689  28.576   5.705  0.00  0.00    -0.650 OA
BRANCH  51  53
ATOM     53  O   UNK d   0     -10.585  28.931   6.450  0.00  0.00    -0.776 OA
ATOM     54  H   UNK d   0     -10.789  29.257   7.378  0.00  0.00     0.167 HD
ENDBRANCH  51  53
ENDBRANCH  50  51
ENDBRANCH  49  50
ENDBRANCH  24  49
BRANCH  21  55
ATOM     55  C   UNK d   0      -9.127  23.497   4.672  0.00  0.00     0.151 C 
BRANCH  55  56
ATOM     56  C   UNK d   0      -7.726  23.572   4.232  0.00  0.00     0.143 C 
ATOM     57  O   UNK d   0      -6.856  22.763   4.611  0.00  0.00    -0.650 OA
BRANCH  56  58
ATOM     58  O   UNK d   0      -7.375  24.596   3.354  0.00  0.00    -0.776 OA
ATOM     59  H   UNK d   0      -7.913  25.474   3.471  0.00  0.00     0.167 HD
ENDBRANCH  56  58
ENDBRANCH  55  56
ENDBRANCH  21  55
BRANCH  18  60
ATOM     60  C   UNK d   0     -10.410  19.226   7.658  0.00  0.00     0.151 C 
BRANCH  60  61
ATOM     61  C   UNK d   0     -11.871  19.278   7.819  0.00  0.00     0.143 C 
ATOM     62  O   UNK d   0     -12.659  18.334   7.757  0.00  0.00    -0.650 OA
BRANCH  61  63
ATOM     63  O   UNK d   0     -12.404  20.565   8.072  0.00  0.00    -0.776 OA
ATOM     64  H   UNK d   0     -13.042  20.722   8.832  0.00  0.00     0.167 HD
ENDBRANCH  61  63
ENDBRANCH  60  61
ENDBRANCH  18  60
BRANCH  14  65
ATOM     65  C   UNK d   0     -10.366  18.281  10.542  0.00  0.00     0.052 C 
BRANCH  65  66
ATOM     66  C   UNK d   0      -9.344  17.206  10.422  0.00  0.00     0.115 C 
BRANCH  66  67
ATOM     67  C   UNK d   0      -9.362  16.330   9.285  0.00  0.00     0.139 C 
ATOM     68  O   UNK d   0      -8.388  16.390   8.448  0.00  0.00    -0.650 OA
BRANCH  67  69
ATOM     69  O   UNK d   0     -10.332  15.385   8.951  0.00  0.00    -0.776 OA
ATOM     70  H   UNK d   0     -10.787  15.514   8.036  0.00  0.00     0.167 HD
ENDBRANCH  67  69
ENDBRANCH  66  67
ENDBRANCH  65  66
ENDBRANCH  14  65
ENDBRANCH   6   7
ENDBRANCH   5   6
ENDBRANCH   2   5
TORSDOF 28
ENDMDL
MODEL 12
REMARK VINA RESULT:      -7.8     25.053     27.752
REMARK  28 active torsions:
REMARK  status: ('A' for Active; 'I' for Inactive)
REMARK    1  A    between atoms: C_2  and  O_3 
REMARK    2  A    between atoms: C_2  and  C_4 
REMARK    3  A    between atoms: C_4  and  C_5 
REMARK    4  A    between atoms: C_5  and  C_6 
REMARK    5  A    between atoms: C_7  and  C_8 
REMARK    6  A    between atoms: C_8  and  C_9 
REMARK    7  A    between atoms: C_9  and  O_11 
REMARK    8  A    between atoms: C_28  and  C_29 
REMARK    9  A    between atoms: C_29  and  C_30 
REMARK   10  A    between atoms: C_30  and  O_32 
REMARK   11  A    between atoms: C_33  and  C_34 
REMARK   12  A    between atoms: C_34  and  C_35 
REMARK   13  A    between atoms: C_35  and  C_36 
REMARK   14  A    between atoms: C_36  and  O_38 
REMARK   15  A    between atoms: C_39  and  C_40 
REMARK   16  A    between atoms: C_40  and  C_41 
REMARK   17  A    between atoms: C_41  and  C_42 
REMARK   18  A    between atoms: C_42  and  O_44 
REMARK   19  A    between atoms: C_45  and  C_46 
REMARK   20  A    between atoms: C_46  and  C_47 
REMARK   21  A    between atoms: C_47  and  O_49 
REMARK   22  A    between atoms: C_50  and  C_51 
REMARK   23  A    between atoms: C_51  and  C_52 
REMARK   24  A    between atoms: C_52  and  O_54 
REMARK   25  A    between atoms: C_55  and  C_56 
REMARK   26  A    between atoms: C_56  and  C_57 
REMARK   27  A    between atoms: C_57  and  C_58 
REMARK   28  A    between atoms: C_58  and  O_60 
ROOT
ATOM      1  O   UNK d   0      -5.744   1.641  -0.705  0.00  0.00    -0.650 OA
ATOM      2  C   UNK d   0      -5.288   2.651  -1.286  0.00  0.00     0.139 C 
ENDROOT
BRANCH   2   3
ATOM      3  O   UNK d   0      -4.366   3.440  -0.642  0.00  0.00    -0.776 OA
ATOM      4  H   UNK d   0      -4.650   4.090   0.093  0.00  0.00     0.167 HD
ENDBRANCH   2   3
BRANCH   2   5
ATOM      5  C   UNK d   0      -5.744   2.991  -2.664  0.00  0.00     0.115 C 
BRANCH   5   6
ATOM      6  C   UNK d   0      -6.258   1.759  -3.358  0.00  0.00     0.052 C 
BRANCH   6   7
ATOM      7  C   UNK d   0      -5.346   1.292  -4.467  0.00  0.00    -0.020 A 
ATOM      8  C   UNK d   0      -5.558   1.358  -5.756  0.00  0.00    -0.011 A 
ATOM      9  C   UNK d   0      -4.406   0.779  -6.427  0.00  0.00     0.067 A 
ATOM     10  C   UNK d   0      -4.007   0.569  -7.756  0.00  0.00     0.062 C 
ATOM     11  N   UNK d   0      -3.542   0.381  -5.468  0.00  0.00    -0.248 NA
ATOM     12  C   UNK d   0      -2.726   0.244  -8.216  0.00  0.00     0.041 A 
ATOM     13  N   UNK d   0      -1.810  -0.624  -7.746  0.00  0.00    -0.355 N 
ATOM     14  C   UNK d   0      -2.205   0.935  -9.325  0.00  0.00    -0.022 A 
ATOM     15  C   UNK d   0      -0.718  -0.495  -8.524  0.00  0.00     0.042 A 
ATOM     16  H   UNK d   0      -1.939  -1.327  -6.894  0.00  0.00     0.166 HD
ATOM     17  C   UNK d   0       0.522  -1.163  -8.475  0.00  0.00     0.062 C 
ATOM     18  C   UNK d   0      -0.928   0.473  -9.524  0.00  0.00    -0.013 A 
ATOM     19  C   UNK d   0       1.308  -1.443  -7.386  0.00  0.00     0.067 A 
ATOM     20  N   UNK d   0       0.766  -1.245  -6.182  0.00  0.00    -0.248 NA
ATOM     21  C   UNK d   0       2.666  -1.914  -7.172  0.00  0.00    -0.011 A 
ATOM     22  C   UNK d   0       1.671  -1.551  -5.196  0.00  0.00     0.066 A 
ATOM     23  C   UNK d   0       1.224  -1.427  -3.888  0.00  0.00     0.062 C 
ATOM     24  C   UNK d   0       2.874  -1.972  -5.888  0.00  0.00    -0.020 A 
ATOM     25  C   UNK d   0      -0.070  -1.111  -3.448  0.00  0.00     0.041 A 
ATOM     26  N   UNK d   0      -0.975  -0.238  -3.905  0.00  0.00    -0.355 N 
ATOM     27  C   UNK d   0      -0.594  -1.809  -2.338  0.00  0.00    -0.022 A 
ATOM     28  C   UNK d   0      -2.062  -0.358  -3.126  0.00  0.00     0.042 A 
ATOM     29  H   UNK d   0      -0.840   0.476  -4.755  0.00  0.00     0.166 HD
ATOM     30  C   UNK d   0      -3.298   0.306  -3.158  0.00  0.00     0.062 C 
ATOM     31  C   UNK d   0      -1.854  -1.339  -2.127  0.00  0.00    -0.013 A 
ATOM     32  C   UNK d   0      -4.049   0.662  -4.267  0.00  0.00     0.066 A 
BRANCH   8  33
ATOM     33  C   UNK d   0      -6.747   1.910  -6.430  0.00  0.00     0.151 C 
BRANCH  33  34
ATOM     34  C   UNK d   0      -6.617   3.347  -6.731  0.00  0.00     0.143 C 
ATOM     35  O   UNK d   0      -6.164   3.731  -7.819  0.00  0.00    -0.650 OA
BRANCH  34  36
ATOM     36  O   UNK d   0      -7.002   4.272  -5.789  0.00  0.00    -0.776 OA
ATOM     37  H   UNK d   0      -6.580   4.287  -4.851  0.00  0.00     0.167 HD
ENDBRANCH  34  36
ENDBRANCH  33  34
ENDBRANCH   8  33
BRANCH  31  38
ATOM     38  C   UNK d   0      -2.810  -1.801  -1.052  0.00  0.00     0.151 C 
BRANCH  38  39
ATOM     39  C   UNK d   0      -2.686  -1.041   0.173  0.00  0.00     0.143 C 
ATOM     40  O   UNK d   0      -2.819  -1.561   1.295  0.00  0.00    -0.650 OA
BRANCH  39  41
ATOM     41  O   UNK d   0      -2.408   0.324   0.109  0.00  0.00    -0.776 OA
ATOM     42  H   UNK d   0      -3.201   0.963   0.219  0.00  0.00     0.167 HD
ENDBRANCH  39  41
ENDBRANCH  38  39
ENDBRANCH  31  38
BRANCH  27  43
ATOM     43  C   UNK d   0       0.046  -2.878  -1.489  0.00  0.00     0.052 C 
BRANCH  43  44
ATOM     44  C   UNK d   0       0.029  -4.229  -2.128  0.00  0.00     0.115 C 
BRANCH  44  45
ATOM     45  C   UNK d   0       1.314  -4.885  -1.770  0.00  0.00     0.139 C 
ATOM     46  O   UNK d   0       1.371  -6.138  -1.816  0.00  0.00    -0.650 OA
BRANCH  45  47
ATOM     47  O   UNK d   0       2.436  -4.177  -1.397  0.00  0.00    -0.776 OA
ATOM     48  H   UNK d   0       2.439  -3.150  -1.286  0.00  0.00     0.167 HD
ENDBRANCH  45  47
ENDBRANCH  44  45
ENDBRANCH  43  44
ENDBRANCH  27  43
BRANCH  24  49
ATOM     49  C   UNK d   0       4.106  -2.435  -5.228  0.00  0.00     0.052 C 
BRANCH  49  50
ATOM     50  C   UNK d   0       4.570  -1.421  -4.213  0.00  0.00     0.115 C 
BRANCH  50  51
ATOM     51  C   UNK d   0       5.000  -1.928  -2.916  0.00  0.00     0.139 C 
ATOM     52  O   UNK d   0       4.846  -3.123  -2.572  0.00  0.00    -0.650 OA
BRANCH  51  53
ATOM     53  O   UNK d   0       5.604  -1.069  -2.010  0.00  0.00    -0.776 OA
ATOM     54  H   UNK d   0       6.219  -1.462  -1.320  0.00  0.00     0.167 HD
ENDBRANCH  51  53
ENDBRANCH  50  51
ENDBRANCH  49  50
ENDBRANCH  24  49
BRANCH  21  55
ATOM     55  C   UNK d   0       3.613  -2.262  -8.272  0.00  0.00     0.151 C 
BRANCH  55  56
ATOM     56  C   UNK d   0       4.400  -1.099  -8.711  0.00  0.00     0.143 C 
ATOM     57  O   UNK d   0       3.947  -0.228  -9.480  0.00  0.00    -0.650 OA
BRANCH  56  58
ATOM     58  O   UNK d   0       5.705  -0.983  -8.236  0.00  0.00    -0.776 OA
ATOM     59  H   UNK d   0       5.814  -0.374  -7.405  0.00  0.00     0.167 HD
ENDBRANCH  56  58
ENDBRANCH  55  56
ENDBRANCH  21  55
BRANCH  18  60
ATOM     60  C   UNK d   0       0.004   0.951 -10.610  0.00  0.00     0.151 C 
BRANCH  60  61
ATOM     61  C   UNK d   0      -0.341   0.174 -11.810  0.00  0.00     0.143 C 
ATOM     62  O   UNK d   0      -0.558  -1.036 -11.873  0.00  0.00    -0.650 OA
BRANCH  61  63
ATOM     63  O   UNK d   0      -0.427   0.923 -13.008  0.00  0.00    -0.776 OA
ATOM     64  H   UNK d   0       0.292   0.866 -13.708  0.00  0.00     0.167 HD
ENDBRANCH  61  63
ENDBRANCH  60  61
ENDBRANCH  18  60
BRANCH  14  65
ATOM     65  C   UNK d   0      -2.851   1.918 -10.260  0.00  0.00     0.052 C 
BRANCH  65  66
ATOM     66  C   UNK d   0      -3.655   1.263 -11.327  0.00  0.00     0.115 C 
BRANCH  66  67
ATOM     67  C   UNK d   0      -3.693   1.836 -12.643  0.00  0.00     0.139 C 
ATOM     68  O   UNK d   0      -4.489   1.323 -13.513  0.00  0.00    -0.650 OA
BRANCH  67  69
ATOM     69  O   UNK d   0      -2.953   2.915 -13.125  0.00  0.00    -0.776 OA
ATOM     70  H   UNK d   0      -2.425   3.448 -12.418  0.00  0.00     0.167 HD
ENDBRANCH  67  69
ENDBRANCH  66  67
ENDBRANCH  65  66
ENDBRANCH  14  65
ENDBRANCH   6   7
ENDBRANCH   5   6
ENDBRANCH   2   5
TORSDOF 28
ENDMDL
MODEL 13
REMARK VINA RESULT:      -7.6     24.777     27.216
REMARK  28 active torsions:
REMARK  status: ('A' for Active; 'I' for Inactive)
REMARK    1  A    between atoms: C_2  and  O_3 
REMARK    2  A    between atoms: C_2  and  C_4 
REMARK    3  A    between atoms: C_4  and  C_5 
REMARK    4  A    between atoms: C_5  and  C_6 
REMARK    5  A    between atoms: C_7  and  C_8 
REMARK    6  A    between atoms: C_8  and  C_9 
REMARK    7  A    between atoms: C_9  and  O_11 
REMARK    8  A    between atoms: C_28  and  C_29 
REMARK    9  A    between atoms: C_29  and  C_30 
REMARK   10  A    between atoms: C_30  and  O_32 
REMARK   11  A    between atoms: C_33  and  C_34 
REMARK   12  A    between atoms: C_34  and  C_35 
REMARK   13  A    between atoms: C_35  and  C_36 
REMARK   14  A    between atoms: C_36  and  O_38 
REMARK   15  A    between atoms: C_39  and  C_40 
REMARK   16  A    between atoms: C_40  and  C_41 
REMARK   17  A    between atoms: C_41  and  C_42 
REMARK   18  A    between atoms: C_42  and  O_44 
REMARK   19  A    between atoms: C_45  and  C_46 
REMARK   20  A    between atoms: C_46  and  C_47 
REMARK   21  A    between atoms: C_47  and  O_49 
REMARK   22  A    between atoms: C_50  and  C_51 
REMARK   23  A    between atoms: C_51  and  C_52 
REMARK   24  A    between atoms: C_52  and  O_54 
REMARK   25  A    between atoms: C_55  and  C_56 
REMARK   26  A    between atoms: C_56  and  C_57 
REMARK   27  A    between atoms: C_57  and  C_58 
REMARK   28  A    between atoms: C_58  and  O_60 
ROOT
ATOM      1  O   UNK d   0      -6.148   2.839  -1.060  0.00  0.00    -0.650 OA
ATOM      2  C   UNK d   0      -4.957   3.138  -0.819  0.00  0.00     0.139 C 
ENDROOT
BRANCH   2   3
ATOM      3  O   UNK d   0      -4.681   4.272  -0.093  0.00  0.00    -0.776 OA
ATOM      4  H   UNK d   0      -4.847   4.307   0.915  0.00  0.00     0.167 HD
ENDBRANCH   2   3
BRANCH   2   5
ATOM      5  C   UNK d   0      -3.852   2.270  -1.316  0.00  0.00     0.115 C 
BRANCH   5   6
ATOM      6  C   UNK d   0      -4.407   0.972  -1.835  0.00  0.00     0.052 C 
BRANCH   6   7
ATOM      7  C   UNK d   0      -3.992   0.691  -3.260  0.00  0.00    -0.020 A 
ATOM      8  C   UNK d   0      -4.696   0.877  -4.347  0.00  0.00    -0.011 A 
ATOM      9  C   UNK d   0      -3.886   0.456  -5.478  0.00  0.00     0.067 A 
ATOM     10  C   UNK d   0      -4.038   0.417  -6.873  0.00  0.00     0.062 C 
ATOM     11  N   UNK d   0      -2.707   0.022  -4.987  0.00  0.00    -0.248 NA
ATOM     12  C   UNK d   0      -3.033   0.234  -7.830  0.00  0.00     0.041 A 
ATOM     13  N   UNK d   0      -1.985  -0.611  -7.864  0.00  0.00    -0.355 N 
ATOM     14  C   UNK d   0      -3.007   1.074  -8.958  0.00  0.00    -0.022 A 
ATOM     15  C   UNK d   0      -1.291  -0.324  -8.982  0.00  0.00     0.042 A 
ATOM     16  H   UNK d   0      -1.752  -1.408  -7.124  0.00  0.00     0.166 HD
ATOM     17  C   UNK d   0      -0.115  -0.902  -9.500  0.00  0.00     0.062 C 
ATOM     18  C   UNK d   0      -1.900   0.728  -9.693  0.00  0.00    -0.013 A 
ATOM     19  C   UNK d   0       1.042  -1.239  -8.846  0.00  0.00     0.067 A 
ATOM     20  N   UNK d   0       1.012  -1.209  -7.511  0.00  0.00    -0.248 NA
ATOM     21  C   UNK d   0       2.386  -1.633  -9.235  0.00  0.00    -0.011 A 
ATOM     22  C   UNK d   0       2.239  -1.553  -6.999  0.00  0.00     0.066 A 
ATOM     23  C   UNK d   0       2.340  -1.599  -5.616  0.00  0.00     0.062 C 
ATOM     24  C   UNK d   0       3.083  -1.810  -8.150  0.00  0.00    -0.020 A 
ATOM     25  C   UNK d   0       1.315  -1.425  -4.673  0.00  0.00     0.041 A 
ATOM     26  N   UNK d   0       0.282  -0.575  -4.631  0.00  0.00    -0.355 N 
ATOM     27  C   UNK d   0       1.287  -2.271  -3.543  0.00  0.00    -0.022 A 
ATOM     28  C   UNK d   0      -0.407  -0.853  -3.513  0.00  0.00     0.042 A 
ATOM     29  H   UNK d   0       0.055   0.233  -5.370  0.00  0.00     0.166 HD
ATOM     30  C   UNK d   0      -1.572  -0.280  -2.981  0.00  0.00     0.062 C 
ATOM     31  C   UNK d   0       0.200  -1.917  -2.805  0.00  0.00    -0.013 A 
ATOM     32  C   UNK d   0      -2.707   0.138  -3.658  0.00  0.00     0.066 A 
BRANCH   8  33
ATOM     33  C   UNK d   0      -6.068   1.411  -4.433  0.00  0.00     0.151 C 
BRANCH  33  34
ATOM     34  C   UNK d   0      -6.101   2.877  -4.589  0.00  0.00     0.143 C 
ATOM     35  O   UNK d   0      -7.174   3.476  -4.746  0.00  0.00    -0.650 OA
BRANCH  34  36
ATOM     36  O   UNK d   0      -4.922   3.585  -4.561  0.00  0.00    -0.776 OA
ATOM     37  H   UNK d   0      -4.253   3.541  -5.342  0.00  0.00     0.167 HD
ENDBRANCH  34  36
ENDBRANCH  33  34
ENDBRANCH   8  33
BRANCH  31  38
ATOM     38  C   UNK d   0      -0.245  -2.557  -1.510  0.00  0.00     0.151 C 
BRANCH  38  39
ATOM     39  C   UNK d   0      -1.370  -3.451  -1.684  0.00  0.00     0.143 C 
ATOM     40  O   UNK d   0      -1.263  -4.554  -2.247  0.00  0.00    -0.650 OA
BRANCH  39  41
ATOM     41  O   UNK d   0      -2.625  -3.075  -1.206  0.00  0.00    -0.776 OA
ATOM     42  H   UNK d   0      -2.660  -2.251  -0.597  0.00  0.00     0.167 HD
ENDBRANCH  39  41
ENDBRANCH  38  39
ENDBRANCH  31  38
BRANCH  27  43
ATOM     43  C   UNK d   0       2.235  -3.376  -3.150  0.00  0.00     0.052 C 
BRANCH  43  44
ATOM     44  C   UNK d   0       3.229  -2.961  -2.114  0.00  0.00     0.115 C 
BRANCH  44  45
ATOM     45  C   UNK d   0       4.447  -2.524  -2.846  0.00  0.00     0.139 C 
ATOM     46  O   UNK d   0       5.175  -3.407  -3.363  0.00  0.00    -0.650 OA
BRANCH  45  47
ATOM     47  O   UNK d   0       4.801  -1.200  -2.982  0.00  0.00    -0.776 OA
ATOM     48  H   UNK d   0       5.377  -0.852  -3.767  0.00  0.00     0.167 HD
ENDBRANCH  45  47
ENDBRANCH  44  45
ENDBRANCH  43  44
ENDBRANCH  27  43
BRANCH  24  49
ATOM     49  C   UNK d   0       4.486  -2.252  -8.082  0.00  0.00     0.052 C 
BRANCH  49  50
ATOM     50  C   UNK d   0       5.342  -1.184  -7.449  0.00  0.00     0.115 C 
BRANCH  50  51
ATOM     51  C   UNK d   0       6.084  -1.551  -6.251  0.00  0.00     0.139 C 
ATOM     52  O   UNK d   0       6.548  -0.700  -5.455  0.00  0.00    -0.650 OA
BRANCH  51  53
ATOM     53  O   UNK d   0       6.301  -2.889  -5.960  0.00  0.00    -0.776 OA
ATOM     54  H   UNK d   0       7.230  -3.176  -5.705  0.00  0.00     0.167 HD
ENDBRANCH  51  53
ENDBRANCH  50  51
ENDBRANCH  49  50
ENDBRANCH  24  49
BRANCH  21  55
ATOM     55  C   UNK d   0       2.832  -1.794 -10.650  0.00  0.00     0.151 C 
BRANCH  55  56
ATOM     56  C   UNK d   0       3.158  -0.503 -11.276  0.00  0.00     0.143 C 
ATOM     57  O   UNK d   0       2.305   0.206 -11.844  0.00  0.00    -0.650 OA
BRANCH  56  58
ATOM     58  O   UNK d   0       4.482  -0.072 -11.222  0.00  0.00    -0.776 OA
ATOM     59  H   UNK d   0       4.672   0.665 -10.519  0.00  0.00     0.167 HD
ENDBRANCH  56  58
ENDBRANCH  55  56
ENDBRANCH  21  55
BRANCH  18  60
ATOM     60  C   UNK d   0      -1.481   1.383 -10.986  0.00  0.00     0.151 C 
BRANCH  60  61
ATOM     61  C   UNK d   0      -1.781   0.410 -12.047  0.00  0.00     0.143 C 
ATOM     62  O   UNK d   0      -0.987  -0.076 -12.853  0.00  0.00    -0.650 OA
BRANCH  61  63
ATOM     63  O   UNK d   0      -3.135   0.006 -12.129  0.00  0.00    -0.776 OA
ATOM     64  H   UNK d   0      -3.380  -0.952 -12.306  0.00  0.00     0.167 HD
ENDBRANCH  61  63
ENDBRANCH  60  61
ENDBRANCH  18  60
BRANCH  14  65
ATOM     65  C   UNK d   0      -3.992   2.101  -9.439  0.00  0.00     0.052 C 
BRANCH  65  66
ATOM     66  C   UNK d   0      -4.280   3.151  -8.425  0.00  0.00     0.115 C 
BRANCH  66  67
ATOM     67  C   UNK d   0      -5.641   3.459  -8.087  0.00  0.00     0.139 C 
ATOM     68  O   UNK d   0      -6.042   4.675  -8.203  0.00  0.00    -0.650 OA
BRANCH  67  69
ATOM     69  O   UNK d   0      -6.626   2.583  -7.631  0.00  0.00    -0.776 OA
ATOM     70  H   UNK d   0      -7.430   2.446  -8.261  0.00  0.00     0.167 HD
ENDBRANCH  67  69
ENDBRANCH  66  67
ENDBRANCH  65  66
ENDBRANCH  14  65
ENDBRANCH   6   7
ENDBRANCH   5   6
ENDBRANCH   2   5
TORSDOF 28
ENDMDL
MODEL 14
REMARK VINA RESULT:      -7.6     26.328     30.060
REMARK  28 active torsions:
REMARK  status: ('A' for Active; 'I' for Inactive)
REMARK    1  A    between atoms: C_2  and  O_3 
REMARK    2  A    between atoms: C_2  and  C_4 
REMARK    3  A    between atoms: C_4  and  C_5 
REMARK    4  A    between atoms: C_5  and  C_6 
REMARK    5  A    between atoms: C_7  and  C_8 
REMARK    6  A    between atoms: C_8  and  C_9 
REMARK    7  A    between atoms: C_9  and  O_11 
REMARK    8  A    between atoms: C_28  and  C_29 
REMARK    9  A    between atoms: C_29  and  C_30 
REMARK   10  A    between atoms: C_30  and  O_32 
REMARK   11  A    between atoms: C_33  and  C_34 
REMARK   12  A    between atoms: C_34  and  C_35 
REMARK   13  A    between atoms: C_35  and  C_36 
REMARK   14  A    between atoms: C_36  and  O_38 
REMARK   15  A    between atoms: C_39  and  C_40 
REMARK   16  A    between atoms: C_40  and  C_41 
REMARK   17  A    between atoms: C_41  and  C_42 
REMARK   18  A    between atoms: C_42  and  O_44 
REMARK   19  A    between atoms: C_45  and  C_46 
REMARK   20  A    between atoms: C_46  and  C_47 
REMARK   21  A    between atoms: C_47  and  O_49 
REMARK   22  A    between atoms: C_50  and  C_51 
REMARK   23  A    between atoms: C_51  and  C_52 
REMARK   24  A    between atoms: C_52  and  O_54 
REMARK   25  A    between atoms: C_55  and  C_56 
REMARK   26  A    between atoms: C_56  and  C_57 
REMARK   27  A    between atoms: C_57  and  C_58 
REMARK   28  A    between atoms: C_58  and  O_60 
ROOT
ATOM      1  O   UNK d   0      16.623  -7.482  12.639  0.00  0.00    -0.650 OA
ATOM      2  C   UNK d   0      16.673  -7.181  11.425  0.00  0.00     0.139 C 
ENDROOT
BRANCH   2   3
ATOM      3  O   UNK d   0      16.032  -7.978  10.507  0.00  0.00    -0.776 OA
ATOM      4  H   UNK d   0      15.762  -8.936  10.737  0.00  0.00     0.167 HD
ENDBRANCH   2   3
BRANCH   2   5
ATOM      5  C   UNK d   0      17.422  -5.970  10.985  0.00  0.00     0.115 C 
BRANCH   5   6
ATOM      6  C   UNK d   0      18.735  -6.369  10.368  0.00  0.00     0.052 C 
BRANCH   6   7
ATOM      7  C   UNK d   0      18.912  -5.819   8.973  0.00  0.00    -0.020 A 
ATOM      8  C   UNK d   0      18.862  -6.477   7.843  0.00  0.00    -0.011 A 
ATOM      9  C   UNK d   0      19.100  -5.531   6.766  0.00  0.00     0.067 A 
ATOM     10  C   UNK d   0      19.155  -5.585   5.365  0.00  0.00     0.062 C 
ATOM     11  N   UNK d   0      19.292  -4.321   7.332  0.00  0.00    -0.248 NA
ATOM     12  C   UNK d   0      19.122  -4.507   4.474  0.00  0.00     0.041 A 
ATOM     13  N   UNK d   0      19.738  -3.310   4.507  0.00  0.00    -0.355 N 
ATOM     14  C   UNK d   0      18.283  -4.581   3.347  0.00  0.00    -0.022 A 
ATOM     15  C   UNK d   0      19.305  -2.620   3.435  0.00  0.00     0.042 A 
ATOM     16  H   UNK d   0      20.478  -2.967   5.263  0.00  0.00     0.166 HD
ATOM     17  C   UNK d   0      19.630  -1.322   2.992  0.00  0.00     0.062 C 
ATOM     18  C   UNK d   0      18.392  -3.385   2.683  0.00  0.00    -0.013 A 
ATOM     19  C   UNK d   0      19.732  -0.163   3.719  0.00  0.00     0.067 A 
ATOM     20  N   UNK d   0      19.721  -0.281   5.049  0.00  0.00    -0.248 NA
ATOM     21  C   UNK d   0      19.842   1.254   3.416  0.00  0.00    -0.011 A 
ATOM     22  C   UNK d   0      19.814   0.956   5.638  0.00  0.00     0.066 A 
ATOM     23  C   UNK d   0      19.852   0.978   7.024  0.00  0.00     0.062 C 
ATOM     24  C   UNK d   0      19.885   1.904   4.543  0.00  0.00    -0.020 A 
ATOM     25  C   UNK d   0      19.898  -0.117   7.901  0.00  0.00     0.041 A 
ATOM     26  N   UNK d   0      19.275  -1.301   7.876  0.00  0.00    -0.355 N 
ATOM     27  C   UNK d   0      20.743  -0.043   9.029  0.00  0.00    -0.022 A 
ATOM     28  C   UNK d   0      19.698  -1.987   8.949  0.00  0.00     0.042 A 
ATOM     29  H   UNK d   0      18.523  -1.640   7.121  0.00  0.00     0.166 HD
ATOM     30  C   UNK d   0      19.376  -3.275   9.406  0.00  0.00     0.062 C 
ATOM     31  C   UNK d   0      20.623  -1.222   9.698  0.00  0.00    -0.013 A 
ATOM     32  C   UNK d   0      19.191  -4.426   8.657  0.00  0.00     0.066 A 
BRANCH   8  33
ATOM     33  C   UNK d   0      18.615  -7.921   7.670  0.00  0.00     0.151 C 
BRANCH  33  34
ATOM     34  C   UNK d   0      17.318  -8.205   7.030  0.00  0.00     0.143 C 
ATOM     35  O   UNK d   0      16.256  -8.055   7.650  0.00  0.00    -0.650 OA
BRANCH  34  36
ATOM     36  O   UNK d   0      17.290  -8.644   5.726  0.00  0.00    -0.776 OA
ATOM     37  H   UNK d   0      16.404  -8.887   5.263  0.00  0.00     0.167 HD
ENDBRANCH  34  36
ENDBRANCH  33  34
ENDBRANCH   8  33
BRANCH  31  38
ATOM     38  C   UNK d   0      21.352  -1.608  10.964  0.00  0.00     0.151 C 
BRANCH  38  39
ATOM     39  C   UNK d   0      22.560  -2.363  10.708  0.00  0.00     0.143 C 
ATOM     40  O   UNK d   0      23.624  -1.820  10.364  0.00  0.00    -0.650 OA
BRANCH  39  41
ATOM     41  O   UNK d   0      22.545  -3.751  10.851  0.00  0.00    -0.776 OA
ATOM     42  H   UNK d   0      21.639  -4.183  11.057  0.00  0.00     0.167 HD
ENDBRANCH  39  41
ENDBRANCH  38  39
ENDBRANCH  31  38
BRANCH  27  43
ATOM     43  C   UNK d   0      21.638   1.083   9.485  0.00  0.00     0.052 C 
BRANCH  43  44
ATOM     44  C   UNK d   0      21.148   1.763  10.722  0.00  0.00     0.115 C 
BRANCH  44  45
ATOM     45  C   UNK d   0      20.265   2.872  10.275  0.00  0.00     0.139 C 
ATOM     46  O   UNK d   0      19.242   3.126  10.959  0.00  0.00    -0.650 OA
BRANCH  45  47
ATOM     47  O   UNK d   0      20.525   3.629   9.154  0.00  0.00    -0.776 OA
ATOM     48  H   UNK d   0      21.411   4.143   9.018  0.00  0.00     0.167 HD
ENDBRANCH  45  47
ENDBRANCH  44  45
ENDBRANCH  43  44
ENDBRANCH  27  43
BRANCH  24  49
ATOM     49  C   UNK d   0      20.035   3.361   4.700  0.00  0.00     0.052 C 
BRANCH  49  50
ATOM     50  C   UNK d   0      18.727   3.979   5.123  0.00  0.00     0.115 C 
BRANCH  50  51
ATOM     51  C   UNK d   0      18.794   5.202   5.911  0.00  0.00     0.139 C 
ATOM     52  O   UNK d   0      19.871   5.656   6.365  0.00  0.00    -0.650 OA
BRANCH  51  53
ATOM     53  O   UNK d   0      17.632   5.907   6.185  0.00  0.00    -0.776 OA
ATOM     54  H   UNK d   0      17.684   6.910   6.233  0.00  0.00     0.167 HD
ENDBRANCH  51  53
ENDBRANCH  50  51
ENDBRANCH  49  50
ENDBRANCH  24  49
BRANCH  21  55
ATOM     55  C   UNK d   0      19.896   1.810   2.031  0.00  0.00     0.151 C 
BRANCH  55  56
ATOM     56  C   UNK d   0      18.584   1.766   1.368  0.00  0.00     0.143 C 
ATOM     57  O   UNK d   0      18.362   1.071   0.356  0.00  0.00    -0.650 OA
BRANCH  56  58
ATOM     58  O   UNK d   0      17.558   2.540   1.906  0.00  0.00    -0.776 OA
ATOM     59  H   UNK d   0      16.722   2.637   1.302  0.00  0.00     0.167 HD
ENDBRANCH  56  58
ENDBRANCH  55  56
ENDBRANCH  21  55
BRANCH  18  60
ATOM     60  C   UNK d   0      17.653  -3.028   1.417  0.00  0.00     0.151 C 
BRANCH  60  61
ATOM     61  C   UNK d   0      16.561  -2.131   1.826  0.00  0.00     0.143 C 
ATOM     62  O   UNK d   0      15.863  -2.225   2.836  0.00  0.00    -0.650 OA
BRANCH  61  63
ATOM     63  O   UNK d   0      16.305  -1.053   0.945  0.00  0.00    -0.776 OA
ATOM     64  H   UNK d   0      17.041  -0.432   0.658  0.00  0.00     0.167 HD
ENDBRANCH  61  63
ENDBRANCH  60  61
ENDBRANCH  18  60
BRANCH  14  65
ATOM     65  C   UNK d   0      17.472  -5.722   2.801  0.00  0.00     0.052 C 
BRANCH  65  66
ATOM     66  C   UNK d   0      16.300  -6.061   3.652  0.00  0.00     0.115 C 
BRANCH  66  67
ATOM     67  C   UNK d   0      15.748  -7.386   3.609  0.00  0.00     0.139 C 
ATOM     68  O   UNK d   0      16.280  -8.246   2.815  0.00  0.00    -0.650 OA
BRANCH  67  69
ATOM     69  O   UNK d   0      14.670  -7.886   4.340  0.00  0.00    -0.776 OA
ATOM     70  H   UNK d   0      13.755  -7.461   4.134  0.00  0.00     0.167 HD
ENDBRANCH  67  69
ENDBRANCH  66  67
ENDBRANCH  65  66
ENDBRANCH  14  65
ENDBRANCH   6   7
ENDBRANCH   5   6
ENDBRANCH   2   5
TORSDOF 28
ENDMDL
