MODEL 1
REMARK VINA RESULT:      -9.6      0.000      0.000
REMARK  28 active torsions:
REMARK  status: ('A' for Active; 'I' for Inactive)
REMARK    1  A    between atoms: C_2  and  O_3 
REMARK    2  A    between atoms: C_2  and  C_4 
REMARK    3  A    between atoms: C_4  and  C_5 
REMARK    4  A    between atoms: C_5  and  C_6 
REMARK    5  A    between atoms: C_7  and  C_8 
REMARK    6  A    between atoms: C_8  and  C_9 
REMARK    7  A    between atoms: C_9  and  O_11 
REMARK    8  A    between atoms: C_28  and  C_29 
REMARK    9  A    between atoms: C_29  and  C_30 
REMARK   10  A    between atoms: C_30  and  O_32 
REMARK   11  A    between atoms: C_33  and  C_34 
REMARK   12  A    between atoms: C_34  and  C_35 
REMARK   13  A    between atoms: C_35  and  C_36 
REMARK   14  A    between atoms: C_36  and  O_38 
REMARK   15  A    between atoms: C_39  and  C_40 
REMARK   16  A    between atoms: C_40  and  C_41 
REMARK   17  A    between atoms: C_41  and  C_42 
REMARK   18  A    between atoms: C_42  and  O_44 
REMARK   19  A    between atoms: C_45  and  C_46 
REMARK   20  A    between atoms: C_46  and  C_47 
REMARK   21  A    between atoms: C_47  and  O_49 
REMARK   22  A    between atoms: C_50  and  C_51 
REMARK   23  A    between atoms: C_51  and  C_52 
REMARK   24  A    between atoms: C_52  and  O_54 
REMARK   25  A    between atoms: C_55  and  C_56 
REMARK   26  A    between atoms: C_56  and  C_57 
REMARK   27  A    between atoms: C_57  and  C_58 
REMARK   28  A    between atoms: C_58  and  O_60 
ROOT
ATOM      1  O   UNK d   0     -14.503  -6.313  16.690  0.00  0.00    -0.650 OA
ATOM      2  C   UNK d   0     -14.570  -5.111  17.032  0.00  0.00     0.139 C 
ENDROOT
BRANCH   2   3
ATOM      3  O   UNK d   0     -15.620  -4.343  16.590  0.00  0.00    -0.776 OA
ATOM      4  H   UNK d   0     -15.704  -3.360  16.857  0.00  0.00     0.167 HD
ENDBRANCH   2   3
BRANCH   2   5
ATOM      5  C   UNK d   0     -13.519  -4.522  17.908  0.00  0.00     0.115 C 
BRANCH   5   6
ATOM      6  C   UNK d   0     -12.387  -3.989  17.073  0.00  0.00     0.052 C 
BRANCH   6   7
ATOM      7  C   UNK d   0     -11.033  -4.276  17.676  0.00  0.00    -0.020 A 
ATOM      8  C   UNK d   0     -10.208  -3.423  18.228  0.00  0.00    -0.011 A 
ATOM      9  C   UNK d   0      -9.029  -4.158  18.657  0.00  0.00     0.067 A 
ATOM     10  C   UNK d   0      -7.827  -3.850  19.312  0.00  0.00     0.062 C 
ATOM     11  N   UNK d   0      -9.219  -5.451  18.321  0.00  0.00    -0.248 NA
ATOM     12  C   UNK d   0      -6.924  -4.748  19.892  0.00  0.00     0.041 A 
ATOM     13  N   UNK d   0      -6.450  -5.931  19.459  0.00  0.00    -0.355 N 
ATOM     14  C   UNK d   0      -6.416  -4.469  21.173  0.00  0.00    -0.022 A 
ATOM     15  C   UNK d   0      -5.659  -6.414  20.437  0.00  0.00     0.042 A 
ATOM     16  H   UNK d   0      -6.654  -6.407  18.475  0.00  0.00     0.166 HD
ATOM     17  C   UNK d   0      -4.917  -7.610  20.504  0.00  0.00     0.062 C 
ATOM     18  C   UNK d   0      -5.614  -5.525  21.528  0.00  0.00    -0.013 A 
ATOM     19  C   UNK d   0      -5.297  -8.882  20.158  0.00  0.00     0.067 A 
ATOM     20  N   UNK d   0      -6.444  -9.008  19.484  0.00  0.00    -0.248 NA
ATOM     21  C   UNK d   0      -4.764 -10.220  20.350  0.00  0.00    -0.011 A 
ATOM     22  C   UNK d   0      -6.699 -10.332  19.223  0.00  0.00     0.066 A 
ATOM     23  C   UNK d   0      -7.846 -10.606  18.493  0.00  0.00     0.062 C 
ATOM     24  C   UNK d   0      -5.591 -11.064  19.804  0.00  0.00    -0.020 A 
ATOM     25  C   UNK d   0      -8.733  -9.689  17.908  0.00  0.00     0.041 A 
ATOM     26  N   UNK d   0      -9.216  -8.519  18.344  0.00  0.00    -0.355 N 
ATOM     27  C   UNK d   0      -9.240  -9.967  16.620  0.00  0.00    -0.022 A 
ATOM     28  C   UNK d   0     -10.012  -8.040  17.375  0.00  0.00     0.042 A 
ATOM     29  H   UNK d   0      -9.019  -8.048  19.338  0.00  0.00     0.166 HD
ATOM     30  C   UNK d   0     -10.763  -6.857  17.298  0.00  0.00     0.062 C 
ATOM     31  C   UNK d   0     -10.049  -8.929  16.274  0.00  0.00    -0.013 A 
ATOM     32  C   UNK d   0     -10.406  -5.588  17.728  0.00  0.00     0.066 A 
BRANCH   8  33
ATOM     33  C   UNK d   0     -10.414  -1.972  18.392  0.00  0.00     0.151 C 
BRANCH  33  34
ATOM     34  C   UNK d   0      -9.417  -1.169  17.661  0.00  0.00     0.143 C 
ATOM     35  O   UNK d   0      -9.376  -1.178  16.422  0.00  0.00    -0.650 OA
BRANCH  34  36
ATOM     36  O   UNK d   0      -8.521  -0.400  18.366  0.00  0.00    -0.776 OA
ATOM     37  H   UNK d   0      -8.655   0.615  18.473  0.00  0.00     0.167 HD
ENDBRANCH  34  36
ENDBRANCH  33  34
ENDBRANCH   8  33
BRANCH  31  38
ATOM     38  C   UNK d   0     -10.803  -8.780  14.973  0.00  0.00     0.151 C 
BRANCH  38  39
ATOM     39  C   UNK d   0     -12.172  -9.241  15.062  0.00  0.00     0.143 C 
ATOM     40  O   UNK d   0     -12.467 -10.448  15.106  0.00  0.00    -0.650 OA
BRANCH  39  41
ATOM     41  O   UNK d   0     -13.208  -8.308  15.102  0.00  0.00    -0.776 OA
ATOM     42  H   UNK d   0     -13.737  -8.242  15.977  0.00  0.00     0.167 HD
ENDBRANCH  39  41
ENDBRANCH  38  39
ENDBRANCH  31  38
BRANCH  27  43
ATOM     43  C   UNK d   0      -8.989 -11.158  15.728  0.00  0.00     0.052 C 
BRANCH  43  44
ATOM     44  C   UNK d   0      -7.755 -11.024  14.896  0.00  0.00     0.115 C 
BRANCH  44  45
ATOM     45  C   UNK d   0      -6.929 -12.229  15.165  0.00  0.00     0.139 C 
ATOM     46  O   UNK d   0      -7.048 -13.213  14.393  0.00  0.00    -0.650 OA
BRANCH  45  47
ATOM     47  O   UNK d   0      -6.041 -12.308  16.216  0.00  0.00    -0.776 OA
ATOM     48  H   UNK d   0      -6.305 -12.669  17.147  0.00  0.00     0.167 HD
ENDBRANCH  45  47
ENDBRANCH  44  45
ENDBRANCH  43  44
ENDBRANCH  27  43
BRANCH  24  49
ATOM     49  C   UNK d   0      -5.420 -12.526  19.734  0.00  0.00     0.052 C 
BRANCH  49  50
ATOM     50  C   UNK d   0      -6.075 -13.188  20.918  0.00  0.00     0.115 C 
BRANCH  50  51
ATOM     51  C   UNK d   0      -7.436 -13.675  20.739  0.00  0.00     0.139 C 
ATOM     52  O   UNK d   0      -8.442 -12.941  20.885  0.00  0.00    -0.650 OA
BRANCH  51  53
ATOM     53  O   UNK d   0      -7.651 -15.001  20.396  0.00  0.00    -0.776 OA
ATOM     54  H   UNK d   0      -8.196 -15.571  21.019  0.00  0.00     0.167 HD
ENDBRANCH  51  53
ENDBRANCH  50  51
ENDBRANCH  49  50
ENDBRANCH  24  49
BRANCH  21  55
ATOM     55  C   UNK d   0      -3.482 -10.515  21.054  0.00  0.00     0.151 C 
BRANCH  55  56
ATOM     56  C   UNK d   0      -3.621 -10.420  22.516  0.00  0.00     0.143 C 
ATOM     57  O   UNK d   0      -4.150 -11.316  23.203  0.00  0.00    -0.650 OA
BRANCH  56  58
ATOM     58  O   UNK d   0      -3.135  -9.273  23.141  0.00  0.00    -0.776 OA
ATOM     59  H   UNK d   0      -2.450  -8.730  22.585  0.00  0.00     0.167 HD
ENDBRANCH  56  58
ENDBRANCH  55  56
ENDBRANCH  21  55
BRANCH  18  60
ATOM     60  C   UNK d   0      -4.869  -5.645  22.835  0.00  0.00     0.151 C 
BRANCH  60  61
ATOM     61  C   UNK d   0      -3.445  -5.485  22.504  0.00  0.00     0.143 C 
ATOM     62  O   UNK d   0      -2.920  -4.534  21.925  0.00  0.00    -0.650 OA
BRANCH  61  63
ATOM     63  O   UNK d   0      -2.609  -6.555  22.907  0.00  0.00    -0.776 OA
ATOM     64  H   UNK d   0      -1.783  -6.791  22.387  0.00  0.00     0.167 HD
ENDBRANCH  61  63
ENDBRANCH  60  61
ENDBRANCH  18  60
BRANCH  14  65
ATOM     65  C   UNK d   0      -6.550  -3.247  22.038  0.00  0.00     0.052 C 
BRANCH  65  66
ATOM     66  C   UNK d   0      -5.624  -2.152  21.645  0.00  0.00     0.115 C 
BRANCH  66  67
ATOM     67  C   UNK d   0      -4.564  -1.764  22.533  0.00  0.00     0.139 C 
ATOM     68  O   UNK d   0      -4.847  -1.547  23.768  0.00  0.00    -0.650 OA
BRANCH  67  69
ATOM     69  O   UNK d   0      -3.216  -1.582  22.225  0.00  0.00    -0.776 OA
ATOM     70  H   UNK d   0      -2.948  -1.784  21.251  0.00  0.00     0.167 HD
ENDBRANCH  67  69
ENDBRANCH  66  67
ENDBRANCH  65  66
ENDBRANCH  14  65
ENDBRANCH   6   7
ENDBRANCH   5   6
ENDBRANCH   2   5
TORSDOF 28
ENDMDL
MODEL 2
REMARK VINA RESULT:      -9.4      2.505      8.256
REMARK  28 active torsions:
REMARK  status: ('A' for Active; 'I' for Inactive)
REMARK    1  A    between atoms: C_2  and  O_3 
REMARK    2  A    between atoms: C_2  and  C_4 
REMARK    3  A    between atoms: C_4  and  C_5 
REMARK    4  A    between atoms: C_5  and  C_6 
REMARK    5  A    between atoms: C_7  and  C_8 
REMARK    6  A    between atoms: C_8  and  C_9 
REMARK    7  A    between atoms: C_9  and  O_11 
REMARK    8  A    between atoms: C_28  and  C_29 
REMARK    9  A    between atoms: C_29  and  C_30 
REMARK   10  A    between atoms: C_30  and  O_32 
REMARK   11  A    between atoms: C_33  and  C_34 
REMARK   12  A    between atoms: C_34  and  C_35 
REMARK   13  A    between atoms: C_35  and  C_36 
REMARK   14  A    between atoms: C_36  and  O_38 
REMARK   15  A    between atoms: C_39  and  C_40 
REMARK   16  A    between atoms: C_40  and  C_41 
REMARK   17  A    between atoms: C_41  and  C_42 
REMARK   18  A    between atoms: C_42  and  O_44 
REMARK   19  A    between atoms: C_45  and  C_46 
REMARK   20  A    between atoms: C_46  and  C_47 
REMARK   21  A    between atoms: C_47  and  O_49 
REMARK   22  A    between atoms: C_50  and  C_51 
REMARK   23  A    between atoms: C_51  and  C_52 
REMARK   24  A    between atoms: C_52  and  O_54 
REMARK   25  A    between atoms: C_55  and  C_56 
REMARK   26  A    between atoms: C_56  and  C_57 
REMARK   27  A    between atoms: C_57  and  C_58 
REMARK   28  A    between atoms: C_58  and  O_60 
ROOT
ATOM      1  O   UNK d   0      -9.190  -3.184  17.801  0.00  0.00    -0.650 OA
ATOM      2  C   UNK d   0      -9.187  -3.603  16.622  0.00  0.00     0.139 C 
ENDROOT
BRANCH   2   3
ATOM      3  O   UNK d   0      -9.382  -2.715  15.591  0.00  0.00    -0.776 OA
ATOM      4  H   UNK d   0      -8.594  -2.236  15.151  0.00  0.00     0.167 HD
ENDBRANCH   2   3
BRANCH   2   5
ATOM      5  C   UNK d   0      -8.973  -5.051  16.343  0.00  0.00     0.115 C 
BRANCH   5   6
ATOM      6  C   UNK d   0      -9.853  -5.886  17.234  0.00  0.00     0.052 C 
BRANCH   6   7
ATOM      7  C   UNK d   0      -9.094  -6.987  17.934  0.00  0.00    -0.020 A 
ATOM      8  C   UNK d   0      -9.314  -8.275  17.866  0.00  0.00    -0.011 A 
ATOM      9  C   UNK d   0      -8.338  -8.938  18.715  0.00  0.00     0.067 A 
ATOM     10  C   UNK d   0      -8.026 -10.264  19.055  0.00  0.00     0.062 C 
ATOM     11  N   UNK d   0      -7.567  -7.977  19.265  0.00  0.00    -0.248 NA
ATOM     12  C   UNK d   0      -6.863 -10.728  19.678  0.00  0.00     0.041 A 
ATOM     13  N   UNK d   0      -6.157 -10.237  20.715  0.00  0.00    -0.355 N 
ATOM     14  C   UNK d   0      -6.223 -11.869  19.162  0.00  0.00    -0.022 A 
ATOM     15  C   UNK d   0      -5.082 -11.034  20.865  0.00  0.00     0.042 A 
ATOM     16  H   UNK d   0      -6.424  -9.357  21.341  0.00  0.00     0.166 HD
ATOM     17  C   UNK d   0      -4.025 -10.975  21.795  0.00  0.00     0.062 C 
ATOM     18  C   UNK d   0      -5.088 -12.068  19.909  0.00  0.00    -0.013 A 
ATOM     19  C   UNK d   0      -3.299  -9.887  22.209  0.00  0.00     0.067 A 
ATOM     20  N   UNK d   0      -3.756  -8.684  21.852  0.00  0.00    -0.248 NA
ATOM     21  C   UNK d   0      -2.079  -9.673  22.969  0.00  0.00    -0.011 A 
ATOM     22  C   UNK d   0      -2.923  -7.699  22.322  0.00  0.00     0.066 A 
ATOM     23  C   UNK d   0      -3.302  -6.392  22.054  0.00  0.00     0.062 C 
ATOM     24  C   UNK d   0      -1.863  -8.391  23.028  0.00  0.00    -0.020 A 
ATOM     25  C   UNK d   0      -4.481  -5.947  21.438  0.00  0.00     0.041 A 
ATOM     26  N   UNK d   0      -5.174  -6.425  20.398  0.00  0.00    -0.355 N 
ATOM     27  C   UNK d   0      -5.125  -4.804  21.959  0.00  0.00    -0.022 A 
ATOM     28  C   UNK d   0      -6.243  -5.628  20.240  0.00  0.00     0.042 A 
ATOM     29  H   UNK d   0      -4.899  -7.304  19.763  0.00  0.00     0.166 HD
ATOM     30  C   UNK d   0      -7.297  -5.669  19.314  0.00  0.00     0.062 C 
ATOM     31  C   UNK d   0      -6.241  -4.595  21.208  0.00  0.00    -0.013 A 
ATOM     32  C   UNK d   0      -7.970  -6.781  18.835  0.00  0.00     0.066 A 
BRANCH   8  33
ATOM     33  C   UNK d   0     -10.362  -8.955  17.081  0.00  0.00     0.151 C 
BRANCH  33  34
ATOM     34  C   UNK d   0      -9.810  -9.855  16.053  0.00  0.00     0.143 C 
ATOM     35  O   UNK d   0      -8.801  -9.541  15.406  0.00  0.00    -0.650 OA
BRANCH  34  36
ATOM     36  O   UNK d   0     -10.428 -11.060  15.809  0.00  0.00    -0.776 OA
ATOM     37  H   UNK d   0      -9.893 -11.879  15.488  0.00  0.00     0.167 HD
ENDBRANCH  34  36
ENDBRANCH  33  34
ENDBRANCH   8  33
BRANCH  31  38
ATOM     38  C   UNK d   0      -7.253  -3.491  21.403  0.00  0.00     0.151 C 
BRANCH  38  39
ATOM     39  C   UNK d   0      -6.919  -2.287  20.672  0.00  0.00     0.143 C 
ATOM     40  O   UNK d   0      -6.760  -1.189  21.234  0.00  0.00    -0.650 OA
BRANCH  39  41
ATOM     41  O   UNK d   0      -6.766  -2.346  19.287  0.00  0.00    -0.776 OA
ATOM     42  H   UNK d   0      -6.634  -1.454  18.799  0.00  0.00     0.167 HD
ENDBRANCH  39  41
ENDBRANCH  38  39
ENDBRANCH  31  38
BRANCH  27  43
ATOM     43  C   UNK d   0      -4.726  -3.923  23.117  0.00  0.00     0.052 C 
BRANCH  43  44
ATOM     44  C   UNK d   0      -3.958  -2.711  22.699  0.00  0.00     0.115 C 
BRANCH  44  45
ATOM     45  C   UNK d   0      -2.524  -3.009  22.951  0.00  0.00     0.139 C 
ATOM     46  O   UNK d   0      -2.211  -3.519  24.055  0.00  0.00    -0.650 OA
BRANCH  45  47
ATOM     47  O   UNK d   0      -1.535  -2.757  22.026  0.00  0.00    -0.776 OA
ATOM     48  H   UNK d   0      -0.618  -2.355  22.281  0.00  0.00     0.167 HD
ENDBRANCH  45  47
ENDBRANCH  44  45
ENDBRANCH  43  44
ENDBRANCH  27  43
BRANCH  24  49
ATOM     49  C   UNK d   0      -0.753  -7.729  23.737  0.00  0.00     0.052 C 
BRANCH  49  50
ATOM     50  C   UNK d   0       0.395  -7.477  22.794  0.00  0.00     0.115 C 
BRANCH  50  51
ATOM     51  C   UNK d   0       0.982  -6.144  22.802  0.00  0.00     0.139 C 
ATOM     52  O   UNK d   0       2.221  -5.950  22.782  0.00  0.00    -0.650 OA
BRANCH  51  53
ATOM     53  O   UNK d   0       0.156  -5.031  22.837  0.00  0.00    -0.776 OA
ATOM     54  H   UNK d   0      -0.826  -5.163  22.671  0.00  0.00     0.167 HD
ENDBRANCH  51  53
ENDBRANCH  50  51
ENDBRANCH  49  50
ENDBRANCH  24  49
BRANCH  21  55
ATOM     55  C   UNK d   0      -1.260 -10.772  23.561  0.00  0.00     0.151 C 
BRANCH  55  56
ATOM     56  C   UNK d   0      -1.651 -11.065  24.949  0.00  0.00     0.143 C 
ATOM     57  O   UNK d   0      -0.844 -11.033  25.898  0.00  0.00    -0.650 OA
BRANCH  56  58
ATOM     58  O   UNK d   0      -2.984 -11.391  25.192  0.00  0.00    -0.776 OA
ATOM     59  H   UNK d   0      -3.260 -12.347  24.903  0.00  0.00     0.167 HD
ENDBRANCH  56  58
ENDBRANCH  55  56
ENDBRANCH  21  55
BRANCH  18  60
ATOM     60  C   UNK d   0      -4.095 -13.183  19.693  0.00  0.00     0.151 C 
BRANCH  60  61
ATOM     61  C   UNK d   0      -3.029 -12.617  18.853  0.00  0.00     0.143 C 
ATOM     62  O   UNK d   0      -3.017 -11.509  18.316  0.00  0.00    -0.650 OA
BRANCH  61  63
ATOM     63  O   UNK d   0      -1.907 -13.458  18.656  0.00  0.00    -0.776 OA
ATOM     64  H   UNK d   0      -1.487 -13.557  17.749  0.00  0.00     0.167 HD
ENDBRANCH  61  63
ENDBRANCH  60  61
ENDBRANCH  18  60
BRANCH  14  65
ATOM     65  C   UNK d   0      -6.649 -12.833  18.091  0.00  0.00     0.052 C 
BRANCH  65  66
ATOM     66  C   UNK d   0      -6.006 -12.564  16.777  0.00  0.00     0.115 C 
BRANCH  66  67
ATOM     67  C   UNK d   0      -6.817 -12.206  15.648  0.00  0.00     0.139 C 
ATOM     68  O   UNK d   0      -7.938 -12.813  15.481  0.00  0.00    -0.650 OA
BRANCH  67  69
ATOM     69  O   UNK d   0      -6.543 -11.253  14.668  0.00  0.00    -0.776 OA
ATOM     70  H   UNK d   0      -6.667 -11.564  13.693  0.00  0.00     0.167 HD
ENDBRANCH  67  69
ENDBRANCH  66  67
ENDBRANCH  65  66
ENDBRANCH  14  65
ENDBRANCH   6   7
ENDBRANCH   5   6
ENDBRANCH   2   5
TORSDOF 28
ENDMDL
MODEL 3
REMARK VINA RESULT:      -9.4      1.936      6.910
REMARK  28 active torsions:
REMARK  status: ('A' for Active; 'I' for Inactive)
REMARK    1  A    between atoms: C_2  and  O_3 
REMARK    2  A    between atoms: C_2  and  C_4 
REMARK    3  A    between atoms: C_4  and  C_5 
REMARK    4  A    between atoms: C_5  and  C_6 
REMARK    5  A    between atoms: C_7  and  C_8 
REMARK    6  A    between atoms: C_8  and  C_9 
REMARK    7  A    between atoms: C_9  and  O_11 
REMARK    8  A    between atoms: C_28  and  C_29 
REMARK    9  A    between atoms: C_29  and  C_30 
REMARK   10  A    between atoms: C_30  and  O_32 
REMARK   11  A    between atoms: C_33  and  C_34 
REMARK   12  A    between atoms: C_34  and  C_35 
REMARK   13  A    between atoms: C_35  and  C_36 
REMARK   14  A    between atoms: C_36  and  O_38 
REMARK   15  A    between atoms: C_39  and  C_40 
REMARK   16  A    between atoms: C_40  and  C_41 
REMARK   17  A    between atoms: C_41  and  C_42 
REMARK   18  A    between atoms: C_42  and  O_44 
REMARK   19  A    between atoms: C_45  and  C_46 
REMARK   20  A    between atoms: C_46  and  C_47 
REMARK   21  A    between atoms: C_47  and  O_49 
REMARK   22  A    between atoms: C_50  and  C_51 
REMARK   23  A    between atoms: C_51  and  C_52 
REMARK   24  A    between atoms: C_52  and  O_54 
REMARK   25  A    between atoms: C_55  and  C_56 
REMARK   26  A    between atoms: C_56  and  C_57 
REMARK   27  A    between atoms: C_57  and  C_58 
REMARK   28  A    between atoms: C_58  and  O_60 
ROOT
ATOM      1  O   UNK d   0      -7.482  -3.449  24.851  0.00  0.00    -0.650 OA
ATOM      2  C   UNK d   0      -7.501  -2.211  24.670  0.00  0.00     0.139 C 
ENDROOT
BRANCH   2   3
ATOM      3  O   UNK d   0      -8.492  -1.460  25.255  0.00  0.00    -0.776 OA
ATOM      4  H   UNK d   0      -9.341  -1.898  25.617  0.00  0.00     0.167 HD
ENDBRANCH   2   3
BRANCH   2   5
ATOM      5  C   UNK d   0      -6.456  -1.562  23.828  0.00  0.00     0.115 C 
BRANCH   5   6
ATOM      6  C   UNK d   0      -6.754  -1.787  22.370  0.00  0.00     0.052 C 
BRANCH   6   7
ATOM      7  C   UNK d   0      -6.208  -3.099  21.861  0.00  0.00    -0.020 A 
ATOM      8  C   UNK d   0      -5.049  -3.641  22.135  0.00  0.00    -0.011 A 
ATOM      9  C   UNK d   0      -4.963  -4.897  21.409  0.00  0.00     0.067 A 
ATOM     10  C   UNK d   0      -4.025  -5.935  21.289  0.00  0.00     0.062 C 
ATOM     11  N   UNK d   0      -6.111  -5.038  20.713  0.00  0.00    -0.248 NA
ATOM     12  C   UNK d   0      -4.237  -7.210  20.753  0.00  0.00     0.041 A 
ATOM     13  N   UNK d   0      -4.903  -7.610  19.654  0.00  0.00    -0.355 N 
ATOM     14  C   UNK d   0      -3.748  -8.330  21.450  0.00  0.00    -0.022 A 
ATOM     15  C   UNK d   0      -4.857  -8.956  19.639  0.00  0.00     0.042 A 
ATOM     16  H   UNK d   0      -5.380  -6.954  18.893  0.00  0.00     0.166 HD
ATOM     17  C   UNK d   0      -5.390  -9.878  18.717  0.00  0.00     0.062 C 
ATOM     18  C   UNK d   0      -4.141  -9.444  20.750  0.00  0.00    -0.013 A 
ATOM     19  C   UNK d   0      -6.632  -9.897  18.135  0.00  0.00     0.067 A 
ATOM     20  N   UNK d   0      -7.389  -8.808  18.291  0.00  0.00    -0.248 NA
ATOM     21  C   UNK d   0      -7.407 -10.848  17.356  0.00  0.00    -0.011 A 
ATOM     22  C   UNK d   0      -8.603  -8.978  17.671  0.00  0.00     0.066 A 
ATOM     23  C   UNK d   0      -9.477  -7.903  17.723  0.00  0.00     0.062 C 
ATOM     24  C   UNK d   0      -8.560 -10.306  17.091  0.00  0.00    -0.020 A 
ATOM     25  C   UNK d   0      -9.241  -6.626  18.254  0.00  0.00     0.041 A 
ATOM     26  N   UNK d   0      -8.591  -6.229  19.355  0.00  0.00    -0.355 N 
ATOM     27  C   UNK d   0      -9.727  -5.501  17.552  0.00  0.00    -0.022 A 
ATOM     28  C   UNK d   0      -8.644  -4.887  19.377  0.00  0.00     0.042 A 
ATOM     29  H   UNK d   0      -8.121  -6.890  20.124  0.00  0.00     0.166 HD
ATOM     30  C   UNK d   0      -8.126  -3.958  20.293  0.00  0.00     0.062 C 
ATOM     31  C   UNK d   0      -9.354  -4.398  18.255  0.00  0.00    -0.013 A 
ATOM     32  C   UNK d   0      -6.903  -3.989  20.943  0.00  0.00     0.066 A 
BRANCH   8  33
ATOM     33  C   UNK d   0      -4.001  -3.092  23.015  0.00  0.00     0.151 C 
BRANCH  33  34
ATOM     34  C   UNK d   0      -3.740  -3.941  24.191  0.00  0.00     0.143 C 
ATOM     35  O   UNK d   0      -2.752  -4.688  24.230  0.00  0.00    -0.650 OA
BRANCH  34  36
ATOM     36  O   UNK d   0      -4.608  -3.904  25.257  0.00  0.00    -0.776 OA
ATOM     37  H   UNK d   0      -5.126  -3.047  25.494  0.00  0.00     0.167 HD
ENDBRANCH  34  36
ENDBRANCH  33  34
ENDBRANCH   8  33
BRANCH  31  38
ATOM     38  C   UNK d   0      -9.641  -2.962  17.880  0.00  0.00     0.151 C 
BRANCH  38  39
ATOM     39  C   UNK d   0     -10.728  -2.389  18.643  0.00  0.00     0.143 C 
ATOM     40  O   UNK d   0     -10.892  -1.161  18.749  0.00  0.00    -0.650 OA
BRANCH  39  41
ATOM     41  O   UNK d   0     -11.634  -3.232  19.287  0.00  0.00    -0.776 OA
ATOM     42  H   UNK d   0     -12.575  -3.290  18.887  0.00  0.00     0.167 HD
ENDBRANCH  39  41
ENDBRANCH  38  39
ENDBRANCH  31  38
BRANCH  27  43
ATOM     43  C   UNK d   0     -10.518  -5.442  16.269  0.00  0.00     0.052 C 
BRANCH  43  44
ATOM     44  C   UNK d   0     -11.906  -5.978  16.405  0.00  0.00     0.115 C 
BRANCH  44  45
ATOM     45  C   UNK d   0     -12.823  -4.812  16.307  0.00  0.00     0.139 C 
ATOM     46  O   UNK d   0     -13.328  -4.366  17.367  0.00  0.00    -0.650 OA
BRANCH  45  47
ATOM     47  O   UNK d   0     -13.134  -4.204  15.110  0.00  0.00    -0.776 OA
ATOM     48  H   UNK d   0     -12.476  -4.166  14.314  0.00  0.00     0.167 HD
ENDBRANCH  45  47
ENDBRANCH  44  45
ENDBRANCH  43  44
ENDBRANCH  27  43
BRANCH  24  49
ATOM     49  C   UNK d   0      -9.639 -10.908  16.290  0.00  0.00     0.052 C 
BRANCH  49  50
ATOM     50  C   UNK d   0      -9.467 -10.562  14.833  0.00  0.00     0.115 C 
BRANCH  50  51
ATOM     51  C   UNK d   0     -10.124 -11.427  13.862  0.00  0.00     0.139 C 
ATOM     52  O   UNK d   0     -11.363 -11.615  13.854  0.00  0.00    -0.650 OA
BRANCH  51  53
ATOM     53  O   UNK d   0      -9.367 -12.079  12.901  0.00  0.00    -0.776 OA
ATOM     54  H   UNK d   0      -8.833 -12.883  13.181  0.00  0.00     0.167 HD
ENDBRANCH  51  53
ENDBRANCH  50  51
ENDBRANCH  49  50
ENDBRANCH  24  49
BRANCH  21  55
ATOM     55  C   UNK d   0      -6.911 -12.197  16.953  0.00  0.00     0.151 C 
BRANCH  55  56
ATOM     56  C   UNK d   0      -6.444 -12.220  15.558  0.00  0.00     0.143 C 
ATOM     57  O   UNK d   0      -6.447 -13.254  14.862  0.00  0.00    -0.650 OA
BRANCH  56  58
ATOM     58  O   UNK d   0      -5.983 -11.024  15.009  0.00  0.00    -0.776 OA
ATOM     59  H   UNK d   0      -5.100 -11.103  14.473  0.00  0.00     0.167 HD
ENDBRANCH  56  58
ENDBRANCH  55  56
ENDBRANCH  21  55
BRANCH  18  60
ATOM     60  C   UNK d   0      -3.838 -10.867  21.147  0.00  0.00     0.151 C 
BRANCH  60  61
ATOM     61  C   UNK d   0      -4.885 -11.251  22.105  0.00  0.00     0.143 C 
ATOM     62  O   UNK d   0      -6.103 -11.218  21.926  0.00  0.00    -0.650 OA
BRANCH  61  63
ATOM     63  O   UNK d   0      -4.416 -11.705  23.362  0.00  0.00    -0.776 OA
ATOM     64  H   UNK d   0      -4.281 -12.684  23.541  0.00  0.00     0.167 HD
ENDBRANCH  61  63
ENDBRANCH  60  61
ENDBRANCH  18  60
BRANCH  14  65
ATOM     65  C   UNK d   0      -2.864  -8.424  22.661  0.00  0.00     0.052 C 
BRANCH  65  66
ATOM     66  C   UNK d   0      -1.666  -7.546  22.575  0.00  0.00     0.115 C 
BRANCH  66  67
ATOM     67  C   UNK d   0      -0.807  -7.399  23.716  0.00  0.00     0.139 C 
ATOM     68  O   UNK d   0       0.439  -7.686  23.587  0.00  0.00    -0.650 OA
BRANCH  67  69
ATOM     69  O   UNK d   0      -1.156  -6.972  24.997  0.00  0.00    -0.776 OA
ATOM     70  H   UNK d   0      -1.530  -7.698  25.625  0.00  0.00     0.167 HD
ENDBRANCH  67  69
ENDBRANCH  66  67
ENDBRANCH  65  66
ENDBRANCH  14  65
ENDBRANCH   6   7
ENDBRANCH   5   6
ENDBRANCH   2   5
TORSDOF 28
ENDMDL
MODEL 4
REMARK VINA RESULT:      -9.3      1.780      8.082
REMARK  28 active torsions:
REMARK  status: ('A' for Active; 'I' for Inactive)
REMARK    1  A    between atoms: C_2  and  O_3 
REMARK    2  A    between atoms: C_2  and  C_4 
REMARK    3  A    between atoms: C_4  and  C_5 
REMARK    4  A    between atoms: C_5  and  C_6 
REMARK    5  A    between atoms: C_7  and  C_8 
REMARK    6  A    between atoms: C_8  and  C_9 
REMARK    7  A    between atoms: C_9  and  O_11 
REMARK    8  A    between atoms: C_28  and  C_29 
REMARK    9  A    between atoms: C_29  and  C_30 
REMARK   10  A    between atoms: C_30  and  O_32 
REMARK   11  A    between atoms: C_33  and  C_34 
REMARK   12  A    between atoms: C_34  and  C_35 
REMARK   13  A    between atoms: C_35  and  C_36 
REMARK   14  A    between atoms: C_36  and  O_38 
REMARK   15  A    between atoms: C_39  and  C_40 
REMARK   16  A    between atoms: C_40  and  C_41 
REMARK   17  A    between atoms: C_41  and  C_42 
REMARK   18  A    between atoms: C_42  and  O_44 
REMARK   19  A    between atoms: C_45  and  C_46 
REMARK   20  A    between atoms: C_46  and  C_47 
REMARK   21  A    between atoms: C_47  and  O_49 
REMARK   22  A    between atoms: C_50  and  C_51 
REMARK   23  A    between atoms: C_51  and  C_52 
REMARK   24  A    between atoms: C_52  and  O_54 
REMARK   25  A    between atoms: C_55  and  C_56 
REMARK   26  A    between atoms: C_56  and  C_57 
REMARK   27  A    between atoms: C_57  and  C_58 
REMARK   28  A    between atoms: C_58  and  O_60 
ROOT
ATOM      1  O   UNK d   0     -10.841   0.506  18.628  0.00  0.00    -0.650 OA
ATOM      2  C   UNK d   0      -9.979  -0.395  18.527  0.00  0.00     0.139 C 
ENDROOT
BRANCH   2   3
ATOM      3  O   UNK d   0      -8.657  -0.050  18.381  0.00  0.00    -0.776 OA
ATOM      4  H   UNK d   0      -8.381   0.919  18.209  0.00  0.00     0.167 HD
ENDBRANCH   2   3
BRANCH   2   5
ATOM      5  C   UNK d   0     -10.387  -1.828  18.565  0.00  0.00     0.115 C 
BRANCH   5   6
ATOM      6  C   UNK d   0      -9.807  -2.563  17.388  0.00  0.00     0.052 C 
BRANCH   6   7
ATOM      7  C   UNK d   0      -9.477  -4.001  17.706  0.00  0.00    -0.020 A 
ATOM      8  C   UNK d   0     -10.051  -5.076  17.229  0.00  0.00    -0.011 A 
ATOM      9  C   UNK d   0      -9.402  -6.230  17.830  0.00  0.00     0.067 A 
ATOM     10  C   UNK d   0      -9.524  -7.625  17.731  0.00  0.00     0.062 C 
ATOM     11  N   UNK d   0      -8.449  -5.765  18.664  0.00  0.00    -0.248 NA
ATOM     12  C   UNK d   0      -8.616  -8.589  18.183  0.00  0.00     0.041 A 
ATOM     13  N   UNK d   0      -7.912  -8.675  19.328  0.00  0.00    -0.355 N 
ATOM     14  C   UNK d   0      -8.283  -9.660  17.335  0.00  0.00    -0.022 A 
ATOM     15  C   UNK d   0      -7.134  -9.770  19.225  0.00  0.00     0.042 A 
ATOM     16  H   UNK d   0      -7.978  -7.988  20.200  0.00  0.00     0.166 HD
ATOM     17  C   UNK d   0      -6.209 -10.322  20.133  0.00  0.00     0.062 C 
ATOM     18  C   UNK d   0      -7.339 -10.413  17.989  0.00  0.00    -0.013 A 
ATOM     19  C   UNK d   0      -5.248  -9.687  20.877  0.00  0.00     0.067 A 
ATOM     20  N   UNK d   0      -5.298  -8.353  20.919  0.00  0.00    -0.248 NA
ATOM     21  C   UNK d   0      -4.105 -10.097  21.676  0.00  0.00    -0.011 A 
ATOM     22  C   UNK d   0      -4.270  -7.862  21.686  0.00  0.00     0.066 A 
ATOM     23  C   UNK d   0      -4.225  -6.484  21.845  0.00  0.00     0.062 C 
ATOM     24  C   UNK d   0      -3.534  -9.024  22.142  0.00  0.00    -0.020 A 
ATOM     25  C   UNK d   0      -5.154  -5.535  21.394  0.00  0.00     0.041 A 
ATOM     26  N   UNK d   0      -5.843  -5.440  20.250  0.00  0.00    -0.355 N 
ATOM     27  C   UNK d   0      -5.491  -4.462  22.248  0.00  0.00    -0.022 A 
ATOM     28  C   UNK d   0      -6.612  -4.345  20.347  0.00  0.00     0.042 A 
ATOM     29  H   UNK d   0      -5.768  -6.127  19.371  0.00  0.00     0.166 HD
ATOM     30  C   UNK d   0      -7.530  -3.779  19.448  0.00  0.00     0.062 C 
ATOM     31  C   UNK d   0      -6.414  -3.705  21.594  0.00  0.00    -0.013 A 
ATOM     32  C   UNK d   0      -8.442  -4.432  18.634  0.00  0.00     0.066 A 
BRANCH   8  33
ATOM     33  C   UNK d   0     -11.161  -5.131  16.261  0.00  0.00     0.151 C 
BRANCH  33  34
ATOM     34  C   UNK d   0     -12.438  -5.533  16.878  0.00  0.00     0.143 C 
ATOM     35  O   UNK d   0     -13.073  -6.508  16.452  0.00  0.00    -0.650 OA
BRANCH  34  36
ATOM     36  O   UNK d   0     -12.930  -4.812  17.942  0.00  0.00    -0.776 OA
ATOM     37  H   UNK d   0     -13.112  -5.259  18.851  0.00  0.00     0.167 HD
ENDBRANCH  34  36
ENDBRANCH  33  34
ENDBRANCH   8  33
BRANCH  31  38
ATOM     38  C   UNK d   0      -7.079  -2.456  22.123  0.00  0.00     0.151 C 
BRANCH  38  39
ATOM     39  C   UNK d   0      -6.379  -1.245  21.748  0.00  0.00     0.143 C 
ATOM     40  O   UNK d   0      -5.337  -0.875  22.317  0.00  0.00    -0.650 OA
BRANCH  39  41
ATOM     41  O   UNK d   0      -6.880  -0.456  20.713  0.00  0.00    -0.776 OA
ATOM     42  H   UNK d   0      -7.800  -0.029  20.861  0.00  0.00     0.167 HD
ENDBRANCH  39  41
ENDBRANCH  38  39
ENDBRANCH  31  38
BRANCH  27  43
ATOM     43  C   UNK d   0      -4.979  -4.138  23.629  0.00  0.00     0.052 C 
BRANCH  43  44
ATOM     44  C   UNK d   0      -3.642  -3.471  23.621  0.00  0.00     0.115 C 
BRANCH  44  45
ATOM     45  C   UNK d   0      -3.122  -3.547  25.011  0.00  0.00     0.139 C 
ATOM     46  O   UNK d   0      -3.940  -3.765  25.938  0.00  0.00    -0.650 OA
BRANCH  45  47
ATOM     47  O   UNK d   0      -1.787  -3.395  25.319  0.00  0.00    -0.776 OA
ATOM     48  H   UNK d   0      -1.169  -4.191  25.544  0.00  0.00     0.167 HD
ENDBRANCH  45  47
ENDBRANCH  44  45
ENDBRANCH  43  44
ENDBRANCH  27  43
BRANCH  24  49
ATOM     49  C   UNK d   0      -2.362  -8.981  23.033  0.00  0.00     0.052 C 
BRANCH  49  50
ATOM     50  C   UNK d   0      -1.516  -7.771  22.729  0.00  0.00     0.115 C 
BRANCH  50  51
ATOM     51  C   UNK d   0      -1.165  -6.907  23.848  0.00  0.00     0.139 C 
ATOM     52  O   UNK d   0      -0.825  -5.710  23.697  0.00  0.00    -0.650 OA
BRANCH  51  53
ATOM     53  O   UNK d   0      -1.199  -7.409  25.140  0.00  0.00    -0.776 OA
ATOM     54  H   UNK d   0      -0.530  -8.115  25.393  0.00  0.00     0.167 HD
ENDBRANCH  51  53
ENDBRANCH  50  51
ENDBRANCH  49  50
ENDBRANCH  24  49
BRANCH  21  55
ATOM     55  C   UNK d   0      -3.705 -11.519  21.893  0.00  0.00     0.151 C 
BRANCH  55  56
ATOM     56  C   UNK d   0      -4.438 -12.134  23.009  0.00  0.00     0.143 C 
ATOM     57  O   UNK d   0      -4.031 -12.096  24.187  0.00  0.00    -0.650 OA
BRANCH  56  58
ATOM     58  O   UNK d   0      -5.637 -12.783  22.720  0.00  0.00    -0.776 OA
ATOM     59  H   UNK d   0      -6.083 -12.499  21.829  0.00  0.00     0.167 HD
ENDBRANCH  56  58
ENDBRANCH  55  56
ENDBRANCH  21  55
BRANCH  18  60
ATOM     60  C   UNK d   0      -6.693 -11.660  17.436  0.00  0.00     0.151 C 
BRANCH  60  61
ATOM     61  C   UNK d   0      -5.590 -11.198  16.581  0.00  0.00     0.143 C 
ATOM     62  O   UNK d   0      -4.525 -10.700  16.947  0.00  0.00    -0.650 OA
BRANCH  61  63
ATOM     63  O   UNK d   0      -5.800 -11.354  15.189  0.00  0.00    -0.776 OA
ATOM     64  H   UNK d   0      -5.659 -12.241  14.740  0.00  0.00     0.167 HD
ENDBRANCH  61  63
ENDBRANCH  60  61
ENDBRANCH  18  60
BRANCH  14  65
ATOM     65  C   UNK d   0      -8.854 -10.077  16.010  0.00  0.00     0.052 C 
BRANCH  65  66
ATOM     66  C   UNK d   0     -10.217 -10.661  16.122  0.00  0.00     0.115 C 
BRANCH  66  67
ATOM     67  C   UNK d   0     -10.720 -11.502  15.072  0.00  0.00     0.139 C 
ATOM     68  O   UNK d   0     -10.050 -12.552  14.753  0.00  0.00    -0.650 OA
BRANCH  67  69
ATOM     69  O   UNK d   0     -11.882 -11.326  14.321  0.00  0.00    -0.776 OA
ATOM     70  H   UNK d   0     -12.181 -12.138  13.762  0.00  0.00     0.167 HD
ENDBRANCH  67  69
ENDBRANCH  66  67
ENDBRANCH  65  66
ENDBRANCH  14  65
ENDBRANCH   6   7
ENDBRANCH   5   6
ENDBRANCH   2   5
TORSDOF 28
ENDMDL
MODEL 5
REMARK VINA RESULT:      -9.1      2.433      8.263
REMARK  28 active torsions:
REMARK  status: ('A' for Active; 'I' for Inactive)
REMARK    1  A    between atoms: C_2  and  O_3 
REMARK    2  A    between atoms: C_2  and  C_4 
REMARK    3  A    between atoms: C_4  and  C_5 
REMARK    4  A    between atoms: C_5  and  C_6 
REMARK    5  A    between atoms: C_7  and  C_8 
REMARK    6  A    between atoms: C_8  and  C_9 
REMARK    7  A    between atoms: C_9  and  O_11 
REMARK    8  A    between atoms: C_28  and  C_29 
REMARK    9  A    between atoms: C_29  and  C_30 
REMARK   10  A    between atoms: C_30  and  O_32 
REMARK   11  A    between atoms: C_33  and  C_34 
REMARK   12  A    between atoms: C_34  and  C_35 
REMARK   13  A    between atoms: C_35  and  C_36 
REMARK   14  A    between atoms: C_36  and  O_38 
REMARK   15  A    between atoms: C_39  and  C_40 
REMARK   16  A    between atoms: C_40  and  C_41 
REMARK   17  A    between atoms: C_41  and  C_42 
REMARK   18  A    between atoms: C_42  and  O_44 
REMARK   19  A    between atoms: C_45  and  C_46 
REMARK   20  A    between atoms: C_46  and  C_47 
REMARK   21  A    between atoms: C_47  and  O_49 
REMARK   22  A    between atoms: C_50  and  C_51 
REMARK   23  A    between atoms: C_51  and  C_52 
REMARK   24  A    between atoms: C_52  and  O_54 
REMARK   25  A    between atoms: C_55  and  C_56 
REMARK   26  A    between atoms: C_56  and  C_57 
REMARK   27  A    between atoms: C_57  and  C_58 
REMARK   28  A    between atoms: C_58  and  O_60 
ROOT
ATOM      1  O   UNK d   0     -10.118  -3.293  17.617  0.00  0.00    -0.650 OA
ATOM      2  C   UNK d   0      -9.549  -3.611  16.549  0.00  0.00     0.139 C 
ENDROOT
BRANCH   2   3
ATOM      3  O   UNK d   0      -9.359  -2.658  15.578  0.00  0.00    -0.776 OA
ATOM      4  H   UNK d   0      -8.420  -2.346  15.322  0.00  0.00     0.167 HD
ENDBRANCH   2   3
BRANCH   2   5
ATOM      5  C   UNK d   0      -9.085  -5.011  16.336  0.00  0.00     0.115 C 
BRANCH   5   6
ATOM      6  C   UNK d   0      -9.984  -5.971  17.067  0.00  0.00     0.052 C 
BRANCH   6   7
ATOM      7  C   UNK d   0      -9.215  -7.046  17.799  0.00  0.00    -0.020 A 
ATOM      8  C   UNK d   0      -9.417  -8.338  17.761  0.00  0.00    -0.011 A 
ATOM      9  C   UNK d   0      -8.438  -8.967  18.631  0.00  0.00     0.067 A 
ATOM     10  C   UNK d   0      -8.110 -10.280  19.005  0.00  0.00     0.062 C 
ATOM     11  N   UNK d   0      -7.684  -7.982  19.163  0.00  0.00    -0.248 NA
ATOM     12  C   UNK d   0      -6.945 -10.712  19.647  0.00  0.00     0.041 A 
ATOM     13  N   UNK d   0      -6.253 -10.187  20.676  0.00  0.00    -0.355 N 
ATOM     14  C   UNK d   0      -6.286 -11.857  19.163  0.00  0.00    -0.022 A 
ATOM     15  C   UNK d   0      -5.168 -10.965  20.852  0.00  0.00     0.042 A 
ATOM     16  H   UNK d   0      -6.536  -9.297  21.279  0.00  0.00     0.166 HD
ATOM     17  C   UNK d   0      -4.118 -10.870  21.788  0.00  0.00     0.062 C 
ATOM     18  C   UNK d   0      -5.154 -12.022  19.922  0.00  0.00    -0.013 A 
ATOM     19  C   UNK d   0      -3.410  -9.763  22.180  0.00  0.00     0.067 A 
ATOM     20  N   UNK d   0      -3.881  -8.575  21.791  0.00  0.00    -0.248 NA
ATOM     21  C   UNK d   0      -2.199  -9.513  22.943  0.00  0.00    -0.011 A 
ATOM     22  C   UNK d   0      -3.065  -7.567  22.243  0.00  0.00     0.066 A 
ATOM     23  C   UNK d   0      -3.459  -6.272  21.941  0.00  0.00     0.062 C 
ATOM     24  C   UNK d   0      -2.000  -8.227  22.972  0.00  0.00    -0.020 A 
ATOM     25  C   UNK d   0      -4.640  -5.858  21.306  0.00  0.00     0.041 A 
ATOM     26  N   UNK d   0      -5.320  -6.371  20.274  0.00  0.00    -0.355 N 
ATOM     27  C   UNK d   0      -5.304  -4.712  21.796  0.00  0.00    -0.022 A 
ATOM     28  C   UNK d   0      -6.398  -5.592  20.090  0.00  0.00     0.042 A 
ATOM     29  H   UNK d   0      -5.028  -7.260  19.662  0.00  0.00     0.166 HD
ATOM     30  C   UNK d   0      -7.445  -5.670  19.159  0.00  0.00     0.062 C 
ATOM     31  C   UNK d   0      -6.417  -4.537  21.033  0.00  0.00    -0.013 A 
ATOM     32  C   UNK d   0      -8.100  -6.802  18.702  0.00  0.00     0.066 A 
BRANCH   8  33
ATOM     33  C   UNK d   0     -10.450  -9.050  16.985  0.00  0.00     0.151 C 
BRANCH  33  34
ATOM     34  C   UNK d   0      -9.880  -9.995  16.009  0.00  0.00     0.143 C 
ATOM     35  O   UNK d   0     -10.498 -11.016  15.676  0.00  0.00    -0.650 OA
BRANCH  34  36
ATOM     36  O   UNK d   0      -8.643  -9.739  15.463  0.00  0.00    -0.776 OA
ATOM     37  H   UNK d   0      -7.779 -10.046  15.930  0.00  0.00     0.167 HD
ENDBRANCH  34  36
ENDBRANCH  33  34
ENDBRANCH   8  33
BRANCH  31  38
ATOM     38  C   UNK d   0      -7.445  -3.442  21.195  0.00  0.00     0.151 C 
BRANCH  38  39
ATOM     39  C   UNK d   0      -7.128  -2.255  20.430  0.00  0.00     0.143 C 
ATOM     40  O   UNK d   0      -7.471  -2.117  19.242  0.00  0.00    -0.650 OA
BRANCH  39  41
ATOM     41  O   UNK d   0      -6.412  -1.221  21.033  0.00  0.00    -0.776 OA
ATOM     42  H   UNK d   0      -5.447  -1.427  21.309  0.00  0.00     0.167 HD
ENDBRANCH  39  41
ENDBRANCH  38  39
ENDBRANCH  31  38
BRANCH  27  43
ATOM     43  C   UNK d   0      -4.924  -3.798  22.935  0.00  0.00     0.052 C 
BRANCH  43  44
ATOM     44  C   UNK d   0      -5.593  -4.152  24.224  0.00  0.00     0.115 C 
BRANCH  44  45
ATOM     45  C   UNK d   0      -6.518  -3.034  24.542  0.00  0.00     0.139 C 
ATOM     46  O   UNK d   0      -6.231  -1.888  24.115  0.00  0.00    -0.650 OA
BRANCH  45  47
ATOM     47  O   UNK d   0      -7.672  -3.205  25.276  0.00  0.00    -0.776 OA
ATOM     48  H   UNK d   0      -8.530  -2.655  25.107  0.00  0.00     0.167 HD
ENDBRANCH  45  47
ENDBRANCH  44  45
ENDBRANCH  43  44
ENDBRANCH  27  43
BRANCH  24  49
ATOM     49  C   UNK d   0      -0.904  -7.534  23.672  0.00  0.00     0.052 C 
BRANCH  49  50
ATOM     50  C   UNK d   0       0.241  -7.276  22.727  0.00  0.00     0.115 C 
BRANCH  50  51
ATOM     51  C   UNK d   0       0.373  -5.926  22.195  0.00  0.00     0.139 C 
ATOM     52  O   UNK d   0       1.085  -5.659  21.198  0.00  0.00    -0.650 OA
BRANCH  51  53
ATOM     53  O   UNK d   0      -0.304  -4.880  22.803  0.00  0.00    -0.776 OA
ATOM     54  H   UNK d   0      -0.990  -5.101  23.503  0.00  0.00     0.167 HD
ENDBRANCH  51  53
ENDBRANCH  50  51
ENDBRANCH  49  50
ENDBRANCH  24  49
BRANCH  21  55
ATOM     55  C   UNK d   0      -1.369 -10.586  23.566  0.00  0.00     0.151 C 
BRANCH  55  56
ATOM     56  C   UNK d   0      -1.777 -10.864  24.952  0.00  0.00     0.143 C 
ATOM     57  O   UNK d   0      -2.805 -11.510  25.236  0.00  0.00    -0.650 OA
BRANCH  56  58
ATOM     58  O   UNK d   0      -0.967 -10.377  25.977  0.00  0.00    -0.776 OA
ATOM     59  H   UNK d   0      -1.004 -10.922  26.857  0.00  0.00     0.167 HD
ENDBRANCH  56  58
ENDBRANCH  55  56
ENDBRANCH  21  55
BRANCH  18  60
ATOM     60  C   UNK d   0      -4.145 -13.128  19.739  0.00  0.00     0.151 C 
BRANCH  60  61
ATOM     61  C   UNK d   0      -3.020 -12.531  19.003  0.00  0.00     0.143 C 
ATOM     62  O   UNK d   0      -1.869 -12.963  18.928  0.00  0.00    -0.650 OA
BRANCH  61  63
ATOM     63  O   UNK d   0      -3.319 -11.330  18.315  0.00  0.00    -0.776 OA
ATOM     64  H   UNK d   0      -2.644 -10.896  17.712  0.00  0.00     0.167 HD
ENDBRANCH  61  63
ENDBRANCH  60  61
ENDBRANCH  18  60
BRANCH  14  65
ATOM     65  C   UNK d   0      -6.691 -12.851  18.112  0.00  0.00     0.052 C 
BRANCH  65  66
ATOM     66  C   UNK d   0      -6.138 -12.536  16.768  0.00  0.00     0.115 C 
BRANCH  66  67
ATOM     67  C   UNK d   0      -6.893 -12.867  15.592  0.00  0.00     0.139 C 
ATOM     68  O   UNK d   0      -7.020 -11.976  14.674  0.00  0.00    -0.650 OA
BRANCH  67  69
ATOM     69  O   UNK d   0      -7.533 -14.070  15.300  0.00  0.00    -0.776 OA
ATOM     70  H   UNK d   0      -7.748 -14.672  16.108  0.00  0.00     0.167 HD
ENDBRANCH  67  69
ENDBRANCH  66  67
ENDBRANCH  65  66
ENDBRANCH  14  65
ENDBRANCH   6   7
ENDBRANCH   5   6
ENDBRANCH   2   5
TORSDOF 28
ENDMDL
MODEL 6
REMARK VINA RESULT:      -9.1      1.520     10.910
REMARK  28 active torsions:
REMARK  status: ('A' for Active; 'I' for Inactive)
REMARK    1  A    between atoms: C_2  and  O_3 
REMARK    2  A    between atoms: C_2  and  C_4 
REMARK    3  A    between atoms: C_4  and  C_5 
REMARK    4  A    between atoms: C_5  and  C_6 
REMARK    5  A    between atoms: C_7  and  C_8 
REMARK    6  A    between atoms: C_8  and  C_9 
REMARK    7  A    between atoms: C_9  and  O_11 
REMARK    8  A    between atoms: C_28  and  C_29 
REMARK    9  A    between atoms: C_29  and  C_30 
REMARK   10  A    between atoms: C_30  and  O_32 
REMARK   11  A    between atoms: C_33  and  C_34 
REMARK   12  A    between atoms: C_34  and  C_35 
REMARK   13  A    between atoms: C_35  and  C_36 
REMARK   14  A    between atoms: C_36  and  O_38 
REMARK   15  A    between atoms: C_39  and  C_40 
REMARK   16  A    between atoms: C_40  and  C_41 
REMARK   17  A    between atoms: C_41  and  C_42 
REMARK   18  A    between atoms: C_42  and  O_44 
REMARK   19  A    between atoms: C_45  and  C_46 
REMARK   20  A    between atoms: C_46  and  C_47 
REMARK   21  A    between atoms: C_47  and  O_49 
REMARK   22  A    between atoms: C_50  and  C_51 
REMARK   23  A    between atoms: C_51  and  C_52 
REMARK   24  A    between atoms: C_52  and  O_54 
REMARK   25  A    between atoms: C_55  and  C_56 
REMARK   26  A    between atoms: C_56  and  C_57 
REMARK   27  A    between atoms: C_57  and  C_58 
REMARK   28  A    between atoms: C_58  and  O_60 
ROOT
ATOM      1  O   UNK d   0      -4.487 -12.757  23.632  0.00  0.00    -0.650 OA
ATOM      2  C   UNK d   0      -3.749 -12.028  22.933  0.00  0.00     0.139 C 
ENDROOT
BRANCH   2   3
ATOM      3  O   UNK d   0      -2.688 -12.588  22.264  0.00  0.00    -0.776 OA
ATOM      4  H   UNK d   0      -2.152 -13.356  22.674  0.00  0.00     0.167 HD
ENDBRANCH   2   3
BRANCH   2   5
ATOM      5  C   UNK d   0      -4.022 -10.566  22.830  0.00  0.00     0.115 C 
BRANCH   5   6
ATOM      6  C   UNK d   0      -3.325  -9.993  21.626  0.00  0.00     0.052 C 
BRANCH   6   7
ATOM      7  C   UNK d   0      -4.280  -9.664  20.503  0.00  0.00    -0.020 A 
ATOM      8  C   UNK d   0      -4.528 -10.374  19.432  0.00  0.00    -0.011 A 
ATOM      9  C   UNK d   0      -5.508  -9.653  18.638  0.00  0.00     0.067 A 
ATOM     10  C   UNK d   0      -6.188  -9.868  17.429  0.00  0.00     0.062 C 
ATOM     11  N   UNK d   0      -5.797  -8.511  19.297  0.00  0.00    -0.248 NA
ATOM     12  C   UNK d   0      -7.313  -9.184  16.956  0.00  0.00     0.041 A 
ATOM     13  N   UNK d   0      -7.617  -7.872  16.957  0.00  0.00    -0.355 N 
ATOM     14  C   UNK d   0      -8.383  -9.922  16.418  0.00  0.00    -0.022 A 
ATOM     15  C   UNK d   0      -8.856  -7.759  16.441  0.00  0.00     0.042 A 
ATOM     16  H   UNK d   0      -6.962  -7.040  17.297  0.00  0.00     0.166 HD
ATOM     17  C   UNK d   0      -9.651  -6.618  16.215  0.00  0.00     0.062 C 
ATOM     18  C   UNK d   0      -9.369  -9.024  16.092  0.00  0.00    -0.013 A 
ATOM     19  C   UNK d   0      -9.879  -5.548  17.041  0.00  0.00     0.067 A 
ATOM     20  N   UNK d   0      -9.108  -5.449  18.128  0.00  0.00    -0.248 NA
ATOM     21  C   UNK d   0     -10.800  -4.424  17.066  0.00  0.00    -0.011 A 
ATOM     22  C   UNK d   0      -9.461  -4.343  18.862  0.00  0.00     0.066 A 
ATOM     23  C   UNK d   0      -8.712  -4.097  20.004  0.00  0.00     0.062 C 
ATOM     24  C   UNK d   0     -10.553  -3.725  18.137  0.00  0.00    -0.020 A 
ATOM     25  C   UNK d   0      -7.578  -4.790  20.455  0.00  0.00     0.041 A 
ATOM     26  N   UNK d   0      -7.282  -6.095  20.468  0.00  0.00    -0.355 N 
ATOM     27  C   UNK d   0      -6.503  -4.047  20.990  0.00  0.00    -0.022 A 
ATOM     28  C   UNK d   0      -6.050  -6.210  20.990  0.00  0.00     0.042 A 
ATOM     29  H   UNK d   0      -7.946  -6.930  20.135  0.00  0.00     0.166 HD
ATOM     30  C   UNK d   0      -5.252  -7.339  21.229  0.00  0.00     0.062 C 
ATOM     31  C   UNK d   0      -5.532  -4.938  21.331  0.00  0.00    -0.013 A 
ATOM     32  C   UNK d   0      -5.091  -8.458  20.428  0.00  0.00     0.066 A 
BRANCH   8  33
ATOM     33  C   UNK d   0      -3.928 -11.672  19.073  0.00  0.00     0.151 C 
BRANCH  33  34
ATOM     34  C   UNK d   0      -4.737 -12.819  19.523  0.00  0.00     0.143 C 
ATOM     35  O   UNK d   0      -5.973 -12.749  19.564  0.00  0.00    -0.650 OA
BRANCH  34  36
ATOM     36  O   UNK d   0      -4.107 -13.981  19.905  0.00  0.00    -0.776 OA
ATOM     37  H   UNK d   0      -3.835 -14.693  19.214  0.00  0.00     0.167 HD
ENDBRANCH  34  36
ENDBRANCH  33  34
ENDBRANCH   8  33
BRANCH  31  38
ATOM     38  C   UNK d   0      -4.186  -4.604  21.931  0.00  0.00     0.151 C 
BRANCH  38  39
ATOM     39  C   UNK d   0      -4.171  -4.716  23.374  0.00  0.00     0.143 C 
ATOM     40  O   UNK d   0      -3.114  -4.762  24.027  0.00  0.00    -0.650 OA
BRANCH  39  41
ATOM     41  O   UNK d   0      -5.379  -4.774  24.070  0.00  0.00    -0.776 OA
ATOM     42  H   UNK d   0      -6.212  -4.438  23.577  0.00  0.00     0.167 HD
ENDBRANCH  39  41
ENDBRANCH  38  39
ENDBRANCH  31  38
BRANCH  27  43
ATOM     43  C   UNK d   0      -6.370  -2.558  21.187  0.00  0.00     0.052 C 
BRANCH  43  44
ATOM     44  C   UNK d   0      -6.833  -2.096  22.530  0.00  0.00     0.115 C 
BRANCH  44  45
ATOM     45  C   UNK d   0      -5.704  -1.341  23.132  0.00  0.00     0.139 C 
ATOM     46  O   UNK d   0      -5.347  -1.640  24.299  0.00  0.00    -0.650 OA
BRANCH  45  47
ATOM     47  O   UNK d   0      -5.035  -0.338  22.464  0.00  0.00    -0.776 OA
ATOM     48  H   UNK d   0      -4.513   0.408  22.951  0.00  0.00     0.167 HD
ENDBRANCH  45  47
ENDBRANCH  44  45
ENDBRANCH  43  44
ENDBRANCH  27  43
BRANCH  24  49
ATOM     49  C   UNK d   0     -11.230  -2.479  18.535  0.00  0.00     0.052 C 
BRANCH  49  50
ATOM     50  C   UNK d   0     -10.220  -1.460  18.998  0.00  0.00     0.115 C 
BRANCH  50  51
ATOM     51  C   UNK d   0      -9.414  -0.810  17.973  0.00  0.00     0.139 C 
ATOM     52  O   UNK d   0      -9.592  -1.005  16.748  0.00  0.00    -0.650 OA
BRANCH  51  53
ATOM     53  O   UNK d   0      -8.403   0.062  18.347  0.00  0.00    -0.776 OA
ATOM     54  H   UNK d   0      -7.450  -0.233  18.221  0.00  0.00     0.167 HD
ENDBRANCH  51  53
ENDBRANCH  50  51
ENDBRANCH  49  50
ENDBRANCH  24  49
BRANCH  21  55
ATOM     55  C   UNK d   0     -11.829  -4.165  16.016  0.00  0.00     0.151 C 
BRANCH  55  56
ATOM     56  C   UNK d   0     -13.129  -4.761  16.357  0.00  0.00     0.143 C 
ATOM     57  O   UNK d   0     -13.298  -5.482  17.360  0.00  0.00    -0.650 OA
BRANCH  56  58
ATOM     58  O   UNK d   0     -14.206  -4.498  15.513  0.00  0.00    -0.776 OA
ATOM     59  H   UNK d   0     -14.462  -5.275  14.877  0.00  0.00     0.167 HD
ENDBRANCH  56  58
ENDBRANCH  55  56
ENDBRANCH  21  55
BRANCH  18  60
ATOM     60  C   UNK d   0     -10.704  -9.387  15.490  0.00  0.00     0.151 C 
BRANCH  60  61
ATOM     61  C   UNK d   0     -11.706  -9.098  16.527  0.00  0.00     0.143 C 
ATOM     62  O   UNK d   0     -11.734  -9.541  17.676  0.00  0.00    -0.650 OA
BRANCH  61  63
ATOM     63  O   UNK d   0     -12.740  -8.213  16.136  0.00  0.00    -0.776 OA
ATOM     64  H   UNK d   0     -13.021  -7.452  16.728  0.00  0.00     0.167 HD
ENDBRANCH  61  63
ENDBRANCH  60  61
ENDBRANCH  18  60
BRANCH  14  65
ATOM     65  C   UNK d   0      -8.504 -11.385  16.102  0.00  0.00     0.052 C 
BRANCH  65  66
ATOM     66  C   UNK d   0      -7.892 -11.751  14.796  0.00  0.00     0.115 C 
BRANCH  66  67
ATOM     67  C   UNK d   0      -8.466 -12.808  14.012  0.00  0.00     0.139 C 
ATOM     68  O   UNK d   0      -8.380 -14.014  14.452  0.00  0.00    -0.650 OA
BRANCH  67  69
ATOM     69  O   UNK d   0      -9.129 -12.701  12.791  0.00  0.00    -0.776 OA
ATOM     70  H   UNK d   0      -8.651 -13.124  11.983  0.00  0.00     0.167 HD
ENDBRANCH  67  69
ENDBRANCH  66  67
ENDBRANCH  65  66
ENDBRANCH  14  65
ENDBRANCH   6   7
ENDBRANCH   5   6
ENDBRANCH   2   5
TORSDOF 28
ENDMDL
MODEL 7
REMARK VINA RESULT:      -9.0      1.670      7.767
REMARK  28 active torsions:
REMARK  status: ('A' for Active; 'I' for Inactive)
REMARK    1  A    between atoms: C_2  and  O_3 
REMARK    2  A    between atoms: C_2  and  C_4 
REMARK    3  A    between atoms: C_4  and  C_5 
REMARK    4  A    between atoms: C_5  and  C_6 
REMARK    5  A    between atoms: C_7  and  C_8 
REMARK    6  A    between atoms: C_8  and  C_9 
REMARK    7  A    between atoms: C_9  and  O_11 
REMARK    8  A    between atoms: C_28  and  C_29 
REMARK    9  A    between atoms: C_29  and  C_30 
REMARK   10  A    between atoms: C_30  and  O_32 
REMARK   11  A    between atoms: C_33  and  C_34 
REMARK   12  A    between atoms: C_34  and  C_35 
REMARK   13  A    between atoms: C_35  and  C_36 
REMARK   14  A    between atoms: C_36  and  O_38 
REMARK   15  A    between atoms: C_39  and  C_40 
REMARK   16  A    between atoms: C_40  and  C_41 
REMARK   17  A    between atoms: C_41  and  C_42 
REMARK   18  A    between atoms: C_42  and  O_44 
REMARK   19  A    between atoms: C_45  and  C_46 
REMARK   20  A    between atoms: C_46  and  C_47 
REMARK   21  A    between atoms: C_47  and  O_49 
REMARK   22  A    between atoms: C_50  and  C_51 
REMARK   23  A    between atoms: C_51  and  C_52 
REMARK   24  A    between atoms: C_52  and  O_54 
REMARK   25  A    between atoms: C_55  and  C_56 
REMARK   26  A    between atoms: C_56  and  C_57 
REMARK   27  A    between atoms: C_57  and  C_58 
REMARK   28  A    between atoms: C_58  and  O_60 
ROOT
ATOM      1  O   UNK d   0      -6.770  -0.906  22.933  0.00  0.00    -0.650 OA
ATOM      2  C   UNK d   0      -6.709  -0.762  21.691  0.00  0.00     0.139 C 
ENDROOT
BRANCH   2   3
ATOM      3  O   UNK d   0      -6.584   0.500  21.164  0.00  0.00    -0.776 OA
ATOM      4  H   UNK d   0      -7.142   1.279  21.521  0.00  0.00     0.167 HD
ENDBRANCH   2   3
BRANCH   2   5
ATOM      5  C   UNK d   0      -6.773  -1.953  20.797  0.00  0.00     0.115 C 
BRANCH   5   6
ATOM      6  C   UNK d   0      -6.994  -3.200  21.609  0.00  0.00     0.052 C 
BRANCH   6   7
ATOM      7  C   UNK d   0      -6.792  -4.461  20.804  0.00  0.00    -0.020 A 
ATOM      8  C   UNK d   0      -5.727  -5.220  20.762  0.00  0.00    -0.011 A 
ATOM      9  C   UNK d   0      -5.996  -6.314  19.844  0.00  0.00     0.067 A 
ATOM     10  C   UNK d   0      -5.302  -7.445  19.385  0.00  0.00     0.062 C 
ATOM     11  N   UNK d   0      -7.247  -6.140  19.368  0.00  0.00    -0.248 NA
ATOM     12  C   UNK d   0      -5.833  -8.547  18.706  0.00  0.00     0.041 A 
ATOM     13  N   UNK d   0      -6.730  -8.623  17.705  0.00  0.00    -0.355 N 
ATOM     14  C   UNK d   0      -5.458  -9.841  19.111  0.00  0.00    -0.022 A 
ATOM     15  C   UNK d   0      -6.941  -9.932  17.470  0.00  0.00     0.042 A 
ATOM     16  H   UNK d   0      -7.192  -7.768  17.163  0.00  0.00     0.166 HD
ATOM     17  C   UNK d   0      -7.778 -10.568  16.532  0.00  0.00     0.062 C 
ATOM     18  C   UNK d   0      -6.160 -10.726  18.332  0.00  0.00    -0.013 A 
ATOM     19  C   UNK d   0      -9.079 -10.282  16.204  0.00  0.00     0.067 A 
ATOM     20  N   UNK d   0      -9.583  -9.137  16.671  0.00  0.00    -0.248 NA
ATOM     21  C   UNK d   0     -10.133 -10.936  15.446  0.00  0.00    -0.011 A 
ATOM     22  C   UNK d   0     -10.890  -8.995  16.276  0.00  0.00     0.066 A 
ATOM     23  C   UNK d   0     -11.528  -7.826  16.663  0.00  0.00     0.062 C 
ATOM     24  C   UNK d   0     -11.192 -10.180  15.496  0.00  0.00    -0.020 A 
ATOM     25  C   UNK d   0     -10.973  -6.725  17.334  0.00  0.00     0.041 A 
ATOM     26  N   UNK d   0     -10.092  -6.649  18.339  0.00  0.00    -0.355 N 
ATOM     27  C   UNK d   0     -11.346  -5.426  16.924  0.00  0.00    -0.022 A 
ATOM     28  C   UNK d   0      -9.888  -5.345  18.581  0.00  0.00     0.042 A 
ATOM     29  H   UNK d   0      -9.638  -7.509  18.890  0.00  0.00     0.166 HD
ATOM     30  C   UNK d   0      -9.064  -4.698  19.516  0.00  0.00     0.062 C 
ATOM     31  C   UNK d   0     -10.664  -4.547  17.708  0.00  0.00    -0.013 A 
ATOM     32  C   UNK d   0      -7.780  -5.043  19.907  0.00  0.00     0.066 A 
BRANCH   8  33
ATOM     33  C   UNK d   0      -4.467  -5.018  21.501  0.00  0.00     0.151 C 
BRANCH  33  34
ATOM     34  C   UNK d   0      -4.467  -5.677  22.820  0.00  0.00     0.143 C 
ATOM     35  O   UNK d   0      -3.693  -6.613  23.063  0.00  0.00    -0.650 OA
BRANCH  34  36
ATOM     36  O   UNK d   0      -5.340  -5.244  23.791  0.00  0.00    -0.776 OA
ATOM     37  H   UNK d   0      -4.999  -4.839  24.674  0.00  0.00     0.167 HD
ENDBRANCH  34  36
ENDBRANCH  33  34
ENDBRANCH   8  33
BRANCH  31  38
ATOM     38  C   UNK d   0     -10.733  -3.040  17.625  0.00  0.00     0.151 C 
BRANCH  38  39
ATOM     39  C   UNK d   0      -9.649  -2.470  16.853  0.00  0.00     0.143 C 
ATOM     40  O   UNK d   0      -8.856  -3.171  16.201  0.00  0.00    -0.650 OA
BRANCH  39  41
ATOM     41  O   UNK d   0      -9.477  -1.086  16.830  0.00  0.00    -0.776 OA
ATOM     42  H   UNK d   0      -9.223  -0.638  17.716  0.00  0.00     0.167 HD
ENDBRANCH  39  41
ENDBRANCH  38  39
ENDBRANCH  31  38
BRANCH  27  43
ATOM     43  C   UNK d   0     -12.308  -5.002  15.842  0.00  0.00     0.052 C 
BRANCH  43  44
ATOM     44  C   UNK d   0     -13.591  -4.453  16.374  0.00  0.00     0.115 C 
BRANCH  44  45
ATOM     45  C   UNK d   0     -14.469  -5.620  16.653  0.00  0.00     0.139 C 
ATOM     46  O   UNK d   0     -15.333  -5.929  15.796  0.00  0.00    -0.650 OA
BRANCH  45  47
ATOM     47  O   UNK d   0     -14.368  -6.372  17.804  0.00  0.00    -0.776 OA
ATOM     48  H   UNK d   0     -14.986  -7.175  18.004  0.00  0.00     0.167 HD
ENDBRANCH  45  47
ENDBRANCH  44  45
ENDBRANCH  43  44
ENDBRANCH  27  43
BRANCH  24  49
ATOM     49  C   UNK d   0     -12.479 -10.443  14.831  0.00  0.00     0.052 C 
BRANCH  49  50
ATOM     50  C   UNK d   0     -12.986 -11.815  15.195  0.00  0.00     0.115 C 
BRANCH  50  51
ATOM     51  C   UNK d   0     -13.926 -12.442  14.276  0.00  0.00     0.139 C 
ATOM     52  O   UNK d   0     -13.872 -12.275  13.035  0.00  0.00    -0.650 OA
BRANCH  51  53
ATOM     53  O   UNK d   0     -14.931 -13.259  14.773  0.00  0.00    -0.776 OA
ATOM     54  H   UNK d   0     -15.721 -12.824  15.216  0.00  0.00     0.167 HD
ENDBRANCH  51  53
ENDBRANCH  50  51
ENDBRANCH  49  50
ENDBRANCH  24  49
BRANCH  21  55
ATOM     55  C   UNK d   0      -9.971 -12.245  14.749  0.00  0.00     0.151 C 
BRANCH  55  56
ATOM     56  C   UNK d   0      -9.089 -12.140  13.576  0.00  0.00     0.143 C 
ATOM     57  O   UNK d   0      -9.384 -11.470  12.567  0.00  0.00    -0.650 OA
BRANCH  56  58
ATOM     58  O   UNK d   0      -7.876 -12.826  13.613  0.00  0.00    -0.776 OA
ATOM     59  H   UNK d   0      -7.204 -12.486  14.325  0.00  0.00     0.167 HD
ENDBRANCH  56  58
ENDBRANCH  55  56
ENDBRANCH  21  55
BRANCH  18  60
ATOM     60  C   UNK d   0      -6.069 -12.229  18.434  0.00  0.00     0.151 C 
BRANCH  60  61
ATOM     61  C   UNK d   0      -7.120 -12.633  19.381  0.00  0.00     0.143 C 
ATOM     62  O   UNK d   0      -7.598 -11.958  20.293  0.00  0.00    -0.650 OA
BRANCH  61  63
ATOM     63  O   UNK d   0      -7.620 -13.946  19.201  0.00  0.00    -0.776 OA
ATOM     64  H   UNK d   0      -7.499 -14.648  19.909  0.00  0.00     0.167 HD
ENDBRANCH  61  63
ENDBRANCH  60  61
ENDBRANCH  18  60
BRANCH  14  65
ATOM     65  C   UNK d   0      -4.424 -10.298  20.100  0.00  0.00     0.052 C 
BRANCH  65  66
ATOM     66  C   UNK d   0      -4.856 -10.129  21.513  0.00  0.00     0.115 C 
BRANCH  66  67
ATOM     67  C   UNK d   0      -4.293 -10.967  22.534  0.00  0.00     0.139 C 
ATOM     68  O   UNK d   0      -4.501 -12.234  22.472  0.00  0.00    -0.650 OA
BRANCH  67  69
ATOM     69  O   UNK d   0      -3.522 -10.577  23.629  0.00  0.00    -0.776 OA
ATOM     70  H   UNK d   0      -3.849 -10.907  24.548  0.00  0.00     0.167 HD
ENDBRANCH  67  69
ENDBRANCH  66  67
ENDBRANCH  65  66
ENDBRANCH  14  65
ENDBRANCH   6   7
ENDBRANCH   5   6
ENDBRANCH   2   5
TORSDOF 28
ENDMDL
MODEL 8
REMARK VINA RESULT:      -9.0      1.747      8.145
REMARK  28 active torsions:
REMARK  status: ('A' for Active; 'I' for Inactive)
REMARK    1  A    between atoms: C_2  and  O_3 
REMARK    2  A    between atoms: C_2  and  C_4 
REMARK    3  A    between atoms: C_4  and  C_5 
REMARK    4  A    between atoms: C_5  and  C_6 
REMARK    5  A    between atoms: C_7  and  C_8 
REMARK    6  A    between atoms: C_8  and  C_9 
REMARK    7  A    between atoms: C_9  and  O_11 
REMARK    8  A    between atoms: C_28  and  C_29 
REMARK    9  A    between atoms: C_29  and  C_30 
REMARK   10  A    between atoms: C_30  and  O_32 
REMARK   11  A    between atoms: C_33  and  C_34 
REMARK   12  A    between atoms: C_34  and  C_35 
REMARK   13  A    between atoms: C_35  and  C_36 
REMARK   14  A    between atoms: C_36  and  O_38 
REMARK   15  A    between atoms: C_39  and  C_40 
REMARK   16  A    between atoms: C_40  and  C_41 
REMARK   17  A    between atoms: C_41  and  C_42 
REMARK   18  A    between atoms: C_42  and  O_44 
REMARK   19  A    between atoms: C_45  and  C_46 
REMARK   20  A    between atoms: C_46  and  C_47 
REMARK   21  A    between atoms: C_47  and  O_49 
REMARK   22  A    between atoms: C_50  and  C_51 
REMARK   23  A    between atoms: C_51  and  C_52 
REMARK   24  A    between atoms: C_52  and  O_54 
REMARK   25  A    between atoms: C_55  and  C_56 
REMARK   26  A    between atoms: C_56  and  C_57 
REMARK   27  A    between atoms: C_57  and  C_58 
REMARK   28  A    between atoms: C_58  and  O_60 
ROOT
ATOM      1  O   UNK d   0      -0.210  -3.437  23.806  0.00  0.00    -0.650 OA
ATOM      2  C   UNK d   0      -0.867  -3.726  22.781  0.00  0.00     0.139 C 
ENDROOT
BRANCH   2   3
ATOM      3  O   UNK d   0      -1.188  -2.735  21.886  0.00  0.00    -0.776 OA
ATOM      4  H   UNK d   0      -0.990  -2.840  20.888  0.00  0.00     0.167 HD
ENDBRANCH   2   3
BRANCH   2   5
ATOM      5  C   UNK d   0      -1.294  -5.133  22.538  0.00  0.00     0.115 C 
BRANCH   5   6
ATOM      6  C   UNK d   0      -2.524  -5.447  23.345  0.00  0.00     0.052 C 
BRANCH   6   7
ATOM      7  C   UNK d   0      -3.785  -5.434  22.514  0.00  0.00    -0.020 A 
ATOM      8  C   UNK d   0      -4.624  -4.443  22.353  0.00  0.00    -0.011 A 
ATOM      9  C   UNK d   0      -5.688  -4.900  21.475  0.00  0.00     0.067 A 
ATOM     10  C   UNK d   0      -6.845  -4.341  20.909  0.00  0.00     0.062 C 
ATOM     11  N   UNK d   0      -5.420  -6.183  21.154  0.00  0.00    -0.248 NA
ATOM     12  C   UNK d   0      -7.607  -4.856  19.855  0.00  0.00     0.041 A 
ATOM     13  N   UNK d   0      -8.016  -6.111  19.588  0.00  0.00    -0.355 N 
ATOM     14  C   UNK d   0      -8.014  -3.991  18.823  0.00  0.00    -0.022 A 
ATOM     15  C   UNK d   0      -8.665  -6.066  18.409  0.00  0.00     0.042 A 
ATOM     16  H   UNK d   0      -7.866  -7.007  20.229  0.00  0.00     0.166 HD
ATOM     17  C   UNK d   0      -9.291  -7.090  17.671  0.00  0.00     0.062 C 
ATOM     18  C   UNK d   0      -8.683  -4.753  17.898  0.00  0.00    -0.013 A 
ATOM     19  C   UNK d   0      -8.836  -8.354  17.393  0.00  0.00     0.067 A 
ATOM     20  N   UNK d   0      -7.753  -8.766  18.056  0.00  0.00    -0.248 NA
ATOM     21  C   UNK d   0      -9.231  -9.434  16.504  0.00  0.00    -0.011 A 
ATOM     22  C   UNK d   0      -7.409 -10.037  17.664  0.00  0.00     0.066 A 
ATOM     23  C   UNK d   0      -6.318 -10.605  18.304  0.00  0.00     0.062 C 
ATOM     24  C   UNK d   0      -8.389 -10.414  16.664  0.00  0.00    -0.020 A 
ATOM     25  C   UNK d   0      -5.574 -10.076  19.369  0.00  0.00     0.041 A 
ATOM     26  N   UNK d   0      -5.154  -8.832  19.628  0.00  0.00    -0.355 N 
ATOM     27  C   UNK d   0      -5.170 -10.945  20.407  0.00  0.00    -0.022 A 
ATOM     28  C   UNK d   0      -4.499  -8.876  20.799  0.00  0.00     0.042 A 
ATOM     29  H   UNK d   0      -5.296  -7.934  18.977  0.00  0.00     0.166 HD
ATOM     30  C   UNK d   0      -3.864  -7.867  21.539  0.00  0.00     0.062 C 
ATOM     31  C   UNK d   0      -4.490 -10.193  21.316  0.00  0.00    -0.013 A 
ATOM     32  C   UNK d   0      -4.287  -6.564  21.747  0.00  0.00     0.066 A 
BRANCH   8  33
ATOM     33  C   UNK d   0      -4.530  -3.098  22.949  0.00  0.00     0.151 C 
BRANCH  33  34
ATOM     34  C   UNK d   0      -5.441  -2.917  24.094  0.00  0.00     0.143 C 
ATOM     35  O   UNK d   0      -6.209  -1.946  24.149  0.00  0.00    -0.650 OA
BRANCH  34  36
ATOM     36  O   UNK d   0      -5.435  -3.840  25.114  0.00  0.00    -0.776 OA
ATOM     37  H   UNK d   0      -6.065  -4.654  25.102  0.00  0.00     0.167 HD
ENDBRANCH  34  36
ENDBRANCH  33  34
ENDBRANCH   8  33
BRANCH  31  38
ATOM     38  C   UNK d   0      -3.879 -10.691  22.605  0.00  0.00     0.151 C 
BRANCH  38  39
ATOM     39  C   UNK d   0      -2.509 -11.128  22.445  0.00  0.00     0.143 C 
ATOM     40  O   UNK d   0      -2.174 -11.973  21.597  0.00  0.00    -0.650 OA
BRANCH  39  41
ATOM     41  O   UNK d   0      -1.517 -10.589  23.264  0.00  0.00    -0.776 OA
ATOM     42  H   UNK d   0      -1.395  -9.572  23.234  0.00  0.00     0.167 HD
ENDBRANCH  39  41
ENDBRANCH  38  39
ENDBRANCH  31  38
BRANCH  27  43
ATOM     43  C   UNK d   0      -5.400 -12.427  20.560  0.00  0.00     0.052 C 
BRANCH  43  44
ATOM     44  C   UNK d   0      -6.428 -12.762  21.592  0.00  0.00     0.115 C 
BRANCH  44  45
ATOM     45  C   UNK d   0      -7.711 -12.952  20.866  0.00  0.00     0.139 C 
ATOM     46  O   UNK d   0      -8.651 -12.154  21.107  0.00  0.00    -0.650 OA
BRANCH  45  47
ATOM     47  O   UNK d   0      -7.906 -13.956  19.943  0.00  0.00    -0.776 OA
ATOM     48  H   UNK d   0      -8.842 -14.323  19.704  0.00  0.00     0.167 HD
ENDBRANCH  45  47
ENDBRANCH  44  45
ENDBRANCH  43  44
ENDBRANCH  27  43
BRANCH  24  49
ATOM     49  C   UNK d   0      -8.439 -11.721  15.986  0.00  0.00     0.052 C 
BRANCH  49  50
ATOM     50  C   UNK d   0      -7.941 -11.596  14.569  0.00  0.00     0.115 C 
BRANCH  50  51
ATOM     51  C   UNK d   0      -8.578 -12.436  13.564  0.00  0.00     0.139 C 
ATOM     52  O   UNK d   0      -8.198 -13.606  13.321  0.00  0.00    -0.650 OA
BRANCH  51  53
ATOM     53  O   UNK d   0      -9.647 -11.941  12.833  0.00  0.00    -0.776 OA
ATOM     54  H   UNK d   0     -10.294 -12.597  12.433  0.00  0.00     0.167 HD
ENDBRANCH  51  53
ENDBRANCH  50  51
ENDBRANCH  49  50
ENDBRANCH  24  49
BRANCH  21  55
ATOM     55  C   UNK d   0     -10.410  -9.375  15.590  0.00  0.00     0.151 C 
BRANCH  55  56
ATOM     56  C   UNK d   0     -11.633  -8.962  16.295  0.00  0.00     0.143 C 
ATOM     57  O   UNK d   0     -12.330  -7.996  15.927  0.00  0.00    -0.650 OA
BRANCH  56  58
ATOM     58  O   UNK d   0     -12.014  -9.694  17.418  0.00  0.00    -0.776 OA
ATOM     59  H   UNK d   0     -12.566  -9.165  18.117  0.00  0.00     0.167 HD
ENDBRANCH  56  58
ENDBRANCH  55  56
ENDBRANCH  21  55
BRANCH  18  60
ATOM     60  C   UNK d   0      -9.287  -4.228  16.619  0.00  0.00     0.151 C 
BRANCH  60  61
ATOM     61  C   UNK d   0     -10.744  -4.314  16.795  0.00  0.00     0.143 C 
ATOM     62  O   UNK d   0     -11.417  -3.785  17.681  0.00  0.00    -0.650 OA
BRANCH  61  63
ATOM     63  O   UNK d   0     -11.423  -5.094  15.828  0.00  0.00    -0.776 OA
ATOM     64  H   UNK d   0     -12.227  -5.643  16.077  0.00  0.00     0.167 HD
ENDBRANCH  61  63
ENDBRANCH  60  61
ENDBRANCH  18  60
BRANCH  14  65
ATOM     65  C   UNK d   0      -7.904  -2.498  18.694  0.00  0.00     0.052 C 
BRANCH  65  66
ATOM     66  C   UNK d   0      -9.157  -1.789  19.064  0.00  0.00     0.115 C 
BRANCH  66  67
ATOM     67  C   UNK d   0      -9.700  -0.795  18.182  0.00  0.00     0.139 C 
ATOM     68  O   UNK d   0      -9.366  -0.828  16.941  0.00  0.00    -0.650 OA
BRANCH  67  69
ATOM     69  O   UNK d   0     -10.575   0.243  18.500  0.00  0.00    -0.776 OA
ATOM     70  H   UNK d   0     -10.938   0.243  19.465  0.00  0.00     0.167 HD
ENDBRANCH  67  69
ENDBRANCH  66  67
ENDBRANCH  65  66
ENDBRANCH  14  65
ENDBRANCH   6   7
ENDBRANCH   5   6
ENDBRANCH   2   5
TORSDOF 28
ENDMDL
MODEL 9
REMARK VINA RESULT:      -8.8      1.870      2.712
REMARK  28 active torsions:
REMARK  status: ('A' for Active; 'I' for Inactive)
REMARK    1  A    between atoms: C_2  and  O_3 
REMARK    2  A    between atoms: C_2  and  C_4 
REMARK    3  A    between atoms: C_4  and  C_5 
REMARK    4  A    between atoms: C_5  and  C_6 
REMARK    5  A    between atoms: C_7  and  C_8 
REMARK    6  A    between atoms: C_8  and  C_9 
REMARK    7  A    between atoms: C_9  and  O_11 
REMARK    8  A    between atoms: C_28  and  C_29 
REMARK    9  A    between atoms: C_29  and  C_30 
REMARK   10  A    between atoms: C_30  and  O_32 
REMARK   11  A    between atoms: C_33  and  C_34 
REMARK   12  A    between atoms: C_34  and  C_35 
REMARK   13  A    between atoms: C_35  and  C_36 
REMARK   14  A    between atoms: C_36  and  O_38 
REMARK   15  A    between atoms: C_39  and  C_40 
REMARK   16  A    between atoms: C_40  and  C_41 
REMARK   17  A    between atoms: C_41  and  C_42 
REMARK   18  A    between atoms: C_42  and  O_44 
REMARK   19  A    between atoms: C_45  and  C_46 
REMARK   20  A    between atoms: C_46  and  C_47 
REMARK   21  A    between atoms: C_47  and  O_49 
REMARK   22  A    between atoms: C_50  and  C_51 
REMARK   23  A    between atoms: C_51  and  C_52 
REMARK   24  A    between atoms: C_52  and  O_54 
REMARK   25  A    between atoms: C_55  and  C_56 
REMARK   26  A    between atoms: C_56  and  C_57 
REMARK   27  A    between atoms: C_57  and  C_58 
REMARK   28  A    between atoms: C_58  and  O_60 
ROOT
ATOM      1  O   UNK d   0     -13.426  -4.201  15.518  0.00  0.00    -0.650 OA
ATOM      2  C   UNK d   0     -12.720  -5.066  16.082  0.00  0.00     0.139 C 
ENDROOT
BRANCH   2   3
ATOM      3  O   UNK d   0     -13.198  -6.348  16.208  0.00  0.00    -0.776 OA
ATOM      4  H   UNK d   0     -13.451  -6.900  15.385  0.00  0.00     0.167 HD
ENDBRANCH   2   3
BRANCH   2   5
ATOM      5  C   UNK d   0     -11.374  -4.705  16.611  0.00  0.00     0.115 C 
BRANCH   5   6
ATOM      6  C   UNK d   0     -11.454  -4.438  18.090  0.00  0.00     0.052 C 
BRANCH   6   7
ATOM      7  C   UNK d   0     -10.097  -4.423  18.752  0.00  0.00    -0.020 A 
ATOM      8  C   UNK d   0      -9.432  -3.384  19.187  0.00  0.00    -0.011 A 
ATOM      9  C   UNK d   0      -8.174  -3.858  19.738  0.00  0.00     0.067 A 
ATOM     10  C   UNK d   0      -7.059  -3.278  20.362  0.00  0.00     0.062 C 
ATOM     11  N   UNK d   0      -8.153  -5.200  19.591  0.00  0.00    -0.248 NA
ATOM     12  C   UNK d   0      -6.054  -3.934  21.082  0.00  0.00     0.041 A 
ATOM     13  N   UNK d   0      -5.390  -5.079  20.835  0.00  0.00    -0.355 N 
ATOM     14  C   UNK d   0      -5.644  -3.400  22.317  0.00  0.00    -0.022 A 
ATOM     15  C   UNK d   0      -4.575  -5.290  21.886  0.00  0.00     0.042 A 
ATOM     16  H   UNK d   0      -5.481  -5.715  19.927  0.00  0.00     0.166 HD
ATOM     17  C   UNK d   0      -3.663  -6.334  22.139  0.00  0.00     0.062 C 
ATOM     18  C   UNK d   0      -4.706  -4.259  22.836  0.00  0.00    -0.013 A 
ATOM     19  C   UNK d   0      -3.834  -7.685  21.977  0.00  0.00     0.067 A 
ATOM     20  N   UNK d   0      -4.920  -8.082  21.309  0.00  0.00    -0.248 NA
ATOM     21  C   UNK d   0      -3.112  -8.884  22.371  0.00  0.00    -0.011 A 
ATOM     22  C   UNK d   0      -4.963  -9.453  21.240  0.00  0.00     0.066 A 
ATOM     23  C   UNK d   0      -6.025 -10.002  20.538  0.00  0.00     0.062 C 
ATOM     24  C   UNK d   0      -3.780  -9.915  21.941  0.00  0.00    -0.020 A 
ATOM     25  C   UNK d   0      -7.017  -9.326  19.810  0.00  0.00     0.041 A 
ATOM     26  N   UNK d   0      -7.688  -8.196  20.063  0.00  0.00    -0.355 N 
ATOM     27  C   UNK d   0      -7.425  -9.859  18.568  0.00  0.00    -0.022 A 
ATOM     28  C   UNK d   0      -8.508  -7.988  19.021  0.00  0.00     0.042 A 
ATOM     29  H   UNK d   0      -7.603  -7.564  20.981  0.00  0.00     0.166 HD
ATOM     30  C   UNK d   0      -9.426  -6.958  18.760  0.00  0.00     0.062 C 
ATOM     31  C   UNK d   0      -8.367  -9.019  18.061  0.00  0.00    -0.013 A 
ATOM     32  C   UNK d   0      -9.282  -5.602  19.005  0.00  0.00     0.066 A 
BRANCH   8  33
ATOM     33  C   UNK d   0      -9.861  -1.974  19.133  0.00  0.00     0.151 C 
BRANCH  33  34
ATOM     34  C   UNK d   0      -9.333  -1.261  17.956  0.00  0.00     0.143 C 
ATOM     35  O   UNK d   0      -9.471  -1.726  16.816  0.00  0.00    -0.650 OA
BRANCH  34  36
ATOM     36  O   UNK d   0      -8.676  -0.065  18.129  0.00  0.00    -0.776 OA
ATOM     37  H   UNK d   0      -8.473   0.554  17.332  0.00  0.00     0.167 HD
ENDBRANCH  34  36
ENDBRANCH  33  34
ENDBRANCH   8  33
BRANCH  31  38
ATOM     38  C   UNK d   0      -9.083  -9.175  16.740  0.00  0.00     0.151 C 
BRANCH  38  39
ATOM     39  C   UNK d   0     -10.271  -9.996  16.839  0.00  0.00     0.143 C 
ATOM     40  O   UNK d   0     -11.084  -9.881  17.773  0.00  0.00    -0.650 OA
BRANCH  39  41
ATOM     41  O   UNK d   0     -10.527 -10.954  15.858  0.00  0.00    -0.776 OA
ATOM     42  H   UNK d   0      -9.723 -11.287  15.317  0.00  0.00     0.167 HD
ENDBRANCH  39  41
ENDBRANCH  38  39
ENDBRANCH  31  38
BRANCH  27  43
ATOM     43  C   UNK d   0      -6.962 -11.111  17.865  0.00  0.00     0.052 C 
BRANCH  43  44
ATOM     44  C   UNK d   0      -5.898 -10.858  16.847  0.00  0.00     0.115 C 
BRANCH  44  45
ATOM     45  C   UNK d   0      -6.311 -11.577  15.613  0.00  0.00     0.139 C 
ATOM     46  O   UNK d   0      -6.351 -12.832  15.646  0.00  0.00    -0.650 OA
BRANCH  45  47
ATOM     47  O   UNK d   0      -6.653 -10.926  14.448  0.00  0.00    -0.776 OA
ATOM     48  H   UNK d   0      -7.611 -10.934  14.062  0.00  0.00     0.167 HD
ENDBRANCH  45  47
ENDBRANCH  44  45
ENDBRANCH  43  44
ENDBRANCH  27  43
BRANCH  24  49
ATOM     49  C   UNK d   0      -3.388 -11.327  22.087  0.00  0.00     0.052 C 
BRANCH  49  50
ATOM     50  C   UNK d   0      -4.040 -11.929  23.306  0.00  0.00     0.115 C 
BRANCH  50  51
ATOM     51  C   UNK d   0      -5.254 -12.707  23.095  0.00  0.00     0.139 C 
ATOM     52  O   UNK d   0      -5.665 -13.022  21.953  0.00  0.00    -0.650 OA
BRANCH  51  53
ATOM     53  O   UNK d   0      -6.000 -13.123  24.186  0.00  0.00    -0.776 OA
ATOM     54  H   UNK d   0      -5.674 -13.915  24.712  0.00  0.00     0.167 HD
ENDBRANCH  51  53
ENDBRANCH  50  51
ENDBRANCH  49  50
ENDBRANCH  24  49
BRANCH  21  55
ATOM     55  C   UNK d   0      -1.829  -8.874  23.133  0.00  0.00     0.151 C 
BRANCH  55  56
ATOM     56  C   UNK d   0      -1.353  -7.506  23.393  0.00  0.00     0.143 C 
ATOM     57  O   UNK d   0      -1.594  -6.898  24.455  0.00  0.00    -0.650 OA
BRANCH  56  58
ATOM     58  O   UNK d   0      -0.603  -6.880  22.399  0.00  0.00    -0.776 OA
ATOM     59  H   UNK d   0      -0.235  -7.513  21.666  0.00  0.00     0.167 HD
ENDBRANCH  56  58
ENDBRANCH  55  56
ENDBRANCH  21  55
BRANCH  18  60
ATOM     60  C   UNK d   0      -4.004  -4.075  24.158  0.00  0.00     0.151 C 
BRANCH  60  61
ATOM     61  C   UNK d   0      -2.724  -3.421  23.849  0.00  0.00     0.143 C 
ATOM     62  O   UNK d   0      -2.384  -2.928  22.773  0.00  0.00    -0.650 OA
BRANCH  61  63
ATOM     63  O   UNK d   0      -1.801  -3.366  24.921  0.00  0.00    -0.776 OA
ATOM     64  H   UNK d   0      -1.181  -2.583  25.031  0.00  0.00     0.167 HD
ENDBRANCH  61  63
ENDBRANCH  60  61
ENDBRANCH  18  60
BRANCH  14  65
ATOM     65  C   UNK d   0      -5.995  -2.105  22.992  0.00  0.00     0.052 C 
BRANCH  65  66
ATOM     66  C   UNK d   0      -7.379  -2.090  23.539  0.00  0.00     0.115 C 
BRANCH  66  67
ATOM     67  C   UNK d   0      -7.629  -2.607  24.855  0.00  0.00     0.139 C 
ATOM     68  O   UNK d   0      -8.385  -1.931  25.646  0.00  0.00    -0.650 OA
BRANCH  67  69
ATOM     69  O   UNK d   0      -7.144  -3.788  25.414  0.00  0.00    -0.776 OA
ATOM     70  H   UNK d   0      -6.251  -3.710  25.921  0.00  0.00     0.167 HD
ENDBRANCH  67  69
ENDBRANCH  66  67
ENDBRANCH  65  66
ENDBRANCH  14  65
ENDBRANCH   6   7
ENDBRANCH   5   6
ENDBRANCH   2   5
TORSDOF 28
ENDMDL
MODEL 10
REMARK VINA RESULT:      -8.8      2.149      3.658
REMARK  28 active torsions:
REMARK  status: ('A' for Active; 'I' for Inactive)
REMARK    1  A    between atoms: C_2  and  O_3 
REMARK    2  A    between atoms: C_2  and  C_4 
REMARK    3  A    between atoms: C_4  and  C_5 
REMARK    4  A    between atoms: C_5  and  C_6 
REMARK    5  A    between atoms: C_7  and  C_8 
REMARK    6  A    between atoms: C_8  and  C_9 
REMARK    7  A    between atoms: C_9  and  O_11 
REMARK    8  A    between atoms: C_28  and  C_29 
REMARK    9  A    between atoms: C_29  and  C_30 
REMARK   10  A    between atoms: C_30  and  O_32 
REMARK   11  A    between atoms: C_33  and  C_34 
REMARK   12  A    between atoms: C_34  and  C_35 
REMARK   13  A    between atoms: C_35  and  C_36 
REMARK   14  A    between atoms: C_36  and  O_38 
REMARK   15  A    between atoms: C_39  and  C_40 
REMARK   16  A    between atoms: C_40  and  C_41 
REMARK   17  A    between atoms: C_41  and  C_42 
REMARK   18  A    between atoms: C_42  and  O_44 
REMARK   19  A    between atoms: C_45  and  C_46 
REMARK   20  A    between atoms: C_46  and  C_47 
REMARK   21  A    between atoms: C_47  and  O_49 
REMARK   22  A    between atoms: C_50  and  C_51 
REMARK   23  A    between atoms: C_51  and  C_52 
REMARK   24  A    between atoms: C_52  and  O_54 
REMARK   25  A    between atoms: C_55  and  C_56 
REMARK   26  A    between atoms: C_56  and  C_57 
REMARK   27  A    between atoms: C_57  and  C_58 
REMARK   28  A    between atoms: C_58  and  O_60 
ROOT
ATOM      1  O   UNK d   0     -12.863  -4.449  16.098  0.00  0.00    -0.650 OA
ATOM      2  C   UNK d   0     -12.592  -5.031  17.172  0.00  0.00     0.139 C 
ENDROOT
BRANCH   2   3
ATOM      3  O   UNK d   0     -13.610  -5.561  17.926  0.00  0.00    -0.776 OA
ATOM      4  H   UNK d   0     -13.878  -5.144  18.820  0.00  0.00     0.167 HD
ENDBRANCH   2   3
BRANCH   2   5
ATOM      5  C   UNK d   0     -11.176  -5.145  17.625  0.00  0.00     0.115 C 
BRANCH   5   6
ATOM      6  C   UNK d   0     -11.055  -4.706  19.058  0.00  0.00     0.052 C 
BRANCH   6   7
ATOM      7  C   UNK d   0      -9.623  -4.679  19.539  0.00  0.00    -0.020 A 
ATOM      8  C   UNK d   0      -8.869  -3.629  19.740  0.00  0.00    -0.011 A 
ATOM      9  C   UNK d   0      -7.568  -4.096  20.191  0.00  0.00     0.067 A 
ATOM     10  C   UNK d   0      -6.360  -3.501  20.585  0.00  0.00     0.062 C 
ATOM     11  N   UNK d   0      -7.618  -5.444  20.230  0.00  0.00    -0.248 NA
ATOM     12  C   UNK d   0      -5.295  -4.110  21.259  0.00  0.00     0.041 A 
ATOM     13  N   UNK d   0      -4.713  -5.313  21.093  0.00  0.00    -0.355 N 
ATOM     14  C   UNK d   0      -4.708  -3.441  22.348  0.00  0.00    -0.022 A 
ATOM     15  C   UNK d   0      -3.777  -5.427  22.053  0.00  0.00     0.042 A 
ATOM     16  H   UNK d   0      -4.946  -6.057  20.300  0.00  0.00     0.166 HD
ATOM     17  C   UNK d   0      -2.881  -6.478  22.334  0.00  0.00     0.062 C 
ATOM     18  C   UNK d   0      -3.744  -4.274  22.860  0.00  0.00    -0.013 A 
ATOM     19  C   UNK d   0      -3.122  -7.827  22.383  0.00  0.00     0.067 A 
ATOM     20  N   UNK d   0      -4.301  -8.248  21.917  0.00  0.00    -0.248 NA
ATOM     21  C   UNK d   0      -2.402  -9.001  22.847  0.00  0.00    -0.011 A 
ATOM     22  C   UNK d   0      -4.404  -9.612  22.045  0.00  0.00     0.066 A 
ATOM     23  C   UNK d   0      -5.570 -10.189  21.562  0.00  0.00     0.062 C 
ATOM     24  C   UNK d   0      -3.159 -10.042  22.650  0.00  0.00    -0.020 A 
ATOM     25  C   UNK d   0      -6.621  -9.561  20.877  0.00  0.00     0.041 A 
ATOM     26  N   UNK d   0      -7.210  -8.372  21.051  0.00  0.00    -0.355 N 
ATOM     27  C   UNK d   0      -7.208 -10.231  19.781  0.00  0.00    -0.022 A 
ATOM     28  C   UNK d   0      -8.150  -8.259  20.100  0.00  0.00     0.042 A 
ATOM     29  H   UNK d   0      -6.982  -7.629  21.855  0.00  0.00     0.166 HD
ATOM     30  C   UNK d   0      -9.054  -7.224  19.815  0.00  0.00     0.062 C 
ATOM     31  C   UNK d   0      -8.175  -9.414  19.283  0.00  0.00    -0.013 A 
ATOM     32  C   UNK d   0      -8.828  -5.857  19.850  0.00  0.00     0.066 A 
BRANCH   8  33
ATOM     33  C   UNK d   0      -9.246  -2.217  19.545  0.00  0.00     0.151 C 
BRANCH  33  34
ATOM     34  C   UNK d   0      -9.170  -1.795  18.134  0.00  0.00     0.143 C 
ATOM     35  O   UNK d   0      -8.900  -2.610  17.240  0.00  0.00    -0.650 OA
BRANCH  34  36
ATOM     36  O   UNK d   0      -9.400  -0.478  17.809  0.00  0.00    -0.776 OA
ATOM     37  H   UNK d   0      -8.796   0.021  17.142  0.00  0.00     0.167 HD
ENDBRANCH  34  36
ENDBRANCH  33  34
ENDBRANCH   8  33
BRANCH  31  38
ATOM     38  C   UNK d   0      -9.063  -9.704  18.096  0.00  0.00     0.151 C 
BRANCH  38  39
ATOM     39  C   UNK d   0      -8.439  -9.370  16.833  0.00  0.00     0.143 C 
ATOM     40  O   UNK d   0      -7.939  -8.253  16.613  0.00  0.00    -0.650 OA
BRANCH  39  41
ATOM     41  O   UNK d   0      -8.389 -10.325  15.818  0.00  0.00    -0.776 OA
ATOM     42  H   UNK d   0      -8.512  -9.986  14.859  0.00  0.00     0.167 HD
ENDBRANCH  39  41
ENDBRANCH  38  39
ENDBRANCH  31  38
BRANCH  27  43
ATOM     43  C   UNK d   0      -6.889 -11.589  19.206  0.00  0.00     0.052 C 
BRANCH  43  44
ATOM     44  C   UNK d   0      -7.472 -12.716  19.994  0.00  0.00     0.115 C 
BRANCH  44  45
ATOM     45  C   UNK d   0      -6.343 -13.359  20.715  0.00  0.00     0.139 C 
ATOM     46  O   UNK d   0      -6.469 -13.567  21.947  0.00  0.00    -0.650 OA
BRANCH  45  47
ATOM     47  O   UNK d   0      -5.175 -13.737  20.089  0.00  0.00    -0.776 OA
ATOM     48  H   UNK d   0      -4.673 -14.610  20.319  0.00  0.00     0.167 HD
ENDBRANCH  45  47
ENDBRANCH  44  45
ENDBRANCH  43  44
ENDBRANCH  27  43
BRANCH  24  49
ATOM     49  C   UNK d   0      -2.805 -11.441  22.942  0.00  0.00     0.052 C 
BRANCH  49  50
ATOM     50  C   UNK d   0      -2.896 -11.708  24.422  0.00  0.00     0.115 C 
BRANCH  50  51
ATOM     51  C   UNK d   0      -4.207 -12.050  24.957  0.00  0.00     0.139 C 
ATOM     52  O   UNK d   0      -4.594 -11.677  26.090  0.00  0.00    -0.650 OA
BRANCH  51  53
ATOM     53  O   UNK d   0      -5.078 -12.820  24.200  0.00  0.00    -0.776 OA
ATOM     54  H   UNK d   0      -6.059 -12.772  24.410  0.00  0.00     0.167 HD
ENDBRANCH  51  53
ENDBRANCH  50  51
ENDBRANCH  49  50
ENDBRANCH  24  49
BRANCH  21  55
ATOM     55  C   UNK d   0      -1.030  -8.961  23.435  0.00  0.00     0.151 C 
BRANCH  55  56
ATOM     56  C   UNK d   0      -1.033  -8.428  24.806  0.00  0.00     0.143 C 
ATOM     57  O   UNK d   0      -1.203  -7.219  25.059  0.00  0.00    -0.650 OA
BRANCH  56  58
ATOM     58  O   UNK d   0      -0.836  -9.327  25.853  0.00  0.00    -0.776 OA
ATOM     59  H   UNK d   0      -1.555 -10.069  25.932  0.00  0.00     0.167 HD
ENDBRANCH  56  58
ENDBRANCH  55  56
ENDBRANCH  21  55
BRANCH  18  60
ATOM     60  C   UNK d   0      -2.869  -3.956  24.047  0.00  0.00     0.151 C 
BRANCH  60  61
ATOM     61  C   UNK d   0      -1.509  -3.785  23.513  0.00  0.00     0.143 C 
ATOM     62  O   UNK d   0      -1.168  -3.076  22.565  0.00  0.00    -0.650 OA
BRANCH  61  63
ATOM     63  O   UNK d   0      -0.503  -4.526  24.177  0.00  0.00    -0.776 OA
ATOM     64  H   UNK d   0       0.341  -4.084  24.496  0.00  0.00     0.167 HD
ENDBRANCH  61  63
ENDBRANCH  60  61
ENDBRANCH  18  60
BRANCH  14  65
ATOM     65  C   UNK d   0      -4.918  -2.050  22.874  0.00  0.00     0.052 C 
BRANCH  65  66
ATOM     66  C   UNK d   0      -5.703  -2.018  24.138  0.00  0.00     0.115 C 
BRANCH  66  67
ATOM     67  C   UNK d   0      -6.767  -2.962  24.339  0.00  0.00     0.139 C 
ATOM     68  O   UNK d   0      -6.632  -3.851  25.258  0.00  0.00    -0.650 OA
BRANCH  67  69
ATOM     69  O   UNK d   0      -7.973  -3.048  23.644  0.00  0.00    -0.776 OA
ATOM     70  H   UNK d   0      -7.952  -3.606  22.779  0.00  0.00     0.167 HD
ENDBRANCH  67  69
ENDBRANCH  66  67
ENDBRANCH  65  66
ENDBRANCH  14  65
ENDBRANCH   6   7
ENDBRANCH   5   6
ENDBRANCH   2   5
TORSDOF 28
ENDMDL
MODEL 11
REMARK VINA RESULT:      -8.7      3.025      9.172
REMARK  28 active torsions:
REMARK  status: ('A' for Active; 'I' for Inactive)
REMARK    1  A    between atoms: C_2  and  O_3 
REMARK    2  A    between atoms: C_2  and  C_4 
REMARK    3  A    between atoms: C_4  and  C_5 
REMARK    4  A    between atoms: C_5  and  C_6 
REMARK    5  A    between atoms: C_7  and  C_8 
REMARK    6  A    between atoms: C_8  and  C_9 
REMARK    7  A    between atoms: C_9  and  O_11 
REMARK    8  A    between atoms: C_28  and  C_29 
REMARK    9  A    between atoms: C_29  and  C_30 
REMARK   10  A    between atoms: C_30  and  O_32 
REMARK   11  A    between atoms: C_33  and  C_34 
REMARK   12  A    between atoms: C_34  and  C_35 
REMARK   13  A    between atoms: C_35  and  C_36 
REMARK   14  A    between atoms: C_36  and  O_38 
REMARK   15  A    between atoms: C_39  and  C_40 
REMARK   16  A    between atoms: C_40  and  C_41 
REMARK   17  A    between atoms: C_41  and  C_42 
REMARK   18  A    between atoms: C_42  and  O_44 
REMARK   19  A    between atoms: C_45  and  C_46 
REMARK   20  A    between atoms: C_46  and  C_47 
REMARK   21  A    between atoms: C_47  and  O_49 
REMARK   22  A    between atoms: C_50  and  C_51 
REMARK   23  A    between atoms: C_51  and  C_52 
REMARK   24  A    between atoms: C_52  and  O_54 
REMARK   25  A    between atoms: C_55  and  C_56 
REMARK   26  A    between atoms: C_56  and  C_57 
REMARK   27  A    between atoms: C_57  and  C_58 
REMARK   28  A    between atoms: C_58  and  O_60 
ROOT
ATOM      1  O   UNK d   0       0.715 -13.841  18.478  0.00  0.00    -0.650 OA
ATOM      2  C   UNK d   0      -0.066 -14.169  19.399  0.00  0.00     0.139 C 
ENDROOT
BRANCH   2   3
ATOM      3  O   UNK d   0       0.429 -14.825  20.500  0.00  0.00    -0.776 OA
ATOM      4  H   UNK d   0       0.928 -15.712  20.405  0.00  0.00     0.167 HD
ENDBRANCH   2   3
BRANCH   2   5
ATOM      5  C   UNK d   0      -1.518 -13.850  19.297  0.00  0.00     0.115 C 
BRANCH   5   6
ATOM      6  C   UNK d   0      -2.134 -13.796  20.669  0.00  0.00     0.052 C 
BRANCH   6   7
ATOM      7  C   UNK d   0      -2.354 -12.383  21.153  0.00  0.00    -0.020 A 
ATOM      8  C   UNK d   0      -1.668 -11.732  22.057  0.00  0.00    -0.011 A 
ATOM      9  C   UNK d   0      -2.254 -10.409  22.194  0.00  0.00     0.067 A 
ATOM     10  C   UNK d   0      -1.989  -9.257  22.950  0.00  0.00     0.062 C 
ATOM     11  N   UNK d   0      -3.297 -10.343  21.340  0.00  0.00    -0.248 NA
ATOM     12  C   UNK d   0      -2.499  -7.971  22.743  0.00  0.00     0.041 A 
ATOM     13  N   UNK d   0      -3.740  -7.549  22.434  0.00  0.00    -0.355 N 
ATOM     14  C   UNK d   0      -1.620  -6.874  22.795  0.00  0.00    -0.022 A 
ATOM     15  C   UNK d   0      -3.669  -6.213  22.281  0.00  0.00     0.042 A 
ATOM     16  H   UNK d   0      -4.651  -8.181  22.345  0.00  0.00     0.166 HD
ATOM     17  C   UNK d   0      -4.672  -5.277  21.959  0.00  0.00     0.062 C 
ATOM     18  C   UNK d   0      -2.356  -5.754  22.500  0.00  0.00    -0.013 A 
ATOM     19  C   UNK d   0      -5.646  -5.354  20.997  0.00  0.00     0.067 A 
ATOM     20  N   UNK d   0      -5.818  -6.538  20.403  0.00  0.00    -0.248 NA
ATOM     21  C   UNK d   0      -6.597  -4.433  20.397  0.00  0.00    -0.011 A 
ATOM     22  C   UNK d   0      -6.812  -6.457  19.458  0.00  0.00     0.066 A 
ATOM     23  C   UNK d   0      -7.122  -7.632  18.788  0.00  0.00     0.062 C 
ATOM     24  C   UNK d   0      -7.273  -5.084  19.495  0.00  0.00    -0.020 A 
ATOM     25  C   UNK d   0      -6.606  -8.916  19.021  0.00  0.00     0.041 A 
ATOM     26  N   UNK d   0      -5.370  -9.338  19.313  0.00  0.00    -0.355 N 
ATOM     27  C   UNK d   0      -7.490 -10.017  18.972  0.00  0.00    -0.022 A 
ATOM     28  C   UNK d   0      -5.436 -10.671  19.457  0.00  0.00     0.042 A 
ATOM     29  H   UNK d   0      -4.453  -8.703  19.392  0.00  0.00     0.166 HD
ATOM     30  C   UNK d   0      -4.445 -11.615  19.769  0.00  0.00     0.062 C 
ATOM     31  C   UNK d   0      -6.758 -11.131  19.248  0.00  0.00    -0.013 A 
ATOM     32  C   UNK d   0      -3.410 -11.498  20.683  0.00  0.00     0.066 A 
BRANCH   8  33
ATOM     33  C   UNK d   0      -0.508 -12.233  22.817  0.00  0.00     0.151 C 
BRANCH  33  34
ATOM     34  C   UNK d   0       0.769 -11.663  22.351  0.00  0.00     0.143 C 
ATOM     35  O   UNK d   0       1.488 -12.280  21.552  0.00  0.00    -0.650 OA
BRANCH  34  36
ATOM     36  O   UNK d   0       1.166 -10.429  22.811  0.00  0.00    -0.776 OA
ATOM     37  H   UNK d   0       1.523 -10.306  23.769  0.00  0.00     0.167 HD
ENDBRANCH  34  36
ENDBRANCH  33  34
ENDBRANCH   8  33
BRANCH  31  38
ATOM     38  C   UNK d   0      -7.281 -12.546  19.322  0.00  0.00     0.151 C 
BRANCH  38  39
ATOM     39  C   UNK d   0      -7.693 -12.923  20.658  0.00  0.00     0.143 C 
ATOM     40  O   UNK d   0      -6.889 -13.345  21.508  0.00  0.00    -0.650 OA
BRANCH  39  41
ATOM     41  O   UNK d   0      -9.036 -12.813  21.019  0.00  0.00    -0.776 OA
ATOM     42  H   UNK d   0      -9.240 -12.307  21.886  0.00  0.00     0.167 HD
ENDBRANCH  39  41
ENDBRANCH  38  39
ENDBRANCH  31  38
BRANCH  27  43
ATOM     43  C   UNK d   0      -8.969 -10.046  18.678  0.00  0.00     0.052 C 
BRANCH  43  44
ATOM     44  C   UNK d   0      -9.816 -10.037  19.909  0.00  0.00     0.115 C 
BRANCH  44  45
ATOM     45  C   UNK d   0     -11.213 -10.285  19.464  0.00  0.00     0.139 C 
ATOM     46  O   UNK d   0     -11.467 -10.202  18.237  0.00  0.00    -0.650 OA
BRANCH  45  47
ATOM     47  O   UNK d   0     -12.229 -10.605  20.338  0.00  0.00    -0.776 OA
ATOM     48  H   UNK d   0     -12.103 -10.622  21.363  0.00  0.00     0.167 HD
ENDBRANCH  45  47
ENDBRANCH  44  45
ENDBRANCH  43  44
ENDBRANCH  27  43
BRANCH  24  49
ATOM     49  C   UNK d   0      -8.368  -4.542  18.671  0.00  0.00     0.052 C 
BRANCH  49  50
ATOM     50  C   UNK d   0      -7.965  -4.508  17.219  0.00  0.00     0.115 C 
BRANCH  50  51
ATOM     51  C   UNK d   0      -9.026  -4.325  16.239  0.00  0.00     0.139 C 
ATOM     52  O   UNK d   0      -9.774  -5.261  15.869  0.00  0.00    -0.650 OA
BRANCH  51  53
ATOM     53  O   UNK d   0      -9.233  -3.075  15.677  0.00  0.00    -0.776 OA
ATOM     54  H   UNK d   0      -9.159  -2.268  16.272  0.00  0.00     0.167 HD
ENDBRANCH  51  53
ENDBRANCH  50  51
ENDBRANCH  49  50
ENDBRANCH  24  49
BRANCH  21  55
ATOM     55  C   UNK d   0      -6.734  -3.000  20.792  0.00  0.00     0.151 C 
BRANCH  55  56
ATOM     56  C   UNK d   0      -7.120  -2.851  22.203  0.00  0.00     0.143 C 
ATOM     57  O   UNK d   0      -6.399  -2.276  23.043  0.00  0.00    -0.650 OA
BRANCH  56  58
ATOM     58  O   UNK d   0      -8.346  -3.381  22.601  0.00  0.00    -0.776 OA
ATOM     59  H   UNK d   0      -8.534  -3.331  23.618  0.00  0.00     0.167 HD
ENDBRANCH  56  58
ENDBRANCH  55  56
ENDBRANCH  21  55
BRANCH  18  60
ATOM     60  C   UNK d   0      -1.806  -4.350  22.435  0.00  0.00     0.151 C 
BRANCH  60  61
ATOM     61  C   UNK d   0      -2.271  -3.678  23.659  0.00  0.00     0.143 C 
ATOM     62  O   UNK d   0      -1.903  -3.901  24.813  0.00  0.00    -0.650 OA
BRANCH  61  63
ATOM     63  O   UNK d   0      -3.245  -2.671  23.460  0.00  0.00    -0.776 OA
ATOM     64  H   UNK d   0      -3.448  -2.320  22.541  0.00  0.00     0.167 HD
ENDBRANCH  61  63
ENDBRANCH  60  61
ENDBRANCH  18  60
BRANCH  14  65
ATOM     65  C   UNK d   0      -0.175  -6.793  23.196  0.00  0.00     0.052 C 
BRANCH  65  66
ATOM     66  C   UNK d   0       0.019  -6.763  24.671  0.00  0.00     0.115 C 
BRANCH  66  67
ATOM     67  C   UNK d   0       0.122  -7.995  25.401  0.00  0.00     0.139 C 
ATOM     68  O   UNK d   0       1.171  -8.720  25.237  0.00  0.00    -0.650 OA
BRANCH  67  69
ATOM     69  O   UNK d   0      -0.799  -8.533  26.299  0.00  0.00    -0.776 OA
ATOM     70  H   UNK d   0      -1.724  -8.763  25.908  0.00  0.00     0.167 HD
ENDBRANCH  67  69
ENDBRANCH  66  67
ENDBRANCH  65  66
ENDBRANCH  14  65
ENDBRANCH   6   7
ENDBRANCH   5   6
ENDBRANCH   2   5
TORSDOF 28
ENDMDL
MODEL 12
REMARK VINA RESULT:      -8.7      1.631      8.093
REMARK  28 active torsions:
REMARK  status: ('A' for Active; 'I' for Inactive)
REMARK    1  A    between atoms: C_2  and  O_3 
REMARK    2  A    between atoms: C_2  and  C_4 
REMARK    3  A    between atoms: C_4  and  C_5 
REMARK    4  A    between atoms: C_5  and  C_6 
REMARK    5  A    between atoms: C_7  and  C_8 
REMARK    6  A    between atoms: C_8  and  C_9 
REMARK    7  A    between atoms: C_9  and  O_11 
REMARK    8  A    between atoms: C_28  and  C_29 
REMARK    9  A    between atoms: C_29  and  C_30 
REMARK   10  A    between atoms: C_30  and  O_32 
REMARK   11  A    between atoms: C_33  and  C_34 
REMARK   12  A    between atoms: C_34  and  C_35 
REMARK   13  A    between atoms: C_35  and  C_36 
REMARK   14  A    between atoms: C_36  and  O_38 
REMARK   15  A    between atoms: C_39  and  C_40 
REMARK   16  A    between atoms: C_40  and  C_41 
REMARK   17  A    between atoms: C_41  and  C_42 
REMARK   18  A    between atoms: C_42  and  O_44 
REMARK   19  A    between atoms: C_45  and  C_46 
REMARK   20  A    between atoms: C_46  and  C_47 
REMARK   21  A    between atoms: C_47  and  O_49 
REMARK   22  A    between atoms: C_50  and  C_51 
REMARK   23  A    between atoms: C_51  and  C_52 
REMARK   24  A    between atoms: C_52  and  O_54 
REMARK   25  A    between atoms: C_55  and  C_56 
REMARK   26  A    between atoms: C_56  and  C_57 
REMARK   27  A    between atoms: C_57  and  C_58 
REMARK   28  A    between atoms: C_58  and  O_60 
ROOT
ATOM      1  O   UNK d   0      -5.673  -1.095  23.089  0.00  0.00    -0.650 OA
ATOM      2  C   UNK d   0      -4.972  -1.824  22.352  0.00  0.00     0.139 C 
ENDROOT
BRANCH   2   3
ATOM      3  O   UNK d   0      -3.617  -1.607  22.282  0.00  0.00    -0.776 OA
ATOM      4  H   UNK d   0      -3.222  -0.681  22.457  0.00  0.00     0.167 HD
ENDBRANCH   2   3
BRANCH   2   5
ATOM      5  C   UNK d   0      -5.606  -2.915  21.559  0.00  0.00     0.115 C 
BRANCH   5   6
ATOM      6  C   UNK d   0      -5.729  -4.159  22.396  0.00  0.00     0.052 C 
BRANCH   6   7
ATOM      7  C   UNK d   0      -5.649  -5.423  21.574  0.00  0.00    -0.020 A 
ATOM      8  C   UNK d   0      -4.701  -6.325  21.586  0.00  0.00    -0.011 A 
ATOM      9  C   UNK d   0      -5.053  -7.355  20.623  0.00  0.00     0.067 A 
ATOM     10  C   UNK d   0      -4.494  -8.565  20.184  0.00  0.00     0.062 C 
ATOM     11  N   UNK d   0      -6.230  -6.997  20.067  0.00  0.00    -0.248 NA
ATOM     12  C   UNK d   0      -5.123  -9.569  19.441  0.00  0.00     0.041 A 
ATOM     13  N   UNK d   0      -5.948  -9.501  18.379  0.00  0.00    -0.355 N 
ATOM     14  C   UNK d   0      -4.964 -10.910  19.836  0.00  0.00    -0.022 A 
ATOM     15  C   UNK d   0      -6.322 -10.763  18.095  0.00  0.00     0.042 A 
ATOM     16  H   UNK d   0      -6.245  -8.581  17.828  0.00  0.00     0.166 HD
ATOM     17  C   UNK d   0      -7.172 -11.259  17.086  0.00  0.00     0.062 C 
ATOM     18  C   UNK d   0      -5.725 -11.674  18.988  0.00  0.00    -0.013 A 
ATOM     19  C   UNK d   0      -8.392 -10.786  16.676  0.00  0.00     0.067 A 
ATOM     20  N   UNK d   0      -8.763  -9.589  17.138  0.00  0.00    -0.248 NA
ATOM     21  C   UNK d   0      -9.470 -11.271  15.831  0.00  0.00    -0.011 A 
ATOM     22  C   UNK d   0     -10.006  -9.257  16.657  0.00  0.00     0.066 A 
ATOM     23  C   UNK d   0     -10.499  -8.015  17.030  0.00  0.00     0.062 C 
ATOM     24  C   UNK d   0     -10.413 -10.374  15.828  0.00  0.00    -0.020 A 
ATOM     25  C   UNK d   0      -9.845  -7.015  17.766  0.00  0.00     0.041 A 
ATOM     26  N   UNK d   0      -9.037  -7.082  18.831  0.00  0.00    -0.355 N 
ATOM     27  C   UNK d   0     -10.002  -5.670  17.365  0.00  0.00    -0.022 A 
ATOM     28  C   UNK d   0      -8.669  -5.823  19.121  0.00  0.00     0.042 A 
ATOM     29  H   UNK d   0      -8.748  -8.006  19.389  0.00  0.00     0.166 HD
ATOM     30  C   UNK d   0      -7.833  -5.315  20.127  0.00  0.00     0.062 C 
ATOM     31  C   UNK d   0      -9.261  -4.910  18.217  0.00  0.00    -0.013 A 
ATOM     32  C   UNK d   0      -6.641  -5.844  20.596  0.00  0.00     0.066 A 
BRANCH   8  33
ATOM     33  C   UNK d   0      -3.481  -6.315  22.415  0.00  0.00     0.151 C 
BRANCH  33  34
ATOM     34  C   UNK d   0      -2.462  -5.372  21.920  0.00  0.00     0.143 C 
ATOM     35  O   UNK d   0      -2.288  -4.276  22.471  0.00  0.00    -0.650 OA
BRANCH  34  36
ATOM     36  O   UNK d   0      -1.696  -5.716  20.829  0.00  0.00    -0.776 OA
ATOM     37  H   UNK d   0      -0.669  -5.728  20.881  0.00  0.00     0.167 HD
ENDBRANCH  34  36
ENDBRANCH  33  34
ENDBRANCH   8  33
BRANCH  31  38
ATOM     38  C   UNK d   0      -9.112  -3.407  18.169  0.00  0.00     0.151 C 
BRANCH  38  39
ATOM     39  C   UNK d   0     -10.246  -2.711  18.739  0.00  0.00     0.143 C 
ATOM     40  O   UNK d   0     -10.484  -1.515  18.497  0.00  0.00    -0.650 OA
BRANCH  39  41
ATOM     41  O   UNK d   0     -11.113  -3.395  19.591  0.00  0.00    -0.776 OA
ATOM     42  H   UNK d   0     -11.549  -2.850  20.341  0.00  0.00     0.167 HD
ENDBRANCH  39  41
ENDBRANCH  38  39
ENDBRANCH  31  38
BRANCH  27  43
ATOM     43  C   UNK d   0     -10.814  -5.097  16.231  0.00  0.00     0.052 C 
BRANCH  43  44
ATOM     44  C   UNK d   0     -12.202  -5.646  16.161  0.00  0.00     0.115 C 
BRANCH  44  45
ATOM     45  C   UNK d   0     -13.123  -4.483  16.238  0.00  0.00     0.139 C 
ATOM     46  O   UNK d   0     -13.120  -3.794  17.289  0.00  0.00    -0.650 OA
BRANCH  45  47
ATOM     47  O   UNK d   0     -13.969  -4.129  15.209  0.00  0.00    -0.776 OA
ATOM     48  H   UNK d   0     -13.720  -4.248  14.213  0.00  0.00     0.167 HD
ENDBRANCH  45  47
ENDBRANCH  44  45
ENDBRANCH  43  44
ENDBRANCH  27  43
BRANCH  24  49
ATOM     49  C   UNK d   0     -11.674 -10.442  15.069  0.00  0.00     0.052 C 
BRANCH  49  50
ATOM     50  C   UNK d   0     -12.572 -11.509  15.639  0.00  0.00     0.115 C 
BRANCH  50  51
ATOM     51  C   UNK d   0     -13.585 -12.069  14.753  0.00  0.00     0.139 C 
ATOM     52  O   UNK d   0     -13.516 -11.977  13.505  0.00  0.00    -0.650 OA
BRANCH  51  53
ATOM     53  O   UNK d   0     -14.677 -12.730  15.292  0.00  0.00    -0.776 OA
ATOM     54  H   UNK d   0     -14.640 -13.732  15.359  0.00  0.00     0.167 HD
ENDBRANCH  51  53
ENDBRANCH  50  51
ENDBRANCH  49  50
ENDBRANCH  24  49
BRANCH  21  55
ATOM     55  C   UNK d   0      -9.444 -12.579  15.112  0.00  0.00     0.151 C 
BRANCH  55  56
ATOM     56  C   UNK d   0      -8.573 -12.540  13.928  0.00  0.00     0.143 C 
ATOM     57  O   UNK d   0      -7.373 -12.879  13.961  0.00  0.00    -0.650 OA
BRANCH  56  58
ATOM     58  O   UNK d   0      -9.129 -12.103  12.727  0.00  0.00    -0.776 OA
ATOM     59  H   UNK d   0      -8.851 -12.651  11.892  0.00  0.00     0.167 HD
ENDBRANCH  56  58
ENDBRANCH  55  56
ENDBRANCH  21  55
BRANCH  18  60
ATOM     60  C   UNK d   0      -5.854 -13.176  19.057  0.00  0.00     0.151 C 
BRANCH  60  61
ATOM     61  C   UNK d   0      -7.082 -13.441  19.821  0.00  0.00     0.143 C 
ATOM     62  O   UNK d   0      -8.145 -12.823  19.755  0.00  0.00    -0.650 OA
BRANCH  61  63
ATOM     63  O   UNK d   0      -7.008 -14.531  20.721  0.00  0.00    -0.776 OA
ATOM     64  H   UNK d   0      -6.806 -14.387  21.694  0.00  0.00     0.167 HD
ENDBRANCH  61  63
ENDBRANCH  60  61
ENDBRANCH  18  60
BRANCH  14  65
ATOM     65  C   UNK d   0      -4.078 -11.525  20.882  0.00  0.00     0.052 C 
BRANCH  65  66
ATOM     66  C   UNK d   0      -4.581 -11.317  22.266  0.00  0.00     0.115 C 
BRANCH  66  67
ATOM     67  C   UNK d   0      -5.839 -11.887  22.660  0.00  0.00     0.139 C 
ATOM     68  O   UNK d   0      -6.913 -11.218  22.433  0.00  0.00    -0.650 OA
BRANCH  67  69
ATOM     69  O   UNK d   0      -6.062 -13.116  23.279  0.00  0.00    -0.776 OA
ATOM     70  H   UNK d   0      -6.301 -13.897  22.652  0.00  0.00     0.167 HD
ENDBRANCH  67  69
ENDBRANCH  66  67
ENDBRANCH  65  66
ENDBRANCH  14  65
ENDBRANCH   6   7
ENDBRANCH   5   6
ENDBRANCH   2   5
TORSDOF 28
ENDMDL
MODEL 13
REMARK VINA RESULT:      -8.7      2.555      4.997
REMARK  28 active torsions:
REMARK  status: ('A' for Active; 'I' for Inactive)
REMARK    1  A    between atoms: C_2  and  O_3 
REMARK    2  A    between atoms: C_2  and  C_4 
REMARK    3  A    between atoms: C_4  and  C_5 
REMARK    4  A    between atoms: C_5  and  C_6 
REMARK    5  A    between atoms: C_7  and  C_8 
REMARK    6  A    between atoms: C_8  and  C_9 
REMARK    7  A    between atoms: C_9  and  O_11 
REMARK    8  A    between atoms: C_28  and  C_29 
REMARK    9  A    between atoms: C_29  and  C_30 
REMARK   10  A    between atoms: C_30  and  O_32 
REMARK   11  A    between atoms: C_33  and  C_34 
REMARK   12  A    between atoms: C_34  and  C_35 
REMARK   13  A    between atoms: C_35  and  C_36 
REMARK   14  A    between atoms: C_36  and  O_38 
REMARK   15  A    between atoms: C_39  and  C_40 
REMARK   16  A    between atoms: C_40  and  C_41 
REMARK   17  A    between atoms: C_41  and  C_42 
REMARK   18  A    between atoms: C_42  and  O_44 
REMARK   19  A    between atoms: C_45  and  C_46 
REMARK   20  A    between atoms: C_46  and  C_47 
REMARK   21  A    between atoms: C_47  and  O_49 
REMARK   22  A    between atoms: C_50  and  C_51 
REMARK   23  A    between atoms: C_51  and  C_52 
REMARK   24  A    between atoms: C_52  and  O_54 
REMARK   25  A    between atoms: C_55  and  C_56 
REMARK   26  A    between atoms: C_56  and  C_57 
REMARK   27  A    between atoms: C_57  and  C_58 
REMARK   28  A    between atoms: C_58  and  O_60 
ROOT
ATOM      1  O   UNK d   0     -11.122 -10.814  16.285  0.00  0.00    -0.650 OA
ATOM      2  C   UNK d   0     -10.188 -10.211  15.712  0.00  0.00     0.139 C 
ENDROOT
BRANCH   2   3
ATOM      3  O   UNK d   0      -9.266 -10.930  14.990  0.00  0.00    -0.776 OA
ATOM      4  H   UNK d   0      -8.564 -11.508  15.457  0.00  0.00     0.167 HD
ENDBRANCH   2   3
BRANCH   2   5
ATOM      5  C   UNK d   0     -10.079  -8.729  15.815  0.00  0.00     0.115 C 
BRANCH   5   6
ATOM      6  C   UNK d   0     -10.474  -8.275  17.194  0.00  0.00     0.052 C 
BRANCH   6   7
ATOM      7  C   UNK d   0      -9.328  -7.646  17.950  0.00  0.00    -0.020 A 
ATOM      8  C   UNK d   0      -9.118  -6.373  18.168  0.00  0.00    -0.011 A 
ATOM      9  C   UNK d   0      -7.887  -6.249  18.931  0.00  0.00     0.067 A 
ATOM     10  C   UNK d   0      -7.142  -5.197  19.486  0.00  0.00     0.062 C 
ATOM     11  N   UNK d   0      -7.410  -7.496  19.128  0.00  0.00    -0.248 NA
ATOM     12  C   UNK d   0      -6.117  -5.293  20.434  0.00  0.00     0.041 A 
ATOM     13  N   UNK d   0      -5.088  -6.154  20.542  0.00  0.00    -0.355 N 
ATOM     14  C   UNK d   0      -6.118  -4.409  21.528  0.00  0.00    -0.022 A 
ATOM     15  C   UNK d   0      -4.439  -5.843  21.681  0.00  0.00     0.042 A 
ATOM     16  H   UNK d   0      -4.813  -6.953  19.819  0.00  0.00     0.166 HD
ATOM     17  C   UNK d   0      -3.297  -6.423  22.269  0.00  0.00     0.062 C 
ATOM     18  C   UNK d   0      -5.056  -4.754  22.327  0.00  0.00    -0.013 A 
ATOM     19  C   UNK d   0      -2.992  -7.750  22.436  0.00  0.00     0.067 A 
ATOM     20  N   UNK d   0      -3.763  -8.633  21.795  0.00  0.00    -0.248 NA
ATOM     21  C   UNK d   0      -2.001  -8.508  23.181  0.00  0.00    -0.011 A 
ATOM     22  C   UNK d   0      -3.349  -9.913  22.069  0.00  0.00     0.066 A 
ATOM     23  C   UNK d   0      -4.042 -10.934  21.434  0.00  0.00     0.062 C 
ATOM     24  C   UNK d   0      -2.218  -9.774  22.965  0.00  0.00    -0.020 A 
ATOM     25  C   UNK d   0      -5.059 -10.816  20.475  0.00  0.00     0.041 A 
ATOM     26  N   UNK d   0      -6.091  -9.970  20.375  0.00  0.00    -0.355 N 
ATOM     27  C   UNK d   0      -5.055 -11.701  19.375  0.00  0.00    -0.022 A 
ATOM     28  C   UNK d   0      -6.745 -10.283  19.245  0.00  0.00     0.042 A 
ATOM     29  H   UNK d   0      -6.372  -9.175  21.109  0.00  0.00     0.166 HD
ATOM     30  C   UNK d   0      -7.887  -9.721  18.653  0.00  0.00     0.062 C 
ATOM     31  C   UNK d   0      -6.118 -11.371  18.592  0.00  0.00    -0.013 A 
ATOM     32  C   UNK d   0      -8.232  -8.382  18.562  0.00  0.00     0.066 A 
BRANCH   8  33
ATOM     33  C   UNK d   0      -9.963  -5.249  17.724  0.00  0.00     0.151 C 
BRANCH  33  34
ATOM     34  C   UNK d   0      -9.370  -4.497  16.603  0.00  0.00     0.143 C 
ATOM     35  O   UNK d   0      -8.272  -4.822  16.129  0.00  0.00    -0.650 OA
BRANCH  34  36
ATOM     36  O   UNK d   0     -10.046  -3.420  16.079  0.00  0.00    -0.776 OA
ATOM     37  H   UNK d   0      -9.712  -2.939  15.233  0.00  0.00     0.167 HD
ENDBRANCH  34  36
ENDBRANCH  33  34
ENDBRANCH   8  33
BRANCH  31  38
ATOM     38  C   UNK d   0      -6.510 -12.037  17.293  0.00  0.00     0.151 C 
BRANCH  38  39
ATOM     39  C   UNK d   0      -5.955 -11.374  16.132  0.00  0.00     0.143 C 
ATOM     40  O   UNK d   0      -6.344 -11.619  14.977  0.00  0.00    -0.650 OA
BRANCH  39  41
ATOM     41  O   UNK d   0      -4.949 -10.423  16.300  0.00  0.00    -0.776 OA
ATOM     42  H   UNK d   0      -4.799 -10.073  17.252  0.00  0.00     0.167 HD
ENDBRANCH  39  41
ENDBRANCH  38  39
ENDBRANCH  31  38
BRANCH  27  43
ATOM     43  C   UNK d   0      -4.102 -12.824  19.052  0.00  0.00     0.052 C 
BRANCH  43  44
ATOM     44  C   UNK d   0      -2.763 -12.348  18.590  0.00  0.00     0.115 C 
BRANCH  44  45
ATOM     45  C   UNK d   0      -1.772 -13.354  19.054  0.00  0.00     0.139 C 
ATOM     46  O   UNK d   0      -1.468 -13.367  20.272  0.00  0.00    -0.650 OA
BRANCH  45  47
ATOM     47  O   UNK d   0      -1.183 -14.268  18.207  0.00  0.00    -0.776 OA
ATOM     48  H   UNK d   0      -1.575 -15.208  18.037  0.00  0.00     0.167 HD
ENDBRANCH  45  47
ENDBRANCH  44  45
ENDBRANCH  43  44
ENDBRANCH  27  43
BRANCH  24  49
ATOM     49  C   UNK d   0      -1.422 -10.894  23.496  0.00  0.00     0.052 C 
BRANCH  49  50
ATOM     50  C   UNK d   0      -2.042 -11.423  24.764  0.00  0.00     0.115 C 
BRANCH  50  51
ATOM     51  C   UNK d   0      -1.296 -11.227  26.000  0.00  0.00     0.139 C 
ATOM     52  O   UNK d   0      -0.066 -11.451  26.090  0.00  0.00    -0.650 OA
BRANCH  51  53
ATOM     53  O   UNK d   0      -1.954 -10.779  27.135  0.00  0.00    -0.776 OA
ATOM     54  H   UNK d   0      -1.477 -10.842  28.017  0.00  0.00     0.167 HD
ENDBRANCH  51  53
ENDBRANCH  50  51
ENDBRANCH  49  50
ENDBRANCH  24  49
BRANCH  21  55
ATOM     55  C   UNK d   0      -0.939  -7.889  24.027  0.00  0.00     0.151 C 
BRANCH  55  56
ATOM     56  C   UNK d   0       0.177  -7.371  23.221  0.00  0.00     0.143 C 
ATOM     57  O   UNK d   0       0.301  -6.164  22.937  0.00  0.00    -0.650 OA
BRANCH  56  58
ATOM     58  O   UNK d   0       1.126  -8.284  22.764  0.00  0.00    -0.776 OA
ATOM     59  H   UNK d   0       0.758  -9.232  22.564  0.00  0.00     0.167 HD
ENDBRANCH  56  58
ENDBRANCH  55  56
ENDBRANCH  21  55
BRANCH  18  60
ATOM     60  C   UNK d   0      -4.687  -4.068  23.618  0.00  0.00     0.151 C 
BRANCH  60  61
ATOM     61  C   UNK d   0      -3.417  -3.373  23.357  0.00  0.00     0.143 C 
ATOM     62  O   UNK d   0      -2.322  -3.611  23.869  0.00  0.00    -0.650 OA
BRANCH  61  63
ATOM     63  O   UNK d   0      -3.488  -2.322  22.411  0.00  0.00    -0.776 OA
ATOM     64  H   UNK d   0      -3.355  -1.366  22.688  0.00  0.00     0.167 HD
ENDBRANCH  61  63
ENDBRANCH  60  61
ENDBRANCH  18  60
BRANCH  14  65
ATOM     65  C   UNK d   0      -6.977  -3.212  21.821  0.00  0.00     0.052 C 
BRANCH  65  66
ATOM     66  C   UNK d   0      -6.515  -1.980  21.128  0.00  0.00     0.115 C 
BRANCH  66  67
ATOM     67  C   UNK d   0      -6.475  -0.734  21.841  0.00  0.00     0.139 C 
ATOM     68  O   UNK d   0      -6.617  -0.754  23.119  0.00  0.00    -0.650 OA
BRANCH  67  69
ATOM     69  O   UNK d   0      -6.297   0.545  21.316  0.00  0.00    -0.776 OA
ATOM     70  H   UNK d   0      -5.436   0.688  20.768  0.00  0.00     0.167 HD
ENDBRANCH  67  69
ENDBRANCH  66  67
ENDBRANCH  65  66
ENDBRANCH  14  65
ENDBRANCH   6   7
ENDBRANCH   5   6
ENDBRANCH   2   5
TORSDOF 28
ENDMDL
MODEL 14
REMARK VINA RESULT:      -8.7      1.998      8.206
REMARK  28 active torsions:
REMARK  status: ('A' for Active; 'I' for Inactive)
REMARK    1  A    between atoms: C_2  and  O_3 
REMARK    2  A    between atoms: C_2  and  C_4 
REMARK    3  A    between atoms: C_4  and  C_5 
REMARK    4  A    between atoms: C_5  and  C_6 
REMARK    5  A    between atoms: C_7  and  C_8 
REMARK    6  A    between atoms: C_8  and  C_9 
REMARK    7  A    between atoms: C_9  and  O_11 
REMARK    8  A    between atoms: C_28  and  C_29 
REMARK    9  A    between atoms: C_29  and  C_30 
REMARK   10  A    between atoms: C_30  and  O_32 
REMARK   11  A    between atoms: C_33  and  C_34 
REMARK   12  A    between atoms: C_34  and  C_35 
REMARK   13  A    between atoms: C_35  and  C_36 
REMARK   14  A    between atoms: C_36  and  O_38 
REMARK   15  A    between atoms: C_39  and  C_40 
REMARK   16  A    between atoms: C_40  and  C_41 
REMARK   17  A    between atoms: C_41  and  C_42 
REMARK   18  A    between atoms: C_42  and  O_44 
REMARK   19  A    between atoms: C_45  and  C_46 
REMARK   20  A    between atoms: C_46  and  C_47 
REMARK   21  A    between atoms: C_47  and  O_49 
REMARK   22  A    between atoms: C_50  and  C_51 
REMARK   23  A    between atoms: C_51  and  C_52 
REMARK   24  A    between atoms: C_52  and  O_54 
REMARK   25  A    between atoms: C_55  and  C_56 
REMARK   26  A    between atoms: C_56  and  C_57 
REMARK   27  A    between atoms: C_57  and  C_58 
REMARK   28  A    between atoms: C_58  and  O_60 
ROOT
ATOM      1  O   UNK d   0       0.863  -7.796  24.525  0.00  0.00    -0.650 OA
ATOM      2  C   UNK d   0       0.640  -7.856  23.296  0.00  0.00     0.139 C 
ENDROOT
BRANCH   2   3
ATOM      3  O   UNK d   0       1.330  -8.764  22.530  0.00  0.00    -0.776 OA
ATOM      4  H   UNK d   0       2.198  -9.187  22.867  0.00  0.00     0.167 HD
ENDBRANCH   2   3
BRANCH   2   5
ATOM      5  C   UNK d   0      -0.366  -6.950  22.672  0.00  0.00     0.115 C 
BRANCH   5   6
ATOM      6  C   UNK d   0      -1.530  -6.749  23.604  0.00  0.00     0.052 C 
BRANCH   6   7
ATOM      7  C   UNK d   0      -2.823  -6.487  22.869  0.00  0.00    -0.020 A 
ATOM      8  C   UNK d   0      -3.529  -5.385  22.865  0.00  0.00    -0.011 A 
ATOM      9  C   UNK d   0      -4.695  -5.607  22.025  0.00  0.00     0.067 A 
ATOM     10  C   UNK d   0      -5.796  -4.847  21.601  0.00  0.00     0.062 C 
ATOM     11  N   UNK d   0      -4.620  -6.872  21.563  0.00  0.00    -0.248 NA
ATOM     12  C   UNK d   0      -6.681  -5.146  20.559  0.00  0.00     0.041 A 
ATOM     13  N   UNK d   0      -7.270  -6.303  20.201  0.00  0.00    -0.355 N 
ATOM     14  C   UNK d   0      -7.026  -4.132  19.647  0.00  0.00    -0.022 A 
ATOM     15  C   UNK d   0      -7.974  -6.050  19.081  0.00  0.00     0.042 A 
ATOM     16  H   UNK d   0      -7.205  -7.274  20.739  0.00  0.00     0.166 HD
ATOM     17  C   UNK d   0      -8.773  -6.902  18.293  0.00  0.00     0.062 C 
ATOM     18  C   UNK d   0      -7.845  -4.699  18.703  0.00  0.00    -0.013 A 
ATOM     19  C   UNK d   0      -8.510  -8.177  17.862  0.00  0.00     0.067 A 
ATOM     20  N   UNK d   0      -7.456  -8.793  18.402  0.00  0.00    -0.248 NA
ATOM     21  C   UNK d   0      -9.097  -9.097  16.902  0.00  0.00    -0.011 A 
ATOM     22  C   UNK d   0      -7.310 -10.048  17.865  0.00  0.00     0.066 A 
ATOM     23  C   UNK d   0      -6.270 -10.816  18.367  0.00  0.00     0.062 C 
ATOM     24  C   UNK d   0      -8.388 -10.189  16.906  0.00  0.00    -0.020 A 
ATOM     25  C   UNK d   0      -5.400 -10.503  19.423  0.00  0.00     0.041 A 
ATOM     26  N   UNK d   0      -4.803  -9.357  19.771  0.00  0.00    -0.355 N 
ATOM     27  C   UNK d   0      -5.058 -11.520  20.340  0.00  0.00    -0.022 A 
ATOM     28  C   UNK d   0      -4.093  -9.608  20.883  0.00  0.00     0.042 A 
ATOM     29  H   UNK d   0      -4.860  -8.384  19.223  0.00  0.00     0.166 HD
ATOM     30  C   UNK d   0      -3.286  -8.773  21.671  0.00  0.00     0.062 C 
ATOM     31  C   UNK d   0      -4.232 -10.963  21.267  0.00  0.00    -0.013 A 
ATOM     32  C   UNK d   0      -3.517  -7.455  22.034  0.00  0.00     0.066 A 
BRANCH   8  33
ATOM     33  C   UNK d   0      -3.221  -4.134  23.582  0.00  0.00     0.151 C 
BRANCH  33  34
ATOM     34  C   UNK d   0      -2.716  -3.075  22.690  0.00  0.00     0.143 C 
ATOM     35  O   UNK d   0      -1.597  -3.165  22.165  0.00  0.00    -0.650 OA
BRANCH  34  36
ATOM     36  O   UNK d   0      -3.500  -1.972  22.439  0.00  0.00    -0.776 OA
ATOM     37  H   UNK d   0      -4.048  -1.525  23.186  0.00  0.00     0.167 HD
ENDBRANCH  34  36
ENDBRANCH  33  34
ENDBRANCH   8  33
BRANCH  31  38
ATOM     38  C   UNK d   0      -3.620 -11.668  22.455  0.00  0.00     0.151 C 
BRANCH  38  39
ATOM     39  C   UNK d   0      -2.260 -12.100  22.212  0.00  0.00     0.143 C 
ATOM     40  O   UNK d   0      -1.979 -12.973  21.372  0.00  0.00    -0.650 OA
BRANCH  39  41
ATOM     41  O   UNK d   0      -1.218 -11.526  22.939  0.00  0.00    -0.776 OA
ATOM     42  H   UNK d   0      -0.744 -12.128  23.620  0.00  0.00     0.167 HD
ENDBRANCH  39  41
ENDBRANCH  38  39
ENDBRANCH  31  38
BRANCH  27  43
ATOM     43  C   UNK d   0      -5.477 -12.969  20.365  0.00  0.00     0.052 C 
BRANCH  43  44
ATOM     44  C   UNK d   0      -6.588 -13.247  21.324  0.00  0.00     0.115 C 
BRANCH  44  45
ATOM     45  C   UNK d   0      -7.845 -13.241  20.531  0.00  0.00     0.139 C 
ATOM     46  O   UNK d   0      -7.835 -13.791  19.402  0.00  0.00    -0.650 OA
BRANCH  45  47
ATOM     47  O   UNK d   0      -9.012 -12.665  20.984  0.00  0.00    -0.776 OA
ATOM     48  H   UNK d   0      -9.073 -11.674  21.269  0.00  0.00     0.167 HD
ENDBRANCH  45  47
ENDBRANCH  44  45
ENDBRANCH  43  44
ENDBRANCH  27  43
BRANCH  24  49
ATOM     49  C   UNK d   0      -8.652 -11.399  16.109  0.00  0.00     0.052 C 
BRANCH  49  50
ATOM     50  C   UNK d   0      -8.070 -11.255  14.727  0.00  0.00     0.115 C 
BRANCH  50  51
ATOM     51  C   UNK d   0      -8.500 -12.216  13.720  0.00  0.00     0.139 C 
ATOM     52  O   UNK d   0      -9.378 -11.953  12.865  0.00  0.00    -0.650 OA
BRANCH  51  53
ATOM     53  O   UNK d   0      -7.931 -13.480  13.691  0.00  0.00    -0.776 OA
ATOM     54  H   UNK d   0      -8.261 -14.165  14.348  0.00  0.00     0.167 HD
ENDBRANCH  51  53
ENDBRANCH  50  51
ENDBRANCH  49  50
ENDBRANCH  24  49
BRANCH  21  55
ATOM     55  C   UNK d   0     -10.309  -8.791  16.085  0.00  0.00     0.151 C 
BRANCH  55  56
ATOM     56  C   UNK d   0     -11.536  -8.798  16.895  0.00  0.00     0.143 C 
ATOM     57  O   UNK d   0     -12.356  -7.858  16.887  0.00  0.00    -0.650 OA
BRANCH  56  58
ATOM     58  O   UNK d   0     -11.777  -9.911  17.700  0.00  0.00    -0.776 OA
ATOM     59  H   UNK d   0     -11.416  -9.836  18.668  0.00  0.00     0.167 HD
ENDBRANCH  56  58
ENDBRANCH  55  56
ENDBRANCH  21  55
BRANCH  18  60
ATOM     60  C   UNK d   0      -8.445  -3.969  17.527  0.00  0.00     0.151 C 
BRANCH  60  61
ATOM     61  C   UNK d   0      -9.769  -3.508  17.971  0.00  0.00     0.143 C 
ATOM     62  O   UNK d   0     -10.031  -2.459  18.560  0.00  0.00    -0.650 OA
BRANCH  61  63
ATOM     63  O   UNK d   0     -10.841  -4.384  17.678  0.00  0.00    -0.776 OA
ATOM     64  H   UNK d   0     -11.015  -4.694  16.738  0.00  0.00     0.167 HD
ENDBRANCH  61  63
ENDBRANCH  60  61
ENDBRANCH  18  60
BRANCH  14  65
ATOM     65  C   UNK d   0      -6.723  -2.660  19.657  0.00  0.00     0.052 C 
BRANCH  65  66
ATOM     66  C   UNK d   0      -7.440  -1.926  20.734  0.00  0.00     0.115 C 
BRANCH  66  67
ATOM     67  C   UNK d   0      -6.706  -1.063  21.617  0.00  0.00     0.139 C 
ATOM     68  O   UNK d   0      -6.396  -1.501  22.786  0.00  0.00    -0.650 OA
BRANCH  67  69
ATOM     69  O   UNK d   0      -6.266   0.237  21.369  0.00  0.00    -0.776 OA
ATOM     70  H   UNK d   0      -6.845   0.789  20.721  0.00  0.00     0.167 HD
ENDBRANCH  67  69
ENDBRANCH  66  67
ENDBRANCH  65  66
ENDBRANCH  14  65
ENDBRANCH   6   7
ENDBRANCH   5   6
ENDBRANCH   2   5
TORSDOF 28
ENDMDL
MODEL 15
REMARK VINA RESULT:      -8.6      1.511      7.775
REMARK  28 active torsions:
REMARK  status: ('A' for Active; 'I' for Inactive)
REMARK    1  A    between atoms: C_2  and  O_3 
REMARK    2  A    between atoms: C_2  and  C_4 
REMARK    3  A    between atoms: C_4  and  C_5 
REMARK    4  A    between atoms: C_5  and  C_6 
REMARK    5  A    between atoms: C_7  and  C_8 
REMARK    6  A    between atoms: C_8  and  C_9 
REMARK    7  A    between atoms: C_9  and  O_11 
REMARK    8  A    between atoms: C_28  and  C_29 
REMARK    9  A    between atoms: C_29  and  C_30 
REMARK   10  A    between atoms: C_30  and  O_32 
REMARK   11  A    between atoms: C_33  and  C_34 
REMARK   12  A    between atoms: C_34  and  C_35 
REMARK   13  A    between atoms: C_35  and  C_36 
REMARK   14  A    between atoms: C_36  and  O_38 
REMARK   15  A    between atoms: C_39  and  C_40 
REMARK   16  A    between atoms: C_40  and  C_41 
REMARK   17  A    between atoms: C_41  and  C_42 
REMARK   18  A    between atoms: C_42  and  O_44 
REMARK   19  A    between atoms: C_45  and  C_46 
REMARK   20  A    between atoms: C_46  and  C_47 
REMARK   21  A    between atoms: C_47  and  O_49 
REMARK   22  A    between atoms: C_50  and  C_51 
REMARK   23  A    between atoms: C_51  and  C_52 
REMARK   24  A    between atoms: C_52  and  O_54 
REMARK   25  A    between atoms: C_55  and  C_56 
REMARK   26  A    between atoms: C_56  and  C_57 
REMARK   27  A    between atoms: C_57  and  C_58 
REMARK   28  A    between atoms: C_58  and  O_60 
ROOT
ATOM      1  O   UNK d   0      -1.595  -6.942  24.384  0.00  0.00    -0.650 OA
ATOM      2  C   UNK d   0      -1.878  -6.200  23.417  0.00  0.00     0.139 C 
ENDROOT
BRANCH   2   3
ATOM      3  O   UNK d   0      -1.102  -5.094  23.167  0.00  0.00    -0.776 OA
ATOM      4  H   UNK d   0      -0.415  -4.767  23.849  0.00  0.00     0.167 HD
ENDBRANCH   2   3
BRANCH   2   5
ATOM      5  C   UNK d   0      -3.047  -6.517  22.548  0.00  0.00     0.115 C 
BRANCH   5   6
ATOM      6  C   UNK d   0      -3.661  -5.247  22.024  0.00  0.00     0.052 C 
BRANCH   6   7
ATOM      7  C   UNK d   0      -4.996  -5.479  21.358  0.00  0.00    -0.020 A 
ATOM      8  C   UNK d   0      -6.099  -4.794  21.521  0.00  0.00    -0.011 A 
ATOM      9  C   UNK d   0      -7.123  -5.393  20.681  0.00  0.00     0.067 A 
ATOM     10  C   UNK d   0      -8.471  -5.134  20.388  0.00  0.00     0.062 C 
ATOM     11  N   UNK d   0      -6.558  -6.441  20.046  0.00  0.00    -0.248 NA
ATOM     12  C   UNK d   0      -9.224  -5.658  19.332  0.00  0.00     0.041 A 
ATOM     13  N   UNK d   0      -9.296  -6.905  18.828  0.00  0.00    -0.355 N 
ATOM     14  C   UNK d   0     -10.034  -4.790  18.576  0.00  0.00    -0.022 A 
ATOM     15  C   UNK d   0     -10.125  -6.849  17.768  0.00  0.00     0.042 A 
ATOM     16  H   UNK d   0      -8.788  -7.811  19.225  0.00  0.00     0.166 HD
ATOM     17  C   UNK d   0     -10.549  -7.862  16.885  0.00  0.00     0.062 C 
ATOM     18  C   UNK d   0     -10.607  -5.539  17.579  0.00  0.00    -0.013 A 
ATOM     19  C   UNK d   0      -9.807  -8.842  16.276  0.00  0.00     0.067 A 
ATOM     20  N   UNK d   0      -8.553  -9.005  16.706  0.00  0.00    -0.248 NA
ATOM     21  C   UNK d   0     -10.023  -9.805  15.210  0.00  0.00    -0.011 A 
ATOM     22  C   UNK d   0      -7.933 -10.005  15.997  0.00  0.00     0.066 A 
ATOM     23  C   UNK d   0      -6.631 -10.307  16.367  0.00  0.00     0.062 C 
ATOM     24  C   UNK d   0      -8.921 -10.480  15.048  0.00  0.00    -0.020 A 
ATOM     25  C   UNK d   0      -5.896  -9.778  17.440  0.00  0.00     0.041 A 
ATOM     26  N   UNK d   0      -5.813  -8.536  17.931  0.00  0.00    -0.355 N 
ATOM     27  C   UNK d   0      -5.088 -10.651  18.200  0.00  0.00    -0.022 A 
ATOM     28  C   UNK d   0      -4.981  -8.587  18.983  0.00  0.00     0.042 A 
ATOM     29  H   UNK d   0      -6.317  -7.625  17.524  0.00  0.00     0.166 HD
ATOM     30  C   UNK d   0      -4.543  -7.586  19.864  0.00  0.00     0.062 C 
ATOM     31  C   UNK d   0      -4.505  -9.906  19.179  0.00  0.00    -0.013 A 
ATOM     32  C   UNK d   0      -5.279  -6.547  20.410  0.00  0.00     0.066 A 
BRANCH   8  33
ATOM     33  C   UNK d   0      -6.293  -3.625  22.398  0.00  0.00     0.151 C 
BRANCH  33  34
ATOM     34  C   UNK d   0      -6.002  -2.349  21.720  0.00  0.00     0.143 C 
ATOM     35  O   UNK d   0      -6.910  -1.679  21.207  0.00  0.00    -0.650 OA
BRANCH  34  36
ATOM     36  O   UNK d   0      -4.704  -1.898  21.657  0.00  0.00    -0.776 OA
ATOM     37  H   UNK d   0      -4.387  -1.099  22.223  0.00  0.00     0.167 HD
ENDBRANCH  34  36
ENDBRANCH  33  34
ENDBRANCH   8  33
BRANCH  31  38
ATOM     38  C   UNK d   0      -3.564 -10.415  20.245  0.00  0.00     0.151 C 
BRANCH  38  39
ATOM     39  C   UNK d   0      -4.254 -10.864  21.436  0.00  0.00     0.143 C 
ATOM     40  O   UNK d   0      -5.365 -10.415  21.770  0.00  0.00    -0.650 OA
BRANCH  39  41
ATOM     41  O   UNK d   0      -3.665 -11.835  22.246  0.00  0.00    -0.776 OA
ATOM     42  H   UNK d   0      -3.232 -11.509  23.116  0.00  0.00     0.167 HD
ENDBRANCH  39  41
ENDBRANCH  38  39
ENDBRANCH  31  38
BRANCH  27  43
ATOM     43  C   UNK d   0      -4.853 -12.131  18.031  0.00  0.00     0.052 C 
BRANCH  43  44
ATOM     44  C   UNK d   0      -5.393 -12.947  19.160  0.00  0.00     0.115 C 
BRANCH  44  45
ATOM     45  C   UNK d   0      -6.847 -12.650  19.242  0.00  0.00     0.139 C 
ATOM     46  O   UNK d   0      -7.569 -12.959  18.262  0.00  0.00    -0.650 OA
BRANCH  45  47
ATOM     47  O   UNK d   0      -7.428 -12.060  20.343  0.00  0.00    -0.776 OA
ATOM     48  H   UNK d   0      -7.859 -11.122  20.314  0.00  0.00     0.167 HD
ENDBRANCH  45  47
ENDBRANCH  44  45
ENDBRANCH  43  44
ENDBRANCH  27  43
BRANCH  24  49
ATOM     49  C   UNK d   0      -8.711 -11.585  14.097  0.00  0.00     0.052 C 
BRANCH  49  50
ATOM     50  C   UNK d   0      -9.031 -12.906  14.748  0.00  0.00     0.115 C 
BRANCH  50  51
ATOM     51  C   UNK d   0      -7.933 -13.849  14.912  0.00  0.00     0.139 C 
ATOM     52  O   UNK d   0      -8.117 -15.061  15.176  0.00  0.00    -0.650 OA
BRANCH  51  53
ATOM     53  O   UNK d   0      -6.625 -13.411  14.777  0.00  0.00    -0.776 OA
ATOM     54  H   UNK d   0      -6.087 -13.753  14.001  0.00  0.00     0.167 HD
ENDBRANCH  51  53
ENDBRANCH  50  51
ENDBRANCH  49  50
ENDBRANCH  24  49
BRANCH  21  55
ATOM     55  C   UNK d   0     -11.309  -9.954  14.467  0.00  0.00     0.151 C 
BRANCH  55  56
ATOM     56  C   UNK d   0     -12.169 -10.993  15.055  0.00  0.00     0.143 C 
ATOM     57  O   UNK d   0     -12.862 -11.765  14.365  0.00  0.00    -0.650 OA
BRANCH  56  58
ATOM     58  O   UNK d   0     -12.196 -11.103  16.444  0.00  0.00    -0.776 OA
ATOM     59  H   UNK d   0     -13.075 -11.488  16.834  0.00  0.00     0.167 HD
ENDBRANCH  56  58
ENDBRANCH  55  56
ENDBRANCH  21  55
BRANCH  18  60
ATOM     60  C   UNK d   0     -11.547  -5.004  16.527  0.00  0.00     0.151 C 
BRANCH  60  61
ATOM     61  C   UNK d   0     -12.883  -5.006  17.142  0.00  0.00     0.143 C 
ATOM     62  O   UNK d   0     -13.423  -5.937  17.740  0.00  0.00    -0.650 OA
BRANCH  61  63
ATOM     63  O   UNK d   0     -13.606  -3.796  17.017  0.00  0.00    -0.776 OA
ATOM     64  H   UNK d   0     -13.340  -3.100  16.343  0.00  0.00     0.167 HD
ENDBRANCH  61  63
ENDBRANCH  60  61
ENDBRANCH  18  60
BRANCH  14  65
ATOM     65  C   UNK d   0     -10.380  -3.343  18.784  0.00  0.00     0.052 C 
BRANCH  65  66
ATOM     66  C   UNK d   0      -9.308  -2.418  18.329  0.00  0.00     0.115 C 
BRANCH  66  67
ATOM     67  C   UNK d   0      -9.655  -1.112  17.843  0.00  0.00     0.139 C 
ATOM     68  O   UNK d   0      -9.307  -0.790  16.647  0.00  0.00    -0.650 OA
BRANCH  67  69
ATOM     69  O   UNK d   0     -10.344  -0.105  18.518  0.00  0.00    -0.776 OA
ATOM     70  H   UNK d   0     -10.365  -0.188  19.545  0.00  0.00     0.167 HD
ENDBRANCH  67  69
ENDBRANCH  66  67
ENDBRANCH  65  66
ENDBRANCH  14  65
ENDBRANCH   6   7
ENDBRANCH   5   6
ENDBRANCH   2   5
TORSDOF 28
ENDMDL
MODEL 16
REMARK VINA RESULT:      -8.6      2.304      8.422
REMARK  28 active torsions:
REMARK  status: ('A' for Active; 'I' for Inactive)
REMARK    1  A    between atoms: C_2  and  O_3 
REMARK    2  A    between atoms: C_2  and  C_4 
REMARK    3  A    between atoms: C_4  and  C_5 
REMARK    4  A    between atoms: C_5  and  C_6 
REMARK    5  A    between atoms: C_7  and  C_8 
REMARK    6  A    between atoms: C_8  and  C_9 
REMARK    7  A    between atoms: C_9  and  O_11 
REMARK    8  A    between atoms: C_28  and  C_29 
REMARK    9  A    between atoms: C_29  and  C_30 
REMARK   10  A    between atoms: C_30  and  O_32 
REMARK   11  A    between atoms: C_33  and  C_34 
REMARK   12  A    between atoms: C_34  and  C_35 
REMARK   13  A    between atoms: C_35  and  C_36 
REMARK   14  A    between atoms: C_36  and  O_38 
REMARK   15  A    between atoms: C_39  and  C_40 
REMARK   16  A    between atoms: C_40  and  C_41 
REMARK   17  A    between atoms: C_41  and  C_42 
REMARK   18  A    between atoms: C_42  and  O_44 
REMARK   19  A    between atoms: C_45  and  C_46 
REMARK   20  A    between atoms: C_46  and  C_47 
REMARK   21  A    between atoms: C_47  and  O_49 
REMARK   22  A    between atoms: C_50  and  C_51 
REMARK   23  A    between atoms: C_51  and  C_52 
REMARK   24  A    between atoms: C_52  and  O_54 
REMARK   25  A    between atoms: C_55  and  C_56 
REMARK   26  A    between atoms: C_56  and  C_57 
REMARK   27  A    between atoms: C_57  and  C_58 
REMARK   28  A    between atoms: C_58  and  O_60 
ROOT
ATOM      1  O   UNK d   0      -1.555 -15.443  17.658  0.00  0.00    -0.650 OA
ATOM      2  C   UNK d   0      -0.983 -14.494  18.241  0.00  0.00     0.139 C 
ENDROOT
BRANCH   2   3
ATOM      3  O   UNK d   0       0.323 -14.640  18.642  0.00  0.00    -0.776 OA
ATOM      4  H   UNK d   0       1.065 -14.062  18.243  0.00  0.00     0.167 HD
ENDBRANCH   2   3
BRANCH   2   5
ATOM      5  C   UNK d   0      -1.715 -13.221  18.495  0.00  0.00     0.115 C 
BRANCH   5   6
ATOM      6  C   UNK d   0      -2.729 -13.417  19.589  0.00  0.00     0.052 C 
BRANCH   6   7
ATOM      7  C   UNK d   0      -3.343 -12.118  20.052  0.00  0.00    -0.020 A 
ATOM      8  C   UNK d   0      -3.082 -11.459  21.152  0.00  0.00    -0.011 A 
ATOM      9  C   UNK d   0      -3.922 -10.273  21.170  0.00  0.00     0.067 A 
ATOM     10  C   UNK d   0      -4.108  -9.177  22.027  0.00  0.00     0.062 C 
ATOM     11  N   UNK d   0      -4.668 -10.293  20.045  0.00  0.00    -0.248 NA
ATOM     12  C   UNK d   0      -4.771  -7.979  21.739  0.00  0.00     0.041 A 
ATOM     13  N   UNK d   0      -5.927  -7.739  21.091  0.00  0.00    -0.355 N 
ATOM     14  C   UNK d   0      -4.169  -6.762  22.108  0.00  0.00    -0.022 A 
ATOM     15  C   UNK d   0      -6.069  -6.401  21.032  0.00  0.00     0.042 A 
ATOM     16  H   UNK d   0      -6.637  -8.500  20.700  0.00  0.00     0.166 HD
ATOM     17  C   UNK d   0      -7.094  -5.616  20.468  0.00  0.00     0.062 C 
ATOM     18  C   UNK d   0      -4.986  -5.755  21.659  0.00  0.00    -0.013 A 
ATOM     19  C   UNK d   0      -7.718  -5.754  19.255  0.00  0.00     0.067 A 
ATOM     20  N   UNK d   0      -7.484  -6.882  18.580  0.00  0.00    -0.248 NA
ATOM     21  C   UNK d   0      -8.612  -4.946  18.442  0.00  0.00    -0.011 A 
ATOM     22  C   UNK d   0      -8.160  -6.871  17.384  0.00  0.00     0.066 A 
ATOM     23  C   UNK d   0      -8.036  -8.005  16.595  0.00  0.00     0.062 C 
ATOM     24  C   UNK d   0      -8.864  -5.604  17.347  0.00  0.00    -0.020 A 
ATOM     25  C   UNK d   0      -7.376  -9.203  16.909  0.00  0.00     0.041 A 
ATOM     26  N   UNK d   0      -6.220  -9.441  17.539  0.00  0.00    -0.355 N 
ATOM     27  C   UNK d   0      -7.984 -10.424  16.542  0.00  0.00    -0.022 A 
ATOM     28  C   UNK d   0      -6.072 -10.774  17.592  0.00  0.00     0.042 A 
ATOM     29  H   UNK d   0      -5.502  -8.675  17.922  0.00  0.00     0.166 HD
ATOM     30  C   UNK d   0      -5.053 -11.569  18.141  0.00  0.00     0.062 C 
ATOM     31  C   UNK d   0      -7.165 -11.423  16.971  0.00  0.00    -0.013 A 
ATOM     32  C   UNK d   0      -4.366 -11.377  19.329  0.00  0.00     0.066 A 
BRANCH   8  33
ATOM     33  C   UNK d   0      -2.117 -11.836  22.201  0.00  0.00     0.151 C 
BRANCH  33  34
ATOM     34  C   UNK d   0      -2.670 -11.697  23.561  0.00  0.00     0.143 C 
ATOM     35  O   UNK d   0      -3.695 -12.306  23.897  0.00  0.00    -0.650 OA
BRANCH  34  36
ATOM     36  O   UNK d   0      -2.037 -10.877  24.467  0.00  0.00    -0.776 OA
ATOM     37  H   UNK d   0      -2.477 -10.008  24.799  0.00  0.00     0.167 HD
ENDBRANCH  34  36
ENDBRANCH  33  34
ENDBRANCH   8  33
BRANCH  31  38
ATOM     38  C   UNK d   0      -7.411 -12.906  16.814  0.00  0.00     0.151 C 
BRANCH  38  39
ATOM     39  C   UNK d   0      -7.087 -13.391  15.489  0.00  0.00     0.143 C 
ATOM     40  O   UNK d   0      -6.129 -12.947  14.833  0.00  0.00    -0.650 OA
BRANCH  39  41
ATOM     41  O   UNK d   0      -7.870 -14.394  14.916  0.00  0.00    -0.776 OA
ATOM     42  H   UNK d   0      -8.603 -14.093  14.266  0.00  0.00     0.167 HD
ENDBRANCH  39  41
ENDBRANCH  38  39
ENDBRANCH  31  38
BRANCH  27  43
ATOM     43  C   UNK d   0      -9.282 -10.668  15.814  0.00  0.00     0.052 C 
BRANCH  43  44
ATOM     44  C   UNK d   0      -9.096 -10.988  14.366  0.00  0.00     0.115 C 
BRANCH  44  45
ATOM     45  C   UNK d   0     -10.239 -11.853  13.973  0.00  0.00     0.139 C 
ATOM     46  O   UNK d   0     -10.508 -12.843  14.696  0.00  0.00    -0.650 OA
BRANCH  45  47
ATOM     47  O   UNK d   0     -11.012 -11.609  12.858  0.00  0.00    -0.776 OA
ATOM     48  H   UNK d   0     -11.793 -10.933  12.854  0.00  0.00     0.167 HD
ENDBRANCH  45  47
ENDBRANCH  44  45
ENDBRANCH  43  44
ENDBRANCH  27  43
BRANCH  24  49
ATOM     49  C   UNK d   0      -9.757  -5.169  16.259  0.00  0.00     0.052 C 
BRANCH  49  50
ATOM     50  C   UNK d   0     -11.157  -5.674  16.496  0.00  0.00     0.115 C 
BRANCH  50  51
ATOM     51  C   UNK d   0     -12.224  -4.683  16.529  0.00  0.00     0.139 C 
ATOM     52  O   UNK d   0     -12.550  -4.075  17.576  0.00  0.00    -0.650 OA
BRANCH  51  53
ATOM     53  O   UNK d   0     -12.922  -4.387  15.369  0.00  0.00    -0.776 OA
ATOM     54  H   UNK d   0     -13.924  -4.335  15.417  0.00  0.00     0.167 HD
ENDBRANCH  51  53
ENDBRANCH  50  51
ENDBRANCH  49  50
ENDBRANCH  24  49
BRANCH  21  55
ATOM     55  C   UNK d   0      -9.125  -3.604  18.847  0.00  0.00     0.151 C 
BRANCH  55  56
ATOM     56  C   UNK d   0      -8.104  -2.556  18.697  0.00  0.00     0.143 C 
ATOM     57  O   UNK d   0      -6.884  -2.779  18.820  0.00  0.00    -0.650 OA
BRANCH  56  58
ATOM     58  O   UNK d   0      -8.539  -1.264  18.406  0.00  0.00    -0.776 OA
ATOM     59  H   UNK d   0      -7.800  -0.621  18.068  0.00  0.00     0.167 HD
ENDBRANCH  56  58
ENDBRANCH  55  56
ENDBRANCH  21  55
BRANCH  18  60
ATOM     60  C   UNK d   0      -4.717  -4.281  21.833  0.00  0.00     0.151 C 
BRANCH  60  61
ATOM     61  C   UNK d   0      -5.426  -3.883  23.058  0.00  0.00     0.143 C 
ATOM     62  O   UNK d   0      -5.648  -4.581  24.048  0.00  0.00    -0.650 OA
BRANCH  61  63
ATOM     63  O   UNK d   0      -5.893  -2.547  23.077  0.00  0.00    -0.776 OA
ATOM     64  H   UNK d   0      -6.759  -2.294  22.633  0.00  0.00     0.167 HD
ENDBRANCH  61  63
ENDBRANCH  60  61
ENDBRANCH  18  60
BRANCH  14  65
ATOM     65  C   UNK d   0      -2.942  -6.485  22.930  0.00  0.00     0.052 C 
BRANCH  65  66
ATOM     66  C   UNK d   0      -1.695  -6.447  22.120  0.00  0.00     0.115 C 
BRANCH  66  67
ATOM     67  C   UNK d   0      -1.170  -5.185  21.681  0.00  0.00     0.139 C 
ATOM     68  O   UNK d   0      -1.286  -4.168  22.458  0.00  0.00    -0.650 OA
BRANCH  67  69
ATOM     69  O   UNK d   0      -0.526  -4.901  20.477  0.00  0.00    -0.776 OA
ATOM     70  H   UNK d   0      -1.019  -4.253  19.847  0.00  0.00     0.167 HD
ENDBRANCH  67  69
ENDBRANCH  66  67
ENDBRANCH  65  66
ENDBRANCH  14  65
ENDBRANCH   6   7
ENDBRANCH   5   6
ENDBRANCH   2   5
TORSDOF 28
ENDMDL
MODEL 17
REMARK VINA RESULT:      -8.6      2.141     10.889
REMARK  28 active torsions:
REMARK  status: ('A' for Active; 'I' for Inactive)
REMARK    1  A    between atoms: C_2  and  O_3 
REMARK    2  A    between atoms: C_2  and  C_4 
REMARK    3  A    between atoms: C_4  and  C_5 
REMARK    4  A    between atoms: C_5  and  C_6 
REMARK    5  A    between atoms: C_7  and  C_8 
REMARK    6  A    between atoms: C_8  and  C_9 
REMARK    7  A    between atoms: C_9  and  O_11 
REMARK    8  A    between atoms: C_28  and  C_29 
REMARK    9  A    between atoms: C_29  and  C_30 
REMARK   10  A    between atoms: C_30  and  O_32 
REMARK   11  A    between atoms: C_33  and  C_34 
REMARK   12  A    between atoms: C_34  and  C_35 
REMARK   13  A    between atoms: C_35  and  C_36 
REMARK   14  A    between atoms: C_36  and  O_38 
REMARK   15  A    between atoms: C_39  and  C_40 
REMARK   16  A    between atoms: C_40  and  C_41 
REMARK   17  A    between atoms: C_41  and  C_42 
REMARK   18  A    between atoms: C_42  and  O_44 
REMARK   19  A    between atoms: C_45  and  C_46 
REMARK   20  A    between atoms: C_46  and  C_47 
REMARK   21  A    between atoms: C_47  and  O_49 
REMARK   22  A    between atoms: C_50  and  C_51 
REMARK   23  A    between atoms: C_51  and  C_52 
REMARK   24  A    between atoms: C_52  and  O_54 
REMARK   25  A    between atoms: C_55  and  C_56 
REMARK   26  A    between atoms: C_56  and  C_57 
REMARK   27  A    between atoms: C_57  and  C_58 
REMARK   28  A    between atoms: C_58  and  O_60 
ROOT
ATOM      1  O   UNK d   0      -3.291 -11.691  26.381  0.00  0.00    -0.650 OA
ATOM      2  C   UNK d   0      -2.676 -11.347  25.347  0.00  0.00     0.139 C 
ENDROOT
BRANCH   2   3
ATOM      3  O   UNK d   0      -1.463 -10.711  25.465  0.00  0.00    -0.776 OA
ATOM      4  H   UNK d   0      -1.043 -10.225  24.670  0.00  0.00     0.167 HD
ENDBRANCH   2   3
BRANCH   2   5
ATOM      5  C   UNK d   0      -3.256 -11.626  24.003  0.00  0.00     0.115 C 
BRANCH   5   6
ATOM      6  C   UNK d   0      -2.447 -10.939  22.937  0.00  0.00     0.052 C 
BRANCH   6   7
ATOM      7  C   UNK d   0      -3.256 -10.632  21.700  0.00  0.00    -0.020 A 
ATOM      8  C   UNK d   0      -3.423 -11.390  20.647  0.00  0.00    -0.011 A 
ATOM      9  C   UNK d   0      -4.273 -10.672  19.712  0.00  0.00     0.067 A 
ATOM     10  C   UNK d   0      -4.829 -10.926  18.448  0.00  0.00     0.062 C 
ATOM     11  N   UNK d   0      -4.572  -9.483  20.274  0.00  0.00    -0.248 NA
ATOM     12  C   UNK d   0      -5.859 -10.219  17.818  0.00  0.00     0.041 A 
ATOM     13  N   UNK d   0      -6.093  -8.897  17.717  0.00  0.00    -0.355 N 
ATOM     14  C   UNK d   0      -6.901 -10.938  17.205  0.00  0.00    -0.022 A 
ATOM     15  C   UNK d   0      -7.262  -8.758  17.062  0.00  0.00     0.042 A 
ATOM     16  H   UNK d   0      -5.437  -8.078  18.083  0.00  0.00     0.166 HD
ATOM     17  C   UNK d   0      -7.967  -7.597  16.689  0.00  0.00     0.062 C 
ATOM     18  C   UNK d   0      -7.798 -10.016  16.725  0.00  0.00    -0.013 A 
ATOM     19  C   UNK d   0      -8.227  -6.471  17.428  0.00  0.00     0.067 A 
ATOM     20  N   UNK d   0      -7.575  -6.345  18.587  0.00  0.00    -0.248 NA
ATOM     21  C   UNK d   0      -9.087  -5.307  17.292  0.00  0.00    -0.011 A 
ATOM     22  C   UNK d   0      -7.947  -5.183  19.219  0.00  0.00     0.066 A 
ATOM     23  C   UNK d   0      -7.315  -4.906  20.422  0.00  0.00     0.062 C 
ATOM     24  C   UNK d   0      -8.922  -4.560  18.345  0.00  0.00    -0.020 A 
ATOM     25  C   UNK d   0      -6.273  -5.623  21.031  0.00  0.00     0.041 A 
ATOM     26  N   UNK d   0      -6.048  -6.937  21.145  0.00  0.00    -0.355 N 
ATOM     27  C   UNK d   0      -5.225  -4.901  21.643  0.00  0.00    -0.022 A 
ATOM     28  C   UNK d   0      -4.888  -7.079  21.806  0.00  0.00     0.042 A 
ATOM     29  H   UNK d   0      -6.714  -7.759  20.785  0.00  0.00     0.166 HD
ATOM     30  C   UNK d   0      -4.179  -8.227  22.191  0.00  0.00     0.062 C 
ATOM     31  C   UNK d   0      -4.344  -5.814  22.135  0.00  0.00    -0.013 A 
ATOM     32  C   UNK d   0      -3.991  -9.397  21.472  0.00  0.00     0.066 A 
BRANCH   8  33
ATOM     33  C   UNK d   0      -2.856 -12.733  20.424  0.00  0.00     0.151 C 
BRANCH  33  34
ATOM     34  C   UNK d   0      -3.789 -13.639  19.729  0.00  0.00     0.143 C 
ATOM     35  O   UNK d   0      -4.888 -13.922  20.225  0.00  0.00    -0.650 OA
BRANCH  34  36
ATOM     36  O   UNK d   0      -3.430 -14.175  18.514  0.00  0.00    -0.776 OA
ATOM     37  H   UNK d   0      -2.864 -13.642  17.840  0.00  0.00     0.167 HD
ENDBRANCH  34  36
ENDBRANCH  33  34
ENDBRANCH   8  33
BRANCH  31  38
ATOM     38  C   UNK d   0      -3.056  -5.508  22.862  0.00  0.00     0.151 C 
BRANCH  38  39
ATOM     39  C   UNK d   0      -1.969  -5.176  21.965  0.00  0.00     0.143 C 
ATOM     40  O   UNK d   0      -1.366  -6.039  21.303  0.00  0.00    -0.650 OA
BRANCH  39  41
ATOM     41  O   UNK d   0      -1.576  -3.845  21.826  0.00  0.00    -0.776 OA
ATOM     42  H   UNK d   0      -2.310  -3.168  21.599  0.00  0.00     0.167 HD
ENDBRANCH  39  41
ENDBRANCH  38  39
ENDBRANCH  31  38
BRANCH  27  43
ATOM     43  C   UNK d   0      -5.038  -3.410  21.775  0.00  0.00     0.052 C 
BRANCH  43  44
ATOM     44  C   UNK d   0      -5.818  -2.814  22.901  0.00  0.00     0.115 C 
BRANCH  44  45
ATOM     45  C   UNK d   0      -6.445  -1.574  22.373  0.00  0.00     0.139 C 
ATOM     46  O   UNK d   0      -7.005  -0.801  23.189  0.00  0.00    -0.650 OA
BRANCH  45  47
ATOM     47  O   UNK d   0      -6.431  -1.241  21.036  0.00  0.00    -0.776 OA
ATOM     48  H   UNK d   0      -5.569  -0.972  20.534  0.00  0.00     0.167 HD
ENDBRANCH  45  47
ENDBRANCH  44  45
ENDBRANCH  43  44
ENDBRANCH  27  43
BRANCH  24  49
ATOM     49  C   UNK d   0      -9.572  -3.263  18.600  0.00  0.00     0.052 C 
BRANCH  49  50
ATOM     50  C   UNK d   0     -10.272  -3.281  19.934  0.00  0.00     0.115 C 
BRANCH  50  51
ATOM     51  C   UNK d   0     -11.725  -3.390  19.921  0.00  0.00     0.139 C 
ATOM     52  O   UNK d   0     -12.383  -3.526  18.863  0.00  0.00    -0.650 OA
BRANCH  51  53
ATOM     53  O   UNK d   0     -12.427  -3.342  21.116  0.00  0.00    -0.776 OA
ATOM     54  H   UNK d   0     -13.314  -2.868  21.127  0.00  0.00     0.167 HD
ENDBRANCH  51  53
ENDBRANCH  50  51
ENDBRANCH  49  50
ENDBRANCH  24  49
BRANCH  21  55
ATOM     55  C   UNK d   0      -9.981  -5.062  16.122  0.00  0.00     0.151 C 
BRANCH  55  56
ATOM     56  C   UNK d   0     -11.350  -5.543  16.363  0.00  0.00     0.143 C 
ATOM     57  O   UNK d   0     -11.596  -6.592  16.990  0.00  0.00    -0.650 OA
BRANCH  56  58
ATOM     58  O   UNK d   0     -12.404  -4.782  15.861  0.00  0.00    -0.776 OA
ATOM     59  H   UNK d   0     -13.142  -4.551  16.551  0.00  0.00     0.167 HD
ENDBRANCH  56  58
ENDBRANCH  55  56
ENDBRANCH  21  55
BRANCH  18  60
ATOM     60  C   UNK d   0      -9.077 -10.351  15.998  0.00  0.00     0.151 C 
BRANCH  60  61
ATOM     61  C   UNK d   0     -10.168 -10.033  16.933  0.00  0.00     0.143 C 
ATOM     62  O   UNK d   0     -10.183 -10.225  18.149  0.00  0.00    -0.650 OA
BRANCH  61  63
ATOM     63  O   UNK d   0     -11.312  -9.443  16.344  0.00  0.00    -0.776 OA
ATOM     64  H   UNK d   0     -11.246  -8.931  15.482  0.00  0.00     0.167 HD
ENDBRANCH  61  63
ENDBRANCH  60  61
ENDBRANCH  18  60
BRANCH  14  65
ATOM     65  C   UNK d   0      -7.063 -12.410  16.954  0.00  0.00     0.052 C 
BRANCH  65  66
ATOM     66  C   UNK d   0      -6.707 -12.806  15.565  0.00  0.00     0.115 C 
BRANCH  66  67
ATOM     67  C   UNK d   0      -7.624 -13.596  14.793  0.00  0.00     0.139 C 
ATOM     68  O   UNK d   0      -7.986 -13.162  13.638  0.00  0.00    -0.650 OA
BRANCH  67  69
ATOM     69  O   UNK d   0      -8.200 -14.818  15.140  0.00  0.00    -0.776 OA
ATOM     70  H   UNK d   0      -8.120 -15.085  16.131  0.00  0.00     0.167 HD
ENDBRANCH  67  69
ENDBRANCH  66  67
ENDBRANCH  65  66
ENDBRANCH  14  65
ENDBRANCH   6   7
ENDBRANCH   5   6
ENDBRANCH   2   5
TORSDOF 28
ENDMDL
MODEL 18
REMARK VINA RESULT:      -8.6      2.725     11.129
REMARK  28 active torsions:
REMARK  status: ('A' for Active; 'I' for Inactive)
REMARK    1  A    between atoms: C_2  and  O_3 
REMARK    2  A    between atoms: C_2  and  C_4 
REMARK    3  A    between atoms: C_4  and  C_5 
REMARK    4  A    between atoms: C_5  and  C_6 
REMARK    5  A    between atoms: C_7  and  C_8 
REMARK    6  A    between atoms: C_8  and  C_9 
REMARK    7  A    between atoms: C_9  and  O_11 
REMARK    8  A    between atoms: C_28  and  C_29 
REMARK    9  A    between atoms: C_29  and  C_30 
REMARK   10  A    between atoms: C_30  and  O_32 
REMARK   11  A    between atoms: C_33  and  C_34 
REMARK   12  A    between atoms: C_34  and  C_35 
REMARK   13  A    between atoms: C_35  and  C_36 
REMARK   14  A    between atoms: C_36  and  O_38 
REMARK   15  A    between atoms: C_39  and  C_40 
REMARK   16  A    between atoms: C_40  and  C_41 
REMARK   17  A    between atoms: C_41  and  C_42 
REMARK   18  A    between atoms: C_42  and  O_44 
REMARK   19  A    between atoms: C_45  and  C_46 
REMARK   20  A    between atoms: C_46  and  C_47 
REMARK   21  A    between atoms: C_47  and  O_49 
REMARK   22  A    between atoms: C_50  and  C_51 
REMARK   23  A    between atoms: C_51  and  C_52 
REMARK   24  A    between atoms: C_52  and  O_54 
REMARK   25  A    between atoms: C_55  and  C_56 
REMARK   26  A    between atoms: C_56  and  C_57 
REMARK   27  A    between atoms: C_57  and  C_58 
REMARK   28  A    between atoms: C_58  and  O_60 
ROOT
ATOM      1  O   UNK d   0       0.003 -11.668  26.058  0.00  0.00    -0.650 OA
ATOM      2  C   UNK d   0      -0.860 -10.877  25.617  0.00  0.00     0.139 C 
ENDROOT
BRANCH   2   3
ATOM      3  O   UNK d   0      -0.839  -9.564  26.021  0.00  0.00    -0.776 OA
ATOM      4  H   UNK d   0      -1.668  -8.972  25.935  0.00  0.00     0.167 HD
ENDBRANCH   2   3
BRANCH   2   5
ATOM      5  C   UNK d   0      -1.898 -11.359  24.663  0.00  0.00     0.115 C 
BRANCH   5   6
ATOM      6  C   UNK d   0      -1.366 -11.322  23.256  0.00  0.00     0.052 C 
BRANCH   6   7
ATOM      7  C   UNK d   0      -2.434 -10.999  22.239  0.00  0.00    -0.020 A 
ATOM      8  C   UNK d   0      -2.946 -11.797  21.337  0.00  0.00    -0.011 A 
ATOM      9  C   UNK d   0      -3.932 -11.042  20.583  0.00  0.00     0.067 A 
ATOM     10  C   UNK d   0      -4.821 -11.308  19.529  0.00  0.00     0.062 C 
ATOM     11  N   UNK d   0      -3.952  -9.791  21.088  0.00  0.00    -0.248 NA
ATOM     12  C   UNK d   0      -5.902 -10.522  19.114  0.00  0.00     0.041 A 
ATOM     13  N   UNK d   0      -6.019  -9.190  18.951  0.00  0.00    -0.355 N 
ATOM     14  C   UNK d   0      -7.136 -11.145  18.853  0.00  0.00    -0.022 A 
ATOM     15  C   UNK d   0      -7.297  -8.952  18.601  0.00  0.00     0.042 A 
ATOM     16  H   UNK d   0      -5.209  -8.436  19.062  0.00  0.00     0.166 HD
ATOM     17  C   UNK d   0      -7.953  -7.739  18.310  0.00  0.00     0.062 C 
ATOM     18  C   UNK d   0      -8.028 -10.153  18.529  0.00  0.00    -0.013 A 
ATOM     19  C   UNK d   0      -7.896  -6.545  18.982  0.00  0.00     0.067 A 
ATOM     20  N   UNK d   0      -6.955  -6.424  19.922  0.00  0.00    -0.248 NA
ATOM     21  C   UNK d   0      -8.638  -5.296  18.957  0.00  0.00    -0.011 A 
ATOM     22  C   UNK d   0      -7.029  -5.188  20.515  0.00  0.00     0.066 A 
ATOM     23  C   UNK d   0      -6.081  -4.913  21.489  0.00  0.00     0.062 C 
ATOM     24  C   UNK d   0      -8.129  -4.507  19.859  0.00  0.00    -0.020 A 
ATOM     25  C   UNK d   0      -4.995  -5.711  21.882  0.00  0.00     0.041 A 
ATOM     26  N   UNK d   0      -4.883  -7.033  22.058  0.00  0.00    -0.355 N 
ATOM     27  C   UNK d   0      -3.756  -5.085  22.139  0.00  0.00    -0.022 A 
ATOM     28  C   UNK d   0      -3.611  -7.272  22.416  0.00  0.00     0.042 A 
ATOM     29  H   UNK d   0      -5.700  -7.789  21.956  0.00  0.00     0.166 HD
ATOM     30  C   UNK d   0      -2.947  -8.472  22.717  0.00  0.00     0.062 C 
ATOM     31  C   UNK d   0      -2.875  -6.066  22.478  0.00  0.00    -0.013 A 
ATOM     32  C   UNK d   0      -3.073  -9.700  22.088  0.00  0.00     0.066 A 
BRANCH   8  33
ATOM     33  C   UNK d   0      -2.596 -13.211  21.107  0.00  0.00     0.151 C 
BRANCH  33  34
ATOM     34  C   UNK d   0      -1.551 -13.380  20.081  0.00  0.00     0.143 C 
ATOM     35  O   UNK d   0      -0.375 -13.606  20.402  0.00  0.00    -0.650 OA
BRANCH  34  36
ATOM     36  O   UNK d   0      -1.888 -13.284  18.751  0.00  0.00    -0.776 OA
ATOM     37  H   UNK d   0      -1.574 -12.491  18.176  0.00  0.00     0.167 HD
ENDBRANCH  34  36
ENDBRANCH  33  34
ENDBRANCH   8  33
BRANCH  31  38
ATOM     38  C   UNK d   0      -1.417  -5.873  22.826  0.00  0.00     0.151 C 
BRANCH  38  39
ATOM     39  C   UNK d   0      -1.169  -5.918  24.251  0.00  0.00     0.143 C 
ATOM     40  O   UNK d   0      -1.140  -6.986  24.888  0.00  0.00    -0.650 OA
BRANCH  39  41
ATOM     41  O   UNK d   0      -0.954  -4.730  24.948  0.00  0.00    -0.776 OA
ATOM     42  H   UNK d   0      -1.773  -4.137  25.113  0.00  0.00     0.167 HD
ENDBRANCH  39  41
ENDBRANCH  38  39
ENDBRANCH  31  38
BRANCH  27  43
ATOM     43  C   UNK d   0      -3.390  -3.623  22.079  0.00  0.00     0.052 C 
BRANCH  43  44
ATOM     44  C   UNK d   0      -4.267  -2.759  22.925  0.00  0.00     0.115 C 
BRANCH  44  45
ATOM     45  C   UNK d   0      -4.063  -3.196  24.331  0.00  0.00     0.139 C 
ATOM     46  O   UNK d   0      -2.969  -2.921  24.884  0.00  0.00    -0.650 OA
BRANCH  45  47
ATOM     47  O   UNK d   0      -5.022  -3.879  25.048  0.00  0.00    -0.776 OA
ATOM     48  H   UNK d   0      -5.254  -4.869  24.871  0.00  0.00     0.167 HD
ENDBRANCH  45  47
ENDBRANCH  44  45
ENDBRANCH  43  44
ENDBRANCH  27  43
BRANCH  24  49
ATOM     49  C   UNK d   0      -8.554  -3.127  20.146  0.00  0.00     0.052 C 
BRANCH  49  50
ATOM     50  C   UNK d   0      -8.051  -2.190  19.078  0.00  0.00     0.115 C 
BRANCH  50  51
ATOM     51  C   UNK d   0      -8.993  -1.211  18.554  0.00  0.00     0.139 C 
ATOM     52  O   UNK d   0     -10.214  -1.457  18.409  0.00  0.00    -0.650 OA
BRANCH  51  53
ATOM     53  O   UNK d   0      -8.544   0.050  18.194  0.00  0.00    -0.776 OA
ATOM     54  H   UNK d   0      -7.582   0.152  17.921  0.00  0.00     0.167 HD
ENDBRANCH  51  53
ENDBRANCH  50  51
ENDBRANCH  49  50
ENDBRANCH  24  49
BRANCH  21  55
ATOM     55  C   UNK d   0      -9.776  -5.019  18.031  0.00  0.00     0.151 C 
BRANCH  55  56
ATOM     56  C   UNK d   0      -9.326  -4.403  16.773  0.00  0.00     0.143 C 
ATOM     57  O   UNK d   0      -8.210  -4.636  16.269  0.00  0.00    -0.650 OA
BRANCH  56  58
ATOM     58  O   UNK d   0     -10.198  -3.524  16.132  0.00  0.00    -0.776 OA
ATOM     59  H   UNK d   0     -10.067  -2.526  16.374  0.00  0.00     0.167 HD
ENDBRANCH  56  58
ENDBRANCH  55  56
ENDBRANCH  21  55
BRANCH  18  60
ATOM     60  C   UNK d   0      -9.479 -10.376  18.182  0.00  0.00     0.151 C 
BRANCH  60  61
ATOM     61  C   UNK d   0     -10.226 -10.197  19.437  0.00  0.00     0.143 C 
ATOM     62  O   UNK d   0      -9.791  -9.766  20.505  0.00  0.00    -0.650 OA
BRANCH  61  63
ATOM     63  O   UNK d   0     -11.591 -10.569  19.383  0.00  0.00    -0.776 OA
ATOM     64  H   UNK d   0     -12.261 -10.176  20.021  0.00  0.00     0.167 HD
ENDBRANCH  61  63
ENDBRANCH  60  61
ENDBRANCH  18  60
BRANCH  14  65
ATOM     65  C   UNK d   0      -7.506 -12.600  18.791  0.00  0.00     0.052 C 
BRANCH  65  66
ATOM     66  C   UNK d   0      -8.090 -13.106  20.062  0.00  0.00     0.115 C 
BRANCH  66  67
ATOM     67  C   UNK d   0      -7.588 -12.624  21.317  0.00  0.00     0.139 C 
ATOM     68  O   UNK d   0      -6.575 -13.218  21.842  0.00  0.00    -0.650 OA
BRANCH  67  69
ATOM     69  O   UNK d   0      -8.069 -11.558  22.076  0.00  0.00    -0.776 OA
ATOM     70  H   UNK d   0      -8.078 -11.702  23.096  0.00  0.00     0.167 HD
ENDBRANCH  67  69
ENDBRANCH  66  67
ENDBRANCH  65  66
ENDBRANCH  14  65
ENDBRANCH   6   7
ENDBRANCH   5   6
ENDBRANCH   2   5
TORSDOF 28
ENDMDL
MODEL 19
REMARK VINA RESULT:      -8.5      2.167      8.187
REMARK  28 active torsions:
REMARK  status: ('A' for Active; 'I' for Inactive)
REMARK    1  A    between atoms: C_2  and  O_3 
REMARK    2  A    between atoms: C_2  and  C_4 
REMARK    3  A    between atoms: C_4  and  C_5 
REMARK    4  A    between atoms: C_5  and  C_6 
REMARK    5  A    between atoms: C_7  and  C_8 
REMARK    6  A    between atoms: C_8  and  C_9 
REMARK    7  A    between atoms: C_9  and  O_11 
REMARK    8  A    between atoms: C_28  and  C_29 
REMARK    9  A    between atoms: C_29  and  C_30 
REMARK   10  A    between atoms: C_30  and  O_32 
REMARK   11  A    between atoms: C_33  and  C_34 
REMARK   12  A    between atoms: C_34  and  C_35 
REMARK   13  A    between atoms: C_35  and  C_36 
REMARK   14  A    between atoms: C_36  and  O_38 
REMARK   15  A    between atoms: C_39  and  C_40 
REMARK   16  A    between atoms: C_40  and  C_41 
REMARK   17  A    between atoms: C_41  and  C_42 
REMARK   18  A    between atoms: C_42  and  O_44 
REMARK   19  A    between atoms: C_45  and  C_46 
REMARK   20  A    between atoms: C_46  and  C_47 
REMARK   21  A    between atoms: C_47  and  O_49 
REMARK   22  A    between atoms: C_50  and  C_51 
REMARK   23  A    between atoms: C_51  and  C_52 
REMARK   24  A    between atoms: C_52  and  O_54 
REMARK   25  A    between atoms: C_55  and  C_56 
REMARK   26  A    between atoms: C_56  and  C_57 
REMARK   27  A    between atoms: C_57  and  C_58 
REMARK   28  A    between atoms: C_58  and  O_60 
ROOT
ATOM      1  O   UNK d   0      -6.616 -13.396  21.368  0.00  0.00    -0.650 OA
ATOM      2  C   UNK d   0      -6.285 -13.315  20.164  0.00  0.00     0.139 C 
ENDROOT
BRANCH   2   3
ATOM      3  O   UNK d   0      -7.226 -12.956  19.229  0.00  0.00    -0.776 OA
ATOM      4  H   UNK d   0      -7.889 -13.640  18.859  0.00  0.00     0.167 HD
ENDBRANCH   2   3
BRANCH   2   5
ATOM      5  C   UNK d   0      -4.882 -13.606  19.753  0.00  0.00     0.115 C 
BRANCH   5   6
ATOM      6  C   UNK d   0      -4.325 -12.454  18.963  0.00  0.00     0.052 C 
BRANCH   6   7
ATOM      7  C   UNK d   0      -4.284 -11.170  19.756  0.00  0.00    -0.020 A 
ATOM      8  C   UNK d   0      -3.552 -10.904  20.808  0.00  0.00    -0.011 A 
ATOM      9  C   UNK d   0      -3.859  -9.549  21.233  0.00  0.00     0.067 A 
ATOM     10  C   UNK d   0      -3.421  -8.681  22.245  0.00  0.00     0.062 C 
ATOM     11  N   UNK d   0      -4.793  -9.066  20.387  0.00  0.00    -0.248 NA
ATOM     12  C   UNK d   0      -3.633  -7.301  22.330  0.00  0.00     0.041 A 
ATOM     13  N   UNK d   0      -4.730  -6.557  22.091  0.00  0.00    -0.355 N 
ATOM     14  C   UNK d   0      -2.553  -6.465  22.663  0.00  0.00    -0.022 A 
ATOM     15  C   UNK d   0      -4.371  -5.270  22.257  0.00  0.00     0.042 A 
ATOM     16  H   UNK d   0      -5.743  -6.935  21.829  0.00  0.00     0.166 HD
ATOM     17  C   UNK d   0      -5.127  -4.088  22.132  0.00  0.00     0.062 C 
ATOM     18  C   UNK d   0      -3.013  -5.172  22.616  0.00  0.00    -0.013 A 
ATOM     19  C   UNK d   0      -6.016  -3.732  21.150  0.00  0.00     0.067 A 
ATOM     20  N   UNK d   0      -6.383  -4.686  20.292  0.00  0.00    -0.248 NA
ATOM     21  C   UNK d   0      -6.703  -2.514  20.755  0.00  0.00    -0.011 A 
ATOM     22  C   UNK d   0      -7.259  -4.181  19.362  0.00  0.00     0.066 A 
ATOM     23  C   UNK d   0      -7.752  -5.079  18.427  0.00  0.00     0.062 C 
ATOM     24  C   UNK d   0      -7.425  -2.782  19.705  0.00  0.00    -0.020 A 
ATOM     25  C   UNK d   0      -7.536  -6.464  18.368  0.00  0.00     0.041 A 
ATOM     26  N   UNK d   0      -6.442  -7.203  18.591  0.00  0.00    -0.355 N 
ATOM     27  C   UNK d   0      -8.622  -7.303  18.037  0.00  0.00    -0.022 A 
ATOM     28  C   UNK d   0      -6.795  -8.486  18.417  0.00  0.00     0.042 A 
ATOM     29  H   UNK d   0      -5.422  -6.821  18.843  0.00  0.00     0.166 HD
ATOM     30  C   UNK d   0      -6.052  -9.671  18.529  0.00  0.00     0.062 C 
ATOM     31  C   UNK d   0      -8.163  -8.584  18.067  0.00  0.00    -0.013 A 
ATOM     32  C   UNK d   0      -5.091  -9.992  19.475  0.00  0.00     0.066 A 
BRANCH   8  33
ATOM     33  C   UNK d   0      -2.586 -11.805  21.464  0.00  0.00     0.151 C 
BRANCH  33  34
ATOM     34  C   UNK d   0      -2.859 -11.983  22.902  0.00  0.00     0.143 C 
ATOM     35  O   UNK d   0      -3.887 -12.557  23.288  0.00  0.00    -0.650 OA
BRANCH  34  36
ATOM     36  O   UNK d   0      -1.958 -11.504  23.824  0.00  0.00    -0.776 OA
ATOM     37  H   UNK d   0      -1.684 -12.063  24.644  0.00  0.00     0.167 HD
ENDBRANCH  34  36
ENDBRANCH  33  34
ENDBRANCH   8  33
BRANCH  31  38
ATOM     38  C   UNK d   0      -8.974  -9.829  17.792  0.00  0.00     0.151 C 
BRANCH  38  39
ATOM     39  C   UNK d   0      -9.717 -10.282  18.949  0.00  0.00     0.143 C 
ATOM     40  O   UNK d   0     -10.959 -10.242  19.001  0.00  0.00    -0.650 OA
BRANCH  39  41
ATOM     41  O   UNK d   0      -9.028 -10.784  20.053  0.00  0.00    -0.776 OA
ATOM     42  H   UNK d   0      -8.320 -11.501  19.869  0.00  0.00     0.167 HD
ENDBRANCH  39  41
ENDBRANCH  38  39
ENDBRANCH  31  38
BRANCH  27  43
ATOM     43  C   UNK d   0     -10.047  -6.939  17.700  0.00  0.00     0.052 C 
BRANCH  43  44
ATOM     44  C   UNK d   0     -10.279  -6.758  16.235  0.00  0.00     0.115 C 
BRANCH  44  45
ATOM     45  C   UNK d   0     -11.500  -7.536  15.900  0.00  0.00     0.139 C 
ATOM     46  O   UNK d   0     -11.358  -8.716  15.496  0.00  0.00    -0.650 OA
BRANCH  45  47
ATOM     47  O   UNK d   0     -12.772  -7.019  16.021  0.00  0.00    -0.776 OA
ATOM     48  H   UNK d   0     -12.984  -6.177  16.580  0.00  0.00     0.167 HD
ENDBRANCH  45  47
ENDBRANCH  44  45
ENDBRANCH  43  44
ENDBRANCH  27  43
BRANCH  24  49
ATOM     49  C   UNK d   0      -8.314  -1.843  18.999  0.00  0.00     0.052 C 
BRANCH  49  50
ATOM     50  C   UNK d   0      -9.693  -2.433  18.855  0.00  0.00     0.115 C 
BRANCH  50  51
ATOM     51  C   UNK d   0     -10.117  -2.815  17.515  0.00  0.00     0.139 C 
ATOM     52  O   UNK d   0     -11.132  -3.519  17.301  0.00  0.00    -0.650 OA
BRANCH  51  53
ATOM     53  O   UNK d   0      -9.382  -2.394  16.417  0.00  0.00    -0.776 OA
ATOM     54  H   UNK d   0      -9.305  -3.015  15.630  0.00  0.00     0.167 HD
ENDBRANCH  51  53
ENDBRANCH  50  51
ENDBRANCH  49  50
ENDBRANCH  24  49
BRANCH  21  55
ATOM     55  C   UNK d   0      -6.570  -1.210  21.469  0.00  0.00     0.151 C 
BRANCH  55  56
ATOM     56  C   UNK d   0      -6.464  -1.387  22.926  0.00  0.00     0.143 C 
ATOM     57  O   UNK d   0      -5.431  -1.111  23.566  0.00  0.00    -0.650 OA
BRANCH  56  58
ATOM     58  O   UNK d   0      -7.577  -1.886  23.601  0.00  0.00    -0.776 OA
ATOM     59  H   UNK d   0      -7.901  -2.816  23.281  0.00  0.00     0.167 HD
ENDBRANCH  56  58
ENDBRANCH  55  56
ENDBRANCH  21  55
BRANCH  18  60
ATOM     60  C   UNK d   0      -2.179  -3.947  22.898  0.00  0.00     0.151 C 
BRANCH  60  61
ATOM     61  C   UNK d   0      -2.292  -3.707  24.345  0.00  0.00     0.143 C 
ATOM     62  O   UNK d   0      -3.312  -3.774  25.031  0.00  0.00    -0.650 OA
BRANCH  61  63
ATOM     63  O   UNK d   0      -1.081  -3.364  24.994  0.00  0.00    -0.776 OA
ATOM     64  H   UNK d   0      -0.659  -2.462  24.860  0.00  0.00     0.167 HD
ENDBRANCH  61  63
ENDBRANCH  60  61
ENDBRANCH  18  60
BRANCH  14  65
ATOM     65  C   UNK d   0      -1.159  -6.797  23.115  0.00  0.00     0.052 C 
BRANCH  65  66
ATOM     66  C   UNK d   0      -1.038  -6.913  24.593  0.00  0.00     0.115 C 
BRANCH  66  67
ATOM     67  C   UNK d   0      -0.355  -8.038  25.165  0.00  0.00     0.139 C 
ATOM     68  O   UNK d   0       0.823  -8.325  24.735  0.00  0.00    -0.650 OA
BRANCH  67  69
ATOM     69  O   UNK d   0      -0.813  -8.897  26.164  0.00  0.00    -0.776 OA
ATOM     70  H   UNK d   0      -0.974  -9.873  25.876  0.00  0.00     0.167 HD
ENDBRANCH  67  69
ENDBRANCH  66  67
ENDBRANCH  65  66
ENDBRANCH  14  65
ENDBRANCH   6   7
ENDBRANCH   5   6
ENDBRANCH   2   5
TORSDOF 28
ENDMDL
MODEL 20
REMARK VINA RESULT:      -8.4     27.479     32.119
REMARK  28 active torsions:
REMARK  status: ('A' for Active; 'I' for Inactive)
REMARK    1  A    between atoms: C_2  and  O_3 
REMARK    2  A    between atoms: C_2  and  C_4 
REMARK    3  A    between atoms: C_4  and  C_5 
REMARK    4  A    between atoms: C_5  and  C_6 
REMARK    5  A    between atoms: C_7  and  C_8 
REMARK    6  A    between atoms: C_8  and  C_9 
REMARK    7  A    between atoms: C_9  and  O_11 
REMARK    8  A    between atoms: C_28  and  C_29 
REMARK    9  A    between atoms: C_29  and  C_30 
REMARK   10  A    between atoms: C_30  and  O_32 
REMARK   11  A    between atoms: C_33  and  C_34 
REMARK   12  A    between atoms: C_34  and  C_35 
REMARK   13  A    between atoms: C_35  and  C_36 
REMARK   14  A    between atoms: C_36  and  O_38 
REMARK   15  A    between atoms: C_39  and  C_40 
REMARK   16  A    between atoms: C_40  and  C_41 
REMARK   17  A    between atoms: C_41  and  C_42 
REMARK   18  A    between atoms: C_42  and  O_44 
REMARK   19  A    between atoms: C_45  and  C_46 
REMARK   20  A    between atoms: C_46  and  C_47 
REMARK   21  A    between atoms: C_47  and  O_49 
REMARK   22  A    between atoms: C_50  and  C_51 
REMARK   23  A    between atoms: C_51  and  C_52 
REMARK   24  A    between atoms: C_52  and  O_54 
REMARK   25  A    between atoms: C_55  and  C_56 
REMARK   26  A    between atoms: C_56  and  C_57 
REMARK   27  A    between atoms: C_57  and  C_58 
REMARK   28  A    between atoms: C_58  and  O_60 
ROOT
ATOM      1  O   UNK d   0      14.189  12.754  13.218  0.00  0.00    -0.650 OA
ATOM      2  C   UNK d   0      12.968  12.480  13.207  0.00  0.00     0.139 C 
ENDROOT
BRANCH   2   3
ATOM      3  O   UNK d   0      12.056  13.479  12.966  0.00  0.00    -0.776 OA
ATOM      4  H   UNK d   0      11.391  13.771  13.686  0.00  0.00     0.167 HD
ENDBRANCH   2   3
BRANCH   2   5
ATOM      5  C   UNK d   0      12.513  11.083  13.454  0.00  0.00     0.115 C 
BRANCH   5   6
ATOM      6  C   UNK d   0      11.537  10.661  12.389  0.00  0.00     0.052 C 
BRANCH   6   7
ATOM      7  C   UNK d   0      12.220  10.209  11.120  0.00  0.00    -0.020 A 
ATOM      8  C   UNK d   0      12.770   9.046  10.881  0.00  0.00    -0.011 A 
ATOM      9  C   UNK d   0      13.307   9.078   9.531  0.00  0.00     0.067 A 
ATOM     10  C   UNK d   0      13.978   8.179   8.687  0.00  0.00     0.062 C 
ATOM     11  N   UNK d   0      13.044  10.300   9.023  0.00  0.00    -0.248 NA
ATOM     12  C   UNK d   0      14.172   8.298   7.306  0.00  0.00     0.041 A 
ATOM     13  N   UNK d   0      14.520   9.355   6.548  0.00  0.00    -0.355 N 
ATOM     14  C   UNK d   0      13.934   7.180   6.486  0.00  0.00    -0.022 A 
ATOM     15  C   UNK d   0      14.500   8.938   5.267  0.00  0.00     0.042 A 
ATOM     16  H   UNK d   0      14.792  10.370   6.912  0.00  0.00     0.166 HD
ATOM     17  C   UNK d   0      14.781   9.636   4.076  0.00  0.00     0.062 C 
ATOM     18  C   UNK d   0      14.136   7.580   5.189  0.00  0.00    -0.013 A 
ATOM     19  C   UNK d   0      14.376  10.889   3.693  0.00  0.00     0.067 A 
ATOM     20  N   UNK d   0      13.803  11.651   4.629  0.00  0.00    -0.248 NA
ATOM     21  C   UNK d   0      14.389  11.660   2.462  0.00  0.00    -0.011 A 
ATOM     22  C   UNK d   0      13.438  12.864   4.098  0.00  0.00     0.066 A 
ATOM     23  C   UNK d   0      12.863  13.772   4.974  0.00  0.00     0.062 C 
ATOM     24  C   UNK d   0      13.835  12.813   2.704  0.00  0.00    -0.020 A 
ATOM     25  C   UNK d   0      12.688  13.638   6.360  0.00  0.00     0.041 A 
ATOM     26  N   UNK d   0      12.328  12.591   7.112  0.00  0.00    -0.355 N 
ATOM     27  C   UNK d   0      12.932  14.760   7.182  0.00  0.00    -0.022 A 
ATOM     28  C   UNK d   0      12.339  13.007   8.389  0.00  0.00     0.042 A 
ATOM     29  H   UNK d   0      12.044  11.575   6.744  0.00  0.00     0.166 HD
ATOM     30  C   UNK d   0      12.052  12.327   9.583  0.00  0.00     0.062 C 
ATOM     31  C   UNK d   0      12.714  14.369   8.467  0.00  0.00    -0.013 A 
ATOM     32  C   UNK d   0      12.391  11.029   9.930  0.00  0.00     0.066 A 
BRANCH   8  33
ATOM     33  C   UNK d   0      12.849   7.898  11.803  0.00  0.00     0.151 C 
BRANCH  33  34
ATOM     34  C   UNK d   0      14.203   7.696  12.349  0.00  0.00     0.143 C 
ATOM     35  O   UNK d   0      14.571   8.289  13.373  0.00  0.00    -0.650 OA
BRANCH  34  36
ATOM     36  O   UNK d   0      15.068   6.838  11.710  0.00  0.00    -0.776 OA
ATOM     37  H   UNK d   0      15.684   7.166  10.953  0.00  0.00     0.167 HD
ENDBRANCH  34  36
ENDBRANCH  33  34
ENDBRANCH   8  33
BRANCH  31  38
ATOM     38  C   UNK d   0      12.865  15.231   9.699  0.00  0.00     0.151 C 
BRANCH  38  39
ATOM     39  C   UNK d   0      14.077  14.947  10.438  0.00  0.00     0.143 C 
ATOM     40  O   UNK d   0      15.038  14.340   9.932  0.00  0.00    -0.650 OA
BRANCH  39  41
ATOM     41  O   UNK d   0      14.186  15.364  11.764  0.00  0.00    -0.776 OA
ATOM     42  H   UNK d   0      13.626  14.855  12.455  0.00  0.00     0.167 HD
ENDBRANCH  39  41
ENDBRANCH  38  39
ENDBRANCH  31  38
BRANCH  27  43
ATOM     43  C   UNK d   0      13.352  16.156   6.798  0.00  0.00     0.052 C 
BRANCH  43  44
ATOM     44  C   UNK d   0      12.271  17.171   6.983  0.00  0.00     0.115 C 
BRANCH  44  45
ATOM     45  C   UNK d   0      11.426  17.119   5.761  0.00  0.00     0.139 C 
ATOM     46  O   UNK d   0      10.186  16.981   5.904  0.00  0.00    -0.650 OA
BRANCH  45  47
ATOM     47  O   UNK d   0      11.946  17.220   4.489  0.00  0.00    -0.776 OA
ATOM     48  H   UNK d   0      12.882  17.612   4.295  0.00  0.00     0.167 HD
ENDBRANCH  45  47
ENDBRANCH  44  45
ENDBRANCH  43  44
ENDBRANCH  27  43
BRANCH  24  49
ATOM     49  C   UNK d   0      13.675  13.919   1.744  0.00  0.00     0.052 C 
BRANCH  49  50
ATOM     50  C   UNK d   0      12.216  14.255   1.569  0.00  0.00     0.115 C 
BRANCH  50  51
ATOM     51  C   UNK d   0      11.880  15.651   1.325  0.00  0.00     0.139 C 
ATOM     52  O   UNK d   0      10.868  16.200   1.820  0.00  0.00    -0.650 OA
BRANCH  51  53
ATOM     53  O   UNK d   0      12.698  16.422   0.512  0.00  0.00    -0.776 OA
ATOM     54  H   UNK d   0      12.913  16.079  -0.408  0.00  0.00     0.167 HD
ENDBRANCH  51  53
ENDBRANCH  50  51
ENDBRANCH  49  50
ENDBRANCH  24  49
BRANCH  21  55
ATOM     55  C   UNK d   0      14.957  11.167   1.173  0.00  0.00     0.151 C 
BRANCH  55  56
ATOM     56  C   UNK d   0      14.105  10.142   0.551  0.00  0.00     0.143 C 
ATOM     57  O   UNK d   0      14.544   9.295  -0.252  0.00  0.00    -0.650 OA
BRANCH  56  58
ATOM     58  O   UNK d   0      12.752  10.132   0.886  0.00  0.00    -0.776 OA
ATOM     59  H   UNK d   0      12.290   9.208   0.808  0.00  0.00     0.167 HD
ENDBRANCH  56  58
ENDBRANCH  55  56
ENDBRANCH  21  55
BRANCH  18  60
ATOM     60  C   UNK d   0      13.981   6.695   3.977  0.00  0.00     0.151 C 
BRANCH  60  61
ATOM     61  C   UNK d   0      15.345   6.351   3.550  0.00  0.00     0.143 C 
ATOM     62  O   UNK d   0      16.170   5.680   4.171  0.00  0.00    -0.650 OA
BRANCH  61  63
ATOM     63  O   UNK d   0      15.727   6.859   2.285  0.00  0.00    -0.776 OA
ATOM     64  H   UNK d   0      15.965   7.827   2.165  0.00  0.00     0.167 HD
ENDBRANCH  61  63
ENDBRANCH  60  61
ENDBRANCH  18  60
BRANCH  14  65
ATOM     65  C   UNK d   0      13.628   5.752   6.840  0.00  0.00     0.052 C 
BRANCH  65  66
ATOM     66  C   UNK d   0      14.833   4.984   7.253  0.00  0.00     0.115 C 
BRANCH  66  67
ATOM     67  C   UNK d   0      14.996   4.601   8.627  0.00  0.00     0.139 C 
ATOM     68  O   UNK d   0      14.065   4.898   9.462  0.00  0.00    -0.650 OA
BRANCH  67  69
ATOM     69  O   UNK d   0      16.071   3.923   9.202  0.00  0.00    -0.776 OA
ATOM     70  H   UNK d   0      15.980   2.897   9.249  0.00  0.00     0.167 HD
ENDBRANCH  67  69
ENDBRANCH  66  67
ENDBRANCH  65  66
ENDBRANCH  14  65
ENDBRANCH   6   7
ENDBRANCH   5   6
ENDBRANCH   2   5
TORSDOF 28
ENDMDL
