MODEL 1
REMARK VINA RESULT:      -6.5      0.000      0.000
REMARK  28 active torsions:
REMARK  status: ('A' for Active; 'I' for Inactive)
REMARK    1  A    between atoms: C_2  and  O_3 
REMARK    2  A    between atoms: C_2  and  C_4 
REMARK    3  A    between atoms: C_4  and  C_5 
REMARK    4  A    between atoms: C_5  and  C_6 
REMARK    5  A    between atoms: C_7  and  C_8 
REMARK    6  A    between atoms: C_8  and  C_9 
REMARK    7  A    between atoms: C_9  and  O_11 
REMARK    8  A    between atoms: C_28  and  C_29 
REMARK    9  A    between atoms: C_29  and  C_30 
REMARK   10  A    between atoms: C_30  and  O_32 
REMARK   11  A    between atoms: C_33  and  C_34 
REMARK   12  A    between atoms: C_34  and  C_35 
REMARK   13  A    between atoms: C_35  and  C_36 
REMARK   14  A    between atoms: C_36  and  O_38 
REMARK   15  A    between atoms: C_39  and  C_40 
REMARK   16  A    between atoms: C_40  and  C_41 
REMARK   17  A    between atoms: C_41  and  C_42 
REMARK   18  A    between atoms: C_42  and  O_44 
REMARK   19  A    between atoms: C_45  and  C_46 
REMARK   20  A    between atoms: C_46  and  C_47 
REMARK   21  A    between atoms: C_47  and  O_49 
REMARK   22  A    between atoms: C_50  and  C_51 
REMARK   23  A    between atoms: C_51  and  C_52 
REMARK   24  A    between atoms: C_52  and  O_54 
REMARK   25  A    between atoms: C_55  and  C_56 
REMARK   26  A    between atoms: C_56  and  C_57 
REMARK   27  A    between atoms: C_57  and  C_58 
REMARK   28  A    between atoms: C_58  and  O_60 
ROOT
ATOM      1  O   UNK d   0      16.906 -17.761  -1.669  0.00  0.00    -0.650 OA
ATOM      2  C   UNK d   0      16.643 -17.140  -0.616  0.00  0.00     0.139 C 
ENDROOT
BRANCH   2   3
ATOM      3  O   UNK d   0      16.781 -17.776   0.594  0.00  0.00    -0.776 OA
ATOM      4  H   UNK d   0      16.415 -17.361   1.454  0.00  0.00     0.167 HD
ENDBRANCH   2   3
BRANCH   2   5
ATOM      5  C   UNK d   0      16.183 -15.723  -0.678  0.00  0.00     0.115 C 
BRANCH   5   6
ATOM      6  C   UNK d   0      14.726 -15.667  -1.047  0.00  0.00     0.052 C 
BRANCH   6   7
ATOM      7  C   UNK d   0      13.819 -16.001   0.113  0.00  0.00    -0.020 A 
ATOM      8  C   UNK d   0      13.011 -17.024   0.227  0.00  0.00    -0.011 A 
ATOM      9  C   UNK d   0      12.339 -16.919   1.511  0.00  0.00     0.067 A 
ATOM     10  C   UNK d   0      11.400 -17.678   2.227  0.00  0.00     0.062 C 
ATOM     11  N   UNK d   0      12.792 -15.799   2.111  0.00  0.00    -0.248 NA
ATOM     12  C   UNK d   0      11.074 -17.563   3.583  0.00  0.00     0.041 A 
ATOM     13  N   UNK d   0      10.871 -16.480   4.357  0.00  0.00    -0.355 N 
ATOM     14  C   UNK d   0      10.974 -18.731   4.360  0.00  0.00    -0.022 A 
ATOM     15  C   UNK d   0      10.653 -16.930   5.607  0.00  0.00     0.042 A 
ATOM     16  H   UNK d   0      10.863 -15.419   4.023  0.00  0.00     0.166 HD
ATOM     17  C   UNK d   0      10.387 -16.226   6.798  0.00  0.00     0.062 C 
ATOM     18  C   UNK d   0      10.710 -18.337   5.648  0.00  0.00    -0.013 A 
ATOM     19  C   UNK d   0      10.999 -15.102   7.291  0.00  0.00     0.067 A 
ATOM     20  N   UNK d   0      11.826 -14.453   6.466  0.00  0.00    -0.248 NA
ATOM     21  C   UNK d   0      11.006 -14.385   8.555  0.00  0.00    -0.011 A 
ATOM     22  C   UNK d   0      12.373 -13.365   7.100  0.00  0.00     0.066 A 
ATOM     23  C   UNK d   0      13.226 -12.576   6.343  0.00  0.00     0.062 C 
ATOM     24  C   UNK d   0      11.815 -13.371   8.438  0.00  0.00    -0.020 A 
ATOM     25  C   UNK d   0      13.530 -12.701   4.978  0.00  0.00     0.041 A 
ATOM     26  N   UNK d   0      13.747 -13.777   4.212  0.00  0.00    -0.355 N 
ATOM     27  C   UNK d   0      13.626 -11.528   4.198  0.00  0.00    -0.022 A 
ATOM     28  C   UNK d   0      13.974 -13.330   2.967  0.00  0.00     0.042 A 
ATOM     29  H   UNK d   0      13.765 -14.841   4.552  0.00  0.00     0.166 HD
ATOM     30  C   UNK d   0      14.249 -14.018   1.775  0.00  0.00     0.062 C 
ATOM     31  C   UNK d   0      13.906 -11.917   2.924  0.00  0.00    -0.013 A 
ATOM     32  C   UNK d   0      13.686 -15.201   1.322  0.00  0.00     0.066 A 
BRANCH   8  33
ATOM     33  C   UNK d   0      12.801 -18.099  -0.760  0.00  0.00     0.151 C 
BRANCH  33  34
ATOM     34  C   UNK d   0      13.673 -19.265  -0.528  0.00  0.00     0.143 C 
ATOM     35  O   UNK d   0      14.274 -19.406   0.546  0.00  0.00    -0.650 OA
BRANCH  34  36
ATOM     36  O   UNK d   0      13.820 -20.206  -1.521  0.00  0.00    -0.776 OA
ATOM     37  H   UNK d   0      13.544 -20.006  -2.492  0.00  0.00     0.167 HD
ENDBRANCH  34  36
ENDBRANCH  33  34
ENDBRANCH   8  33
BRANCH  31  38
ATOM     38  C   UNK d   0      14.085 -11.005   1.733  0.00  0.00     0.151 C 
BRANCH  38  39
ATOM     39  C   UNK d   0      12.853 -10.782   1.006  0.00  0.00     0.143 C 
ATOM     40  O   UNK d   0      12.013  -9.938   1.364  0.00  0.00    -0.650 OA
BRANCH  39  41
ATOM     41  O   UNK d   0      12.587 -11.532  -0.139  0.00  0.00    -0.776 OA
ATOM     42  H   UNK d   0      11.993 -12.359  -0.021  0.00  0.00     0.167 HD
ENDBRANCH  39  41
ENDBRANCH  38  39
ENDBRANCH  31  38
BRANCH  27  43
ATOM     43  C   UNK d   0      13.468 -10.086   4.611  0.00  0.00     0.052 C 
BRANCH  43  44
ATOM     44  C   UNK d   0      14.649  -9.551   5.353  0.00  0.00     0.115 C 
BRANCH  44  45
ATOM     45  C   UNK d   0      14.129  -8.977   6.621  0.00  0.00     0.139 C 
ATOM     46  O   UNK d   0      12.888  -8.829   6.739  0.00  0.00    -0.650 OA
BRANCH  45  47
ATOM     47  O   UNK d   0      14.949  -8.608   7.666  0.00  0.00    -0.776 OA
ATOM     48  H   UNK d   0      14.975  -7.648   8.046  0.00  0.00     0.167 HD
ENDBRANCH  45  47
ENDBRANCH  44  45
ENDBRANCH  43  44
ENDBRANCH  27  43
BRANCH  24  49
ATOM     49  C   UNK d   0      12.091 -12.357   9.469  0.00  0.00     0.052 C 
BRANCH  49  50
ATOM     50  C   UNK d   0      13.226 -12.804  10.354  0.00  0.00     0.115 C 
BRANCH  50  51
ATOM     51  C   UNK d   0      14.471 -12.051  10.268  0.00  0.00     0.139 C 
ATOM     52  O   UNK d   0      15.357 -12.107  11.153  0.00  0.00    -0.650 OA
BRANCH  51  53
ATOM     53  O   UNK d   0      14.704 -11.233   9.173  0.00  0.00    -0.776 OA
ATOM     54  H   UNK d   0      15.624 -11.231   8.769  0.00  0.00     0.167 HD
ENDBRANCH  51  53
ENDBRANCH  50  51
ENDBRANCH  49  50
ENDBRANCH  24  49
BRANCH  21  55
ATOM     55  C   UNK d   0      10.199 -14.784   9.745  0.00  0.00     0.151 C 
BRANCH  55  56
ATOM     56  C   UNK d   0       8.992 -13.957   9.896  0.00  0.00     0.143 C 
ATOM     57  O   UNK d   0       8.326 -13.550   8.924  0.00  0.00    -0.650 OA
BRANCH  56  58
ATOM     58  O   UNK d   0       8.590 -13.625  11.189  0.00  0.00    -0.776 OA
ATOM     59  H   UNK d   0       7.615 -13.284  11.269  0.00  0.00     0.167 HD
ENDBRANCH  56  58
ENDBRANCH  55  56
ENDBRANCH  21  55
BRANCH  18  60
ATOM     60  C   UNK d   0      10.532 -19.271   6.819  0.00  0.00     0.151 C 
BRANCH  60  61
ATOM     61  C   UNK d   0       9.201 -19.875   6.656  0.00  0.00     0.143 C 
ATOM     62  O   UNK d   0       8.117 -19.291   6.643  0.00  0.00    -0.650 OA
BRANCH  61  63
ATOM     63  O   UNK d   0       9.193 -21.282   6.497  0.00  0.00    -0.776 OA
ATOM     64  H   UNK d   0       9.522 -21.888   7.228  0.00  0.00     0.167 HD
ENDBRANCH  61  63
ENDBRANCH  60  61
ENDBRANCH  18  60
BRANCH  14  65
ATOM     65  C   UNK d   0      11.011 -20.180   3.964  0.00  0.00     0.052 C 
BRANCH  65  66
ATOM     66  C   UNK d   0      12.361 -20.787   4.104  0.00  0.00     0.115 C 
BRANCH  66  67
ATOM     67  C   UNK d   0      12.485 -22.181   4.424  0.00  0.00     0.139 C 
ATOM     68  O   UNK d   0      11.675 -22.687   5.285  0.00  0.00    -0.650 OA
BRANCH  67  69
ATOM     69  O   UNK d   0      13.401 -23.097   3.908  0.00  0.00    -0.776 OA
ATOM     70  H   UNK d   0      14.227 -23.284   4.496  0.00  0.00     0.167 HD
ENDBRANCH  67  69
ENDBRANCH  66  67
ENDBRANCH  65  66
ENDBRANCH  14  65
ENDBRANCH   6   7
ENDBRANCH   5   6
ENDBRANCH   2   5
TORSDOF 28
ENDMDL
MODEL 2
REMARK VINA RESULT:      -6.3     18.600     23.055
REMARK  28 active torsions:
REMARK  status: ('A' for Active; 'I' for Inactive)
REMARK    1  A    between atoms: C_2  and  O_3 
REMARK    2  A    between atoms: C_2  and  C_4 
REMARK    3  A    between atoms: C_4  and  C_5 
REMARK    4  A    between atoms: C_5  and  C_6 
REMARK    5  A    between atoms: C_7  and  C_8 
REMARK    6  A    between atoms: C_8  and  C_9 
REMARK    7  A    between atoms: C_9  and  O_11 
REMARK    8  A    between atoms: C_28  and  C_29 
REMARK    9  A    between atoms: C_29  and  C_30 
REMARK   10  A    between atoms: C_30  and  O_32 
REMARK   11  A    between atoms: C_33  and  C_34 
REMARK   12  A    between atoms: C_34  and  C_35 
REMARK   13  A    between atoms: C_35  and  C_36 
REMARK   14  A    between atoms: C_36  and  O_38 
REMARK   15  A    between atoms: C_39  and  C_40 
REMARK   16  A    between atoms: C_40  and  C_41 
REMARK   17  A    between atoms: C_41  and  C_42 
REMARK   18  A    between atoms: C_42  and  O_44 
REMARK   19  A    between atoms: C_45  and  C_46 
REMARK   20  A    between atoms: C_46  and  C_47 
REMARK   21  A    between atoms: C_47  and  O_49 
REMARK   22  A    between atoms: C_50  and  C_51 
REMARK   23  A    between atoms: C_51  and  C_52 
REMARK   24  A    between atoms: C_52  and  O_54 
REMARK   25  A    between atoms: C_55  and  C_56 
REMARK   26  A    between atoms: C_56  and  C_57 
REMARK   27  A    between atoms: C_57  and  C_58 
REMARK   28  A    between atoms: C_58  and  O_60 
ROOT
ATOM      1  O   UNK d   0      14.967   1.149 -14.504  0.00  0.00    -0.650 OA
ATOM      2  C   UNK d   0      15.159   0.897 -13.294  0.00  0.00     0.139 C 
ENDROOT
BRANCH   2   3
ATOM      3  O   UNK d   0      14.103   0.488 -12.515  0.00  0.00    -0.776 OA
ATOM      4  H   UNK d   0      14.250   0.156 -11.559  0.00  0.00     0.167 HD
ENDBRANCH   2   3
BRANCH   2   5
ATOM      5  C   UNK d   0      16.522   1.041 -12.706  0.00  0.00     0.115 C 
BRANCH   5   6
ATOM      6  C   UNK d   0      16.766   2.471 -12.310  0.00  0.00     0.052 C 
BRANCH   6   7
ATOM      7  C   UNK d   0      17.245   2.606 -10.885  0.00  0.00    -0.020 A 
ATOM      8  C   UNK d   0      18.478   2.735 -10.466  0.00  0.00    -0.011 A 
ATOM      9  C   UNK d   0      18.448   2.821  -9.015  0.00  0.00     0.067 A 
ATOM     10  C   UNK d   0      19.394   2.984  -7.991  0.00  0.00     0.062 C 
ATOM     11  N   UNK d   0      17.156   2.729  -8.635  0.00  0.00    -0.248 NA
ATOM     12  C   UNK d   0      19.147   3.324  -6.656  0.00  0.00     0.041 A 
ATOM     13  N   UNK d   0      18.204   2.902  -5.793  0.00  0.00    -0.355 N 
ATOM     14  C   UNK d   0      19.944   4.311  -6.048  0.00  0.00    -0.022 A 
ATOM     15  C   UNK d   0      18.376   3.602  -4.656  0.00  0.00     0.042 A 
ATOM     16  H   UNK d   0      17.443   2.112  -5.978  0.00  0.00     0.166 HD
ATOM     17  C   UNK d   0      17.667   3.555  -3.439  0.00  0.00     0.062 C 
ATOM     18  C   UNK d   0      19.457   4.495  -4.777  0.00  0.00    -0.013 A 
ATOM     19  C   UNK d   0      16.312   3.517  -3.231  0.00  0.00     0.067 A 
ATOM     20  N   UNK d   0      15.542   3.296  -4.300  0.00  0.00    -0.248 NA
ATOM     21  C   UNK d   0      15.424   3.676  -2.091  0.00  0.00    -0.011 A 
ATOM     22  C   UNK d   0      14.216   3.300  -3.942  0.00  0.00     0.066 A 
ATOM     23  C   UNK d   0      13.303   3.044  -4.955  0.00  0.00     0.062 C 
ATOM     24  C   UNK d   0      14.200   3.552  -2.514  0.00  0.00    -0.020 A 
ATOM     25  C   UNK d   0      13.572   2.691  -6.286  0.00  0.00     0.041 A 
ATOM     26  N   UNK d   0      14.501   3.122  -7.149  0.00  0.00    -0.355 N 
ATOM     27  C   UNK d   0      12.775   1.697  -6.895  0.00  0.00    -0.022 A 
ATOM     28  C   UNK d   0      14.325   2.432  -8.287  0.00  0.00     0.042 A 
ATOM     29  H   UNK d   0      15.257   3.923  -6.965  0.00  0.00     0.166 HD
ATOM     30  C   UNK d   0      15.017   2.474  -9.508  0.00  0.00     0.062 C 
ATOM     31  C   UNK d   0      13.245   1.527  -8.161  0.00  0.00    -0.013 A 
ATOM     32  C   UNK d   0      16.382   2.599  -9.713  0.00  0.00     0.066 A 
BRANCH   8  33
ATOM     33  C   UNK d   0      19.695   2.782 -11.297  0.00  0.00     0.151 C 
BRANCH  33  34
ATOM     34  C   UNK d   0      19.917   4.105 -11.908  0.00  0.00     0.143 C 
ATOM     35  O   UNK d   0      20.010   4.231 -13.138  0.00  0.00    -0.650 OA
BRANCH  34  36
ATOM     36  O   UNK d   0      20.025   5.213 -11.100  0.00  0.00    -0.776 OA
ATOM     37  H   UNK d   0      20.491   6.070 -11.427  0.00  0.00     0.167 HD
ENDBRANCH  34  36
ENDBRANCH  33  34
ENDBRANCH   8  33
BRANCH  31  38
ATOM     38  C   UNK d   0      12.711   0.554  -9.186  0.00  0.00     0.151 C 
BRANCH  38  39
ATOM     39  C   UNK d   0      11.655   1.118  -9.999  0.00  0.00     0.143 C 
ATOM     40  O   UNK d   0      11.886   1.758 -11.039  0.00  0.00    -0.650 OA
BRANCH  39  41
ATOM     41  O   UNK d   0      10.326   0.944  -9.614  0.00  0.00    -0.776 OA
ATOM     42  H   UNK d   0      10.019  -0.017  -9.435  0.00  0.00     0.167 HD
ENDBRANCH  39  41
ENDBRANCH  38  39
ENDBRANCH  31  38
BRANCH  27  43
ATOM     43  C   UNK d   0      11.609   0.925  -6.330  0.00  0.00     0.052 C 
BRANCH  43  44
ATOM     44  C   UNK d   0      10.352   1.729  -6.247  0.00  0.00     0.115 C 
BRANCH  44  45
ATOM     45  C   UNK d   0       9.225   0.769  -6.381  0.00  0.00     0.139 C 
ATOM     46  O   UNK d   0       8.914   0.079  -5.380  0.00  0.00    -0.650 OA
BRANCH  45  47
ATOM     47  O   UNK d   0       8.512   0.613  -7.550  0.00  0.00    -0.776 OA
ATOM     48  H   UNK d   0       8.947   0.671  -8.485  0.00  0.00     0.167 HD
ENDBRANCH  45  47
ENDBRANCH  44  45
ENDBRANCH  43  44
ENDBRANCH  27  43
BRANCH  24  49
ATOM     49  C   UNK d   0      12.984   3.605  -1.684  0.00  0.00     0.052 C 
BRANCH  49  50
ATOM     50  C   UNK d   0      12.823   2.323  -0.908  0.00  0.00     0.115 C 
BRANCH  50  51
ATOM     51  C   UNK d   0      11.739   1.435  -1.308  0.00  0.00     0.139 C 
ATOM     52  O   UNK d   0      11.024   0.824  -0.479  0.00  0.00    -0.650 OA
BRANCH  51  53
ATOM     53  O   UNK d   0      11.472   1.243  -2.655  0.00  0.00    -0.776 OA
ATOM     54  H   UNK d   0      10.511   1.180  -2.945  0.00  0.00     0.167 HD
ENDBRANCH  51  53
ENDBRANCH  50  51
ENDBRANCH  49  50
ENDBRANCH  24  49
BRANCH  21  55
ATOM     55  C   UNK d   0      15.894   3.930  -0.697  0.00  0.00     0.151 C 
BRANCH  55  56
ATOM     56  C   UNK d   0      15.965   5.367  -0.393  0.00  0.00     0.143 C 
ATOM     57  O   UNK d   0      16.992   6.047  -0.582  0.00  0.00    -0.650 OA
BRANCH  56  58
ATOM     58  O   UNK d   0      14.825   5.978   0.129  0.00  0.00    -0.776 OA
ATOM     59  H   UNK d   0      13.944   5.753  -0.368  0.00  0.00     0.167 HD
ENDBRANCH  56  58
ENDBRANCH  55  56
ENDBRANCH  21  55
BRANCH  18  60
ATOM     60  C   UNK d   0      20.013   5.474  -3.772  0.00  0.00     0.151 C 
BRANCH  60  61
ATOM     61  C   UNK d   0      19.225   6.706  -3.929  0.00  0.00     0.143 C 
ATOM     62  O   UNK d   0      19.336   7.548  -4.820  0.00  0.00    -0.650 OA
BRANCH  61  63
ATOM     63  O   UNK d   0      18.240   6.921  -2.936  0.00  0.00    -0.776 OA
ATOM     64  H   UNK d   0      17.515   7.604  -3.064  0.00  0.00     0.167 HD
ENDBRANCH  61  63
ENDBRANCH  60  61
ENDBRANCH  18  60
BRANCH  14  65
ATOM     65  C   UNK d   0      21.178   5.015  -6.537  0.00  0.00     0.052 C 
BRANCH  65  66
ATOM     66  C   UNK d   0      20.994   5.654  -7.867  0.00  0.00     0.115 C 
BRANCH  66  67
ATOM     67  C   UNK d   0      20.595   7.031  -7.946  0.00  0.00     0.139 C 
ATOM     68  O   UNK d   0      19.779   7.381  -8.877  0.00  0.00    -0.650 OA
BRANCH  67  69
ATOM     69  O   UNK d   0      20.988   8.082  -7.119  0.00  0.00    -0.776 OA
ATOM     70  H   UNK d   0      21.285   8.944  -7.600  0.00  0.00     0.167 HD
ENDBRANCH  67  69
ENDBRANCH  66  67
ENDBRANCH  65  66
ENDBRANCH  14  65
ENDBRANCH   6   7
ENDBRANCH   5   6
ENDBRANCH   2   5
TORSDOF 28
ENDMDL
MODEL 3
REMARK VINA RESULT:      -6.2     10.440     15.961
REMARK  28 active torsions:
REMARK  status: ('A' for Active; 'I' for Inactive)
REMARK    1  A    between atoms: C_2  and  O_3 
REMARK    2  A    between atoms: C_2  and  C_4 
REMARK    3  A    between atoms: C_4  and  C_5 
REMARK    4  A    between atoms: C_5  and  C_6 
REMARK    5  A    between atoms: C_7  and  C_8 
REMARK    6  A    between atoms: C_8  and  C_9 
REMARK    7  A    between atoms: C_9  and  O_11 
REMARK    8  A    between atoms: C_28  and  C_29 
REMARK    9  A    between atoms: C_29  and  C_30 
REMARK   10  A    between atoms: C_30  and  O_32 
REMARK   11  A    between atoms: C_33  and  C_34 
REMARK   12  A    between atoms: C_34  and  C_35 
REMARK   13  A    between atoms: C_35  and  C_36 
REMARK   14  A    between atoms: C_36  and  O_38 
REMARK   15  A    between atoms: C_39  and  C_40 
REMARK   16  A    between atoms: C_40  and  C_41 
REMARK   17  A    between atoms: C_41  and  C_42 
REMARK   18  A    between atoms: C_42  and  O_44 
REMARK   19  A    between atoms: C_45  and  C_46 
REMARK   20  A    between atoms: C_46  and  C_47 
REMARK   21  A    between atoms: C_47  and  O_49 
REMARK   22  A    between atoms: C_50  and  C_51 
REMARK   23  A    between atoms: C_51  and  C_52 
REMARK   24  A    between atoms: C_52  and  O_54 
REMARK   25  A    between atoms: C_55  and  C_56 
REMARK   26  A    between atoms: C_56  and  C_57 
REMARK   27  A    between atoms: C_57  and  C_58 
REMARK   28  A    between atoms: C_58  and  O_60 
ROOT
ATOM      1  O   UNK d   0      14.227  -7.806   3.141  0.00  0.00    -0.650 OA
ATOM      2  C   UNK d   0      13.168  -7.177   3.363  0.00  0.00     0.139 C 
ENDROOT
BRANCH   2   3
ATOM      3  O   UNK d   0      12.346  -7.584   4.387  0.00  0.00    -0.776 OA
ATOM      4  H   UNK d   0      12.474  -7.232   5.338  0.00  0.00     0.167 HD
ENDBRANCH   2   3
BRANCH   2   5
ATOM      5  C   UNK d   0      12.806  -6.000   2.524  0.00  0.00     0.115 C 
BRANCH   5   6
ATOM      6  C   UNK d   0      13.865  -5.762   1.482  0.00  0.00     0.052 C 
BRANCH   6   7
ATOM      7  C   UNK d   0      13.294  -5.644   0.089  0.00  0.00    -0.020 A 
ATOM      8  C   UNK d   0      13.042  -6.612  -0.755  0.00  0.00    -0.011 A 
ATOM      9  C   UNK d   0      12.510  -6.016  -1.969  0.00  0.00     0.067 A 
ATOM     10  C   UNK d   0      12.037  -6.486  -3.204  0.00  0.00     0.062 C 
ATOM     11  N   UNK d   0      12.477  -4.680  -1.779  0.00  0.00    -0.248 NA
ATOM     12  C   UNK d   0      11.298  -5.773  -4.155  0.00  0.00     0.041 A 
ATOM     13  N   UNK d   0      11.430  -4.517  -4.620  0.00  0.00    -0.355 N 
ATOM     14  C   UNK d   0      10.172  -6.383  -4.737  0.00  0.00    -0.022 A 
ATOM     15  C   UNK d   0      10.411  -4.310  -5.477  0.00  0.00     0.042 A 
ATOM     16  H   UNK d   0      12.237  -3.796  -4.364  0.00  0.00     0.166 HD
ATOM     17  C   UNK d   0      10.076  -3.174  -6.240  0.00  0.00     0.062 C 
ATOM     18  C   UNK d   0       9.601  -5.458  -5.576  0.00  0.00    -0.013 A 
ATOM     19  C   UNK d   0      10.046  -1.857  -5.859  0.00  0.00     0.067 A 
ATOM     20  N   UNK d   0      10.588  -1.558  -4.676  0.00  0.00    -0.248 NA
ATOM     21  C   UNK d   0       9.540  -0.617  -6.424  0.00  0.00    -0.011 A 
ATOM     22  C   UNK d   0      10.471  -0.212  -4.425  0.00  0.00     0.066 A 
ATOM     23  C   UNK d   0      11.028   0.244  -3.240  0.00  0.00     0.062 C 
ATOM     24  C   UNK d   0       9.787   0.341  -5.578  0.00  0.00    -0.020 A 
ATOM     25  C   UNK d   0      11.778  -0.485  -2.304  0.00  0.00     0.041 A 
ATOM     26  N   UNK d   0      11.639  -1.729  -1.831  0.00  0.00    -0.355 N 
ATOM     27  C   UNK d   0      12.911   0.126  -1.724  0.00  0.00    -0.022 A 
ATOM     28  C   UNK d   0      12.648  -1.934  -0.970  0.00  0.00     0.042 A 
ATOM     29  H   UNK d   0      10.820  -2.448  -2.082  0.00  0.00     0.166 HD
ATOM     30  C   UNK d   0      12.988  -3.055  -0.197  0.00  0.00     0.062 C 
ATOM     31  C   UNK d   0      13.468  -0.784  -0.879  0.00  0.00    -0.013 A 
ATOM     32  C   UNK d   0      12.935  -4.392  -0.560  0.00  0.00     0.066 A 
BRANCH   8  33
ATOM     33  C   UNK d   0      13.257  -8.054  -0.537  0.00  0.00     0.151 C 
BRANCH  33  34
ATOM     34  C   UNK d   0      12.165  -8.686   0.224  0.00  0.00     0.143 C 
ATOM     35  O   UNK d   0      12.318  -9.794   0.758  0.00  0.00    -0.650 OA
BRANCH  34  36
ATOM     36  O   UNK d   0      10.959  -8.034   0.342  0.00  0.00    -0.776 OA
ATOM     37  H   UNK d   0      10.887  -7.124   0.816  0.00  0.00     0.167 HD
ENDBRANCH  34  36
ENDBRANCH  33  34
ENDBRANCH   8  33
BRANCH  31  38
ATOM     38  C   UNK d   0      14.711  -0.582  -0.044  0.00  0.00     0.151 C 
BRANCH  38  39
ATOM     39  C   UNK d   0      14.419  -0.387   1.360  0.00  0.00     0.143 C 
ATOM     40  O   UNK d   0      15.179  -0.786   2.260  0.00  0.00    -0.650 OA
BRANCH  39  41
ATOM     41  O   UNK d   0      13.247   0.271   1.732  0.00  0.00    -0.776 OA
ATOM     42  H   UNK d   0      12.398   0.035   1.208  0.00  0.00     0.167 HD
ENDBRANCH  39  41
ENDBRANCH  38  39
ENDBRANCH  31  38
BRANCH  27  43
ATOM     43  C   UNK d   0      13.468   1.511  -1.938  0.00  0.00     0.052 C 
BRANCH  43  44
ATOM     44  C   UNK d   0      12.966   2.509  -0.945  0.00  0.00     0.115 C 
BRANCH  44  45
ATOM     45  C   UNK d   0      13.362   3.849  -1.453  0.00  0.00     0.139 C 
ATOM     46  O   UNK d   0      14.072   4.575  -0.714  0.00  0.00    -0.650 OA
BRANCH  45  47
ATOM     47  O   UNK d   0      12.990   4.318  -2.694  0.00  0.00    -0.776 OA
ATOM     48  H   UNK d   0      12.067   4.120  -3.114  0.00  0.00     0.167 HD
ENDBRANCH  45  47
ENDBRANCH  44  45
ENDBRANCH  43  44
ENDBRANCH  27  43
BRANCH  24  49
ATOM     49  C   UNK d   0       9.477   1.768  -5.767  0.00  0.00     0.052 C 
BRANCH  49  50
ATOM     50  C   UNK d   0      10.527   2.423  -6.629  0.00  0.00     0.115 C 
BRANCH  50  51
ATOM     51  C   UNK d   0      11.918   2.229  -6.244  0.00  0.00     0.139 C 
ATOM     52  O   UNK d   0      12.707   1.509  -6.901  0.00  0.00    -0.650 OA
BRANCH  51  53
ATOM     53  O   UNK d   0      12.410   2.855  -5.109  0.00  0.00    -0.776 OA
ATOM     54  H   UNK d   0      11.751   3.226  -4.448  0.00  0.00     0.167 HD
ENDBRANCH  51  53
ENDBRANCH  50  51
ENDBRANCH  49  50
ENDBRANCH  24  49
BRANCH  21  55
ATOM     55  C   UNK d   0       8.865  -0.519  -7.752  0.00  0.00     0.151 C 
BRANCH  55  56
ATOM     56  C   UNK d   0       9.831  -0.468  -8.859  0.00  0.00     0.143 C 
ATOM     57  O   UNK d   0      10.500  -1.457  -9.218  0.00  0.00    -0.650 OA
BRANCH  56  58
ATOM     58  O   UNK d   0       9.993   0.747  -9.524  0.00  0.00    -0.776 OA
ATOM     59  H   UNK d   0       9.433   1.531  -9.142  0.00  0.00     0.167 HD
ENDBRANCH  56  58
ENDBRANCH  55  56
ENDBRANCH  21  55
BRANCH  18  60
ATOM     60  C   UNK d   0       8.359  -5.689  -6.401  0.00  0.00     0.151 C 
BRANCH  60  61
ATOM     61  C   UNK d   0       8.813  -6.336  -7.641  0.00  0.00     0.143 C 
ATOM     62  O   UNK d   0       9.863  -6.122  -8.248  0.00  0.00    -0.650 OA
BRANCH  61  63
ATOM     63  O   UNK d   0       7.930  -7.306  -8.173  0.00  0.00    -0.776 OA
ATOM     64  H   UNK d   0       7.750  -7.358  -9.160  0.00  0.00     0.167 HD
ENDBRANCH  61  63
ENDBRANCH  60  61
ENDBRANCH  18  60
BRANCH  14  65
ATOM     65  C   UNK d   0       9.656  -7.790  -4.637  0.00  0.00     0.052 C 
BRANCH  65  66
ATOM     66  C   UNK d   0       8.696  -7.980  -3.517  0.00  0.00     0.115 C 
BRANCH  66  67
ATOM     67  C   UNK d   0       9.106  -8.694  -2.341  0.00  0.00     0.139 C 
ATOM     68  O   UNK d   0      10.153  -9.438  -2.409  0.00  0.00    -0.650 OA
BRANCH  67  69
ATOM     69  O   UNK d   0       8.499  -8.691  -1.085  0.00  0.00    -0.776 OA
ATOM     70  H   UNK d   0       9.118  -8.480  -0.289  0.00  0.00     0.167 HD
ENDBRANCH  67  69
ENDBRANCH  66  67
ENDBRANCH  65  66
ENDBRANCH  14  65
ENDBRANCH   6   7
ENDBRANCH   5   6
ENDBRANCH   2   5
TORSDOF 28
ENDMDL
MODEL 4
REMARK VINA RESULT:      -6.2      2.159      7.271
REMARK  28 active torsions:
REMARK  status: ('A' for Active; 'I' for Inactive)
REMARK    1  A    between atoms: C_2  and  O_3 
REMARK    2  A    between atoms: C_2  and  C_4 
REMARK    3  A    between atoms: C_4  and  C_5 
REMARK    4  A    between atoms: C_5  and  C_6 
REMARK    5  A    between atoms: C_7  and  C_8 
REMARK    6  A    between atoms: C_8  and  C_9 
REMARK    7  A    between atoms: C_9  and  O_11 
REMARK    8  A    between atoms: C_28  and  C_29 
REMARK    9  A    between atoms: C_29  and  C_30 
REMARK   10  A    between atoms: C_30  and  O_32 
REMARK   11  A    between atoms: C_33  and  C_34 
REMARK   12  A    between atoms: C_34  and  C_35 
REMARK   13  A    between atoms: C_35  and  C_36 
REMARK   14  A    between atoms: C_36  and  O_38 
REMARK   15  A    between atoms: C_39  and  C_40 
REMARK   16  A    between atoms: C_40  and  C_41 
REMARK   17  A    between atoms: C_41  and  C_42 
REMARK   18  A    between atoms: C_42  and  O_44 
REMARK   19  A    between atoms: C_45  and  C_46 
REMARK   20  A    between atoms: C_46  and  C_47 
REMARK   21  A    between atoms: C_47  and  O_49 
REMARK   22  A    between atoms: C_50  and  C_51 
REMARK   23  A    between atoms: C_51  and  C_52 
REMARK   24  A    between atoms: C_52  and  O_54 
REMARK   25  A    between atoms: C_55  and  C_56 
REMARK   26  A    between atoms: C_56  and  C_57 
REMARK   27  A    between atoms: C_57  and  C_58 
REMARK   28  A    between atoms: C_58  and  O_60 
ROOT
ATOM      1  O   UNK d   0      13.730 -21.541   3.611  0.00  0.00    -0.650 OA
ATOM      2  C   UNK d   0      14.710 -20.764   3.607  0.00  0.00     0.139 C 
ENDROOT
BRANCH   2   3
ATOM      3  O   UNK d   0      15.982 -21.283   3.618  0.00  0.00    -0.776 OA
ATOM      4  H   UNK d   0      16.139 -22.292   3.660  0.00  0.00     0.167 HD
ENDBRANCH   2   3
BRANCH   2   5
ATOM      5  C   UNK d   0      14.495 -19.289   3.592  0.00  0.00     0.115 C 
BRANCH   5   6
ATOM      6  C   UNK d   0      13.027 -18.979   3.715  0.00  0.00     0.052 C 
BRANCH   6   7
ATOM      7  C   UNK d   0      12.766 -17.694   4.465  0.00  0.00    -0.020 A 
ATOM      8  C   UNK d   0      12.296 -17.560   5.679  0.00  0.00    -0.011 A 
ATOM      9  C   UNK d   0      12.208 -16.139   5.967  0.00  0.00     0.067 A 
ATOM     10  C   UNK d   0      11.818 -15.350   7.061  0.00  0.00     0.062 C 
ATOM     11  N   UNK d   0      12.638 -15.480   4.871  0.00  0.00    -0.248 NA
ATOM     12  C   UNK d   0      12.065 -13.986   7.253  0.00  0.00     0.041 A 
ATOM     13  N   UNK d   0      11.991 -12.944   6.403  0.00  0.00    -0.355 N 
ATOM     14  C   UNK d   0      12.527 -13.548   8.507  0.00  0.00    -0.022 A 
ATOM     15  C   UNK d   0      12.402 -11.857   7.084  0.00  0.00     0.042 A 
ATOM     16  H   UNK d   0      11.637 -12.972   5.349  0.00  0.00     0.166 HD
ATOM     17  C   UNK d   0      12.518 -10.513   6.676  0.00  0.00     0.062 C 
ATOM     18  C   UNK d   0      12.747 -12.197   8.407  0.00  0.00    -0.013 A 
ATOM     19  C   UNK d   0      13.045 -10.007   5.515  0.00  0.00     0.067 A 
ATOM     20  N   UNK d   0      13.312 -10.881   4.541  0.00  0.00    -0.248 NA
ATOM     21  C   UNK d   0      13.431  -8.693   5.029  0.00  0.00    -0.011 A 
ATOM     22  C   UNK d   0      13.846 -10.234   3.454  0.00  0.00     0.066 A 
ATOM     23  C   UNK d   0      14.137 -11.021   2.349  0.00  0.00     0.062 C 
ATOM     24  C   UNK d   0      13.903  -8.833   3.824  0.00  0.00    -0.020 A 
ATOM     25  C   UNK d   0      13.868 -12.387   2.172  0.00  0.00     0.041 A 
ATOM     26  N   UNK d   0      13.956 -13.425   3.012  0.00  0.00    -0.355 N 
ATOM     27  C   UNK d   0      13.400 -12.825   0.914  0.00  0.00    -0.022 A 
ATOM     28  C   UNK d   0      13.556 -14.512   2.332  0.00  0.00     0.042 A 
ATOM     29  H   UNK d   0      14.322 -13.397   4.067  0.00  0.00     0.166 HD
ATOM     30  C   UNK d   0      13.444 -15.855   2.723  0.00  0.00     0.062 C 
ATOM     31  C   UNK d   0      13.199 -14.168   1.007  0.00  0.00    -0.013 A 
ATOM     32  C   UNK d   0      12.989 -16.359   3.931  0.00  0.00     0.066 A 
BRANCH   8  33
ATOM     33  C   UNK d   0      11.913 -18.643   6.604  0.00  0.00     0.151 C 
BRANCH  33  34
ATOM     34  C   UNK d   0      10.465 -18.915   6.596  0.00  0.00     0.143 C 
ATOM     35  O   UNK d   0       9.934 -19.567   7.507  0.00  0.00    -0.650 OA
BRANCH  34  36
ATOM     36  O   UNK d   0       9.694 -18.439   5.560  0.00  0.00    -0.776 OA
ATOM     37  H   UNK d   0       9.993 -18.542   4.581  0.00  0.00     0.167 HD
ENDBRANCH  34  36
ENDBRANCH  33  34
ENDBRANCH   8  33
BRANCH  31  38
ATOM     38  C   UNK d   0      12.687 -15.070  -0.091  0.00  0.00     0.151 C 
BRANCH  38  39
ATOM     39  C   UNK d   0      13.746 -15.595  -0.927  0.00  0.00     0.143 C 
ATOM     40  O   UNK d   0      14.112 -15.028  -1.972  0.00  0.00    -0.650 OA
BRANCH  39  41
ATOM     41  O   UNK d   0      14.389 -16.777  -0.560  0.00  0.00    -0.776 OA
ATOM     42  H   UNK d   0      15.360 -16.889  -0.867  0.00  0.00     0.167 HD
ENDBRANCH  39  41
ENDBRANCH  38  39
ENDBRANCH  31  38
BRANCH  27  43
ATOM     43  C   UNK d   0      13.146 -12.031  -0.343  0.00  0.00     0.052 C 
BRANCH  43  44
ATOM     44  C   UNK d   0      11.712 -11.650  -0.522  0.00  0.00     0.115 C 
BRANCH  44  45
ATOM     45  C   UNK d   0      11.545 -10.317   0.114  0.00  0.00     0.139 C 
ATOM     46  O   UNK d   0      12.032  -9.318  -0.471  0.00  0.00    -0.650 OA
BRANCH  45  47
ATOM     47  O   UNK d   0      10.877 -10.136   1.306  0.00  0.00    -0.776 OA
ATOM     48  H   UNK d   0       9.976 -10.593   1.518  0.00  0.00     0.167 HD
ENDBRANCH  45  47
ENDBRANCH  44  45
ENDBRANCH  43  44
ENDBRANCH  27  43
BRANCH  24  49
ATOM     49  C   UNK d   0      14.374  -7.749   2.945  0.00  0.00     0.052 C 
BRANCH  49  50
ATOM     50  C   UNK d   0      15.881  -7.728   2.900  0.00  0.00     0.115 C 
BRANCH  50  51
ATOM     51  C   UNK d   0      16.544  -6.540   3.421  0.00  0.00     0.139 C 
ATOM     52  O   UNK d   0      17.792  -6.443   3.503  0.00  0.00    -0.650 OA
BRANCH  51  53
ATOM     53  O   UNK d   0      15.785  -5.463   3.853  0.00  0.00    -0.776 OA
ATOM     54  H   UNK d   0      15.010  -5.643   4.467  0.00  0.00     0.167 HD
ENDBRANCH  51  53
ENDBRANCH  50  51
ENDBRANCH  49  50
ENDBRANCH  24  49
BRANCH  21  55
ATOM     55  C   UNK d   0      13.284  -7.434   5.818  0.00  0.00     0.151 C 
BRANCH  55  56
ATOM     56  C   UNK d   0      14.414  -7.224   6.737  0.00  0.00     0.143 C 
ATOM     57  O   UNK d   0      15.291  -6.361   6.541  0.00  0.00    -0.650 OA
BRANCH  56  58
ATOM     58  O   UNK d   0      14.490  -8.035   7.868  0.00  0.00    -0.776 OA
ATOM     59  H   UNK d   0      15.422  -8.450   8.046  0.00  0.00     0.167 HD
ENDBRANCH  56  58
ENDBRANCH  55  56
ENDBRANCH  21  55
BRANCH  18  60
ATOM     60  C   UNK d   0      13.256 -11.319   9.523  0.00  0.00     0.151 C 
BRANCH  60  61
ATOM     61  C   UNK d   0      14.713 -11.521   9.563  0.00  0.00     0.143 C 
ATOM     62  O   UNK d   0      15.362 -12.066  10.456  0.00  0.00    -0.650 OA
BRANCH  61  63
ATOM     63  O   UNK d   0      15.421 -11.028   8.441  0.00  0.00    -0.776 OA
ATOM     64  H   UNK d   0      15.981 -10.196   8.506  0.00  0.00     0.167 HD
ENDBRANCH  61  63
ENDBRANCH  60  61
ENDBRANCH  18  60
BRANCH  14  65
ATOM     65  C   UNK d   0      12.682 -14.285   9.807  0.00  0.00     0.052 C 
BRANCH  65  66
ATOM     66  C   UNK d   0      11.628 -13.941  10.799  0.00  0.00     0.115 C 
BRANCH  66  67
ATOM     67  C   UNK d   0      12.003 -13.498  12.112  0.00  0.00     0.139 C 
ATOM     68  O   UNK d   0      11.135 -13.574  13.058  0.00  0.00    -0.650 OA
BRANCH  67  69
ATOM     69  O   UNK d   0      13.231 -12.974  12.518  0.00  0.00    -0.776 OA
ATOM     70  H   UNK d   0      13.841 -13.618  13.042  0.00  0.00     0.167 HD
ENDBRANCH  67  69
ENDBRANCH  66  67
ENDBRANCH  65  66
ENDBRANCH  14  65
ENDBRANCH   6   7
ENDBRANCH   5   6
ENDBRANCH   2   5
TORSDOF 28
ENDMDL
MODEL 5
REMARK VINA RESULT:      -6.1     28.355     31.307
REMARK  28 active torsions:
REMARK  status: ('A' for Active; 'I' for Inactive)
REMARK    1  A    between atoms: C_2  and  O_3 
REMARK    2  A    between atoms: C_2  and  C_4 
REMARK    3  A    between atoms: C_4  and  C_5 
REMARK    4  A    between atoms: C_5  and  C_6 
REMARK    5  A    between atoms: C_7  and  C_8 
REMARK    6  A    between atoms: C_8  and  C_9 
REMARK    7  A    between atoms: C_9  and  O_11 
REMARK    8  A    between atoms: C_28  and  C_29 
REMARK    9  A    between atoms: C_29  and  C_30 
REMARK   10  A    between atoms: C_30  and  O_32 
REMARK   11  A    between atoms: C_33  and  C_34 
REMARK   12  A    between atoms: C_34  and  C_35 
REMARK   13  A    between atoms: C_35  and  C_36 
REMARK   14  A    between atoms: C_36  and  O_38 
REMARK   15  A    between atoms: C_39  and  C_40 
REMARK   16  A    between atoms: C_40  and  C_41 
REMARK   17  A    between atoms: C_41  and  C_42 
REMARK   18  A    between atoms: C_42  and  O_44 
REMARK   19  A    between atoms: C_45  and  C_46 
REMARK   20  A    between atoms: C_46  and  C_47 
REMARK   21  A    between atoms: C_47  and  O_49 
REMARK   22  A    between atoms: C_50  and  C_51 
REMARK   23  A    between atoms: C_51  and  C_52 
REMARK   24  A    between atoms: C_52  and  O_54 
REMARK   25  A    between atoms: C_55  and  C_56 
REMARK   26  A    between atoms: C_56  and  C_57 
REMARK   27  A    between atoms: C_57  and  C_58 
REMARK   28  A    between atoms: C_58  and  O_60 
ROOT
ATOM      1  O   UNK d   0     -18.766   1.279  -3.404  0.00  0.00    -0.650 OA
ATOM      2  C   UNK d   0     -17.715   0.621  -3.241  0.00  0.00     0.139 C 
ENDROOT
BRANCH   2   3
ATOM      3  O   UNK d   0     -16.813   0.523  -4.273  0.00  0.00    -0.776 OA
ATOM      4  H   UNK d   0     -16.539   1.345  -4.814  0.00  0.00     0.167 HD
ENDBRANCH   2   3
BRANCH   2   5
ATOM      5  C   UNK d   0     -17.447  -0.050  -1.937  0.00  0.00     0.115 C 
BRANCH   5   6
ATOM      6  C   UNK d   0     -18.562  -1.005  -1.608  0.00  0.00     0.052 C 
BRANCH   6   7
ATOM      7  C   UNK d   0     -18.058  -2.365  -1.187  0.00  0.00    -0.020 A 
ATOM      8  C   UNK d   0     -18.015  -3.457  -1.905  0.00  0.00    -0.011 A 
ATOM      9  C   UNK d   0     -17.460  -4.514  -1.076  0.00  0.00     0.067 A 
ATOM     10  C   UNK d   0     -17.140  -5.870  -1.243  0.00  0.00     0.062 C 
ATOM     11  N   UNK d   0     -17.199  -3.977   0.135  0.00  0.00    -0.248 NA
ATOM     12  C   UNK d   0     -16.348  -6.663  -0.406  0.00  0.00     0.041 A 
ATOM     13  N   UNK d   0     -16.298  -6.760   0.937  0.00  0.00    -0.355 N 
ATOM     14  C   UNK d   0     -15.370  -7.495  -0.981  0.00  0.00    -0.022 A 
ATOM     15  C   UNK d   0     -15.308  -7.626   1.227  0.00  0.00     0.042 A 
ATOM     16  H   UNK d   0     -16.961  -6.242   1.663  0.00  0.00     0.166 HD
ATOM     17  C   UNK d   0     -14.834  -8.086   2.472  0.00  0.00     0.062 C 
ATOM     18  C   UNK d   0     -14.703  -8.107   0.051  0.00  0.00    -0.013 A 
ATOM     19  C   UNK d   0     -14.569  -7.371   3.612  0.00  0.00     0.067 A 
ATOM     20  N   UNK d   0     -14.988  -6.104   3.642  0.00  0.00    -0.248 NA
ATOM     21  C   UNK d   0     -13.898  -7.631   4.875  0.00  0.00    -0.011 A 
ATOM     22  C   UNK d   0     -14.639  -5.515   4.833  0.00  0.00     0.066 A 
ATOM     23  C   UNK d   0     -15.047  -4.202   5.014  0.00  0.00     0.062 C 
ATOM     24  C   UNK d   0     -13.939  -6.539   5.583  0.00  0.00    -0.020 A 
ATOM     25  C   UNK d   0     -15.853  -3.427   4.166  0.00  0.00     0.041 A 
ATOM     26  N   UNK d   0     -15.893  -3.319   2.833  0.00  0.00    -0.355 N 
ATOM     27  C   UNK d   0     -16.837  -2.595   4.745  0.00  0.00    -0.022 A 
ATOM     28  C   UNK d   0     -16.873  -2.450   2.540  0.00  0.00     0.042 A 
ATOM     29  H   UNK d   0     -15.219  -3.833   2.104  0.00  0.00     0.166 HD
ATOM     30  C   UNK d   0     -17.349  -1.976   1.308  0.00  0.00     0.062 C 
ATOM     31  C   UNK d   0     -17.488  -1.974   3.723  0.00  0.00    -0.013 A 
ATOM     32  C   UNK d   0     -17.535  -2.687   0.133  0.00  0.00     0.066 A 
BRANCH   8  33
ATOM     33  C   UNK d   0     -18.450  -3.614  -3.306  0.00  0.00     0.151 C 
BRANCH  33  34
ATOM     34  C   UNK d   0     -17.353  -3.417  -4.270  0.00  0.00     0.143 C 
ATOM     35  O   UNK d   0     -17.322  -2.419  -5.004  0.00  0.00    -0.650 OA
BRANCH  34  36
ATOM     36  O   UNK d   0     -16.353  -4.358  -4.356  0.00  0.00    -0.776 OA
ATOM     37  H   UNK d   0     -16.301  -5.144  -3.694  0.00  0.00     0.167 HD
ENDBRANCH  34  36
ENDBRANCH  33  34
ENDBRANCH   8  33
BRANCH  31  38
ATOM     38  C   UNK d   0     -18.633  -0.998   3.858  0.00  0.00     0.151 C 
BRANCH  38  39
ATOM     39  C   UNK d   0     -18.188   0.360   4.089  0.00  0.00     0.143 C 
ATOM     40  O   UNK d   0     -18.943   1.239   4.541  0.00  0.00    -0.650 OA
BRANCH  39  41
ATOM     41  O   UNK d   0     -16.870   0.709   3.799  0.00  0.00    -0.776 OA
ATOM     42  H   UNK d   0     -16.615   1.694   3.924  0.00  0.00     0.167 HD
ENDBRANCH  39  41
ENDBRANCH  38  39
ENDBRANCH  31  38
BRANCH  27  43
ATOM     43  C   UNK d   0     -17.171  -2.375   6.199  0.00  0.00     0.052 C 
BRANCH  43  44
ATOM     44  C   UNK d   0     -16.197  -1.485   6.900  0.00  0.00     0.115 C 
BRANCH  44  45
ATOM     45  C   UNK d   0     -16.876  -0.176   7.086  0.00  0.00     0.139 C 
ATOM     46  O   UNK d   0     -16.190   0.869   6.967  0.00  0.00    -0.650 OA
BRANCH  45  47
ATOM     47  O   UNK d   0     -18.219  -0.065   7.377  0.00  0.00    -0.776 OA
ATOM     48  H   UNK d   0     -18.586   0.582   8.093  0.00  0.00     0.167 HD
ENDBRANCH  45  47
ENDBRANCH  44  45
ENDBRANCH  43  44
ENDBRANCH  27  43
BRANCH  24  49
ATOM     49  C   UNK d   0     -13.411  -6.369   6.948  0.00  0.00     0.052 C 
BRANCH  49  50
ATOM     50  C   UNK d   0     -14.465  -6.721   7.966  0.00  0.00     0.115 C 
BRANCH  50  51
ATOM     51  C   UNK d   0     -14.885  -5.666   8.879  0.00  0.00     0.139 C 
ATOM     52  O   UNK d   0     -14.722  -5.742  10.120  0.00  0.00    -0.650 OA
BRANCH  51  53
ATOM     53  O   UNK d   0     -15.495  -4.527   8.378  0.00  0.00    -0.776 OA
ATOM     54  H   UNK d   0     -16.025  -4.606   7.527  0.00  0.00     0.167 HD
ENDBRANCH  51  53
ENDBRANCH  50  51
ENDBRANCH  49  50
ENDBRANCH  24  49
BRANCH  21  55
ATOM     55  C   UNK d   0     -13.291  -8.943   5.244  0.00  0.00     0.151 C 
BRANCH  55  56
ATOM     56  C   UNK d   0     -14.299 -10.011   5.336  0.00  0.00     0.143 C 
ATOM     57  O   UNK d   0     -15.154 -10.056   6.243  0.00  0.00    -0.650 OA
BRANCH  56  58
ATOM     58  O   UNK d   0     -14.282 -11.005   4.360  0.00  0.00    -0.776 OA
ATOM     59  H   UNK d   0     -13.801 -11.880   4.637  0.00  0.00     0.167 HD
ENDBRANCH  56  58
ENDBRANCH  55  56
ENDBRANCH  21  55
BRANCH  18  60
ATOM     60  C   UNK d   0     -13.564  -9.082  -0.114  0.00  0.00     0.151 C 
BRANCH  60  61
ATOM     61  C   UNK d   0     -14.088 -10.391   0.305  0.00  0.00     0.143 C 
ATOM     62  O   UNK d   0     -13.696 -11.080   1.248  0.00  0.00    -0.650 OA
BRANCH  61  63
ATOM     63  O   UNK d   0     -15.159 -10.889  -0.475  0.00  0.00    -0.776 OA
ATOM     64  H   UNK d   0     -16.044 -10.415  -0.504  0.00  0.00     0.167 HD
ENDBRANCH  61  63
ENDBRANCH  60  61
ENDBRANCH  18  60
BRANCH  14  65
ATOM     65  C   UNK d   0     -15.087  -7.827  -2.419  0.00  0.00     0.052 C 
BRANCH  65  66
ATOM     66  C   UNK d   0     -16.149  -8.661  -3.043  0.00  0.00     0.115 C 
BRANCH  66  67
ATOM     67  C   UNK d   0     -16.736  -8.252  -4.288  0.00  0.00     0.139 C 
ATOM     68  O   UNK d   0     -16.233  -7.238  -4.900  0.00  0.00    -0.650 OA
BRANCH  67  69
ATOM     69  O   UNK d   0     -17.820  -8.826  -4.951  0.00  0.00    -0.776 OA
ATOM     70  H   UNK d   0     -17.585  -9.469  -5.721  0.00  0.00     0.167 HD
ENDBRANCH  67  69
ENDBRANCH  66  67
ENDBRANCH  65  66
ENDBRANCH  14  65
ENDBRANCH   6   7
ENDBRANCH   5   6
ENDBRANCH   2   5
TORSDOF 28
ENDMDL
MODEL 6
REMARK VINA RESULT:      -6.1     22.791     28.566
REMARK  28 active torsions:
REMARK  status: ('A' for Active; 'I' for Inactive)
REMARK    1  A    between atoms: C_2  and  O_3 
REMARK    2  A    between atoms: C_2  and  C_4 
REMARK    3  A    between atoms: C_4  and  C_5 
REMARK    4  A    between atoms: C_5  and  C_6 
REMARK    5  A    between atoms: C_7  and  C_8 
REMARK    6  A    between atoms: C_8  and  C_9 
REMARK    7  A    between atoms: C_9  and  O_11 
REMARK    8  A    between atoms: C_28  and  C_29 
REMARK    9  A    between atoms: C_29  and  C_30 
REMARK   10  A    between atoms: C_30  and  O_32 
REMARK   11  A    between atoms: C_33  and  C_34 
REMARK   12  A    between atoms: C_34  and  C_35 
REMARK   13  A    between atoms: C_35  and  C_36 
REMARK   14  A    between atoms: C_36  and  O_38 
REMARK   15  A    between atoms: C_39  and  C_40 
REMARK   16  A    between atoms: C_40  and  C_41 
REMARK   17  A    between atoms: C_41  and  C_42 
REMARK   18  A    between atoms: C_42  and  O_44 
REMARK   19  A    between atoms: C_45  and  C_46 
REMARK   20  A    between atoms: C_46  and  C_47 
REMARK   21  A    between atoms: C_47  and  O_49 
REMARK   22  A    between atoms: C_50  and  C_51 
REMARK   23  A    between atoms: C_51  and  C_52 
REMARK   24  A    between atoms: C_52  and  O_54 
REMARK   25  A    between atoms: C_55  and  C_56 
REMARK   26  A    between atoms: C_56  and  C_57 
REMARK   27  A    between atoms: C_57  and  C_58 
REMARK   28  A    between atoms: C_58  and  O_60 
ROOT
ATOM      1  O   UNK d   0      18.945   7.209 -18.786  0.00  0.00    -0.650 OA
ATOM      2  C   UNK d   0      18.552   8.142 -18.051  0.00  0.00     0.139 C 
ENDROOT
BRANCH   2   3
ATOM      3  O   UNK d   0      19.475   8.889 -17.359  0.00  0.00    -0.776 OA
ATOM      4  H   UNK d   0      20.373   8.489 -17.078  0.00  0.00     0.167 HD
ENDBRANCH   2   3
BRANCH   2   5
ATOM      5  C   UNK d   0      17.096   8.437 -17.930  0.00  0.00     0.115 C 
BRANCH   5   6
ATOM      6  C   UNK d   0      16.677   8.385 -16.486  0.00  0.00     0.052 C 
BRANCH   6   7
ATOM      7  C   UNK d   0      16.800   7.001 -15.894  0.00  0.00    -0.020 A 
ATOM      8  C   UNK d   0      17.438   6.652 -14.807  0.00  0.00    -0.011 A 
ATOM      9  C   UNK d   0      17.286   5.215 -14.643  0.00  0.00     0.067 A 
ATOM     10  C   UNK d   0      17.693   4.254 -13.705  0.00  0.00     0.062 C 
ATOM     11  N   UNK d   0      16.545   4.770 -15.680  0.00  0.00    -0.248 NA
ATOM     12  C   UNK d   0      17.212   2.948 -13.567  0.00  0.00     0.041 A 
ATOM     13  N   UNK d   0      16.924   2.008 -14.487  0.00  0.00    -0.355 N 
ATOM     14  C   UNK d   0      16.898   2.470 -12.282  0.00  0.00    -0.022 A 
ATOM     15  C   UNK d   0      16.427   0.949 -13.819  0.00  0.00     0.042 A 
ATOM     16  H   UNK d   0      17.086   2.083 -15.585  0.00  0.00     0.166 HD
ATOM     17  C   UNK d   0      15.971  -0.298 -14.293  0.00  0.00     0.062 C 
ATOM     18  C   UNK d   0      16.395   1.202 -12.434  0.00  0.00    -0.013 A 
ATOM     19  C   UNK d   0      15.158  -0.569 -15.363  0.00  0.00     0.067 A 
ATOM     20  N   UNK d   0      14.907   0.439 -16.202  0.00  0.00    -0.248 NA
ATOM     21  C   UNK d   0      14.435  -1.728 -15.859  0.00  0.00    -0.011 A 
ATOM     22  C   UNK d   0      14.071   0.024 -17.210  0.00  0.00     0.066 A 
ATOM     23  C   UNK d   0      13.757   0.966 -18.178  0.00  0.00     0.062 C 
ATOM     24  C   UNK d   0      13.798  -1.373 -16.937  0.00  0.00    -0.020 A 
ATOM     25  C   UNK d   0      14.261   2.270 -18.306  0.00  0.00     0.041 A 
ATOM     26  N   UNK d   0      14.534   3.209 -17.393  0.00  0.00    -0.355 N 
ATOM     27  C   UNK d   0      14.581   2.746 -19.596  0.00  0.00    -0.022 A 
ATOM     28  C   UNK d   0      15.021   4.269 -18.057  0.00  0.00     0.042 A 
ATOM     29  H   UNK d   0      14.360   3.136 -16.291  0.00  0.00     0.166 HD
ATOM     30  C   UNK d   0      15.469   5.519 -17.600  0.00  0.00     0.062 C 
ATOM     31  C   UNK d   0      15.063   4.011 -19.448  0.00  0.00    -0.013 A 
ATOM     32  C   UNK d   0      16.221   5.796 -16.469  0.00  0.00     0.066 A 
BRANCH   8  33
ATOM     33  C   UNK d   0      18.188   7.538 -13.897  0.00  0.00     0.151 C 
BRANCH  33  34
ATOM     34  C   UNK d   0      17.627   7.564 -12.535  0.00  0.00     0.143 C 
ATOM     35  O   UNK d   0      16.647   8.272 -12.263  0.00  0.00    -0.650 OA
BRANCH  34  36
ATOM     36  O   UNK d   0      18.202   6.791 -11.552  0.00  0.00    -0.776 OA
ATOM     37  H   UNK d   0      17.627   6.272 -10.875  0.00  0.00     0.167 HD
ENDBRANCH  34  36
ENDBRANCH  33  34
ENDBRANCH   8  33
BRANCH  31  38
ATOM     38  C   UNK d   0      15.547   4.916 -20.556  0.00  0.00     0.151 C 
BRANCH  38  39
ATOM     39  C   UNK d   0      16.990   4.963 -20.653  0.00  0.00     0.143 C 
ATOM     40  O   UNK d   0      17.710   3.999 -20.337  0.00  0.00    -0.650 OA
BRANCH  39  41
ATOM     41  O   UNK d   0      17.609   6.123 -21.117  0.00  0.00    -0.776 OA
ATOM     42  H   UNK d   0      18.214   6.620 -20.455  0.00  0.00     0.167 HD
ENDBRANCH  39  41
ENDBRANCH  38  39
ENDBRANCH  31  38
BRANCH  27  43
ATOM     43  C   UNK d   0      14.445   2.060 -20.932  0.00  0.00     0.052 C 
BRANCH  43  44
ATOM     44  C   UNK d   0      15.643   1.248 -21.304  0.00  0.00     0.115 C 
BRANCH  44  45
ATOM     45  C   UNK d   0      16.146   1.798 -22.590  0.00  0.00     0.139 C 
ATOM     46  O   UNK d   0      15.333   1.918 -23.540  0.00  0.00    -0.650 OA
BRANCH  45  47
ATOM     47  O   UNK d   0      17.456   2.182 -22.777  0.00  0.00    -0.776 OA
ATOM     48  H   UNK d   0      17.720   3.036 -23.295  0.00  0.00     0.167 HD
ENDBRANCH  45  47
ENDBRANCH  44  45
ENDBRANCH  43  44
ENDBRANCH  27  43
BRANCH  24  49
ATOM     49  C   UNK d   0      12.970  -2.249 -17.784  0.00  0.00     0.052 C 
BRANCH  49  50
ATOM     50  C   UNK d   0      11.512  -2.090 -17.437  0.00  0.00     0.115 C 
BRANCH  50  51
ATOM     51  C   UNK d   0      10.651  -3.247 -17.636  0.00  0.00     0.139 C 
ATOM     52  O   UNK d   0       9.753  -3.280 -18.511  0.00  0.00    -0.650 OA
BRANCH  51  53
ATOM     53  O   UNK d   0      10.811  -4.367 -16.835  0.00  0.00    -0.776 OA
ATOM     54  H   UNK d   0      11.210  -5.193 -17.246  0.00  0.00     0.167 HD
ENDBRANCH  51  53
ENDBRANCH  50  51
ENDBRANCH  49  50
ENDBRANCH  24  49
BRANCH  21  55
ATOM     55  C   UNK d   0      14.460  -3.070 -15.205  0.00  0.00     0.151 C 
BRANCH  55  56
ATOM     56  C   UNK d   0      13.388  -3.217 -14.208  0.00  0.00     0.143 C 
ATOM     57  O   UNK d   0      12.343  -3.858 -14.430  0.00  0.00    -0.650 OA
BRANCH  56  58
ATOM     58  O   UNK d   0      13.568  -2.608 -12.967  0.00  0.00    -0.776 OA
ATOM     59  H   UNK d   0      12.976  -2.985 -12.206  0.00  0.00     0.167 HD
ENDBRANCH  56  58
ENDBRANCH  55  56
ENDBRANCH  21  55
BRANCH  18  60
ATOM     60  C   UNK d   0      15.922   0.318 -11.307  0.00  0.00     0.151 C 
BRANCH  60  61
ATOM     61  C   UNK d   0      14.533   0.720 -11.035  0.00  0.00     0.143 C 
ATOM     62  O   UNK d   0      14.143   1.502 -10.167  0.00  0.00    -0.650 OA
BRANCH  61  63
ATOM     63  O   UNK d   0      13.559   0.130 -11.876  0.00  0.00    -0.776 OA
ATOM     64  H   UNK d   0      13.507  -0.867 -11.989  0.00  0.00     0.167 HD
ENDBRANCH  61  63
ENDBRANCH  60  61
ENDBRANCH  18  60
BRANCH  14  65
ATOM     65  C   UNK d   0      17.126   3.078 -10.927  0.00  0.00     0.052 C 
BRANCH  65  66
ATOM     66  C   UNK d   0      18.480   2.790 -10.381  0.00  0.00     0.115 C 
BRANCH  66  67
ATOM     67  C   UNK d   0      19.519   3.773 -10.502  0.00  0.00     0.139 C 
ATOM     68  O   UNK d   0      20.416   3.609 -11.409  0.00  0.00    -0.650 OA
BRANCH  67  69
ATOM     69  O   UNK d   0      19.696   4.927  -9.740  0.00  0.00    -0.776 OA
ATOM     70  H   UNK d   0      20.422   4.876  -9.011  0.00  0.00     0.167 HD
ENDBRANCH  67  69
ENDBRANCH  66  67
ENDBRANCH  65  66
ENDBRANCH  14  65
ENDBRANCH   6   7
ENDBRANCH   5   6
ENDBRANCH   2   5
TORSDOF 28
ENDMDL
MODEL 7
REMARK VINA RESULT:      -6.0     27.750     31.466
REMARK  28 active torsions:
REMARK  status: ('A' for Active; 'I' for Inactive)
REMARK    1  A    between atoms: C_2  and  O_3 
REMARK    2  A    between atoms: C_2  and  C_4 
REMARK    3  A    between atoms: C_4  and  C_5 
REMARK    4  A    between atoms: C_5  and  C_6 
REMARK    5  A    between atoms: C_7  and  C_8 
REMARK    6  A    between atoms: C_8  and  C_9 
REMARK    7  A    between atoms: C_9  and  O_11 
REMARK    8  A    between atoms: C_28  and  C_29 
REMARK    9  A    between atoms: C_29  and  C_30 
REMARK   10  A    between atoms: C_30  and  O_32 
REMARK   11  A    between atoms: C_33  and  C_34 
REMARK   12  A    between atoms: C_34  and  C_35 
REMARK   13  A    between atoms: C_35  and  C_36 
REMARK   14  A    between atoms: C_36  and  O_38 
REMARK   15  A    between atoms: C_39  and  C_40 
REMARK   16  A    between atoms: C_40  and  C_41 
REMARK   17  A    between atoms: C_41  and  C_42 
REMARK   18  A    between atoms: C_42  and  O_44 
REMARK   19  A    between atoms: C_45  and  C_46 
REMARK   20  A    between atoms: C_46  and  C_47 
REMARK   21  A    between atoms: C_47  and  O_49 
REMARK   22  A    between atoms: C_50  and  C_51 
REMARK   23  A    between atoms: C_51  and  C_52 
REMARK   24  A    between atoms: C_52  and  O_54 
REMARK   25  A    between atoms: C_55  and  C_56 
REMARK   26  A    between atoms: C_56  and  C_57 
REMARK   27  A    between atoms: C_57  and  C_58 
REMARK   28  A    between atoms: C_58  and  O_60 
ROOT
ATOM      1  O   UNK d   0     -18.875  -5.669  10.308  0.00  0.00    -0.650 OA
ATOM      2  C   UNK d   0     -17.919  -4.951   9.939  0.00  0.00     0.139 C 
ENDROOT
BRANCH   2   3
ATOM      3  O   UNK d   0     -16.805  -4.851  10.737  0.00  0.00    -0.776 OA
ATOM      4  H   UNK d   0     -16.857  -4.425  11.665  0.00  0.00     0.167 HD
ENDBRANCH   2   3
BRANCH   2   5
ATOM      5  C   UNK d   0     -17.994  -4.212   8.647  0.00  0.00     0.115 C 
BRANCH   5   6
ATOM      6  C   UNK d   0     -16.615  -3.802   8.205  0.00  0.00     0.052 C 
BRANCH   6   7
ATOM      7  C   UNK d   0     -16.106  -4.628   7.048  0.00  0.00    -0.020 A 
ATOM      8  C   UNK d   0     -15.198  -5.569   7.078  0.00  0.00    -0.011 A 
ATOM      9  C   UNK d   0     -15.034  -6.072   5.724  0.00  0.00     0.067 A 
ATOM     10  C   UNK d   0     -14.261  -7.062   5.099  0.00  0.00     0.062 C 
ATOM     11  N   UNK d   0     -15.877  -5.376   4.933  0.00  0.00    -0.248 NA
ATOM     12  C   UNK d   0     -14.442  -7.596   3.818  0.00  0.00     0.041 A 
ATOM     13  N   UNK d   0     -14.733  -7.003   2.644  0.00  0.00    -0.355 N 
ATOM     14  C   UNK d   0     -14.379  -8.990   3.646  0.00  0.00    -0.022 A 
ATOM     15  C   UNK d   0     -14.864  -7.987   1.734  0.00  0.00     0.042 A 
ATOM     16  H   UNK d   0     -14.824  -5.910   2.458  0.00  0.00     0.166 HD
ATOM     17  C   UNK d   0     -15.162  -7.924   0.358  0.00  0.00     0.062 C 
ATOM     18  C   UNK d   0     -14.650  -9.247   2.325  0.00  0.00    -0.013 A 
ATOM     19  C   UNK d   0     -16.116  -7.177  -0.285  0.00  0.00     0.067 A 
ATOM     20  N   UNK d   0     -16.727  -6.231   0.432  0.00  0.00    -0.248 NA
ATOM     21  C   UNK d   0     -16.691  -7.142  -1.619  0.00  0.00    -0.011 A 
ATOM     22  C   UNK d   0     -17.662  -5.580  -0.336  0.00  0.00     0.066 A 
ATOM     23  C   UNK d   0     -18.348  -4.542   0.276  0.00  0.00     0.062 C 
ATOM     24  C   UNK d   0     -17.598  -6.208  -1.641  0.00  0.00    -0.020 A 
ATOM     25  C   UNK d   0     -18.142  -4.013   1.560  0.00  0.00     0.041 A 
ATOM     26  N   UNK d   0     -17.868  -4.603   2.729  0.00  0.00    -0.355 N 
ATOM     27  C   UNK d   0     -18.200  -2.613   1.730  0.00  0.00    -0.022 A 
ATOM     28  C   UNK d   0     -17.745  -3.625   3.641  0.00  0.00     0.042 A 
ATOM     29  H   UNK d   0     -17.787  -5.702   2.917  0.00  0.00     0.166 HD
ATOM     30  C   UNK d   0     -17.458  -3.673   5.014  0.00  0.00     0.062 C 
ATOM     31  C   UNK d   0     -17.950  -2.358   3.044  0.00  0.00    -0.013 A 
ATOM     32  C   UNK d   0     -16.552  -4.492   5.669  0.00  0.00     0.066 A 
BRANCH   8  33
ATOM     33  C   UNK d   0     -14.457  -6.047   8.260  0.00  0.00     0.151 C 
BRANCH  33  34
ATOM     34  C   UNK d   0     -15.199  -7.064   9.026  0.00  0.00     0.143 C 
ATOM     35  O   UNK d   0     -16.014  -7.812   8.468  0.00  0.00    -0.650 OA
BRANCH  34  36
ATOM     36  O   UNK d   0     -14.982  -7.182  10.379  0.00  0.00    -0.776 OA
ATOM     37  H   UNK d   0     -14.407  -7.943  10.764  0.00  0.00     0.167 HD
ENDBRANCH  34  36
ENDBRANCH  33  34
ENDBRANCH   8  33
BRANCH  31  38
ATOM     38  C   UNK d   0     -17.894  -0.995   3.693  0.00  0.00     0.151 C 
BRANCH  38  39
ATOM     39  C   UNK d   0     -19.161  -0.594   4.266  0.00  0.00     0.143 C 
ATOM     40  O   UNK d   0     -20.103  -0.175   3.571  0.00  0.00    -0.650 OA
BRANCH  39  41
ATOM     41  O   UNK d   0     -19.346  -0.676   5.646  0.00  0.00    -0.776 OA
ATOM     42  H   UNK d   0     -18.899  -1.463   6.126  0.00  0.00     0.167 HD
ENDBRANCH  39  41
ENDBRANCH  38  39
ENDBRANCH  31  38
BRANCH  27  43
ATOM     43  C   UNK d   0     -18.481  -1.535   0.714  0.00  0.00     0.052 C 
BRANCH  43  44
ATOM     44  C   UNK d   0     -17.325  -1.261  -0.192  0.00  0.00     0.115 C 
BRANCH  44  45
ATOM     45  C   UNK d   0     -16.834   0.101   0.146  0.00  0.00     0.139 C 
ATOM     46  O   UNK d   0     -17.343   1.079  -0.454  0.00  0.00    -0.650 OA
BRANCH  45  47
ATOM     47  O   UNK d   0     -15.855   0.329   1.088  0.00  0.00    -0.776 OA
ATOM     48  H   UNK d   0     -15.603   1.275   1.417  0.00  0.00     0.167 HD
ENDBRANCH  45  47
ENDBRANCH  44  45
ENDBRANCH  43  44
ENDBRANCH  27  43
BRANCH  24  49
ATOM     49  C   UNK d   0     -18.403  -5.806  -2.808  0.00  0.00     0.052 C 
BRANCH  49  50
ATOM     50  C   UNK d   0     -18.064  -4.396  -3.218  0.00  0.00     0.115 C 
BRANCH  50  51
ATOM     51  C   UNK d   0     -17.218  -4.230  -4.392  0.00  0.00     0.139 C 
ATOM     52  O   UNK d   0     -16.530  -5.164  -4.867  0.00  0.00    -0.650 OA
BRANCH  51  53
ATOM     53  O   UNK d   0     -17.154  -2.997  -5.023  0.00  0.00    -0.776 OA
ATOM     54  H   UNK d   0     -17.486  -2.190  -4.524  0.00  0.00     0.167 HD
ENDBRANCH  51  53
ENDBRANCH  50  51
ENDBRANCH  49  50
ENDBRANCH  24  49
BRANCH  21  55
ATOM     55  C   UNK d   0     -16.272  -8.043  -2.733  0.00  0.00     0.151 C 
BRANCH  55  56
ATOM     56  C   UNK d   0     -14.881  -7.800  -3.145  0.00  0.00     0.143 C 
ATOM     57  O   UNK d   0     -14.057  -8.720  -3.316  0.00  0.00    -0.650 OA
BRANCH  56  58
ATOM     58  O   UNK d   0     -14.485  -6.478  -3.347  0.00  0.00    -0.776 OA
ATOM     59  H   UNK d   0     -15.259  -5.814  -3.527  0.00  0.00     0.167 HD
ENDBRANCH  56  58
ENDBRANCH  55  56
ENDBRANCH  21  55
BRANCH  18  60
ATOM     60  C   UNK d   0     -14.696 -10.621   1.703  0.00  0.00     0.151 C 
BRANCH  60  61
ATOM     61  C   UNK d   0     -13.295 -11.009   1.478  0.00  0.00     0.143 C 
ATOM     62  O   UNK d   0     -12.802 -12.127   1.629  0.00  0.00    -0.650 OA
BRANCH  61  63
ATOM     63  O   UNK d   0     -12.443  -9.966   1.042  0.00  0.00    -0.776 OA
ATOM     64  H   UNK d   0     -12.790  -9.222   0.462  0.00  0.00     0.167 HD
ENDBRANCH  61  63
ENDBRANCH  60  61
ENDBRANCH  18  60
BRANCH  14  65
ATOM     65  C   UNK d   0     -13.991 -10.080   4.605  0.00  0.00     0.052 C 
BRANCH  65  66
ATOM     66  C   UNK d   0     -12.533 -10.101   4.901  0.00  0.00     0.115 C 
BRANCH  66  67
ATOM     67  C   UNK d   0     -11.841 -11.357   4.979  0.00  0.00     0.139 C 
ATOM     68  O   UNK d   0     -10.736 -11.489   4.335  0.00  0.00    -0.650 OA
BRANCH  67  69
ATOM     69  O   UNK d   0     -12.220 -12.498   5.685  0.00  0.00    -0.776 OA
ATOM     70  H   UNK d   0     -11.976 -12.507   6.686  0.00  0.00     0.167 HD
ENDBRANCH  67  69
ENDBRANCH  66  67
ENDBRANCH  65  66
ENDBRANCH  14  65
ENDBRANCH   6   7
ENDBRANCH   5   6
ENDBRANCH   2   5
TORSDOF 28
ENDMDL
MODEL 8
REMARK VINA RESULT:      -6.0      3.172     10.930
REMARK  28 active torsions:
REMARK  status: ('A' for Active; 'I' for Inactive)
REMARK    1  A    between atoms: C_2  and  O_3 
REMARK    2  A    between atoms: C_2  and  C_4 
REMARK    3  A    between atoms: C_4  and  C_5 
REMARK    4  A    between atoms: C_5  and  C_6 
REMARK    5  A    between atoms: C_7  and  C_8 
REMARK    6  A    between atoms: C_8  and  C_9 
REMARK    7  A    between atoms: C_9  and  O_11 
REMARK    8  A    between atoms: C_28  and  C_29 
REMARK    9  A    between atoms: C_29  and  C_30 
REMARK   10  A    between atoms: C_30  and  O_32 
REMARK   11  A    between atoms: C_33  and  C_34 
REMARK   12  A    between atoms: C_34  and  C_35 
REMARK   13  A    between atoms: C_35  and  C_36 
REMARK   14  A    between atoms: C_36  and  O_38 
REMARK   15  A    between atoms: C_39  and  C_40 
REMARK   16  A    between atoms: C_40  and  C_41 
REMARK   17  A    between atoms: C_41  and  C_42 
REMARK   18  A    between atoms: C_42  and  O_44 
REMARK   19  A    between atoms: C_45  and  C_46 
REMARK   20  A    between atoms: C_46  and  C_47 
REMARK   21  A    between atoms: C_47  and  O_49 
REMARK   22  A    between atoms: C_50  and  C_51 
REMARK   23  A    between atoms: C_51  and  C_52 
REMARK   24  A    between atoms: C_52  and  O_54 
REMARK   25  A    between atoms: C_55  and  C_56 
REMARK   26  A    between atoms: C_56  and  C_57 
REMARK   27  A    between atoms: C_57  and  C_58 
REMARK   28  A    between atoms: C_58  and  O_60 
ROOT
ATOM      1  O   UNK d   0      14.487 -16.981   6.796  0.00  0.00    -0.650 OA
ATOM      2  C   UNK d   0      13.238 -16.977   6.868  0.00  0.00     0.139 C 
ENDROOT
BRANCH   2   3
ATOM      3  O   UNK d   0      12.536 -18.080   6.445  0.00  0.00    -0.776 OA
ATOM      4  H   UNK d   0      11.647 -17.982   5.950  0.00  0.00     0.167 HD
ENDBRANCH   2   3
BRANCH   2   5
ATOM      5  C   UNK d   0      12.523 -15.786   7.408  0.00  0.00     0.115 C 
BRANCH   5   6
ATOM      6  C   UNK d   0      13.514 -14.753   7.871  0.00  0.00     0.052 C 
BRANCH   6   7
ATOM      7  C   UNK d   0      13.289 -13.404   7.231  0.00  0.00    -0.020 A 
ATOM      8  C   UNK d   0      12.929 -12.292   7.818  0.00  0.00    -0.011 A 
ATOM      9  C   UNK d   0      12.831 -11.261   6.798  0.00  0.00     0.067 A 
ATOM     10  C   UNK d   0      12.522  -9.892   6.769  0.00  0.00     0.062 C 
ATOM     11  N   UNK d   0      13.142 -11.835   5.617  0.00  0.00    -0.248 NA
ATOM     12  C   UNK d   0      12.751  -8.995   5.720  0.00  0.00     0.041 A 
ATOM     13  N   UNK d   0      12.573  -9.120   4.391  0.00  0.00    -0.355 N 
ATOM     14  C   UNK d   0      13.314  -7.739   6.010  0.00  0.00    -0.022 A 
ATOM     15  C   UNK d   0      13.016  -7.979   3.830  0.00  0.00     0.042 A 
ATOM     16  H   UNK d   0      12.125  -9.990   3.862  0.00  0.00     0.166 HD
ATOM     17  C   UNK d   0      13.060  -7.584   2.478  0.00  0.00     0.062 C 
ATOM     18  C   UNK d   0      13.488  -7.089   4.813  0.00  0.00    -0.013 A 
ATOM     19  C   UNK d   0      13.465  -8.302   1.382  0.00  0.00     0.067 A 
ATOM     20  N   UNK d   0      13.664  -9.611   1.556  0.00  0.00    -0.248 NA
ATOM     21  C   UNK d   0      13.771  -8.004  -0.007  0.00  0.00    -0.011 A 
ATOM     22  C   UNK d   0      14.080 -10.190   0.382  0.00  0.00     0.066 A 
ATOM     23  C   UNK d   0      14.288 -11.561   0.412  0.00  0.00     0.062 C 
ATOM     24  C   UNK d   0      14.134  -9.112  -0.586  0.00  0.00    -0.020 A 
ATOM     25  C   UNK d   0      14.040 -12.447   1.472  0.00  0.00     0.041 A 
ATOM     26  N   UNK d   0      14.231 -12.328   2.791  0.00  0.00    -0.355 N 
ATOM     27  C   UNK d   0      13.471 -13.705   1.181  0.00  0.00    -0.022 A 
ATOM     28  C   UNK d   0      13.799 -13.468   3.353  0.00  0.00     0.042 A 
ATOM     29  H   UNK d   0      14.691 -11.457   3.320  0.00  0.00     0.166 HD
ATOM     30  C   UNK d   0      13.757 -13.878   4.694  0.00  0.00     0.062 C 
ATOM     31  C   UNK d   0      13.314 -14.358   2.365  0.00  0.00    -0.013 A 
ATOM     32  C   UNK d   0      13.428 -13.124   5.809  0.00  0.00     0.066 A 
BRANCH   8  33
ATOM     33  C   UNK d   0      12.660 -12.097   9.255  0.00  0.00     0.151 C 
BRANCH  33  34
ATOM     34  C   UNK d   0      11.280 -12.452   9.631  0.00  0.00     0.143 C 
ATOM     35  O   UNK d   0      10.348 -11.653   9.459  0.00  0.00    -0.650 OA
BRANCH  34  36
ATOM     36  O   UNK d   0      11.026 -13.687  10.180  0.00  0.00    -0.776 OA
ATOM     37  H   UNK d   0      10.070 -14.067  10.221  0.00  0.00     0.167 HD
ENDBRANCH  34  36
ENDBRANCH  33  34
ENDBRANCH   8  33
BRANCH  31  38
ATOM     38  C   UNK d   0      12.727 -15.737   2.552  0.00  0.00     0.151 C 
BRANCH  38  39
ATOM     39  C   UNK d   0      13.738 -16.761   2.713  0.00  0.00     0.143 C 
ATOM     40  O   UNK d   0      14.850 -16.691   2.159  0.00  0.00    -0.650 OA
BRANCH  39  41
ATOM     41  O   UNK d   0      13.471 -17.869   3.515  0.00  0.00    -0.776 OA
ATOM     42  H   UNK d   0      13.063 -18.687   3.051  0.00  0.00     0.167 HD
ENDBRANCH  39  41
ENDBRANCH  38  39
ENDBRANCH  31  38
BRANCH  27  43
ATOM     43  C   UNK d   0      13.082 -14.296  -0.152  0.00  0.00     0.052 C 
BRANCH  43  44
ATOM     44  C   UNK d   0      13.985 -15.402  -0.594  0.00  0.00     0.115 C 
BRANCH  44  45
ATOM     45  C   UNK d   0      15.342 -14.811  -0.733  0.00  0.00     0.139 C 
ATOM     46  O   UNK d   0      15.563 -14.061  -1.716  0.00  0.00    -0.650 OA
BRANCH  45  47
ATOM     47  O   UNK d   0      16.356 -15.048   0.169  0.00  0.00    -0.776 OA
ATOM     48  H   UNK d   0      17.079 -15.771   0.023  0.00  0.00     0.167 HD
ENDBRANCH  45  47
ENDBRANCH  44  45
ENDBRANCH  43  44
ENDBRANCH  27  43
BRANCH  24  49
ATOM     49  C   UNK d   0      14.495  -9.274  -2.005  0.00  0.00     0.052 C 
BRANCH  49  50
ATOM     50  C   UNK d   0      13.372  -9.938  -2.759  0.00  0.00     0.115 C 
BRANCH  50  51
ATOM     51  C   UNK d   0      12.286  -9.084  -3.222  0.00  0.00     0.139 C 
ATOM     52  O   UNK d   0      12.452  -8.186  -4.082  0.00  0.00    -0.650 OA
BRANCH  51  53
ATOM     53  O   UNK d   0      11.012  -9.252  -2.703  0.00  0.00    -0.776 OA
ATOM     54  H   UNK d   0      10.489 -10.065  -2.980  0.00  0.00     0.167 HD
ENDBRANCH  51  53
ENDBRANCH  50  51
ENDBRANCH  49  50
ENDBRANCH  24  49
BRANCH  21  55
ATOM     55  C   UNK d   0      13.664  -6.644  -0.613  0.00  0.00     0.151 C 
BRANCH  55  56
ATOM     56  C   UNK d   0      12.265  -6.224  -0.783  0.00  0.00     0.143 C 
ATOM     57  O   UNK d   0      11.311  -7.026  -0.752  0.00  0.00    -0.650 OA
BRANCH  56  58
ATOM     58  O   UNK d   0      12.014  -4.868  -0.987  0.00  0.00    -0.776 OA
ATOM     59  H   UNK d   0      11.963  -4.299  -0.123  0.00  0.00     0.167 HD
ENDBRANCH  56  58
ENDBRANCH  55  56
ENDBRANCH  21  55
BRANCH  18  60
ATOM     60  C   UNK d   0      14.075  -5.708   4.656  0.00  0.00     0.151 C 
BRANCH  60  61
ATOM     61  C   UNK d   0      15.525  -5.861   4.848  0.00  0.00     0.143 C 
ATOM     62  O   UNK d   0      16.283  -6.601   4.219  0.00  0.00    -0.650 OA
BRANCH  61  63
ATOM     63  O   UNK d   0      16.086  -5.060   5.872  0.00  0.00    -0.776 OA
ATOM     64  H   UNK d   0      16.831  -4.415   5.676  0.00  0.00     0.167 HD
ENDBRANCH  61  63
ENDBRANCH  60  61
ENDBRANCH  18  60
BRANCH  14  65
ATOM     65  C   UNK d   0      13.605  -7.074   7.325  0.00  0.00     0.052 C 
BRANCH  65  66
ATOM     66  C   UNK d   0      12.817  -5.830   7.536  0.00  0.00     0.115 C 
BRANCH  66  67
ATOM     67  C   UNK d   0      13.410  -4.721   8.228  0.00  0.00     0.139 C 
ATOM     68  O   UNK d   0      13.779  -3.697   7.543  0.00  0.00    -0.650 OA
BRANCH  67  69
ATOM     69  O   UNK d   0      13.650  -4.598   9.596  0.00  0.00    -0.776 OA
ATOM     70  H   UNK d   0      14.293  -3.842   9.872  0.00  0.00     0.167 HD
ENDBRANCH  67  69
ENDBRANCH  66  67
ENDBRANCH  65  66
ENDBRANCH  14  65
ENDBRANCH   6   7
ENDBRANCH   5   6
ENDBRANCH   2   5
TORSDOF 28
ENDMDL
MODEL 9
REMARK VINA RESULT:      -6.0     22.193     28.341
REMARK  28 active torsions:
REMARK  status: ('A' for Active; 'I' for Inactive)
REMARK    1  A    between atoms: C_2  and  O_3 
REMARK    2  A    between atoms: C_2  and  C_4 
REMARK    3  A    between atoms: C_4  and  C_5 
REMARK    4  A    between atoms: C_5  and  C_6 
REMARK    5  A    between atoms: C_7  and  C_8 
REMARK    6  A    between atoms: C_8  and  C_9 
REMARK    7  A    between atoms: C_9  and  O_11 
REMARK    8  A    between atoms: C_28  and  C_29 
REMARK    9  A    between atoms: C_29  and  C_30 
REMARK   10  A    between atoms: C_30  and  O_32 
REMARK   11  A    between atoms: C_33  and  C_34 
REMARK   12  A    between atoms: C_34  and  C_35 
REMARK   13  A    between atoms: C_35  and  C_36 
REMARK   14  A    between atoms: C_36  and  O_38 
REMARK   15  A    between atoms: C_39  and  C_40 
REMARK   16  A    between atoms: C_40  and  C_41 
REMARK   17  A    between atoms: C_41  and  C_42 
REMARK   18  A    between atoms: C_42  and  O_44 
REMARK   19  A    between atoms: C_45  and  C_46 
REMARK   20  A    between atoms: C_46  and  C_47 
REMARK   21  A    between atoms: C_47  and  O_49 
REMARK   22  A    between atoms: C_50  and  C_51 
REMARK   23  A    between atoms: C_51  and  C_52 
REMARK   24  A    between atoms: C_52  and  O_54 
REMARK   25  A    between atoms: C_55  and  C_56 
REMARK   26  A    between atoms: C_56  and  C_57 
REMARK   27  A    between atoms: C_57  and  C_58 
REMARK   28  A    between atoms: C_58  and  O_60 
ROOT
ATOM      1  O   UNK d   0      20.502   6.305 -11.060  0.00  0.00    -0.650 OA
ATOM      2  C   UNK d   0      19.430   6.236 -11.701  0.00  0.00     0.139 C 
ENDROOT
BRANCH   2   3
ATOM      3  O   UNK d   0      18.239   6.188 -11.017  0.00  0.00    -0.776 OA
ATOM      4  H   UNK d   0      18.211   6.281  -9.999  0.00  0.00     0.167 HD
ENDBRANCH   2   3
BRANCH   2   5
ATOM      5  C   UNK d   0      19.448   6.205 -13.191  0.00  0.00     0.115 C 
BRANCH   5   6
ATOM      6  C   UNK d   0      18.305   7.014 -13.740  0.00  0.00     0.052 C 
BRANCH   6   7
ATOM      7  C   UNK d   0      17.426   6.218 -14.675  0.00  0.00    -0.020 A 
ATOM      8  C   UNK d   0      16.848   6.632 -15.773  0.00  0.00    -0.011 A 
ATOM      9  C   UNK d   0      16.099   5.518 -16.330  0.00  0.00     0.067 A 
ATOM     10  C   UNK d   0      15.304   5.299 -17.465  0.00  0.00     0.062 C 
ATOM     11  N   UNK d   0      16.272   4.466 -15.502  0.00  0.00    -0.248 NA
ATOM     12  C   UNK d   0      14.887   4.068 -17.983  0.00  0.00     0.041 A 
ATOM     13  N   UNK d   0      14.417   2.963 -17.373  0.00  0.00    -0.355 N 
ATOM     14  C   UNK d   0      14.993   3.841 -19.367  0.00  0.00    -0.022 A 
ATOM     15  C   UNK d   0      14.231   2.038 -18.334  0.00  0.00     0.042 A 
ATOM     16  H   UNK d   0      14.204   2.846 -16.288  0.00  0.00     0.166 HD
ATOM     17  C   UNK d   0      13.757   0.714 -18.247  0.00  0.00     0.062 C 
ATOM     18  C   UNK d   0      14.581   2.552 -19.597  0.00  0.00    -0.013 A 
ATOM     19  C   UNK d   0      14.090  -0.264 -17.345  0.00  0.00     0.067 A 
ATOM     20  N   UNK d   0      14.805   0.113 -16.281  0.00  0.00    -0.248 NA
ATOM     21  C   UNK d   0      13.875  -1.697 -17.230  0.00  0.00    -0.011 A 
ATOM     22  C   UNK d   0      15.074  -0.970 -15.480  0.00  0.00     0.066 A 
ATOM     23  C   UNK d   0      15.781  -0.714 -14.315  0.00  0.00     0.062 C 
ATOM     24  C   UNK d   0      14.457  -2.105 -16.139  0.00  0.00    -0.020 A 
ATOM     25  C   UNK d   0      16.179   0.532 -13.806  0.00  0.00     0.041 A 
ATOM     26  N   UNK d   0      16.660   1.625 -14.411  0.00  0.00    -0.355 N 
ATOM     27  C   UNK d   0      16.068   0.761 -12.417  0.00  0.00    -0.022 A 
ATOM     28  C   UNK d   0      16.856   2.546 -13.454  0.00  0.00     0.042 A 
ATOM     29  H   UNK d   0      16.884   1.738 -15.500  0.00  0.00     0.166 HD
ATOM     30  C   UNK d   0      17.335   3.863 -13.525  0.00  0.00     0.062 C 
ATOM     31  C   UNK d   0      16.493   2.033 -12.186  0.00  0.00    -0.013 A 
ATOM     32  C   UNK d   0      17.061   4.822 -14.487  0.00  0.00     0.066 A 
BRANCH   8  33
ATOM     33  C   UNK d   0      16.924   7.984 -16.358  0.00  0.00     0.151 C 
BRANCH  33  34
ATOM     34  C   UNK d   0      17.924   8.084 -17.436  0.00  0.00     0.143 C 
ATOM     35  O   UNK d   0      18.792   7.212 -17.582  0.00  0.00    -0.650 OA
BRANCH  34  36
ATOM     36  O   UNK d   0      17.892   9.163 -18.289  0.00  0.00    -0.776 OA
ATOM     37  H   UNK d   0      17.007   9.633 -18.522  0.00  0.00     0.167 HD
ENDBRANCH  34  36
ENDBRANCH  33  34
ENDBRANCH   8  33
BRANCH  31  38
ATOM     38  C   UNK d   0      16.541   2.726 -10.844  0.00  0.00     0.151 C 
BRANCH  38  39
ATOM     39  C   UNK d   0      17.867   2.739 -10.265  0.00  0.00     0.143 C 
ATOM     40  O   UNK d   0      18.255   3.647  -9.510  0.00  0.00    -0.650 OA
BRANCH  39  41
ATOM     41  O   UNK d   0      18.752   1.701 -10.556  0.00  0.00    -0.776 OA
ATOM     42  H   UNK d   0      19.125   1.176  -9.758  0.00  0.00     0.167 HD
ENDBRANCH  39  41
ENDBRANCH  38  39
ENDBRANCH  31  38
BRANCH  27  43
ATOM     43  C   UNK d   0      15.586  -0.166 -11.329  0.00  0.00     0.052 C 
BRANCH  43  44
ATOM     44  C   UNK d   0      14.113  -0.084 -11.094  0.00  0.00     0.115 C 
BRANCH  44  45
ATOM     45  C   UNK d   0      13.585  -1.468 -11.221  0.00  0.00     0.139 C 
ATOM     46  O   UNK d   0      14.399  -2.421 -11.137  0.00  0.00    -0.650 OA
BRANCH  45  47
ATOM     47  O   UNK d   0      12.250  -1.743 -11.419  0.00  0.00    -0.776 OA
ATOM     48  H   UNK d   0      11.531  -1.005 -11.500  0.00  0.00     0.167 HD
ENDBRANCH  45  47
ENDBRANCH  44  45
ENDBRANCH  43  44
ENDBRANCH  27  43
BRANCH  24  49
ATOM     49  C   UNK d   0      14.455  -3.482 -15.616  0.00  0.00     0.052 C 
BRANCH  49  50
ATOM     50  C   UNK d   0      13.654  -3.558 -14.342  0.00  0.00     0.115 C 
BRANCH  50  51
ATOM     51  C   UNK d   0      12.269  -3.997 -14.452  0.00  0.00     0.139 C 
ATOM     52  O   UNK d   0      11.907  -4.902 -15.240  0.00  0.00    -0.650 OA
BRANCH  51  53
ATOM     53  O   UNK d   0      11.296  -3.402 -13.664  0.00  0.00    -0.776 OA
ATOM     54  H   UNK d   0      10.741  -2.667 -14.068  0.00  0.00     0.167 HD
ENDBRANCH  51  53
ENDBRANCH  50  51
ENDBRANCH  49  50
ENDBRANCH  24  49
BRANCH  21  55
ATOM     55  C   UNK d   0      13.106  -2.508 -18.220  0.00  0.00     0.151 C 
BRANCH  55  56
ATOM     56  C   UNK d   0      11.684  -2.614 -17.860  0.00  0.00     0.143 C 
ATOM     57  O   UNK d   0      10.946  -3.523 -18.289  0.00  0.00    -0.650 OA
BRANCH  56  58
ATOM     58  O   UNK d   0      11.157  -1.650 -17.002  0.00  0.00    -0.776 OA
ATOM     59  H   UNK d   0      11.153  -0.686 -17.380  0.00  0.00     0.167 HD
ENDBRANCH  56  58
ENDBRANCH  55  56
ENDBRANCH  21  55
BRANCH  18  60
ATOM     60  C   UNK d   0      14.541   1.885 -20.950  0.00  0.00     0.151 C 
BRANCH  60  61
ATOM     61  C   UNK d   0      15.820   1.171 -21.087  0.00  0.00     0.143 C 
ATOM     62  O   UNK d   0      16.878   1.428 -20.513  0.00  0.00    -0.650 OA
BRANCH  61  63
ATOM     63  O   UNK d   0      15.804   0.073 -21.980  0.00  0.00    -0.776 OA
ATOM     64  H   UNK d   0      15.864  -0.871 -21.642  0.00  0.00     0.167 HD
ENDBRANCH  61  63
ENDBRANCH  60  61
ENDBRANCH  18  60
BRANCH  14  65
ATOM     65  C   UNK d   0      15.357   4.771 -20.489  0.00  0.00     0.052 C 
BRANCH  65  66
ATOM     66  C   UNK d   0      16.800   5.132 -20.500  0.00  0.00     0.115 C 
BRANCH  66  67
ATOM     67  C   UNK d   0      17.191   6.498 -20.707  0.00  0.00     0.139 C 
ATOM     68  O   UNK d   0      18.374   6.738 -21.150  0.00  0.00    -0.650 OA
BRANCH  67  69
ATOM     69  O   UNK d   0      16.431   7.646 -20.483  0.00  0.00    -0.776 OA
ATOM     70  H   UNK d   0      16.955   8.476 -20.169  0.00  0.00     0.167 HD
ENDBRANCH  67  69
ENDBRANCH  66  67
ENDBRANCH  65  66
ENDBRANCH  14  65
ENDBRANCH   6   7
ENDBRANCH   5   6
ENDBRANCH   2   5
TORSDOF 28
ENDMDL
MODEL 10
REMARK VINA RESULT:      -6.0     29.083     34.964
REMARK  28 active torsions:
REMARK  status: ('A' for Active; 'I' for Inactive)
REMARK    1  A    between atoms: C_2  and  O_3 
REMARK    2  A    between atoms: C_2  and  C_4 
REMARK    3  A    between atoms: C_4  and  C_5 
REMARK    4  A    between atoms: C_5  and  C_6 
REMARK    5  A    between atoms: C_7  and  C_8 
REMARK    6  A    between atoms: C_8  and  C_9 
REMARK    7  A    between atoms: C_9  and  O_11 
REMARK    8  A    between atoms: C_28  and  C_29 
REMARK    9  A    between atoms: C_29  and  C_30 
REMARK   10  A    between atoms: C_30  and  O_32 
REMARK   11  A    between atoms: C_33  and  C_34 
REMARK   12  A    between atoms: C_34  and  C_35 
REMARK   13  A    between atoms: C_35  and  C_36 
REMARK   14  A    between atoms: C_36  and  O_38 
REMARK   15  A    between atoms: C_39  and  C_40 
REMARK   16  A    between atoms: C_40  and  C_41 
REMARK   17  A    between atoms: C_41  and  C_42 
REMARK   18  A    between atoms: C_42  and  O_44 
REMARK   19  A    between atoms: C_45  and  C_46 
REMARK   20  A    between atoms: C_46  and  C_47 
REMARK   21  A    between atoms: C_47  and  O_49 
REMARK   22  A    between atoms: C_50  and  C_51 
REMARK   23  A    between atoms: C_51  and  C_52 
REMARK   24  A    between atoms: C_52  and  O_54 
REMARK   25  A    between atoms: C_55  and  C_56 
REMARK   26  A    between atoms: C_56  and  C_57 
REMARK   27  A    between atoms: C_57  and  C_58 
REMARK   28  A    between atoms: C_58  and  O_60 
ROOT
ATOM      1  O   UNK d   0      15.127  -1.679 -17.990  0.00  0.00    -0.650 OA
ATOM      2  C   UNK d   0      14.648  -0.646 -18.507  0.00  0.00     0.139 C 
ENDROOT
BRANCH   2   3
ATOM      3  O   UNK d   0      13.332  -0.325 -18.277  0.00  0.00    -0.776 OA
ATOM      4  H   UNK d   0      12.634  -1.052 -18.105  0.00  0.00     0.167 HD
ENDBRANCH   2   3
BRANCH   2   5
ATOM      5  C   UNK d   0      15.500   0.226 -19.365  0.00  0.00     0.115 C 
BRANCH   5   6
ATOM      6  C   UNK d   0      14.637   1.077 -20.257  0.00  0.00     0.052 C 
BRANCH   6   7
ATOM      7  C   UNK d   0      15.038   2.533 -20.235  0.00  0.00    -0.020 A 
ATOM      8  C   UNK d   0      14.576   3.476 -19.454  0.00  0.00    -0.011 A 
ATOM      9  C   UNK d   0      15.251   4.714 -19.805  0.00  0.00     0.067 A 
ATOM     10  C   UNK d   0      15.231   6.043 -19.351  0.00  0.00     0.062 C 
ATOM     11  N   UNK d   0      16.104   4.434 -20.813  0.00  0.00    -0.248 NA
ATOM     12  C   UNK d   0      16.163   7.048 -19.630  0.00  0.00     0.041 A 
ATOM     13  N   UNK d   0      16.781   7.391 -20.776  0.00  0.00    -0.355 N 
ATOM     14  C   UNK d   0      16.633   7.852 -18.576  0.00  0.00    -0.022 A 
ATOM     15  C   UNK d   0      17.636   8.386 -20.475  0.00  0.00     0.042 A 
ATOM     16  H   UNK d   0      16.602   6.951 -21.782  0.00  0.00     0.166 HD
ATOM     17  C   UNK d   0      18.522   9.109 -21.298  0.00  0.00     0.062 C 
ATOM     18  C   UNK d   0      17.571   8.703 -19.105  0.00  0.00    -0.013 A 
ATOM     19  C   UNK d   0      19.378   8.642 -22.263  0.00  0.00     0.067 A 
ATOM     20  N   UNK d   0      19.236   7.366 -22.631  0.00  0.00    -0.248 NA
ATOM     21  C   UNK d   0      20.481   9.190 -23.035  0.00  0.00    -0.011 A 
ATOM     22  C   UNK d   0      20.166   7.040 -23.587  0.00  0.00     0.066 A 
ATOM     23  C   UNK d   0      20.107   5.748 -24.089  0.00  0.00     0.062 C 
ATOM     24  C   UNK d   0      20.940   8.246 -23.805  0.00  0.00    -0.020 A 
ATOM     25  C   UNK d   0      19.154   4.758 -23.805  0.00  0.00     0.041 A 
ATOM     26  N   UNK d   0      18.551   4.407 -22.663  0.00  0.00    -0.355 N 
ATOM     27  C   UNK d   0      18.680   3.954 -24.865  0.00  0.00    -0.022 A 
ATOM     28  C   UNK d   0      17.705   3.408 -22.959  0.00  0.00     0.042 A 
ATOM     29  H   UNK d   0      18.740   4.842 -21.651  0.00  0.00     0.166 HD
ATOM     30  C   UNK d   0      16.824   2.674 -22.149  0.00  0.00     0.062 C 
ATOM     31  C   UNK d   0      17.763   3.097 -24.339  0.00  0.00    -0.013 A 
ATOM     32  C   UNK d   0      16.024   3.138 -21.118  0.00  0.00     0.066 A 
BRANCH   8  33
ATOM     33  C   UNK d   0      13.550   3.333 -18.405  0.00  0.00     0.151 C 
BRANCH  33  34
ATOM     34  C   UNK d   0      14.119   2.960 -17.097  0.00  0.00     0.143 C 
ATOM     35  O   UNK d   0      13.661   2.006 -16.452  0.00  0.00    -0.650 OA
BRANCH  34  36
ATOM     36  O   UNK d   0      15.173   3.683 -16.588  0.00  0.00    -0.776 OA
ATOM     37  H   UNK d   0      15.026   4.598 -16.140  0.00  0.00     0.167 HD
ENDBRANCH  34  36
ENDBRANCH  33  34
ENDBRANCH   8  33
BRANCH  31  38
ATOM     38  C   UNK d   0      16.977   2.055 -25.099  0.00  0.00     0.151 C 
BRANCH  38  39
ATOM     39  C   UNK d   0      15.677   2.531 -25.523  0.00  0.00     0.143 C 
ATOM     40  O   UNK d   0      15.527   3.258 -26.521  0.00  0.00    -0.650 OA
BRANCH  39  41
ATOM     41  O   UNK d   0      14.543   2.168 -24.797  0.00  0.00    -0.776 OA
ATOM     42  H   UNK d   0      14.251   2.805 -24.048  0.00  0.00     0.167 HD
ENDBRANCH  39  41
ENDBRANCH  38  39
ENDBRANCH  31  38
BRANCH  27  43
ATOM     43  C   UNK d   0      19.061   3.969 -26.324  0.00  0.00     0.052 C 
BRANCH  43  44
ATOM     44  C   UNK d   0      18.446   5.099 -27.084  0.00  0.00     0.115 C 
BRANCH  44  45
ATOM     45  C   UNK d   0      19.569   5.931 -27.590  0.00  0.00     0.139 C 
ATOM     46  O   UNK d   0      20.392   5.400 -28.375  0.00  0.00    -0.650 OA
BRANCH  45  47
ATOM     47  O   UNK d   0      19.737   7.253 -27.238  0.00  0.00    -0.776 OA
ATOM     48  H   UNK d   0      19.462   7.627 -26.315  0.00  0.00     0.167 HD
ENDBRANCH  45  47
ENDBRANCH  44  45
ENDBRANCH  43  44
ENDBRANCH  27  43
BRANCH  24  49
ATOM     49  C   UNK d   0      22.034   8.378 -24.783  0.00  0.00     0.052 C 
BRANCH  49  50
ATOM     50  C   UNK d   0      23.329   7.885 -24.190  0.00  0.00     0.115 C 
BRANCH  50  51
ATOM     51  C   UNK d   0      24.423   8.842 -24.094  0.00  0.00     0.139 C 
ATOM     52  O   UNK d   0      25.594   8.504 -23.798  0.00  0.00    -0.650 OA
BRANCH  51  53
ATOM     53  O   UNK d   0      24.183  10.186 -24.335  0.00  0.00    -0.776 OA
ATOM     54  H   UNK d   0      24.968  10.813 -24.355  0.00  0.00     0.167 HD
ENDBRANCH  51  53
ENDBRANCH  50  51
ENDBRANCH  49  50
ENDBRANCH  24  49
BRANCH  21  55
ATOM     55  C   UNK d   0      20.957  10.601 -22.926  0.00  0.00     0.151 C 
BRANCH  55  56
ATOM     56  C   UNK d   0      21.734  10.827 -21.698  0.00  0.00     0.143 C 
ATOM     57  O   UNK d   0      22.835  10.280 -21.486  0.00  0.00    -0.650 OA
BRANCH  56  58
ATOM     58  O   UNK d   0      21.203  11.692 -20.743  0.00  0.00    -0.776 OA
ATOM     59  H   UNK d   0      21.747  12.560 -20.590  0.00  0.00     0.167 HD
ENDBRANCH  56  58
ENDBRANCH  55  56
ENDBRANCH  21  55
BRANCH  18  60
ATOM     60  C   UNK d   0      18.340   9.738 -18.320  0.00  0.00     0.151 C 
BRANCH  60  61
ATOM     61  C   UNK d   0      19.693   9.188 -18.145  0.00  0.00     0.143 C 
ATOM     62  O   UNK d   0      19.991   8.034 -17.839  0.00  0.00    -0.650 OA
BRANCH  61  63
ATOM     63  O   UNK d   0      20.748  10.108 -18.357  0.00  0.00    -0.776 OA
ATOM     64  H   UNK d   0      20.584  11.099 -18.340  0.00  0.00     0.167 HD
ENDBRANCH  61  63
ENDBRANCH  60  61
ENDBRANCH  18  60
BRANCH  14  65
ATOM     65  C   UNK d   0      16.195   7.943 -17.141  0.00  0.00     0.052 C 
BRANCH  65  66
ATOM     66  C   UNK d   0      17.065   7.166 -16.218  0.00  0.00     0.115 C 
BRANCH  66  67
ATOM     67  C   UNK d   0      17.656   7.816 -15.082  0.00  0.00     0.139 C 
ATOM     68  O   UNK d   0      16.902   8.115 -14.084  0.00  0.00    -0.650 OA
BRANCH  67  69
ATOM     69  O   UNK d   0      18.991   8.181 -14.908  0.00  0.00    -0.776 OA
ATOM     70  H   UNK d   0      19.478   8.514 -15.752  0.00  0.00     0.167 HD
ENDBRANCH  67  69
ENDBRANCH  66  67
ENDBRANCH  65  66
ENDBRANCH  14  65
ENDBRANCH   6   7
ENDBRANCH   5   6
ENDBRANCH   2   5
TORSDOF 28
ENDMDL
MODEL 11
REMARK VINA RESULT:      -5.9     30.744     36.516
REMARK  28 active torsions:
REMARK  status: ('A' for Active; 'I' for Inactive)
REMARK    1  A    between atoms: C_2  and  O_3 
REMARK    2  A    between atoms: C_2  and  C_4 
REMARK    3  A    between atoms: C_4  and  C_5 
REMARK    4  A    between atoms: C_5  and  C_6 
REMARK    5  A    between atoms: C_7  and  C_8 
REMARK    6  A    between atoms: C_8  and  C_9 
REMARK    7  A    between atoms: C_9  and  O_11 
REMARK    8  A    between atoms: C_28  and  C_29 
REMARK    9  A    between atoms: C_29  and  C_30 
REMARK   10  A    between atoms: C_30  and  O_32 
REMARK   11  A    between atoms: C_33  and  C_34 
REMARK   12  A    between atoms: C_34  and  C_35 
REMARK   13  A    between atoms: C_35  and  C_36 
REMARK   14  A    between atoms: C_36  and  O_38 
REMARK   15  A    between atoms: C_39  and  C_40 
REMARK   16  A    between atoms: C_40  and  C_41 
REMARK   17  A    between atoms: C_41  and  C_42 
REMARK   18  A    between atoms: C_42  and  O_44 
REMARK   19  A    between atoms: C_45  and  C_46 
REMARK   20  A    between atoms: C_46  and  C_47 
REMARK   21  A    between atoms: C_47  and  O_49 
REMARK   22  A    between atoms: C_50  and  C_51 
REMARK   23  A    between atoms: C_51  and  C_52 
REMARK   24  A    between atoms: C_52  and  O_54 
REMARK   25  A    between atoms: C_55  and  C_56 
REMARK   26  A    between atoms: C_56  and  C_57 
REMARK   27  A    between atoms: C_57  and  C_58 
REMARK   28  A    between atoms: C_58  and  O_60 
ROOT
ATOM      1  O   UNK d   0      16.386   9.384 -17.238  0.00  0.00    -0.650 OA
ATOM      2  C   UNK d   0      16.483   8.411 -16.458  0.00  0.00     0.139 C 
ENDROOT
BRANCH   2   3
ATOM      3  O   UNK d   0      16.889   8.624 -15.163  0.00  0.00    -0.776 OA
ATOM      4  H   UNK d   0      17.875   8.768 -14.936  0.00  0.00     0.167 HD
ENDBRANCH   2   3
BRANCH   2   5
ATOM      5  C   UNK d   0      16.159   7.036 -16.933  0.00  0.00     0.115 C 
BRANCH   5   6
ATOM      6  C   UNK d   0      15.340   7.103 -18.193  0.00  0.00     0.052 C 
BRANCH   6   7
ATOM      7  C   UNK d   0      16.017   6.430 -19.363  0.00  0.00    -0.020 A 
ATOM      8  C   UNK d   0      15.800   5.225 -19.826  0.00  0.00    -0.011 A 
ATOM      9  C   UNK d   0      16.692   5.014 -20.954  0.00  0.00     0.067 A 
ATOM     10  C   UNK d   0      16.937   3.980 -21.871  0.00  0.00     0.062 C 
ATOM     11  N   UNK d   0      17.420   6.140 -21.104  0.00  0.00    -0.248 NA
ATOM     12  C   UNK d   0      17.649   4.065 -23.073  0.00  0.00     0.041 A 
ATOM     13  N   UNK d   0      18.805   4.684 -23.376  0.00  0.00    -0.355 N 
ATOM     14  C   UNK d   0      17.106   3.474 -24.228  0.00  0.00    -0.022 A 
ATOM     15  C   UNK d   0      19.006   4.508 -24.696  0.00  0.00     0.042 A 
ATOM     16  H   UNK d   0      19.476   5.219 -22.668  0.00  0.00     0.166 HD
ATOM     17  C   UNK d   0      20.057   4.945 -25.526  0.00  0.00     0.062 C 
ATOM     18  C   UNK d   0      17.961   3.754 -25.264  0.00  0.00    -0.013 A 
ATOM     19  C   UNK d   0      20.658   6.176 -25.581  0.00  0.00     0.067 A 
ATOM     20  N   UNK d   0      20.366   7.036 -24.602  0.00  0.00    -0.248 NA
ATOM     21  C   UNK d   0      21.576   6.852 -26.483  0.00  0.00    -0.011 A 
ATOM     22  C   UNK d   0      21.026   8.224 -24.798  0.00  0.00     0.066 A 
ATOM     23  C   UNK d   0      20.841   9.199 -23.829  0.00  0.00     0.062 C 
ATOM     24  C   UNK d   0      21.784   8.051 -26.022  0.00  0.00    -0.020 A 
ATOM     25  C   UNK d   0      20.133   9.090 -22.622  0.00  0.00     0.041 A 
ATOM     26  N   UNK d   0      18.976   8.487 -22.323  0.00  0.00    -0.355 N 
ATOM     27  C   UNK d   0      20.681   9.680 -21.462  0.00  0.00    -0.022 A 
ATOM     28  C   UNK d   0      18.769   8.669 -21.010  0.00  0.00     0.042 A 
ATOM     29  H   UNK d   0      18.298   7.959 -23.038  0.00  0.00     0.166 HD
ATOM     30  C   UNK d   0      17.724   8.248 -20.173  0.00  0.00     0.062 C 
ATOM     31  C   UNK d   0      19.825   9.418 -20.437  0.00  0.00    -0.013 A 
ATOM     32  C   UNK d   0      17.062   7.031 -20.178  0.00  0.00     0.066 A 
BRANCH   8  33
ATOM     33  C   UNK d   0      14.833   4.239 -19.308  0.00  0.00     0.151 C 
BRANCH  33  34
ATOM     34  C   UNK d   0      15.446   3.274 -18.378  0.00  0.00     0.143 C 
ATOM     35  O   UNK d   0      16.553   3.496 -17.868  0.00  0.00    -0.650 OA
BRANCH  34  36
ATOM     36  O   UNK d   0      14.777   2.111 -18.074  0.00  0.00    -0.776 OA
ATOM     37  H   UNK d   0      13.748   2.068 -18.083  0.00  0.00     0.167 HD
ENDBRANCH  34  36
ENDBRANCH  33  34
ENDBRANCH   8  33
BRANCH  31  38
ATOM     38  C   UNK d   0      20.002   9.841 -18.998  0.00  0.00     0.151 C 
BRANCH  38  39
ATOM     39  C   UNK d   0      20.531   8.783 -18.163  0.00  0.00     0.143 C 
ATOM     40  O   UNK d   0      21.491   8.075 -18.515  0.00  0.00    -0.650 OA
BRANCH  39  41
ATOM     41  O   UNK d   0      19.954   8.538 -16.917  0.00  0.00    -0.776 OA
ATOM     42  H   UNK d   0      20.419   8.954 -16.104  0.00  0.00     0.167 HD
ENDBRANCH  39  41
ENDBRANCH  38  39
ENDBRANCH  31  38
BRANCH  27  43
ATOM     43  C   UNK d   0      21.957  10.467 -21.299  0.00  0.00     0.052 C 
BRANCH  43  44
ATOM     44  C   UNK d   0      23.179   9.607 -21.250  0.00  0.00     0.115 C 
BRANCH  44  45
ATOM     45  C   UNK d   0      24.221  10.306 -22.046  0.00  0.00     0.139 C 
ATOM     46  O   UNK d   0      24.073  10.367 -23.292  0.00  0.00    -0.650 OA
BRANCH  45  47
ATOM     47  O   UNK d   0      25.332  10.889 -21.475  0.00  0.00    -0.776 OA
ATOM     48  H   UNK d   0      25.427  11.035 -20.457  0.00  0.00     0.167 HD
ENDBRANCH  45  47
ENDBRANCH  44  45
ENDBRANCH  43  44
ENDBRANCH  27  43
BRANCH  24  49
ATOM     49  C   UNK d   0      22.681   9.063 -26.606  0.00  0.00     0.052 C 
BRANCH  49  50
ATOM     50  C   UNK d   0      21.944   9.890 -27.628  0.00  0.00     0.115 C 
BRANCH  50  51
ATOM     51  C   UNK d   0      20.902  10.781 -27.136  0.00  0.00     0.139 C 
ATOM     52  O   UNK d   0      21.154  11.829 -26.497  0.00  0.00    -0.650 OA
BRANCH  51  53
ATOM     53  O   UNK d   0      19.570  10.475 -27.371  0.00  0.00    -0.776 OA
ATOM     54  H   UNK d   0      19.027  11.112 -27.926  0.00  0.00     0.167 HD
ENDBRANCH  51  53
ENDBRANCH  50  51
ENDBRANCH  49  50
ENDBRANCH  24  49
BRANCH  21  55
ATOM     55  C   UNK d   0      22.154   6.226 -27.709  0.00  0.00     0.151 C 
BRANCH  55  56
ATOM     56  C   UNK d   0      23.380   5.468 -27.417  0.00  0.00     0.143 C 
ATOM     57  O   UNK d   0      23.364   4.299 -26.983  0.00  0.00    -0.650 OA
BRANCH  56  58
ATOM     58  O   UNK d   0      24.602   6.100 -27.640  0.00  0.00    -0.776 OA
ATOM     59  H   UNK d   0      24.563   6.911 -28.284  0.00  0.00     0.167 HD
ENDBRANCH  56  58
ENDBRANCH  55  56
ENDBRANCH  21  55
BRANCH  18  60
ATOM     60  C   UNK d   0      17.760   3.315 -26.694  0.00  0.00     0.151 C 
BRANCH  60  61
ATOM     61  C   UNK d   0      16.865   4.313 -27.300  0.00  0.00     0.143 C 
ATOM     62  O   UNK d   0      15.732   4.122 -27.742  0.00  0.00    -0.650 OA
BRANCH  61  63
ATOM     63  O   UNK d   0      17.387   5.627 -27.369  0.00  0.00    -0.776 OA
ATOM     64  H   UNK d   0      18.335   5.794 -27.656  0.00  0.00     0.167 HD
ENDBRANCH  61  63
ENDBRANCH  60  61
ENDBRANCH  18  60
BRANCH  14  65
ATOM     65  C   UNK d   0      15.904   2.590 -24.405  0.00  0.00     0.052 C 
BRANCH  65  66
ATOM     66  C   UNK d   0      14.638   3.355 -24.566  0.00  0.00     0.115 C 
BRANCH  66  67
ATOM     67  C   UNK d   0      13.526   3.081 -23.701  0.00  0.00     0.139 C 
ATOM     68  O   UNK d   0      13.732   3.033 -22.433  0.00  0.00    -0.650 OA
BRANCH  67  69
ATOM     69  O   UNK d   0      12.199   2.850 -24.064  0.00  0.00    -0.776 OA
ATOM     70  H   UNK d   0      12.052   2.496 -25.020  0.00  0.00     0.167 HD
ENDBRANCH  67  69
ENDBRANCH  66  67
ENDBRANCH  65  66
ENDBRANCH  14  65
ENDBRANCH   6   7
ENDBRANCH   5   6
ENDBRANCH   2   5
TORSDOF 28
ENDMDL
MODEL 12
REMARK VINA RESULT:      -5.9     27.685     30.985
REMARK  28 active torsions:
REMARK  status: ('A' for Active; 'I' for Inactive)
REMARK    1  A    between atoms: C_2  and  O_3 
REMARK    2  A    between atoms: C_2  and  C_4 
REMARK    3  A    between atoms: C_4  and  C_5 
REMARK    4  A    between atoms: C_5  and  C_6 
REMARK    5  A    between atoms: C_7  and  C_8 
REMARK    6  A    between atoms: C_8  and  C_9 
REMARK    7  A    between atoms: C_9  and  O_11 
REMARK    8  A    between atoms: C_28  and  C_29 
REMARK    9  A    between atoms: C_29  and  C_30 
REMARK   10  A    between atoms: C_30  and  O_32 
REMARK   11  A    between atoms: C_33  and  C_34 
REMARK   12  A    between atoms: C_34  and  C_35 
REMARK   13  A    between atoms: C_35  and  C_36 
REMARK   14  A    between atoms: C_36  and  O_38 
REMARK   15  A    between atoms: C_39  and  C_40 
REMARK   16  A    between atoms: C_40  and  C_41 
REMARK   17  A    between atoms: C_41  and  C_42 
REMARK   18  A    between atoms: C_42  and  O_44 
REMARK   19  A    between atoms: C_45  and  C_46 
REMARK   20  A    between atoms: C_46  and  C_47 
REMARK   21  A    between atoms: C_47  and  O_49 
REMARK   22  A    between atoms: C_50  and  C_51 
REMARK   23  A    between atoms: C_51  and  C_52 
REMARK   24  A    between atoms: C_52  and  O_54 
REMARK   25  A    between atoms: C_55  and  C_56 
REMARK   26  A    between atoms: C_56  and  C_57 
REMARK   27  A    between atoms: C_57  and  C_58 
REMARK   28  A    between atoms: C_58  and  O_60 
ROOT
ATOM      1  O   UNK d   0     -18.102  -5.999  -4.843  0.00  0.00    -0.650 OA
ATOM      2  C   UNK d   0     -17.280  -5.084  -4.615  0.00  0.00     0.139 C 
ENDROOT
BRANCH   2   3
ATOM      3  O   UNK d   0     -15.938  -5.326  -4.787  0.00  0.00    -0.776 OA
ATOM      4  H   UNK d   0     -15.612  -6.122  -5.339  0.00  0.00     0.167 HD
ENDBRANCH   2   3
BRANCH   2   5
ATOM      5  C   UNK d   0     -17.756  -3.746  -4.162  0.00  0.00     0.115 C 
BRANCH   5   6
ATOM      6  C   UNK d   0     -18.740  -3.901  -3.035  0.00  0.00     0.052 C 
BRANCH   6   7
ATOM      7  C   UNK d   0     -18.104  -3.716  -1.678  0.00  0.00    -0.020 A 
ATOM      8  C   UNK d   0     -18.074  -2.628  -0.952  0.00  0.00    -0.011 A 
ATOM      9  C   UNK d   0     -17.345  -2.928   0.269  0.00  0.00     0.067 A 
ATOM     10  C   UNK d   0     -16.988  -2.229   1.433  0.00  0.00     0.062 C 
ATOM     11  N   UNK d   0     -16.961  -4.220   0.200  0.00  0.00    -0.248 NA
ATOM     12  C   UNK d   0     -16.518  -2.769   2.635  0.00  0.00     0.041 A 
ATOM     13  N   UNK d   0     -15.620  -3.742   2.878  0.00  0.00    -0.355 N 
ATOM     14  C   UNK d   0     -17.064  -2.309   3.847  0.00  0.00    -0.022 A 
ATOM     15  C   UNK d   0     -15.588  -3.918   4.213  0.00  0.00     0.042 A 
ATOM     16  H   UNK d   0     -15.007  -4.281   2.123  0.00  0.00     0.166 HD
ATOM     17  C   UNK d   0     -14.826  -4.804   5.000  0.00  0.00     0.062 C 
ATOM     18  C   UNK d   0     -16.481  -3.037   4.854  0.00  0.00    -0.013 A 
ATOM     19  C   UNK d   0     -14.577  -6.138   4.801  0.00  0.00     0.067 A 
ATOM     20  N   UNK d   0     -14.923  -6.647   3.616  0.00  0.00    -0.248 NA
ATOM     21  C   UNK d   0     -14.013  -7.224   5.585  0.00  0.00    -0.011 A 
ATOM     22  C   UNK d   0     -14.628  -7.988   3.569  0.00  0.00     0.066 A 
ATOM     23  C   UNK d   0     -14.903  -8.638   2.375  0.00  0.00     0.062 C 
ATOM     24  C   UNK d   0     -14.050  -8.304   4.860  0.00  0.00    -0.020 A 
ATOM     25  C   UNK d   0     -15.363  -8.075   1.175  0.00  0.00     0.041 A 
ATOM     26  N   UNK d   0     -16.266  -7.117   0.932  0.00  0.00    -0.355 N 
ATOM     27  C   UNK d   0     -14.811  -8.534  -0.041  0.00  0.00    -0.022 A 
ATOM     28  C   UNK d   0     -16.306  -6.947  -0.399  0.00  0.00     0.042 A 
ATOM     29  H   UNK d   0     -16.890  -6.584   1.691  0.00  0.00     0.166 HD
ATOM     30  C   UNK d   0     -17.066  -6.076  -1.195  0.00  0.00     0.062 C 
ATOM     31  C   UNK d   0     -15.402  -7.825  -1.042  0.00  0.00    -0.013 A 
ATOM     32  C   UNK d   0     -17.387  -4.751  -0.947  0.00  0.00     0.066 A 
BRANCH   8  33
ATOM     33  C   UNK d   0     -18.664  -1.321  -1.293  0.00  0.00     0.151 C 
BRANCH  33  34
ATOM     34  C   UNK d   0     -17.696  -0.405  -1.923  0.00  0.00     0.143 C 
ATOM     35  O   UNK d   0     -17.694  -0.225  -3.149  0.00  0.00    -0.650 OA
BRANCH  34  36
ATOM     36  O   UNK d   0     -16.781   0.256  -1.136  0.00  0.00    -0.776 OA
ATOM     37  H   UNK d   0     -16.884   0.292  -0.112  0.00  0.00     0.167 HD
ENDBRANCH  34  36
ENDBRANCH  33  34
ENDBRANCH   8  33
BRANCH  31  38
ATOM     38  C   UNK d   0     -15.117  -7.962  -2.519  0.00  0.00     0.151 C 
BRANCH  38  39
ATOM     39  C   UNK d   0     -13.959  -7.202  -2.941  0.00  0.00     0.143 C 
ATOM     40  O   UNK d   0     -13.432  -7.356  -4.056  0.00  0.00    -0.650 OA
BRANCH  39  41
ATOM     41  O   UNK d   0     -13.405  -6.259  -2.075  0.00  0.00    -0.776 OA
ATOM     42  H   UNK d   0     -14.023  -5.876  -1.353  0.00  0.00     0.167 HD
ENDBRANCH  39  41
ENDBRANCH  38  39
ENDBRANCH  31  38
BRANCH  27  43
ATOM     43  C   UNK d   0     -13.769  -9.598  -0.280  0.00  0.00     0.052 C 
BRANCH  43  44
ATOM     44  C   UNK d   0     -12.414  -9.221   0.225  0.00  0.00     0.115 C 
BRANCH  44  45
ATOM     45  C   UNK d   0     -11.546  -9.059  -0.971  0.00  0.00     0.139 C 
ATOM     46  O   UNK d   0     -11.384 -10.051  -1.723  0.00  0.00    -0.650 OA
BRANCH  45  47
ATOM     47  O   UNK d   0     -10.923  -7.871  -1.286  0.00  0.00    -0.776 OA
ATOM     48  H   UNK d   0     -10.356  -7.745  -2.140  0.00  0.00     0.167 HD
ENDBRANCH  45  47
ENDBRANCH  44  45
ENDBRANCH  43  44
ENDBRANCH  27  43
BRANCH  24  49
ATOM     49  C   UNK d   0     -13.544  -9.631   5.253  0.00  0.00     0.052 C 
BRANCH  49  50
ATOM     50  C   UNK d   0     -12.295  -9.966   4.478  0.00  0.00     0.115 C 
BRANCH  50  51
ATOM     51  C   UNK d   0     -11.678 -11.259   4.739  0.00  0.00     0.139 C 
ATOM     52  O   UNK d   0     -10.725 -11.704   4.057  0.00  0.00    -0.650 OA
BRANCH  51  53
ATOM     53  O   UNK d   0     -12.149 -12.047   5.778  0.00  0.00    -0.776 OA
ATOM     54  H   UNK d   0     -11.544 -12.759   6.147  0.00  0.00     0.167 HD
ENDBRANCH  51  53
ENDBRANCH  50  51
ENDBRANCH  49  50
ENDBRANCH  24  49
BRANCH  21  55
ATOM     55  C   UNK d   0     -13.493  -7.067   6.975  0.00  0.00     0.151 C 
BRANCH  55  56
ATOM     56  C   UNK d   0     -14.535  -6.608   7.906  0.00  0.00     0.143 C 
ATOM     57  O   UNK d   0     -15.537  -7.294   8.189  0.00  0.00    -0.650 OA
BRANCH  56  58
ATOM     58  O   UNK d   0     -14.380  -5.350   8.486  0.00  0.00    -0.776 OA
ATOM     59  H   UNK d   0     -14.596  -4.552   7.862  0.00  0.00     0.167 HD
ENDBRANCH  56  58
ENDBRANCH  55  56
ENDBRANCH  21  55
BRANCH  18  60
ATOM     60  C   UNK d   0     -16.783  -2.876   6.324  0.00  0.00     0.151 C 
BRANCH  60  61
ATOM     61  C   UNK d   0     -17.490  -4.101   6.726  0.00  0.00     0.143 C 
ATOM     62  O   UNK d   0     -18.289  -4.753   6.053  0.00  0.00    -0.650 OA
BRANCH  61  63
ATOM     63  O   UNK d   0     -17.204  -4.560   8.035  0.00  0.00    -0.776 OA
ATOM     64  H   UNK d   0     -17.388  -3.984   8.838  0.00  0.00     0.167 HD
ENDBRANCH  61  63
ENDBRANCH  60  61
ENDBRANCH  18  60
BRANCH  14  65
ATOM     65  C   UNK d   0     -18.012  -1.178   4.129  0.00  0.00     0.052 C 
BRANCH  65  66
ATOM     66  C   UNK d   0     -19.417  -1.490   3.753  0.00  0.00     0.115 C 
BRANCH  66  67
ATOM     67  C   UNK d   0     -20.131  -2.519   4.456  0.00  0.00     0.139 C 
ATOM     68  O   UNK d   0     -20.719  -2.214   5.558  0.00  0.00    -0.650 OA
BRANCH  67  69
ATOM     69  O   UNK d   0     -20.278  -3.856   4.091  0.00  0.00    -0.776 OA
ATOM     70  H   UNK d   0     -19.473  -4.467   4.293  0.00  0.00     0.167 HD
ENDBRANCH  67  69
ENDBRANCH  66  67
ENDBRANCH  65  66
ENDBRANCH  14  65
ENDBRANCH   6   7
ENDBRANCH   5   6
ENDBRANCH   2   5
TORSDOF 28
ENDMDL
MODEL 13
REMARK VINA RESULT:      -5.9     22.785     28.684
REMARK  28 active torsions:
REMARK  status: ('A' for Active; 'I' for Inactive)
REMARK    1  A    between atoms: C_2  and  O_3 
REMARK    2  A    between atoms: C_2  and  C_4 
REMARK    3  A    between atoms: C_4  and  C_5 
REMARK    4  A    between atoms: C_5  and  C_6 
REMARK    5  A    between atoms: C_7  and  C_8 
REMARK    6  A    between atoms: C_8  and  C_9 
REMARK    7  A    between atoms: C_9  and  O_11 
REMARK    8  A    between atoms: C_28  and  C_29 
REMARK    9  A    between atoms: C_29  and  C_30 
REMARK   10  A    between atoms: C_30  and  O_32 
REMARK   11  A    between atoms: C_33  and  C_34 
REMARK   12  A    between atoms: C_34  and  C_35 
REMARK   13  A    between atoms: C_35  and  C_36 
REMARK   14  A    between atoms: C_36  and  O_38 
REMARK   15  A    between atoms: C_39  and  C_40 
REMARK   16  A    between atoms: C_40  and  C_41 
REMARK   17  A    between atoms: C_41  and  C_42 
REMARK   18  A    between atoms: C_42  and  O_44 
REMARK   19  A    between atoms: C_45  and  C_46 
REMARK   20  A    between atoms: C_46  and  C_47 
REMARK   21  A    between atoms: C_47  and  O_49 
REMARK   22  A    between atoms: C_50  and  C_51 
REMARK   23  A    between atoms: C_51  and  C_52 
REMARK   24  A    between atoms: C_52  and  O_54 
REMARK   25  A    between atoms: C_55  and  C_56 
REMARK   26  A    between atoms: C_56  and  C_57 
REMARK   27  A    between atoms: C_57  and  C_58 
REMARK   28  A    between atoms: C_58  and  O_60 
ROOT
ATOM      1  O   UNK d   0      18.691   8.022 -19.775  0.00  0.00    -0.650 OA
ATOM      2  C   UNK d   0      17.760   8.448 -19.056  0.00  0.00     0.139 C 
ENDROOT
BRANCH   2   3
ATOM      3  O   UNK d   0      18.000   9.487 -18.190  0.00  0.00    -0.776 OA
ATOM      4  H   UNK d   0      18.037   9.335 -17.180  0.00  0.00     0.167 HD
ENDBRANCH   2   3
BRANCH   2   5
ATOM      5  C   UNK d   0      16.406   7.830 -19.140  0.00  0.00     0.115 C 
BRANCH   5   6
ATOM      6  C   UNK d   0      15.749   7.836 -17.787  0.00  0.00     0.052 C 
BRANCH   6   7
ATOM      7  C   UNK d   0      16.071   6.602 -16.978  0.00  0.00    -0.020 A 
ATOM      8  C   UNK d   0      16.798   6.526 -15.893  0.00  0.00    -0.011 A 
ATOM      9  C   UNK d   0      16.833   5.133 -15.478  0.00  0.00     0.067 A 
ATOM     10  C   UNK d   0      17.400   4.406 -14.420  0.00  0.00     0.062 C 
ATOM     11  N   UNK d   0      16.106   4.430 -16.372  0.00  0.00    -0.248 NA
ATOM     12  C   UNK d   0      17.092   3.098 -14.030  0.00  0.00     0.041 A 
ATOM     13  N   UNK d   0      16.880   1.983 -14.756  0.00  0.00    -0.355 N 
ATOM     14  C   UNK d   0      16.900   2.822 -12.664  0.00  0.00    -0.022 A 
ATOM     15  C   UNK d   0      16.551   1.010 -13.886  0.00  0.00     0.042 A 
ATOM     16  H   UNK d   0      16.980   1.882 -15.859  0.00  0.00     0.166 HD
ATOM     17  C   UNK d   0      16.231  -0.345 -14.108  0.00  0.00     0.062 C 
ATOM     18  C   UNK d   0      16.553   1.498 -12.565  0.00  0.00    -0.013 A 
ATOM     19  C   UNK d   0      15.409  -0.892 -15.060  0.00  0.00     0.067 A 
ATOM     20  N   UNK d   0      14.995  -0.083 -16.039  0.00  0.00    -0.248 NA
ATOM     21  C   UNK d   0      14.813  -2.195 -15.301  0.00  0.00    -0.011 A 
ATOM     22  C   UNK d   0      14.171  -0.763 -16.902  0.00  0.00     0.066 A 
ATOM     23  C   UNK d   0      13.698  -0.049 -17.993  0.00  0.00     0.062 C 
ATOM     24  C   UNK d   0      14.086  -2.112 -16.378  0.00  0.00    -0.020 A 
ATOM     25  C   UNK d   0      14.030   1.261 -18.374  0.00  0.00     0.041 A 
ATOM     26  N   UNK d   0      14.226   2.372 -17.654  0.00  0.00    -0.355 N 
ATOM     27  C   UNK d   0      14.226   1.535 -19.745  0.00  0.00    -0.022 A 
ATOM     28  C   UNK d   0      14.546   3.347 -18.520  0.00  0.00     0.042 A 
ATOM     29  H   UNK d   0      14.115   2.475 -16.547  0.00  0.00     0.166 HD
ATOM     30  C   UNK d   0      14.857   4.700 -18.314  0.00  0.00     0.062 C 
ATOM     31  C   UNK d   0      14.554   2.853 -19.847  0.00  0.00    -0.013 A 
ATOM     32  C   UNK d   0      15.620   5.256 -17.300  0.00  0.00     0.066 A 
BRANCH   8  33
ATOM     33  C   UNK d   0      17.474   7.638 -15.200  0.00  0.00     0.151 C 
BRANCH  33  34
ATOM     34  C   UNK d   0      18.943   7.518 -15.227  0.00  0.00     0.143 C 
ATOM     35  O   UNK d   0      19.588   7.823 -16.240  0.00  0.00    -0.650 OA
BRANCH  34  36
ATOM     36  O   UNK d   0      19.603   7.059 -14.111  0.00  0.00    -0.776 OA
ATOM     37  H   UNK d   0      20.608   6.838 -14.138  0.00  0.00     0.167 HD
ENDBRANCH  34  36
ENDBRANCH  33  34
ENDBRANCH   8  33
BRANCH  31  38
ATOM     38  C   UNK d   0      14.869   3.597 -21.123  0.00  0.00     0.151 C 
BRANCH  38  39
ATOM     39  C   UNK d   0      16.282   3.873 -21.278  0.00  0.00     0.143 C 
ATOM     40  O   UNK d   0      17.144   2.977 -21.232  0.00  0.00    -0.650 OA
BRANCH  39  41
ATOM     41  O   UNK d   0      16.706   5.185 -21.488  0.00  0.00    -0.776 OA
ATOM     42  H   UNK d   0      17.712   5.361 -21.416  0.00  0.00     0.167 HD
ENDBRANCH  39  41
ENDBRANCH  38  39
ENDBRANCH  31  38
BRANCH  27  43
ATOM     43  C   UNK d   0      14.114   0.613 -20.933  0.00  0.00     0.052 C 
BRANCH  43  44
ATOM     44  C   UNK d   0      15.405  -0.051 -21.289  0.00  0.00     0.115 C 
BRANCH  44  45
ATOM     45  C   UNK d   0      15.621   0.193 -22.739  0.00  0.00     0.139 C 
ATOM     46  O   UNK d   0      14.753  -0.223 -23.545  0.00  0.00    -0.650 OA
BRANCH  45  47
ATOM     47  O   UNK d   0      16.726   0.857 -23.229  0.00  0.00    -0.776 OA
ATOM     48  H   UNK d   0      17.087   1.729 -22.809  0.00  0.00     0.167 HD
ENDBRANCH  45  47
ENDBRANCH  44  45
ENDBRANCH  43  44
ENDBRANCH  27  43
BRANCH  24  49
ATOM     49  C   UNK d   0      13.335  -3.212 -17.006  0.00  0.00     0.052 C 
BRANCH  49  50
ATOM     50  C   UNK d   0      11.913  -3.228 -16.507  0.00  0.00     0.115 C 
BRANCH  50  51
ATOM     51  C   UNK d   0      10.918  -2.531 -17.311  0.00  0.00     0.139 C 
ATOM     52  O   UNK d   0      10.328  -3.073 -18.276  0.00  0.00    -0.650 OA
BRANCH  51  53
ATOM     53  O   UNK d   0      10.598  -1.215 -17.017  0.00  0.00    -0.776 OA
ATOM     54  H   UNK d   0      11.263  -0.668 -16.499  0.00  0.00     0.167 HD
ENDBRANCH  51  53
ENDBRANCH  50  51
ENDBRANCH  49  50
ENDBRANCH  24  49
BRANCH  21  55
ATOM     55  C   UNK d   0      15.034  -3.388 -14.432  0.00  0.00     0.151 C 
BRANCH  55  56
ATOM     56  C   UNK d   0      14.047  -3.470 -13.345  0.00  0.00     0.143 C 
ATOM     57  O   UNK d   0      13.138  -4.323 -13.322  0.00  0.00    -0.650 OA
BRANCH  56  58
ATOM     58  O   UNK d   0      14.148  -2.548 -12.305  0.00  0.00    -0.776 OA
ATOM     59  H   UNK d   0      13.524  -2.729 -11.499  0.00  0.00     0.167 HD
ENDBRANCH  56  58
ENDBRANCH  55  56
ENDBRANCH  21  55
BRANCH  18  60
ATOM     60  C   UNK d   0      16.246   0.779 -11.274  0.00  0.00     0.151 C 
BRANCH  60  61
ATOM     61  C   UNK d   0      14.805   0.962 -11.043  0.00  0.00     0.143 C 
ATOM     62  O   UNK d   0      13.881   0.461 -11.685  0.00  0.00    -0.650 OA
BRANCH  61  63
ATOM     63  O   UNK d   0      14.471   1.809  -9.960  0.00  0.00    -0.776 OA
ATOM     64  H   UNK d   0      14.832   1.639  -9.038  0.00  0.00     0.167 HD
ENDBRANCH  61  63
ENDBRANCH  60  61
ENDBRANCH  18  60
BRANCH  14  65
ATOM     65  C   UNK d   0      17.115   3.682 -11.451  0.00  0.00     0.052 C 
BRANCH  65  66
ATOM     66  C   UNK d   0      18.545   3.783 -11.055  0.00  0.00     0.115 C 
BRANCH  66  67
ATOM     67  C   UNK d   0      19.206   5.056 -11.095  0.00  0.00     0.139 C 
ATOM     68  O   UNK d   0      20.114   5.248 -11.985  0.00  0.00    -0.650 OA
BRANCH  67  69
ATOM     69  O   UNK d   0      18.990   6.157 -10.268  0.00  0.00    -0.776 OA
ATOM     70  H   UNK d   0      18.501   6.954 -10.701  0.00  0.00     0.167 HD
ENDBRANCH  67  69
ENDBRANCH  66  67
ENDBRANCH  65  66
ENDBRANCH  14  65
ENDBRANCH   6   7
ENDBRANCH   5   6
ENDBRANCH   2   5
TORSDOF 28
ENDMDL
MODEL 14
REMARK VINA RESULT:      -5.9     14.878     18.648
REMARK  28 active torsions:
REMARK  status: ('A' for Active; 'I' for Inactive)
REMARK    1  A    between atoms: C_2  and  O_3 
REMARK    2  A    between atoms: C_2  and  C_4 
REMARK    3  A    between atoms: C_4  and  C_5 
REMARK    4  A    between atoms: C_5  and  C_6 
REMARK    5  A    between atoms: C_7  and  C_8 
REMARK    6  A    between atoms: C_8  and  C_9 
REMARK    7  A    between atoms: C_9  and  O_11 
REMARK    8  A    between atoms: C_28  and  C_29 
REMARK    9  A    between atoms: C_29  and  C_30 
REMARK   10  A    between atoms: C_30  and  O_32 
REMARK   11  A    between atoms: C_33  and  C_34 
REMARK   12  A    between atoms: C_34  and  C_35 
REMARK   13  A    between atoms: C_35  and  C_36 
REMARK   14  A    between atoms: C_36  and  O_38 
REMARK   15  A    between atoms: C_39  and  C_40 
REMARK   16  A    between atoms: C_40  and  C_41 
REMARK   17  A    between atoms: C_41  and  C_42 
REMARK   18  A    between atoms: C_42  and  O_44 
REMARK   19  A    between atoms: C_45  and  C_46 
REMARK   20  A    between atoms: C_46  and  C_47 
REMARK   21  A    between atoms: C_47  and  O_49 
REMARK   22  A    between atoms: C_50  and  C_51 
REMARK   23  A    between atoms: C_51  and  C_52 
REMARK   24  A    between atoms: C_52  and  O_54 
REMARK   25  A    between atoms: C_55  and  C_56 
REMARK   26  A    between atoms: C_56  and  C_57 
REMARK   27  A    between atoms: C_57  and  C_58 
REMARK   28  A    between atoms: C_58  and  O_60 
ROOT
ATOM      1  O   UNK d   0       0.993 -15.442   2.072  0.00  0.00    -0.650 OA
ATOM      2  C   UNK d   0       0.697 -14.416   1.419  0.00  0.00     0.139 C 
ENDROOT
BRANCH   2   3
ATOM      3  O   UNK d   0      -0.478 -13.759   1.694  0.00  0.00    -0.776 OA
ATOM      4  H   UNK d   0      -0.961 -13.892   2.585  0.00  0.00     0.167 HD
ENDBRANCH   2   3
BRANCH   2   5
ATOM      5  C   UNK d   0       1.613 -13.916   0.355  0.00  0.00     0.115 C 
BRANCH   5   6
ATOM      6  C   UNK d   0       1.960 -12.474   0.607  0.00  0.00     0.052 C 
BRANCH   6   7
ATOM      7  C   UNK d   0       1.870 -11.628  -0.640  0.00  0.00    -0.020 A 
ATOM      8  C   UNK d   0       2.831 -11.335  -1.478  0.00  0.00    -0.011 A 
ATOM      9  C   UNK d   0       2.272 -10.488  -2.519  0.00  0.00     0.067 A 
ATOM     10  C   UNK d   0       2.749  -9.868  -3.685  0.00  0.00     0.062 C 
ATOM     11  N   UNK d   0       0.965 -10.311  -2.232  0.00  0.00    -0.248 NA
ATOM     12  C   UNK d   0       1.989  -9.313  -4.720  0.00  0.00     0.041 A 
ATOM     13  N   UNK d   0       0.886  -8.542  -4.695  0.00  0.00    -0.355 N 
ATOM     14  C   UNK d   0       2.338  -9.605  -6.051  0.00  0.00    -0.022 A 
ATOM     15  C   UNK d   0       0.520  -8.344  -5.976  0.00  0.00     0.042 A 
ATOM     16  H   UNK d   0       0.386  -8.130  -3.791  0.00  0.00     0.166 HD
ATOM     17  C   UNK d   0      -0.557  -7.614  -6.515  0.00  0.00     0.062 C 
ATOM     18  C   UNK d   0       1.407  -8.995  -6.855  0.00  0.00    -0.013 A 
ATOM     19  C   UNK d   0      -1.870  -7.594  -6.119  0.00  0.00     0.067 A 
ATOM     20  N   UNK d   0      -2.159  -8.179  -4.954  0.00  0.00    -0.248 NA
ATOM     21  C   UNK d   0      -3.119  -7.088  -6.665  0.00  0.00    -0.011 A 
ATOM     22  C   UNK d   0      -3.506  -8.093  -4.698  0.00  0.00     0.066 A 
ATOM     23  C   UNK d   0      -3.940  -8.630  -3.495  0.00  0.00     0.062 C 
ATOM     24  C   UNK d   0      -4.072  -7.387  -5.831  0.00  0.00    -0.020 A 
ATOM     25  C   UNK d   0      -3.159  -9.171  -2.463  0.00  0.00     0.041 A 
ATOM     26  N   UNK d   0      -2.071  -9.950  -2.487  0.00  0.00    -0.355 N 
ATOM     27  C   UNK d   0      -3.507  -8.874  -1.127  0.00  0.00    -0.022 A 
ATOM     28  C   UNK d   0      -1.710 -10.157  -1.211  0.00  0.00     0.042 A 
ATOM     29  H   UNK d   0      -1.577 -10.372  -3.397  0.00  0.00     0.166 HD
ATOM     30  C   UNK d   0      -0.646 -10.888  -0.660  0.00  0.00     0.062 C 
ATOM     31  C   UNK d   0      -2.595  -9.493  -0.328  0.00  0.00    -0.013 A 
ATOM     32  C   UNK d   0       0.660 -10.972  -1.115  0.00  0.00     0.066 A 
BRANCH   8  33
ATOM     33  C   UNK d   0       4.238 -11.770  -1.397  0.00  0.00     0.151 C 
BRANCH  33  34
ATOM     34  C   UNK d   0       5.082 -10.833  -0.634  0.00  0.00     0.143 C 
ATOM     35  O   UNK d   0       5.817 -10.021  -1.214  0.00  0.00    -0.650 OA
BRANCH  34  36
ATOM     36  O   UNK d   0       5.052 -10.864   0.741  0.00  0.00    -0.776 OA
ATOM     37  H   UNK d   0       4.666 -10.080   1.285  0.00  0.00     0.167 HD
ENDBRANCH  34  36
ENDBRANCH  33  34
ENDBRANCH   8  33
BRANCH  31  38
ATOM     38  C   UNK d   0      -2.556  -9.448   1.181  0.00  0.00     0.151 C 
BRANCH  38  39
ATOM     39  C   UNK d   0      -3.063 -10.658   1.793  0.00  0.00     0.143 C 
ATOM     40  O   UNK d   0      -4.262 -10.982   1.733  0.00  0.00    -0.650 OA
BRANCH  39  41
ATOM     41  O   UNK d   0      -2.186 -11.501   2.476  0.00  0.00    -0.776 OA
ATOM     42  H   UNK d   0      -2.568 -12.012   3.278  0.00  0.00     0.167 HD
ENDBRANCH  39  41
ENDBRANCH  38  39
ENDBRANCH  31  38
BRANCH  27  43
ATOM     43  C   UNK d   0      -4.649  -8.045  -0.596  0.00  0.00     0.052 C 
BRANCH  43  44
ATOM     44  C   UNK d   0      -4.739  -6.692  -1.224  0.00  0.00     0.115 C 
BRANCH  44  45
ATOM     45  C   UNK d   0      -3.440  -6.018  -0.968  0.00  0.00     0.139 C 
ATOM     46  O   UNK d   0      -3.136  -5.750   0.221  0.00  0.00    -0.650 OA
BRANCH  45  47
ATOM     47  O   UNK d   0      -2.561  -5.683  -1.975  0.00  0.00    -0.776 OA
ATOM     48  H   UNK d   0      -1.870  -6.347  -2.360  0.00  0.00     0.167 HD
ENDBRANCH  45  47
ENDBRANCH  44  45
ENDBRANCH  43  44
ENDBRANCH  27  43
BRANCH  24  49
ATOM     49  C   UNK d   0      -5.494  -7.029  -5.973  0.00  0.00     0.052 C 
BRANCH  49  50
ATOM     50  C   UNK d   0      -5.674  -5.537  -5.859  0.00  0.00     0.115 C 
BRANCH  50  51
ATOM     51  C   UNK d   0      -5.519  -4.948  -4.536  0.00  0.00     0.139 C 
ATOM     52  O   UNK d   0      -6.486  -4.763  -3.760  0.00  0.00    -0.650 OA
BRANCH  51  53
ATOM     53  O   UNK d   0      -4.260  -4.566  -4.098  0.00  0.00    -0.776 OA
ATOM     54  H   UNK d   0      -4.173  -3.698  -3.598  0.00  0.00     0.167 HD
ENDBRANCH  51  53
ENDBRANCH  50  51
ENDBRANCH  49  50
ENDBRANCH  24  49
BRANCH  21  55
ATOM     55  C   UNK d   0      -3.227  -6.355  -7.960  0.00  0.00     0.151 C 
BRANCH  55  56
ATOM     56  C   UNK d   0      -3.122  -7.259  -9.116  0.00  0.00     0.143 C 
ATOM     57  O   UNK d   0      -2.059  -7.430  -9.744  0.00  0.00    -0.650 OA
BRANCH  56  58
ATOM     58  O   UNK d   0      -4.270  -7.944  -9.511  0.00  0.00    -0.776 OA
ATOM     59  H   UNK d   0      -4.632  -8.624  -8.818  0.00  0.00     0.167 HD
ENDBRANCH  56  58
ENDBRANCH  55  56
ENDBRANCH  21  55
BRANCH  18  60
ATOM     60  C   UNK d   0       1.394  -9.055  -8.362  0.00  0.00     0.151 C 
BRANCH  60  61
ATOM     61  C   UNK d   0       1.750  -7.705  -8.823  0.00  0.00     0.143 C 
ATOM     62  O   UNK d   0       2.749  -7.054  -8.512  0.00  0.00    -0.650 OA
BRANCH  61  63
ATOM     63  O   UNK d   0       0.830  -7.111  -9.720  0.00  0.00    -0.776 OA
ATOM     64  H   UNK d   0      -0.057  -6.765  -9.399  0.00  0.00     0.167 HD
ENDBRANCH  61  63
ENDBRANCH  60  61
ENDBRANCH  18  60
BRANCH  14  65
ATOM     65  C   UNK d   0       3.527 -10.327  -6.618  0.00  0.00     0.052 C 
BRANCH  65  66
ATOM     66  C   UNK d   0       4.640  -9.412  -6.988  0.00  0.00     0.115 C 
BRANCH  66  67
ATOM     67  C   UNK d   0       4.977  -8.316  -6.125  0.00  0.00     0.139 C 
ATOM     68  O   UNK d   0       5.858  -8.505  -5.208  0.00  0.00    -0.650 OA
BRANCH  67  69
ATOM     69  O   UNK d   0       4.457  -7.022  -6.147  0.00  0.00    -0.776 OA
ATOM     70  H   UNK d   0       4.988  -6.317  -5.616  0.00  0.00     0.167 HD
ENDBRANCH  67  69
ENDBRANCH  66  67
ENDBRANCH  65  66
ENDBRANCH  14  65
ENDBRANCH   6   7
ENDBRANCH   5   6
ENDBRANCH   2   5
TORSDOF 28
ENDMDL
MODEL 15
REMARK VINA RESULT:      -5.9      1.548      2.029
REMARK  28 active torsions:
REMARK  status: ('A' for Active; 'I' for Inactive)
REMARK    1  A    between atoms: C_2  and  O_3 
REMARK    2  A    between atoms: C_2  and  C_4 
REMARK    3  A    between atoms: C_4  and  C_5 
REMARK    4  A    between atoms: C_5  and  C_6 
REMARK    5  A    between atoms: C_7  and  C_8 
REMARK    6  A    between atoms: C_8  and  C_9 
REMARK    7  A    between atoms: C_9  and  O_11 
REMARK    8  A    between atoms: C_28  and  C_29 
REMARK    9  A    between atoms: C_29  and  C_30 
REMARK   10  A    between atoms: C_30  and  O_32 
REMARK   11  A    between atoms: C_33  and  C_34 
REMARK   12  A    between atoms: C_34  and  C_35 
REMARK   13  A    between atoms: C_35  and  C_36 
REMARK   14  A    between atoms: C_36  and  O_38 
REMARK   15  A    between atoms: C_39  and  C_40 
REMARK   16  A    between atoms: C_40  and  C_41 
REMARK   17  A    between atoms: C_41  and  C_42 
REMARK   18  A    between atoms: C_42  and  O_44 
REMARK   19  A    between atoms: C_45  and  C_46 
REMARK   20  A    between atoms: C_46  and  C_47 
REMARK   21  A    between atoms: C_47  and  O_49 
REMARK   22  A    between atoms: C_50  and  C_51 
REMARK   23  A    between atoms: C_51  and  C_52 
REMARK   24  A    between atoms: C_52  and  O_54 
REMARK   25  A    between atoms: C_55  and  C_56 
REMARK   26  A    between atoms: C_56  and  C_57 
REMARK   27  A    between atoms: C_57  and  C_58 
REMARK   28  A    between atoms: C_58  and  O_60 
ROOT
ATOM      1  O   UNK d   0      14.674 -15.849  -4.510  0.00  0.00    -0.650 OA
ATOM      2  C   UNK d   0      13.776 -15.438  -3.742  0.00  0.00     0.139 C 
ENDROOT
BRANCH   2   3
ATOM      3  O   UNK d   0      12.463 -15.510  -4.142  0.00  0.00    -0.776 OA
ATOM      4  H   UNK d   0      12.054 -16.393  -4.454  0.00  0.00     0.167 HD
ENDBRANCH   2   3
BRANCH   2   5
ATOM      5  C   UNK d   0      14.131 -14.876  -2.408  0.00  0.00     0.115 C 
BRANCH   5   6
ATOM      6  C   UNK d   0      14.716 -15.951  -1.533  0.00  0.00     0.052 C 
BRANCH   6   7
ATOM      7  C   UNK d   0      13.851 -16.261  -0.335  0.00  0.00    -0.020 A 
ATOM      8  C   UNK d   0      13.059 -17.289  -0.168  0.00  0.00    -0.011 A 
ATOM      9  C   UNK d   0      12.426 -17.156   1.134  0.00  0.00     0.067 A 
ATOM     10  C   UNK d   0      11.519 -17.905   1.900  0.00  0.00     0.062 C 
ATOM     11  N   UNK d   0      12.886 -16.015   1.688  0.00  0.00    -0.248 NA
ATOM     12  C   UNK d   0      11.236 -17.755   3.262  0.00  0.00     0.041 A 
ATOM     13  N   UNK d   0      11.045 -16.653   4.012  0.00  0.00    -0.355 N 
ATOM     14  C   UNK d   0      11.174 -18.902   4.074  0.00  0.00    -0.022 A 
ATOM     15  C   UNK d   0      10.871 -17.071   5.280  0.00  0.00     0.042 A 
ATOM     16  H   UNK d   0      11.014 -15.602   3.649  0.00  0.00     0.166 HD
ATOM     17  C   UNK d   0      10.635 -16.336   6.460  0.00  0.00     0.062 C 
ATOM     18  C   UNK d   0      10.946 -18.475   5.359  0.00  0.00    -0.013 A 
ATOM     19  C   UNK d   0      11.250 -15.193   6.901  0.00  0.00     0.067 A 
ATOM     20  N   UNK d   0      12.043 -14.559   6.033  0.00  0.00    -0.248 NA
ATOM     21  C   UNK d   0      11.288 -14.440   8.144  0.00  0.00    -0.011 A 
ATOM     22  C   UNK d   0      12.597 -13.447   6.619  0.00  0.00     0.066 A 
ATOM     23  C   UNK d   0      13.417 -12.670   5.813  0.00  0.00     0.062 C 
ATOM     24  C   UNK d   0      12.082 -13.422   7.974  0.00  0.00    -0.020 A 
ATOM     25  C   UNK d   0      13.679 -12.830   4.444  0.00  0.00     0.041 A 
ATOM     26  N   UNK d   0      13.883 -13.925   3.701  0.00  0.00    -0.355 N 
ATOM     27  C   UNK d   0      13.737 -11.679   3.629  0.00  0.00    -0.022 A 
ATOM     28  C   UNK d   0      14.065 -13.510   2.437  0.00  0.00     0.042 A 
ATOM     29  H   UNK d   0      13.924 -14.979   4.069  0.00  0.00     0.166 HD
ATOM     30  C   UNK d   0      14.310 -14.229   1.257  0.00  0.00     0.062 C 
ATOM     31  C   UNK d   0      13.980 -12.100   2.358  0.00  0.00    -0.013 A 
ATOM     32  C   UNK d   0      13.747 -15.429   0.854  0.00  0.00     0.066 A 
BRANCH   8  33
ATOM     33  C   UNK d   0      12.830 -18.394  -1.117  0.00  0.00     0.151 C 
BRANCH  33  34
ATOM     34  C   UNK d   0      11.881 -18.038  -2.188  0.00  0.00     0.143 C 
ATOM     35  O   UNK d   0      10.919 -17.290  -1.963  0.00  0.00    -0.650 OA
BRANCH  34  36
ATOM     36  O   UNK d   0      12.067 -18.547  -3.452  0.00  0.00    -0.776 OA
ATOM     37  H   UNK d   0      12.660 -19.373  -3.614  0.00  0.00     0.167 HD
ENDBRANCH  34  36
ENDBRANCH  33  34
ENDBRANCH   8  33
BRANCH  31  38
ATOM     38  C   UNK d   0      14.111 -11.220   1.137  0.00  0.00     0.151 C 
BRANCH  38  39
ATOM     39  C   UNK d   0      12.832 -10.877   0.552  0.00  0.00     0.143 C 
ATOM     40  O   UNK d   0      12.353  -9.731   0.623  0.00  0.00    -0.650 OA
BRANCH  39  41
ATOM     41  O   UNK d   0      12.100 -11.856  -0.119  0.00  0.00    -0.776 OA
ATOM     42  H   UNK d   0      12.073 -12.787   0.308  0.00  0.00     0.167 HD
ENDBRANCH  39  41
ENDBRANCH  38  39
ENDBRANCH  31  38
BRANCH  27  43
ATOM     43  C   UNK d   0      13.575 -10.228   4.007  0.00  0.00     0.052 C 
BRANCH  43  44
ATOM     44  C   UNK d   0      12.214  -9.902   4.533  0.00  0.00     0.115 C 
BRANCH  44  45
ATOM     45  C   UNK d   0      12.364  -8.685   5.372  0.00  0.00     0.139 C 
ATOM     46  O   UNK d   0      13.310  -7.901   5.113  0.00  0.00    -0.650 OA
BRANCH  45  47
ATOM     47  O   UNK d   0      11.509  -8.382   6.410  0.00  0.00    -0.776 OA
ATOM     48  H   UNK d   0      10.485  -8.498   6.343  0.00  0.00     0.167 HD
ENDBRANCH  45  47
ENDBRANCH  44  45
ENDBRANCH  43  44
ENDBRANCH  27  43
BRANCH  24  49
ATOM     49  C   UNK d   0      12.378 -12.376   8.967  0.00  0.00     0.052 C 
BRANCH  49  50
ATOM     50  C   UNK d   0      13.856 -12.077   8.989  0.00  0.00     0.115 C 
BRANCH  50  51
ATOM     51  C   UNK d   0      14.287 -10.816   8.402  0.00  0.00     0.139 C 
ATOM     52  O   UNK d   0      13.546  -9.806   8.349  0.00  0.00    -0.650 OA
BRANCH  51  53
ATOM     53  O   UNK d   0      15.563 -10.707   7.872  0.00  0.00    -0.776 OA
ATOM     54  H   UNK d   0      16.272 -10.258   8.426  0.00  0.00     0.167 HD
ENDBRANCH  51  53
ENDBRANCH  50  51
ENDBRANCH  49  50
ENDBRANCH  24  49
BRANCH  21  55
ATOM     55  C   UNK d   0      10.525 -14.815   9.371  0.00  0.00     0.151 C 
BRANCH  55  56
ATOM     56  C   UNK d   0       9.271 -14.055   9.493  0.00  0.00     0.143 C 
ATOM     57  O   UNK d   0       8.919 -13.499  10.552  0.00  0.00    -0.650 OA
BRANCH  56  58
ATOM     58  O   UNK d   0       8.455 -13.964   8.367  0.00  0.00    -0.776 OA
ATOM     59  H   UNK d   0       7.442 -14.081   8.552  0.00  0.00     0.167 HD
ENDBRANCH  56  58
ENDBRANCH  55  56
ENDBRANCH  21  55
BRANCH  18  60
ATOM     60  C   UNK d   0      10.816 -19.378   6.560  0.00  0.00     0.151 C 
BRANCH  60  61
ATOM     61  C   UNK d   0       9.428 -19.864   6.552  0.00  0.00     0.143 C 
ATOM     62  O   UNK d   0       8.403 -19.183   6.609  0.00  0.00    -0.650 OA
BRANCH  61  63
ATOM     63  O   UNK d   0       9.282 -21.270   6.470  0.00  0.00    -0.776 OA
ATOM     64  H   UNK d   0       9.046 -21.815   7.280  0.00  0.00     0.167 HD
ENDBRANCH  61  63
ENDBRANCH  60  61
ENDBRANCH  18  60
BRANCH  14  65
ATOM     65  C   UNK d   0      11.214 -20.361   3.717  0.00  0.00     0.052 C 
BRANCH  65  66
ATOM     66  C   UNK d   0      12.542 -20.984   3.967  0.00  0.00     0.115 C 
BRANCH  66  67
ATOM     67  C   UNK d   0      13.734 -20.324   3.515  0.00  0.00     0.139 C 
ATOM     68  O   UNK d   0      13.987 -20.308   2.254  0.00  0.00    -0.650 OA
BRANCH  67  69
ATOM     69  O   UNK d   0      14.694 -19.672   4.289  0.00  0.00    -0.776 OA
ATOM     70  H   UNK d   0      15.655 -20.035   4.210  0.00  0.00     0.167 HD
ENDBRANCH  67  69
ENDBRANCH  66  67
ENDBRANCH  65  66
ENDBRANCH  14  65
ENDBRANCH   6   7
ENDBRANCH   5   6
ENDBRANCH   2   5
TORSDOF 28
ENDMDL
MODEL 16
REMARK VINA RESULT:      -5.9      3.438     10.852
REMARK  28 active torsions:
REMARK  status: ('A' for Active; 'I' for Inactive)
REMARK    1  A    between atoms: C_2  and  O_3 
REMARK    2  A    between atoms: C_2  and  C_4 
REMARK    3  A    between atoms: C_4  and  C_5 
REMARK    4  A    between atoms: C_5  and  C_6 
REMARK    5  A    between atoms: C_7  and  C_8 
REMARK    6  A    between atoms: C_8  and  C_9 
REMARK    7  A    between atoms: C_9  and  O_11 
REMARK    8  A    between atoms: C_28  and  C_29 
REMARK    9  A    between atoms: C_29  and  C_30 
REMARK   10  A    between atoms: C_30  and  O_32 
REMARK   11  A    between atoms: C_33  and  C_34 
REMARK   12  A    between atoms: C_34  and  C_35 
REMARK   13  A    between atoms: C_35  and  C_36 
REMARK   14  A    between atoms: C_36  and  O_38 
REMARK   15  A    between atoms: C_39  and  C_40 
REMARK   16  A    between atoms: C_40  and  C_41 
REMARK   17  A    between atoms: C_41  and  C_42 
REMARK   18  A    between atoms: C_42  and  O_44 
REMARK   19  A    between atoms: C_45  and  C_46 
REMARK   20  A    between atoms: C_46  and  C_47 
REMARK   21  A    between atoms: C_47  and  O_49 
REMARK   22  A    between atoms: C_50  and  C_51 
REMARK   23  A    between atoms: C_51  and  C_52 
REMARK   24  A    between atoms: C_52  and  O_54 
REMARK   25  A    between atoms: C_55  and  C_56 
REMARK   26  A    between atoms: C_56  and  C_57 
REMARK   27  A    between atoms: C_57  and  C_58 
REMARK   28  A    between atoms: C_58  and  O_60 
ROOT
ATOM      1  O   UNK d   0      14.665 -17.056   7.503  0.00  0.00    -0.650 OA
ATOM      2  C   UNK d   0      13.553 -16.931   6.943  0.00  0.00     0.139 C 
ENDROOT
BRANCH   2   3
ATOM      3  O   UNK d   0      12.837 -18.054   6.608  0.00  0.00    -0.776 OA
ATOM      4  H   UNK d   0      12.215 -18.061   5.796  0.00  0.00     0.167 HD
ENDBRANCH   2   3
BRANCH   2   5
ATOM      5  C   UNK d   0      13.015 -15.573   6.644  0.00  0.00     0.115 C 
BRANCH   5   6
ATOM      6  C   UNK d   0      14.082 -14.534   6.861  0.00  0.00     0.052 C 
BRANCH   6   7
ATOM      7  C   UNK d   0      13.680 -13.172   6.348  0.00  0.00    -0.020 A 
ATOM      8  C   UNK d   0      13.212 -12.165   7.040  0.00  0.00    -0.011 A 
ATOM      9  C   UNK d   0      12.960 -11.071   6.117  0.00  0.00     0.067 A 
ATOM     10  C   UNK d   0      12.494  -9.750   6.216  0.00  0.00     0.062 C 
ATOM     11  N   UNK d   0      13.297 -11.501   4.883  0.00  0.00    -0.248 NA
ATOM     12  C   UNK d   0      12.581  -8.746   5.245  0.00  0.00     0.041 A 
ATOM     13  N   UNK d   0      12.374  -8.779   3.915  0.00  0.00    -0.355 N 
ATOM     14  C   UNK d   0      13.003  -7.461   5.632  0.00  0.00    -0.022 A 
ATOM     15  C   UNK d   0      12.662  -7.550   3.446  0.00  0.00     0.042 A 
ATOM     16  H   UNK d   0      12.013  -9.648   3.322  0.00  0.00     0.166 HD
ATOM     17  C   UNK d   0      12.614  -7.039   2.134  0.00  0.00     0.062 C 
ATOM     18  C   UNK d   0      13.060  -6.696   4.493  0.00  0.00    -0.013 A 
ATOM     19  C   UNK d   0      13.063  -7.608   0.970  0.00  0.00     0.067 A 
ATOM     20  N   UNK d   0      13.420  -8.894   1.024  0.00  0.00    -0.248 NA
ATOM     21  C   UNK d   0      13.286  -7.159  -0.394  0.00  0.00    -0.011 A 
ATOM     22  C   UNK d   0      13.860  -9.318  -0.206  0.00  0.00     0.066 A 
ATOM     23  C   UNK d   0      14.228 -10.652  -0.303  0.00  0.00     0.062 C 
ATOM     24  C   UNK d   0      13.756  -8.163  -1.077  0.00  0.00    -0.020 A 
ATOM     25  C   UNK d   0      14.121 -11.647   0.681  0.00  0.00     0.041 A 
ATOM     26  N   UNK d   0      14.341 -11.619   2.000  0.00  0.00    -0.355 N 
ATOM     27  C   UNK d   0      13.692 -12.935   0.293  0.00  0.00    -0.022 A 
ATOM     28  C   UNK d   0      14.063 -12.846   2.469  0.00  0.00     0.042 A 
ATOM     29  H   UNK d   0      14.714 -10.748   2.593  0.00  0.00     0.166 HD
ATOM     30  C   UNK d   0      14.115 -13.370   3.770  0.00  0.00     0.062 C 
ATOM     31  C   UNK d   0      13.652 -13.700   1.418  0.00  0.00    -0.013 A 
ATOM     32  C   UNK d   0      13.738 -12.758   4.954  0.00  0.00     0.066 A 
BRANCH   8  33
ATOM     33  C   UNK d   0      12.971 -12.126   8.494  0.00  0.00     0.151 C 
BRANCH  33  34
ATOM     34  C   UNK d   0      14.153 -11.686   9.257  0.00  0.00     0.143 C 
ATOM     35  O   UNK d   0      15.001 -10.941   8.744  0.00  0.00    -0.650 OA
BRANCH  34  36
ATOM     36  O   UNK d   0      14.315 -12.110  10.556  0.00  0.00    -0.776 OA
ATOM     37  H   UNK d   0      15.240 -12.382  10.918  0.00  0.00     0.167 HD
ENDBRANCH  34  36
ENDBRANCH  33  34
ENDBRANCH   8  33
BRANCH  31  38
ATOM     38  C   UNK d   0      13.237 -15.150   1.496  0.00  0.00     0.151 C 
BRANCH  38  39
ATOM     39  C   UNK d   0      14.362 -16.060   1.446  0.00  0.00     0.143 C 
ATOM     40  O   UNK d   0      14.221 -17.295   1.489  0.00  0.00    -0.650 OA
BRANCH  39  41
ATOM     41  O   UNK d   0      15.655 -15.548   1.344  0.00  0.00    -0.776 OA
ATOM     42  H   UNK d   0      16.198 -15.825   0.521  0.00  0.00     0.167 HD
ENDBRANCH  39  41
ENDBRANCH  38  39
ENDBRANCH  31  38
BRANCH  27  43
ATOM     43  C   UNK d   0      13.331 -13.453  -1.077  0.00  0.00     0.052 C 
BRANCH  43  44
ATOM     44  C   UNK d   0      11.891 -13.256  -1.422  0.00  0.00     0.115 C 
BRANCH  44  45
ATOM     45  C   UNK d   0      11.860 -12.471  -2.684  0.00  0.00     0.139 C 
ATOM     46  O   UNK d   0      10.810 -11.843  -2.966  0.00  0.00    -0.650 OA
BRANCH  45  47
ATOM     47  O   UNK d   0      12.933 -12.402  -3.547  0.00  0.00    -0.776 OA
ATOM     48  H   UNK d   0      13.886 -12.698  -3.281  0.00  0.00     0.167 HD
ENDBRANCH  45  47
ENDBRANCH  44  45
ENDBRANCH  43  44
ENDBRANCH  27  43
BRANCH  24  49
ATOM     49  C   UNK d   0      14.086  -8.159  -2.512  0.00  0.00     0.052 C 
BRANCH  49  50
ATOM     50  C   UNK d   0      13.045  -8.922  -3.291  0.00  0.00     0.115 C 
BRANCH  50  51
ATOM     51  C   UNK d   0      11.695  -8.373  -3.312  0.00  0.00     0.139 C 
ATOM     52  O   UNK d   0      11.391  -7.351  -3.971  0.00  0.00    -0.650 OA
BRANCH  51  53
ATOM     53  O   UNK d   0      10.693  -8.989  -2.578  0.00  0.00    -0.776 OA
ATOM     54  H   UNK d   0      10.828  -9.098  -1.588  0.00  0.00     0.167 HD
ENDBRANCH  51  53
ENDBRANCH  50  51
ENDBRANCH  49  50
ENDBRANCH  24  49
BRANCH  21  55
ATOM     55  C   UNK d   0      13.001  -5.774  -0.875  0.00  0.00     0.151 C 
BRANCH  55  56
ATOM     56  C   UNK d   0      13.875  -4.778  -0.236  0.00  0.00     0.143 C 
ATOM     57  O   UNK d   0      13.434  -3.764   0.339  0.00  0.00    -0.650 OA
BRANCH  56  58
ATOM     58  O   UNK d   0      15.251  -4.995  -0.286  0.00  0.00    -0.776 OA
ATOM     59  H   UNK d   0      15.822  -4.142  -0.426  0.00  0.00     0.167 HD
ENDBRANCH  56  58
ENDBRANCH  55  56
ENDBRANCH  21  55
BRANCH  18  60
ATOM     60  C   UNK d   0      13.476  -5.247   4.446  0.00  0.00     0.151 C 
BRANCH  60  61
ATOM     61  C   UNK d   0      14.940  -5.252   4.298  0.00  0.00     0.143 C 
ATOM     62  O   UNK d   0      15.587  -5.671   3.338  0.00  0.00    -0.650 OA
BRANCH  61  63
ATOM     63  O   UNK d   0      15.658  -4.710   5.391  0.00  0.00    -0.776 OA
ATOM     64  H   UNK d   0      15.535  -5.070   6.321  0.00  0.00     0.167 HD
ENDBRANCH  61  63
ENDBRANCH  60  61
ENDBRANCH  18  60
BRANCH  14  65
ATOM     65  C   UNK d   0      13.259  -6.881   6.993  0.00  0.00     0.052 C 
BRANCH  65  66
ATOM     66  C   UNK d   0      14.340  -7.586   7.732  0.00  0.00     0.115 C 
BRANCH  66  67
ATOM     67  C   UNK d   0      15.579  -7.883   7.069  0.00  0.00     0.139 C 
ATOM     68  O   UNK d   0      16.441  -6.940   6.929  0.00  0.00    -0.650 OA
BRANCH  67  69
ATOM     69  O   UNK d   0      15.989  -9.104   6.535  0.00  0.00    -0.776 OA
ATOM     70  H   UNK d   0      15.371  -9.906   6.724  0.00  0.00     0.167 HD
ENDBRANCH  67  69
ENDBRANCH  66  67
ENDBRANCH  65  66
ENDBRANCH  14  65
ENDBRANCH   6   7
ENDBRANCH   5   6
ENDBRANCH   2   5
TORSDOF 28
ENDMDL
MODEL 17
REMARK VINA RESULT:      -5.9     16.071     20.163
REMARK  28 active torsions:
REMARK  status: ('A' for Active; 'I' for Inactive)
REMARK    1  A    between atoms: C_2  and  O_3 
REMARK    2  A    between atoms: C_2  and  C_4 
REMARK    3  A    between atoms: C_4  and  C_5 
REMARK    4  A    between atoms: C_5  and  C_6 
REMARK    5  A    between atoms: C_7  and  C_8 
REMARK    6  A    between atoms: C_8  and  C_9 
REMARK    7  A    between atoms: C_9  and  O_11 
REMARK    8  A    between atoms: C_28  and  C_29 
REMARK    9  A    between atoms: C_29  and  C_30 
REMARK   10  A    between atoms: C_30  and  O_32 
REMARK   11  A    between atoms: C_33  and  C_34 
REMARK   12  A    between atoms: C_34  and  C_35 
REMARK   13  A    between atoms: C_35  and  C_36 
REMARK   14  A    between atoms: C_36  and  O_38 
REMARK   15  A    between atoms: C_39  and  C_40 
REMARK   16  A    between atoms: C_40  and  C_41 
REMARK   17  A    between atoms: C_41  and  C_42 
REMARK   18  A    between atoms: C_42  and  O_44 
REMARK   19  A    between atoms: C_45  and  C_46 
REMARK   20  A    between atoms: C_46  and  C_47 
REMARK   21  A    between atoms: C_47  and  O_49 
REMARK   22  A    between atoms: C_50  and  C_51 
REMARK   23  A    between atoms: C_51  and  C_52 
REMARK   24  A    between atoms: C_52  and  O_54 
REMARK   25  A    between atoms: C_55  and  C_56 
REMARK   26  A    between atoms: C_56  and  C_57 
REMARK   27  A    between atoms: C_57  and  C_58 
REMARK   28  A    between atoms: C_58  and  O_60 
ROOT
ATOM      1  O   UNK d   0      -3.096 -11.739   1.043  0.00  0.00    -0.650 OA
ATOM      2  C   UNK d   0      -2.615 -10.696   1.537  0.00  0.00     0.139 C 
ENDROOT
BRANCH   2   3
ATOM      3  O   UNK d   0      -1.258 -10.607   1.734  0.00  0.00    -0.776 OA
ATOM      4  H   UNK d   0      -0.790 -11.169   2.449  0.00  0.00     0.167 HD
ENDBRANCH   2   3
BRANCH   2   5
ATOM      5  C   UNK d   0      -3.508  -9.562   1.908  0.00  0.00     0.115 C 
BRANCH   5   6
ATOM      6  C   UNK d   0      -3.130  -8.329   1.132  0.00  0.00     0.052 C 
BRANCH   6   7
ATOM      7  C   UNK d   0      -3.349  -8.488  -0.353  0.00  0.00    -0.020 A 
ATOM      8  C   UNK d   0      -4.487  -8.478  -0.998  0.00  0.00    -0.011 A 
ATOM      9  C   UNK d   0      -4.201  -8.675  -2.409  0.00  0.00     0.067 A 
ATOM     10  C   UNK d   0      -4.950  -8.742  -3.595  0.00  0.00     0.062 C 
ATOM     11  N   UNK d   0      -2.863  -8.801  -2.533  0.00  0.00    -0.248 NA
ATOM     12  C   UNK d   0      -4.469  -8.659  -4.906  0.00  0.00     0.041 A 
ATOM     13  N   UNK d   0      -3.390  -9.214  -5.491  0.00  0.00    -0.355 N 
ATOM     14  C   UNK d   0      -5.140  -7.833  -5.826  0.00  0.00    -0.022 A 
ATOM     15  C   UNK d   0      -3.355  -8.754  -6.756  0.00  0.00     0.042 A 
ATOM     16  H   UNK d   0      -2.679  -9.931  -5.025  0.00  0.00     0.166 HD
ATOM     17  C   UNK d   0      -2.442  -9.015  -7.797  0.00  0.00     0.062 C 
ATOM     18  C   UNK d   0      -4.435  -7.885  -7.003  0.00  0.00    -0.013 A 
ATOM     19  C   UNK d   0      -1.072  -9.054  -7.754  0.00  0.00     0.067 A 
ATOM     20  N   UNK d   0      -0.505  -9.041  -6.545  0.00  0.00    -0.248 NA
ATOM     21  C   UNK d   0       0.004  -9.094  -8.730  0.00  0.00    -0.011 A 
ATOM     22  C   UNK d   0       0.864  -9.068  -6.660  0.00  0.00     0.066 A 
ATOM     23  C   UNK d   0       1.582  -9.096  -5.473  0.00  0.00     0.062 C 
ATOM     24  C   UNK d   0       1.134  -9.098  -8.084  0.00  0.00    -0.020 A 
ATOM     25  C   UNK d   0       1.080  -9.191  -4.166  0.00  0.00     0.041 A 
ATOM     26  N   UNK d   0       0.016  -8.629  -3.580  0.00  0.00    -0.355 N 
ATOM     27  C   UNK d   0       1.751 -10.025  -3.245  0.00  0.00    -0.022 A 
ATOM     28  C   UNK d   0      -0.017  -9.079  -2.316  0.00  0.00     0.042 A 
ATOM     29  H   UNK d   0      -0.691  -7.900  -4.047  0.00  0.00     0.166 HD
ATOM     30  C   UNK d   0      -0.913  -8.820  -1.267  0.00  0.00     0.062 C 
ATOM     31  C   UNK d   0       1.063  -9.960  -2.072  0.00  0.00    -0.013 A 
ATOM     32  C   UNK d   0      -2.292  -8.698  -1.332  0.00  0.00     0.066 A 
BRANCH   8  33
ATOM     33  C   UNK d   0      -5.832  -8.305  -0.417  0.00  0.00     0.151 C 
BRANCH  33  34
ATOM     34  C   UNK d   0      -6.508  -7.087  -0.897  0.00  0.00     0.143 C 
ATOM     35  O   UNK d   0      -7.698  -7.114  -1.242  0.00  0.00    -0.650 OA
BRANCH  34  36
ATOM     36  O   UNK d   0      -5.806  -5.906  -0.964  0.00  0.00    -0.776 OA
ATOM     37  H   UNK d   0      -4.884  -5.858  -1.419  0.00  0.00     0.167 HD
ENDBRANCH  34  36
ENDBRANCH  33  34
ENDBRANCH   8  33
BRANCH  31  38
ATOM     38  C   UNK d   0       1.401 -10.700  -0.798  0.00  0.00     0.151 C 
BRANCH  38  39
ATOM     39  C   UNK d   0       0.723 -11.974  -0.692  0.00  0.00     0.143 C 
ATOM     40  O   UNK d   0       0.499 -12.519   0.403  0.00  0.00    -0.650 OA
BRANCH  39  41
ATOM     41  O   UNK d   0       0.300 -12.625  -1.850  0.00  0.00    -0.776 OA
ATOM     42  H   UNK d   0       0.901 -12.536  -2.675  0.00  0.00     0.167 HD
ENDBRANCH  39  41
ENDBRANCH  38  39
ENDBRANCH  31  38
BRANCH  27  43
ATOM     43  C   UNK d   0       2.993 -10.858  -3.435  0.00  0.00     0.052 C 
BRANCH  43  44
ATOM     44  C   UNK d   0       4.246 -10.155  -3.023  0.00  0.00     0.115 C 
BRANCH  44  45
ATOM     45  C   UNK d   0       4.863  -9.623  -4.266  0.00  0.00     0.139 C 
ATOM     46  O   UNK d   0       4.880 -10.363  -5.281  0.00  0.00    -0.650 OA
BRANCH  45  47
ATOM     47  O   UNK d   0       5.406  -8.360  -4.349  0.00  0.00    -0.776 OA
ATOM     48  H   UNK d   0       6.057  -8.078  -5.100  0.00  0.00     0.167 HD
ENDBRANCH  45  47
ENDBRANCH  44  45
ENDBRANCH  43  44
ENDBRANCH  27  43
BRANCH  24  49
ATOM     49  C   UNK d   0       2.477  -9.173  -8.683  0.00  0.00     0.052 C 
BRANCH  49  50
ATOM     50  C   UNK d   0       3.175  -7.841  -8.575  0.00  0.00     0.115 C 
BRANCH  50  51
ATOM     51  C   UNK d   0       4.186  -7.702  -7.536  0.00  0.00     0.139 C 
ATOM     52  O   UNK d   0       4.069  -6.897  -6.581  0.00  0.00    -0.650 OA
BRANCH  51  53
ATOM     53  O   UNK d   0       5.332  -8.480  -7.585  0.00  0.00    -0.776 OA
ATOM     54  H   UNK d   0       5.806  -8.572  -8.467  0.00  0.00     0.167 HD
ENDBRANCH  51  53
ENDBRANCH  50  51
ENDBRANCH  49  50
ENDBRANCH  24  49
BRANCH  21  55
ATOM     55  C   UNK d   0      -0.210  -9.129 -10.207  0.00  0.00     0.151 C 
BRANCH  55  56
ATOM     56  C   UNK d   0      -0.733  -7.853 -10.719  0.00  0.00     0.143 C 
ATOM     57  O   UNK d   0      -1.724  -7.783 -11.471  0.00  0.00    -0.650 OA
BRANCH  56  58
ATOM     58  O   UNK d   0      -0.079  -6.683 -10.336  0.00  0.00    -0.776 OA
ATOM     59  H   UNK d   0      -0.443  -5.817 -10.773  0.00  0.00     0.167 HD
ENDBRANCH  56  58
ENDBRANCH  55  56
ENDBRANCH  21  55
BRANCH  18  60
ATOM     60  C   UNK d   0      -4.799  -7.137  -8.262  0.00  0.00     0.151 C 
BRANCH  60  61
ATOM     61  C   UNK d   0      -3.974  -5.919  -8.260  0.00  0.00     0.143 C 
ATOM     62  O   UNK d   0      -4.152  -4.903  -7.587  0.00  0.00    -0.650 OA
BRANCH  61  63
ATOM     63  O   UNK d   0      -2.862  -5.943  -9.135  0.00  0.00    -0.776 OA
ATOM     64  H   UNK d   0      -2.284  -6.761  -9.217  0.00  0.00     0.167 HD
ENDBRANCH  61  63
ENDBRANCH  60  61
ENDBRANCH  18  60
BRANCH  14  65
ATOM     65  C   UNK d   0      -6.436  -7.083  -5.708  0.00  0.00     0.052 C 
BRANCH  65  66
ATOM     66  C   UNK d   0      -6.457  -6.135  -4.562  0.00  0.00     0.115 C 
BRANCH  66  67
ATOM     67  C   UNK d   0      -5.447  -5.119  -4.460  0.00  0.00     0.139 C 
ATOM     68  O   UNK d   0      -4.581  -5.207  -3.514  0.00  0.00    -0.650 OA
BRANCH  67  69
ATOM     69  O   UNK d   0      -5.272  -4.005  -5.281  0.00  0.00    -0.776 OA
ATOM     70  H   UNK d   0      -5.616  -3.111  -4.902  0.00  0.00     0.167 HD
ENDBRANCH  67  69
ENDBRANCH  66  67
ENDBRANCH  65  66
ENDBRANCH  14  65
ENDBRANCH   6   7
ENDBRANCH   5   6
ENDBRANCH   2   5
TORSDOF 28
ENDMDL
MODEL 18
REMARK VINA RESULT:      -5.9     28.839     32.634
REMARK  28 active torsions:
REMARK  status: ('A' for Active; 'I' for Inactive)
REMARK    1  A    between atoms: C_2  and  O_3 
REMARK    2  A    between atoms: C_2  and  C_4 
REMARK    3  A    between atoms: C_4  and  C_5 
REMARK    4  A    between atoms: C_5  and  C_6 
REMARK    5  A    between atoms: C_7  and  C_8 
REMARK    6  A    between atoms: C_8  and  C_9 
REMARK    7  A    between atoms: C_9  and  O_11 
REMARK    8  A    between atoms: C_28  and  C_29 
REMARK    9  A    between atoms: C_29  and  C_30 
REMARK   10  A    between atoms: C_30  and  O_32 
REMARK   11  A    between atoms: C_33  and  C_34 
REMARK   12  A    between atoms: C_34  and  C_35 
REMARK   13  A    between atoms: C_35  and  C_36 
REMARK   14  A    between atoms: C_36  and  O_38 
REMARK   15  A    between atoms: C_39  and  C_40 
REMARK   16  A    between atoms: C_40  and  C_41 
REMARK   17  A    between atoms: C_41  and  C_42 
REMARK   18  A    between atoms: C_42  and  O_44 
REMARK   19  A    between atoms: C_45  and  C_46 
REMARK   20  A    between atoms: C_46  and  C_47 
REMARK   21  A    between atoms: C_47  and  O_49 
REMARK   22  A    between atoms: C_50  and  C_51 
REMARK   23  A    between atoms: C_51  and  C_52 
REMARK   24  A    between atoms: C_52  and  O_54 
REMARK   25  A    between atoms: C_55  and  C_56 
REMARK   26  A    between atoms: C_56  and  C_57 
REMARK   27  A    between atoms: C_57  and  C_58 
REMARK   28  A    between atoms: C_58  and  O_60 
ROOT
ATOM      1  O   UNK d   0     -20.878   1.114   1.962  0.00  0.00    -0.650 OA
ATOM      2  C   UNK d   0     -19.779   1.611   2.295  0.00  0.00     0.139 C 
ENDROOT
BRANCH   2   3
ATOM      3  O   UNK d   0     -18.982   2.187   1.336  0.00  0.00    -0.776 OA
ATOM      4  H   UNK d   0     -18.027   1.859   1.177  0.00  0.00     0.167 HD
ENDBRANCH   2   3
BRANCH   2   5
ATOM      5  C   UNK d   0     -19.343   1.576   3.720  0.00  0.00     0.115 C 
BRANCH   5   6
ATOM      6  C   UNK d   0     -19.891   0.351   4.399  0.00  0.00     0.052 C 
BRANCH   6   7
ATOM      7  C   UNK d   0     -18.852  -0.730   4.575  0.00  0.00    -0.020 A 
ATOM      8  C   UNK d   0     -18.107  -0.959   5.626  0.00  0.00    -0.011 A 
ATOM      9  C   UNK d   0     -17.252  -2.095   5.327  0.00  0.00     0.067 A 
ATOM     10  C   UNK d   0     -16.273  -2.833   6.010  0.00  0.00     0.062 C 
ATOM     11  N   UNK d   0     -17.539  -2.493   4.069  0.00  0.00    -0.248 NA
ATOM     12  C   UNK d   0     -15.749  -4.081   5.653  0.00  0.00     0.041 A 
ATOM     13  N   UNK d   0     -15.365  -4.572   4.460  0.00  0.00    -0.355 N 
ATOM     14  C   UNK d   0     -15.617  -5.072   6.643  0.00  0.00    -0.022 A 
ATOM     15  C   UNK d   0     -15.000  -5.852   4.665  0.00  0.00     0.042 A 
ATOM     16  H   UNK d   0     -15.334  -4.019   3.495  0.00  0.00     0.166 HD
ATOM     17  C   UNK d   0     -14.520  -6.821   3.762  0.00  0.00     0.062 C 
ATOM     18  C   UNK d   0     -15.145  -6.201   6.022  0.00  0.00    -0.013 A 
ATOM     19  C   UNK d   0     -14.979  -7.134   2.508  0.00  0.00     0.067 A 
ATOM     20  N   UNK d   0     -15.870  -6.300   1.964  0.00  0.00    -0.248 NA
ATOM     21  C   UNK d   0     -14.755  -8.204   1.551  0.00  0.00    -0.011 A 
ATOM     22  C   UNK d   0     -16.246  -6.749   0.722  0.00  0.00     0.066 A 
ATOM     23  C   UNK d   0     -17.144  -5.954   0.026  0.00  0.00     0.062 C 
ATOM     24  C   UNK d   0     -15.503  -7.976   0.510  0.00  0.00    -0.020 A 
ATOM     25  C   UNK d   0     -17.648  -4.697   0.396  0.00  0.00     0.041 A 
ATOM     26  N   UNK d   0     -18.044  -4.214   1.580  0.00  0.00    -0.355 N 
ATOM     27  C   UNK d   0     -17.776  -3.702  -0.597  0.00  0.00    -0.022 A 
ATOM     28  C   UNK d   0     -18.416  -2.940   1.376  0.00  0.00     0.042 A 
ATOM     29  H   UNK d   0     -18.085  -4.774   2.547  0.00  0.00     0.166 HD
ATOM     30  C   UNK d   0     -18.905  -1.968   2.263  0.00  0.00     0.062 C 
ATOM     31  C   UNK d   0     -18.261  -2.587   0.015  0.00  0.00    -0.013 A 
ATOM     32  C   UNK d   0     -18.494  -1.712   3.562  0.00  0.00     0.066 A 
BRANCH   8  33
ATOM     33  C   UNK d   0     -18.113  -0.207   6.895  0.00  0.00     0.151 C 
BRANCH  33  34
ATOM     34  C   UNK d   0     -17.112   0.875   6.921  0.00  0.00     0.143 C 
ATOM     35  O   UNK d   0     -15.929   0.642   7.207  0.00  0.00    -0.650 OA
BRANCH  34  36
ATOM     36  O   UNK d   0     -17.501   2.161   6.626  0.00  0.00    -0.776 OA
ATOM     37  H   UNK d   0     -17.579   2.878   7.361  0.00  0.00     0.167 HD
ENDBRANCH  34  36
ENDBRANCH  33  34
ENDBRANCH   8  33
BRANCH  31  38
ATOM     38  C   UNK d   0     -18.547  -1.260  -0.648  0.00  0.00     0.151 C 
BRANCH  38  39
ATOM     39  C   UNK d   0     -17.438  -0.334  -0.556  0.00  0.00     0.143 C 
ATOM     40  O   UNK d   0     -16.378  -0.623   0.027  0.00  0.00    -0.650 OA
BRANCH  39  41
ATOM     41  O   UNK d   0     -17.548   0.929  -1.137  0.00  0.00    -0.776 OA
ATOM     42  H   UNK d   0     -18.422   1.438  -0.973  0.00  0.00     0.167 HD
ENDBRANCH  39  41
ENDBRANCH  38  39
ENDBRANCH  31  38
BRANCH  27  43
ATOM     43  C   UNK d   0     -17.464  -3.772  -2.070  0.00  0.00     0.052 C 
BRANCH  43  44
ATOM     44  C   UNK d   0     -18.589  -4.318  -2.888  0.00  0.00     0.115 C 
BRANCH  44  45
ATOM     45  C   UNK d   0     -18.282  -3.992  -4.305  0.00  0.00     0.139 C 
ATOM     46  O   UNK d   0     -17.205  -4.420  -4.790  0.00  0.00    -0.650 OA
BRANCH  45  47
ATOM     47  O   UNK d   0     -19.127  -3.251  -5.102  0.00  0.00    -0.776 OA
ATOM     48  H   UNK d   0     -20.155  -3.289  -5.015  0.00  0.00     0.167 HD
ENDBRANCH  45  47
ENDBRANCH  44  45
ENDBRANCH  43  44
ENDBRANCH  27  43
BRANCH  24  49
ATOM     49  C   UNK d   0     -15.559  -8.792  -0.715  0.00  0.00     0.052 C 
BRANCH  49  50
ATOM     50  C   UNK d   0     -15.081  -7.993  -1.900  0.00  0.00     0.115 C 
BRANCH  50  51
ATOM     51  C   UNK d   0     -13.674  -7.614  -1.922  0.00  0.00     0.139 C 
ATOM     52  O   UNK d   0     -12.748  -8.444  -1.768  0.00  0.00    -0.650 OA
BRANCH  51  53
ATOM     53  O   UNK d   0     -13.324  -6.286  -2.117  0.00  0.00    -0.776 OA
ATOM     54  H   UNK d   0     -13.085  -5.990  -3.047  0.00  0.00     0.167 HD
ENDBRANCH  51  53
ENDBRANCH  50  51
ENDBRANCH  49  50
ENDBRANCH  24  49
BRANCH  21  55
ATOM     55  C   UNK d   0     -13.815  -9.342   1.775  0.00  0.00     0.151 C 
BRANCH  55  56
ATOM     56  C   UNK d   0     -14.386 -10.362   2.667  0.00  0.00     0.143 C 
ATOM     57  O   UNK d   0     -14.057 -10.473   3.864  0.00  0.00    -0.650 OA
BRANCH  56  58
ATOM     58  O   UNK d   0     -15.335 -11.233   2.133  0.00  0.00    -0.776 OA
ATOM     59  H   UNK d   0     -15.546 -11.086   1.130  0.00  0.00     0.167 HD
ENDBRANCH  56  58
ENDBRANCH  55  56
ENDBRANCH  21  55
BRANCH  18  60
ATOM     60  C   UNK d   0     -14.865  -7.514   6.711  0.00  0.00     0.151 C 
BRANCH  60  61
ATOM     61  C   UNK d   0     -16.097  -8.307   6.586  0.00  0.00     0.143 C 
ATOM     62  O   UNK d   0     -17.105  -8.228   7.288  0.00  0.00    -0.650 OA
BRANCH  61  63
ATOM     63  O   UNK d   0     -16.098  -9.256   5.536  0.00  0.00    -0.776 OA
ATOM     64  H   UNK d   0     -16.194 -10.238   5.725  0.00  0.00     0.167 HD
ENDBRANCH  61  63
ENDBRANCH  60  61
ENDBRANCH  18  60
BRANCH  14  65
ATOM     65  C   UNK d   0     -15.807  -5.003   8.131  0.00  0.00     0.052 C 
BRANCH  65  66
ATOM     66  C   UNK d   0     -17.234  -5.102   8.540  0.00  0.00     0.115 C 
BRANCH  66  67
ATOM     67  C   UNK d   0     -17.575  -5.126   9.935  0.00  0.00     0.139 C 
ATOM     68  O   UNK d   0     -18.785  -5.410  10.267  0.00  0.00    -0.650 OA
BRANCH  67  69
ATOM     69  O   UNK d   0     -16.739  -4.874  11.022  0.00  0.00    -0.776 OA
ATOM     70  H   UNK d   0     -16.649  -5.639  11.706  0.00  0.00     0.167 HD
ENDBRANCH  67  69
ENDBRANCH  66  67
ENDBRANCH  65  66
ENDBRANCH  14  65
ENDBRANCH   6   7
ENDBRANCH   5   6
ENDBRANCH   2   5
TORSDOF 28
ENDMDL
MODEL 19
REMARK VINA RESULT:      -5.8     24.069     29.894
REMARK  28 active torsions:
REMARK  status: ('A' for Active; 'I' for Inactive)
REMARK    1  A    between atoms: C_2  and  O_3 
REMARK    2  A    between atoms: C_2  and  C_4 
REMARK    3  A    between atoms: C_4  and  C_5 
REMARK    4  A    between atoms: C_5  and  C_6 
REMARK    5  A    between atoms: C_7  and  C_8 
REMARK    6  A    between atoms: C_8  and  C_9 
REMARK    7  A    between atoms: C_9  and  O_11 
REMARK    8  A    between atoms: C_28  and  C_29 
REMARK    9  A    between atoms: C_29  and  C_30 
REMARK   10  A    between atoms: C_30  and  O_32 
REMARK   11  A    between atoms: C_33  and  C_34 
REMARK   12  A    between atoms: C_34  and  C_35 
REMARK   13  A    between atoms: C_35  and  C_36 
REMARK   14  A    between atoms: C_36  and  O_38 
REMARK   15  A    between atoms: C_39  and  C_40 
REMARK   16  A    between atoms: C_40  and  C_41 
REMARK   17  A    between atoms: C_41  and  C_42 
REMARK   18  A    between atoms: C_42  and  O_44 
REMARK   19  A    between atoms: C_45  and  C_46 
REMARK   20  A    between atoms: C_46  and  C_47 
REMARK   21  A    between atoms: C_47  and  O_49 
REMARK   22  A    between atoms: C_50  and  C_51 
REMARK   23  A    between atoms: C_51  and  C_52 
REMARK   24  A    between atoms: C_52  and  O_54 
REMARK   25  A    between atoms: C_55  and  C_56 
REMARK   26  A    between atoms: C_56  and  C_57 
REMARK   27  A    between atoms: C_57  and  C_58 
REMARK   28  A    between atoms: C_58  and  O_60 
ROOT
ATOM      1  O   UNK d   0      20.489   5.935 -10.543  0.00  0.00    -0.650 OA
ATOM      2  C   UNK d   0      19.567   6.566 -11.106  0.00  0.00     0.139 C 
ENDROOT
BRANCH   2   3
ATOM      3  O   UNK d   0      18.990   7.633 -10.461  0.00  0.00    -0.776 OA
ATOM      4  H   UNK d   0      18.472   8.346 -10.980  0.00  0.00     0.167 HD
ENDBRANCH   2   3
BRANCH   2   5
ATOM      5  C   UNK d   0      19.102   6.159 -12.462  0.00  0.00     0.115 C 
BRANCH   5   6
ATOM      6  C   UNK d   0      17.737   5.531 -12.375  0.00  0.00     0.052 C 
BRANCH   6   7
ATOM      7  C   UNK d   0      17.565   4.379 -13.335  0.00  0.00    -0.020 A 
ATOM      8  C   UNK d   0      17.834   3.116 -13.122  0.00  0.00    -0.011 A 
ATOM      9  C   UNK d   0      17.516   2.383 -14.336  0.00  0.00     0.067 A 
ATOM     10  C   UNK d   0      17.553   1.041 -14.748  0.00  0.00     0.062 C 
ATOM     11  N   UNK d   0      17.065   3.279 -15.239  0.00  0.00    -0.248 NA
ATOM     12  C   UNK d   0      16.940   0.484 -15.876  0.00  0.00     0.041 A 
ATOM     13  N   UNK d   0      16.844   0.928 -17.143  0.00  0.00    -0.355 N 
ATOM     14  C   UNK d   0      16.233  -0.724 -15.738  0.00  0.00    -0.022 A 
ATOM     15  C   UNK d   0      16.087   0.038 -17.811  0.00  0.00     0.042 A 
ATOM     16  H   UNK d   0      17.318   1.843 -17.562  0.00  0.00     0.166 HD
ATOM     17  C   UNK d   0      15.677   0.017 -19.159  0.00  0.00     0.062 C 
ATOM     18  C   UNK d   0      15.685  -1.012 -16.963  0.00  0.00    -0.013 A 
ATOM     19  C   UNK d   0      15.181   1.040 -19.926  0.00  0.00     0.067 A 
ATOM     20  N   UNK d   0      15.269   2.273 -19.419  0.00  0.00    -0.248 NA
ATOM     21  C   UNK d   0      14.530   1.155 -21.220  0.00  0.00    -0.011 A 
ATOM     22  C   UNK d   0      14.721   3.185 -20.287  0.00  0.00     0.066 A 
ATOM     23  C   UNK d   0      14.780   4.516 -19.901  0.00  0.00     0.062 C 
ATOM     24  C   UNK d   0      14.259   2.412 -21.424  0.00  0.00    -0.020 A 
ATOM     25  C   UNK d   0      15.412   5.056 -18.770  0.00  0.00     0.041 A 
ATOM     26  N   UNK d   0      15.495   4.622 -17.507  0.00  0.00    -0.355 N 
ATOM     27  C   UNK d   0      16.126   6.267 -18.910  0.00  0.00    -0.022 A 
ATOM     28  C   UNK d   0      16.242   5.514 -16.837  0.00  0.00     0.042 A 
ATOM     29  H   UNK d   0      15.009   3.708 -17.085  0.00  0.00     0.166 HD
ATOM     30  C   UNK d   0      16.650   5.552 -15.494  0.00  0.00     0.062 C 
ATOM     31  C   UNK d   0      16.654   6.563 -17.692  0.00  0.00    -0.013 A 
ATOM     32  C   UNK d   0      17.070   4.498 -14.698  0.00  0.00     0.066 A 
BRANCH   8  33
ATOM     33  C   UNK d   0      18.369   2.521 -11.883  0.00  0.00     0.151 C 
BRANCH  33  34
ATOM     34  C   UNK d   0      19.842   2.545 -11.829  0.00  0.00     0.143 C 
ATOM     35  O   UNK d   0      20.521   2.037 -12.733  0.00  0.00    -0.650 OA
BRANCH  34  36
ATOM     36  O   UNK d   0      20.469   3.139 -10.758  0.00  0.00    -0.776 OA
ATOM     37  H   UNK d   0      21.068   3.967 -10.882  0.00  0.00     0.167 HD
ENDBRANCH  34  36
ENDBRANCH  33  34
ENDBRANCH   8  33
BRANCH  31  38
ATOM     38  C   UNK d   0      17.511   7.762 -17.360  0.00  0.00     0.151 C 
BRANCH  38  39
ATOM     39  C   UNK d   0      16.733   8.916 -16.964  0.00  0.00     0.143 C 
ATOM     40  O   UNK d   0      16.051   8.934 -15.924  0.00  0.00    -0.650 OA
BRANCH  39  41
ATOM     41  O   UNK d   0      16.739  10.056 -17.767  0.00  0.00    -0.776 OA
ATOM     42  H   UNK d   0      17.582  10.224 -18.325  0.00  0.00     0.167 HD
ENDBRANCH  39  41
ENDBRANCH  38  39
ENDBRANCH  31  38
BRANCH  27  43
ATOM     43  C   UNK d   0      16.316   7.131 -20.131  0.00  0.00     0.052 C 
BRANCH  43  44
ATOM     44  C   UNK d   0      17.548   6.795 -20.907  0.00  0.00     0.115 C 
BRANCH  44  45
ATOM     45  C   UNK d   0      18.326   8.055 -21.034  0.00  0.00     0.139 C 
ATOM     46  O   UNK d   0      17.856   9.096 -20.512  0.00  0.00    -0.650 OA
BRANCH  45  47
ATOM     47  O   UNK d   0      19.535   8.124 -21.692  0.00  0.00    -0.776 OA
ATOM     48  H   UNK d   0      19.617   8.079 -22.720  0.00  0.00     0.167 HD
ENDBRANCH  45  47
ENDBRANCH  44  45
ENDBRANCH  43  44
ENDBRANCH  27  43
BRANCH  24  49
ATOM     49  C   UNK d   0      13.633   2.982 -22.629  0.00  0.00     0.052 C 
BRANCH  49  50
ATOM     50  C   UNK d   0      14.683   3.309 -23.660  0.00  0.00     0.115 C 
BRANCH  50  51
ATOM     51  C   UNK d   0      14.421   2.891 -25.031  0.00  0.00     0.139 C 
ATOM     52  O   UNK d   0      14.467   3.685 -26.001  0.00  0.00    -0.650 OA
BRANCH  51  53
ATOM     53  O   UNK d   0      14.104   1.568 -25.297  0.00  0.00    -0.776 OA
ATOM     54  H   UNK d   0      14.698   1.053 -25.923  0.00  0.00     0.167 HD
ENDBRANCH  51  53
ENDBRANCH  50  51
ENDBRANCH  49  50
ENDBRANCH  24  49
BRANCH  21  55
ATOM     55  C   UNK d   0      14.249  -0.003 -22.120  0.00  0.00     0.151 C 
BRANCH  55  56
ATOM     56  C   UNK d   0      15.473  -0.518 -22.753  0.00  0.00     0.143 C 
ATOM     57  O   UNK d   0      16.069   0.090 -23.664  0.00  0.00    -0.650 OA
BRANCH  56  58
ATOM     58  O   UNK d   0      15.973  -1.738 -22.303  0.00  0.00    -0.776 OA
ATOM     59  H   UNK d   0      16.973  -1.906 -22.516  0.00  0.00     0.167 HD
ENDBRANCH  56  58
ENDBRANCH  55  56
ENDBRANCH  21  55
BRANCH  18  60
ATOM     60  C   UNK d   0      14.834  -2.221 -17.267  0.00  0.00     0.151 C 
BRANCH  60  61
ATOM     61  C   UNK d   0      13.451  -1.830 -16.956  0.00  0.00     0.143 C 
ATOM     62  O   UNK d   0      12.802  -0.921 -17.476  0.00  0.00    -0.650 OA
BRANCH  61  63
ATOM     63  O   UNK d   0      12.820  -2.597 -15.947  0.00  0.00    -0.776 OA
ATOM     64  H   UNK d   0      13.136  -3.524 -15.728  0.00  0.00     0.167 HD
ENDBRANCH  61  63
ENDBRANCH  60  61
ENDBRANCH  18  60
BRANCH  14  65
ATOM     65  C   UNK d   0      16.118  -1.667 -14.574  0.00  0.00     0.052 C 
BRANCH  65  66
ATOM     66  C   UNK d   0      15.053  -1.277 -13.612  0.00  0.00     0.115 C 
BRANCH  66  67
ATOM     67  C   UNK d   0      15.366  -0.400 -12.519  0.00  0.00     0.139 C 
ATOM     68  O   UNK d   0      14.695   0.690 -12.395  0.00  0.00    -0.650 OA
BRANCH  67  69
ATOM     69  O   UNK d   0      16.339  -0.576 -11.536  0.00  0.00    -0.776 OA
ATOM     70  H   UNK d   0      16.956   0.232 -11.366  0.00  0.00     0.167 HD
ENDBRANCH  67  69
ENDBRANCH  66  67
ENDBRANCH  65  66
ENDBRANCH  14  65
ENDBRANCH   6   7
ENDBRANCH   5   6
ENDBRANCH   2   5
TORSDOF 28
ENDMDL
MODEL 20
REMARK VINA RESULT:      -5.8     22.453     28.290
REMARK  28 active torsions:
REMARK  status: ('A' for Active; 'I' for Inactive)
REMARK    1  A    between atoms: C_2  and  O_3 
REMARK    2  A    between atoms: C_2  and  C_4 
REMARK    3  A    between atoms: C_4  and  C_5 
REMARK    4  A    between atoms: C_5  and  C_6 
REMARK    5  A    between atoms: C_7  and  C_8 
REMARK    6  A    between atoms: C_8  and  C_9 
REMARK    7  A    between atoms: C_9  and  O_11 
REMARK    8  A    between atoms: C_28  and  C_29 
REMARK    9  A    between atoms: C_29  and  C_30 
REMARK   10  A    between atoms: C_30  and  O_32 
REMARK   11  A    between atoms: C_33  and  C_34 
REMARK   12  A    between atoms: C_34  and  C_35 
REMARK   13  A    between atoms: C_35  and  C_36 
REMARK   14  A    between atoms: C_36  and  O_38 
REMARK   15  A    between atoms: C_39  and  C_40 
REMARK   16  A    between atoms: C_40  and  C_41 
REMARK   17  A    between atoms: C_41  and  C_42 
REMARK   18  A    between atoms: C_42  and  O_44 
REMARK   19  A    between atoms: C_45  and  C_46 
REMARK   20  A    between atoms: C_46  and  C_47 
REMARK   21  A    between atoms: C_47  and  O_49 
REMARK   22  A    between atoms: C_50  and  C_51 
REMARK   23  A    between atoms: C_51  and  C_52 
REMARK   24  A    between atoms: C_52  and  O_54 
REMARK   25  A    between atoms: C_55  and  C_56 
REMARK   26  A    between atoms: C_56  and  C_57 
REMARK   27  A    between atoms: C_57  and  C_58 
REMARK   28  A    between atoms: C_58  and  O_60 
ROOT
ATOM      1  O   UNK d   0      20.068   6.703 -17.601  0.00  0.00    -0.650 OA
ATOM      2  C   UNK d   0      19.800   7.708 -16.906  0.00  0.00     0.139 C 
ENDROOT
BRANCH   2   3
ATOM      3  O   UNK d   0      19.917   8.960 -17.460  0.00  0.00    -0.776 OA
ATOM      4  H   UNK d   0      20.785   9.494 -17.378  0.00  0.00     0.167 HD
ENDBRANCH   2   3
BRANCH   2   5
ATOM      5  C   UNK d   0      19.360   7.545 -15.492  0.00  0.00     0.115 C 
BRANCH   5   6
ATOM      6  C   UNK d   0      17.884   7.811 -15.375  0.00  0.00     0.052 C 
BRANCH   6   7
ATOM      7  C   UNK d   0      17.046   6.704 -15.968  0.00  0.00    -0.020 A 
ATOM      8  C   UNK d   0      16.292   6.758 -17.036  0.00  0.00    -0.011 A 
ATOM      9  C   UNK d   0      15.673   5.455 -17.210  0.00  0.00     0.067 A 
ATOM     10  C   UNK d   0      14.802   4.863 -18.139  0.00  0.00     0.062 C 
ATOM     11  N   UNK d   0      16.101   4.669 -16.200  0.00  0.00    -0.248 NA
ATOM     12  C   UNK d   0      14.532   3.500 -18.298  0.00  0.00     0.041 A 
ATOM     13  N   UNK d   0      14.314   2.528 -17.392  0.00  0.00    -0.355 N 
ATOM     14  C   UNK d   0      14.520   2.955 -19.595  0.00  0.00    -0.022 A 
ATOM     15  C   UNK d   0      14.172   1.379 -18.080  0.00  0.00     0.042 A 
ATOM     16  H   UNK d   0      14.242   2.654 -16.289  0.00  0.00     0.166 HD
ATOM     17  C   UNK d   0      13.927   0.068 -17.627  0.00  0.00     0.062 C 
ATOM     18  C   UNK d   0      14.295   1.607 -19.464  0.00  0.00    -0.013 A 
ATOM     19  C   UNK d   0      14.509  -0.608 -16.584  0.00  0.00     0.067 A 
ATOM     20  N   UNK d   0      15.267   0.107 -15.749  0.00  0.00    -0.248 NA
ATOM     21  C   UNK d   0      14.538  -1.984 -16.117  0.00  0.00    -0.011 A 
ATOM     22  C   UNK d   0      15.791  -0.702 -14.771  0.00  0.00     0.066 A 
ATOM     23  C   UNK d   0      16.573  -0.079 -13.809  0.00  0.00     0.062 C 
ATOM     24  C   UNK d   0      15.293  -2.033 -15.058  0.00  0.00    -0.020 A 
ATOM     25  C   UNK d   0      16.822   1.294 -13.660  0.00  0.00     0.041 A 
ATOM     26  N   UNK d   0      17.053   2.257 -14.560  0.00  0.00    -0.355 N 
ATOM     27  C   UNK d   0      16.829   1.841 -12.358  0.00  0.00    -0.022 A 
ATOM     28  C   UNK d   0      17.204   3.402 -13.875  0.00  0.00     0.042 A 
ATOM     29  H   UNK d   0      17.135   2.127 -15.667  0.00  0.00     0.166 HD
ATOM     30  C   UNK d   0      17.457   4.712 -14.312  0.00  0.00     0.062 C 
ATOM     31  C   UNK d   0      17.069   3.174 -12.485  0.00  0.00    -0.013 A 
ATOM     32  C   UNK d   0      16.930   5.362 -15.417  0.00  0.00     0.066 A 
BRANCH   8  33
ATOM     33  C   UNK d   0      16.088   7.923 -17.917  0.00  0.00     0.151 C 
BRANCH  33  34
ATOM     34  C   UNK d   0      16.632   7.717 -19.271  0.00  0.00     0.143 C 
ATOM     35  O   UNK d   0      15.895   7.379 -20.208  0.00  0.00    -0.650 OA
BRANCH  34  36
ATOM     36  O   UNK d   0      17.977   7.901 -19.494  0.00  0.00    -0.776 OA
ATOM     37  H   UNK d   0      18.356   7.970 -20.448  0.00  0.00     0.167 HD
ENDBRANCH  34  36
ENDBRANCH  33  34
ENDBRANCH   8  33
BRANCH  31  38
ATOM     38  C   UNK d   0      17.153   4.177 -11.358  0.00  0.00     0.151 C 
BRANCH  38  39
ATOM     39  C   UNK d   0      18.511   4.593 -11.077  0.00  0.00     0.143 C 
ATOM     40  O   UNK d   0      19.485   3.836 -11.230  0.00  0.00    -0.650 OA
BRANCH  39  41
ATOM     41  O   UNK d   0      18.750   5.889 -10.619  0.00  0.00    -0.776 OA
ATOM     42  H   UNK d   0      18.378   6.656 -11.188  0.00  0.00     0.167 HD
ENDBRANCH  39  41
ENDBRANCH  38  39
ENDBRANCH  31  38
BRANCH  27  43
ATOM     43  C   UNK d   0      16.623   1.156 -11.030  0.00  0.00     0.052 C 
BRANCH  43  44
ATOM     44  C   UNK d   0      15.270   1.400 -10.444  0.00  0.00     0.115 C 
BRANCH  44  45
ATOM     45  C   UNK d   0      14.395   0.300 -10.925  0.00  0.00     0.139 C 
ATOM     46  O   UNK d   0      14.304  -0.736 -10.220  0.00  0.00    -0.650 OA
BRANCH  45  47
ATOM     47  O   UNK d   0      13.681   0.373 -12.101  0.00  0.00    -0.776 OA
ATOM     48  H   UNK d   0      12.649   0.419 -12.129  0.00  0.00     0.167 HD
ENDBRANCH  45  47
ENDBRANCH  44  45
ENDBRANCH  43  44
ENDBRANCH  27  43
BRANCH  24  49
ATOM     49  C   UNK d   0      15.568  -3.228 -14.242  0.00  0.00     0.052 C 
BRANCH  49  50
ATOM     50  C   UNK d   0      15.095  -3.016 -12.827  0.00  0.00     0.115 C 
BRANCH  50  51
ATOM     51  C   UNK d   0      13.719  -3.386 -12.524  0.00  0.00     0.139 C 
ATOM     52  O   UNK d   0      13.362  -4.574 -12.342  0.00  0.00    -0.650 OA
BRANCH  51  53
ATOM     53  O   UNK d   0      12.748  -2.401 -12.431  0.00  0.00    -0.776 OA
ATOM     54  H   UNK d   0      11.827  -2.667 -12.128  0.00  0.00     0.167 HD
ENDBRANCH  51  53
ENDBRANCH  50  51
ENDBRANCH  49  50
ENDBRANCH  24  49
BRANCH  21  55
ATOM     55  C   UNK d   0      13.804  -3.105 -16.776  0.00  0.00     0.151 C 
BRANCH  55  56
ATOM     56  C   UNK d   0      12.350  -3.003 -16.578  0.00  0.00     0.143 C 
ATOM     57  O   UNK d   0      11.548  -2.869 -17.524  0.00  0.00    -0.650 OA
BRANCH  56  58
ATOM     58  O   UNK d   0      11.866  -3.061 -15.272  0.00  0.00    -0.776 OA
ATOM     59  H   UNK d   0      12.517  -2.703 -14.550  0.00  0.00     0.167 HD
ENDBRANCH  56  58
ENDBRANCH  55  56
ENDBRANCH  21  55
BRANCH  18  60
ATOM     60  C   UNK d   0      14.213   0.629 -20.610  0.00  0.00     0.151 C 
BRANCH  60  61
ATOM     61  C   UNK d   0      15.330  -0.309 -20.421  0.00  0.00     0.143 C 
ATOM     62  O   UNK d   0      15.266  -1.537 -20.364  0.00  0.00    -0.650 OA
BRANCH  61  63
ATOM     63  O   UNK d   0      16.606   0.291 -20.295  0.00  0.00    -0.776 OA
ATOM     64  H   UNK d   0      17.365   0.027 -20.898  0.00  0.00     0.167 HD
ENDBRANCH  61  63
ENDBRANCH  60  61
ENDBRANCH  18  60
BRANCH  14  65
ATOM     65  C   UNK d   0      14.606   3.620 -20.939  0.00  0.00     0.052 C 
BRANCH  65  66
ATOM     66  C   UNK d   0      15.933   3.449 -21.589  0.00  0.00     0.115 C 
BRANCH  66  67
ATOM     67  C   UNK d   0      17.131   3.713 -20.842  0.00  0.00     0.139 C 
ATOM     68  O   UNK d   0      17.931   2.736 -20.600  0.00  0.00    -0.650 OA
BRANCH  67  69
ATOM     69  O   UNK d   0      17.560   4.933 -20.321  0.00  0.00    -0.776 OA
ATOM     70  H   UNK d   0      18.532   4.957 -19.979  0.00  0.00     0.167 HD
ENDBRANCH  67  69
ENDBRANCH  66  67
ENDBRANCH  65  66
ENDBRANCH  14  65
ENDBRANCH   6   7
ENDBRANCH   5   6
ENDBRANCH   2   5
TORSDOF 28
ENDMDL
