MODEL 1
REMARK VINA RESULT:     -10.0      0.000      0.000
REMARK  28 active torsions:
REMARK  status: ('A' for Active; 'I' for Inactive)
REMARK    1  A    between atoms: C_2  and  O_3 
REMARK    2  A    between atoms: C_2  and  C_4 
REMARK    3  A    between atoms: C_4  and  C_5 
REMARK    4  A    between atoms: C_5  and  C_6 
REMARK    5  A    between atoms: C_7  and  C_8 
REMARK    6  A    between atoms: C_8  and  C_9 
REMARK    7  A    between atoms: C_9  and  O_11 
REMARK    8  A    between atoms: C_28  and  C_29 
REMARK    9  A    between atoms: C_29  and  C_30 
REMARK   10  A    between atoms: C_30  and  O_32 
REMARK   11  A    between atoms: C_33  and  C_34 
REMARK   12  A    between atoms: C_34  and  C_35 
REMARK   13  A    between atoms: C_35  and  C_36 
REMARK   14  A    between atoms: C_36  and  O_38 
REMARK   15  A    between atoms: C_39  and  C_40 
REMARK   16  A    between atoms: C_40  and  C_41 
REMARK   17  A    between atoms: C_41  and  C_42 
REMARK   18  A    between atoms: C_42  and  O_44 
REMARK   19  A    between atoms: C_45  and  C_46 
REMARK   20  A    between atoms: C_46  and  C_47 
REMARK   21  A    between atoms: C_47  and  O_49 
REMARK   22  A    between atoms: C_50  and  C_51 
REMARK   23  A    between atoms: C_51  and  C_52 
REMARK   24  A    between atoms: C_52  and  O_54 
REMARK   25  A    between atoms: C_55  and  C_56 
REMARK   26  A    between atoms: C_56  and  C_57 
REMARK   27  A    between atoms: C_57  and  C_58 
REMARK   28  A    between atoms: C_58  and  O_60 
ROOT
ATOM      1  O   UNK d   0      10.711  -7.059 -11.557  0.00  0.00    -0.650 OA
ATOM      2  C   UNK d   0      11.072  -7.918 -10.722  0.00  0.00     0.139 C 
ENDROOT
BRANCH   2   3
ATOM      3  O   UNK d   0      11.459  -7.517  -9.466  0.00  0.00    -0.776 OA
ATOM      4  H   UNK d   0      11.496  -6.526  -9.217  0.00  0.00     0.167 HD
ENDBRANCH   2   3
BRANCH   2   5
ATOM      5  C   UNK d   0      11.082  -9.362 -11.091  0.00  0.00     0.115 C 
BRANCH   5   6
ATOM      6  C   UNK d   0      12.081 -10.106 -10.247  0.00  0.00     0.052 C 
BRANCH   6   7
ATOM      7  C   UNK d   0      11.435 -10.845  -9.099  0.00  0.00    -0.020 A 
ATOM      8  C   UNK d   0      10.580 -11.832  -9.166  0.00  0.00    -0.011 A 
ATOM      9  C   UNK d   0      10.232 -12.213  -7.807  0.00  0.00     0.067 A 
ATOM     10  C   UNK d   0       9.413 -13.180  -7.204  0.00  0.00     0.062 C 
ATOM     11  N   UNK d   0      10.918 -11.400  -6.975  0.00  0.00    -0.248 NA
ATOM     12  C   UNK d   0       9.419 -13.579  -5.863  0.00  0.00     0.041 A 
ATOM     13  N   UNK d   0       9.505 -12.864  -4.726  0.00  0.00    -0.355 N 
ATOM     14  C   UNK d   0       9.386 -14.953  -5.562  0.00  0.00    -0.022 A 
ATOM     15  C   UNK d   0       9.535 -13.748  -3.711  0.00  0.00     0.042 A 
ATOM     16  H   UNK d   0       9.523 -11.755  -4.641  0.00  0.00     0.166 HD
ATOM     17  C   UNK d   0       9.618 -13.539  -2.320  0.00  0.00     0.062 C 
ATOM     18  C   UNK d   0       9.463 -15.068  -4.196  0.00  0.00    -0.013 A 
ATOM     19  C   UNK d   0      10.434 -12.685  -1.623  0.00  0.00     0.067 A 
ATOM     20  N   UNK d   0      11.109 -11.778  -2.335  0.00  0.00    -0.248 NA
ATOM     21  C   UNK d   0      10.799 -12.492  -0.229  0.00  0.00    -0.011 A 
ATOM     22  C   UNK d   0      11.890 -11.008  -1.508  0.00  0.00     0.066 A 
ATOM     23  C   UNK d   0      12.620  -9.997  -2.115  0.00  0.00     0.062 C 
ATOM     24  C   UNK d   0      11.654 -11.513  -0.169  0.00  0.00    -0.020 A 
ATOM     25  C   UNK d   0      12.590  -9.604  -3.462  0.00  0.00     0.041 A 
ATOM     26  N   UNK d   0      12.519 -10.316  -4.593  0.00  0.00    -0.355 N 
ATOM     27  C   UNK d   0      12.618  -8.225  -3.764  0.00  0.00    -0.022 A 
ATOM     28  C   UNK d   0      12.498  -9.436  -5.607  0.00  0.00     0.042 A 
ATOM     29  H   UNK d   0      12.511 -11.431  -4.678  0.00  0.00     0.166 HD
ATOM     30  C   UNK d   0      12.424  -9.630  -6.996  0.00  0.00     0.062 C 
ATOM     31  C   UNK d   0      12.559  -8.110  -5.119  0.00  0.00    -0.013 A 
ATOM     32  C   UNK d   0      11.661 -10.555  -7.691  0.00  0.00     0.066 A 
BRANCH   8  33
ATOM     33  C   UNK d   0      10.045 -12.459 -10.389  0.00  0.00     0.151 C 
BRANCH  33  34
ATOM     34  C   UNK d   0       8.663 -12.943 -10.225  0.00  0.00     0.143 C 
ATOM     35  O   UNK d   0       7.730 -12.150 -10.031  0.00  0.00    -0.650 OA
BRANCH  34  36
ATOM     36  O   UNK d   0       8.407 -14.293 -10.288  0.00  0.00    -0.776 OA
ATOM     37  H   UNK d   0       9.111 -14.954 -10.645  0.00  0.00     0.167 HD
ENDBRANCH  34  36
ENDBRANCH  33  34
ENDBRANCH   8  33
BRANCH  31  38
ATOM     38  C   UNK d   0      12.549  -6.819  -5.904  0.00  0.00     0.151 C 
BRANCH  38  39
ATOM     39  C   UNK d   0      11.211  -6.341  -6.180  0.00  0.00     0.143 C 
ATOM     40  O   UNK d   0      10.984  -5.175  -6.548  0.00  0.00    -0.650 OA
BRANCH  39  41
ATOM     41  O   UNK d   0      10.128  -7.207  -6.033  0.00  0.00    -0.776 OA
ATOM     42  H   UNK d   0       9.924  -7.829  -6.822  0.00  0.00     0.167 HD
ENDBRANCH  39  41
ENDBRANCH  38  39
ENDBRANCH  31  38
BRANCH  27  43
ATOM     43  C   UNK d   0      12.699  -7.042  -2.832  0.00  0.00     0.052 C 
BRANCH  43  44
ATOM     44  C   UNK d   0      14.053  -6.858  -2.227  0.00  0.00     0.115 C 
BRANCH  44  45
ATOM     45  C   UNK d   0      14.492  -5.482  -2.579  0.00  0.00     0.139 C 
ATOM     46  O   UNK d   0      15.326  -5.347  -3.508  0.00  0.00    -0.650 OA
BRANCH  45  47
ATOM     47  O   UNK d   0      14.019  -4.359  -1.935  0.00  0.00    -0.776 OA
ATOM     48  H   UNK d   0      13.057  -4.288  -1.566  0.00  0.00     0.167 HD
ENDBRANCH  45  47
ENDBRANCH  44  45
ENDBRANCH  43  44
ENDBRANCH  27  43
BRANCH  24  49
ATOM     49  C   UNK d   0      12.256 -10.959   1.056  0.00  0.00     0.052 C 
BRANCH  49  50
ATOM     50  C   UNK d   0      13.695 -10.583   0.810  0.00  0.00     0.115 C 
BRANCH  50  51
ATOM     51  C   UNK d   0      14.194  -9.390   1.479  0.00  0.00     0.139 C 
ATOM     52  O   UNK d   0      14.070  -8.241   0.994  0.00  0.00    -0.650 OA
BRANCH  51  53
ATOM     53  O   UNK d   0      14.837  -9.507   2.702  0.00  0.00    -0.776 OA
ATOM     54  H   UNK d   0      15.841  -9.559   2.707  0.00  0.00     0.167 HD
ENDBRANCH  51  53
ENDBRANCH  50  51
ENDBRANCH  49  50
ENDBRANCH  24  49
BRANCH  21  55
ATOM     55  C   UNK d   0      10.251 -13.304   0.897  0.00  0.00     0.151 C 
BRANCH  55  56
ATOM     56  C   UNK d   0       9.619 -12.465   1.926  0.00  0.00     0.143 C 
ATOM     57  O   UNK d   0       9.830 -12.618   3.145  0.00  0.00    -0.650 OA
BRANCH  56  58
ATOM     58  O   UNK d   0       8.751 -11.460   1.501  0.00  0.00    -0.776 OA
ATOM     59  H   UNK d   0       7.763 -11.590   1.781  0.00  0.00     0.167 HD
ENDBRANCH  56  58
ENDBRANCH  55  56
ENDBRANCH  21  55
BRANCH  18  60
ATOM     60  C   UNK d   0       9.468 -16.372  -3.437  0.00  0.00     0.151 C 
BRANCH  60  61
ATOM     61  C   UNK d   0      10.883 -16.738  -3.273  0.00  0.00     0.143 C 
ATOM     62  O   UNK d   0      11.654 -16.347  -2.395  0.00  0.00    -0.650 OA
BRANCH  61  63
ATOM     63  O   UNK d   0      11.390 -17.639  -4.240  0.00  0.00    -0.776 OA
ATOM     64  H   UNK d   0      11.615 -18.587  -3.998  0.00  0.00     0.167 HD
ENDBRANCH  61  63
ENDBRANCH  60  61
ENDBRANCH  18  60
BRANCH  14  65
ATOM     65  C   UNK d   0       9.190 -16.148  -6.451  0.00  0.00     0.052 C 
BRANCH  65  66
ATOM     66  C   UNK d   0       7.800 -16.677  -6.416  0.00  0.00     0.115 C 
BRANCH  66  67
ATOM     67  C   UNK d   0       6.755 -15.978  -7.107  0.00  0.00     0.139 C 
ATOM     68  O   UNK d   0       5.581 -15.953  -6.582  0.00  0.00    -0.650 OA
BRANCH  67  69
ATOM     69  O   UNK d   0       6.842 -15.295  -8.320  0.00  0.00    -0.776 OA
ATOM     70  H   UNK d   0       6.260 -15.665  -9.085  0.00  0.00     0.167 HD
ENDBRANCH  67  69
ENDBRANCH  66  67
ENDBRANCH  65  66
ENDBRANCH  14  65
ENDBRANCH   6   7
ENDBRANCH   5   6
ENDBRANCH   2   5
TORSDOF 28
ENDMDL
MODEL 2
REMARK VINA RESULT:      -9.9      1.985      7.602
REMARK  28 active torsions:
REMARK  status: ('A' for Active; 'I' for Inactive)
REMARK    1  A    between atoms: C_2  and  O_3 
REMARK    2  A    between atoms: C_2  and  C_4 
REMARK    3  A    between atoms: C_4  and  C_5 
REMARK    4  A    between atoms: C_5  and  C_6 
REMARK    5  A    between atoms: C_7  and  C_8 
REMARK    6  A    between atoms: C_8  and  C_9 
REMARK    7  A    between atoms: C_9  and  O_11 
REMARK    8  A    between atoms: C_28  and  C_29 
REMARK    9  A    between atoms: C_29  and  C_30 
REMARK   10  A    between atoms: C_30  and  O_32 
REMARK   11  A    between atoms: C_33  and  C_34 
REMARK   12  A    between atoms: C_34  and  C_35 
REMARK   13  A    between atoms: C_35  and  C_36 
REMARK   14  A    between atoms: C_36  and  O_38 
REMARK   15  A    between atoms: C_39  and  C_40 
REMARK   16  A    between atoms: C_40  and  C_41 
REMARK   17  A    between atoms: C_41  and  C_42 
REMARK   18  A    between atoms: C_42  and  O_44 
REMARK   19  A    between atoms: C_45  and  C_46 
REMARK   20  A    between atoms: C_46  and  C_47 
REMARK   21  A    between atoms: C_47  and  O_49 
REMARK   22  A    between atoms: C_50  and  C_51 
REMARK   23  A    between atoms: C_51  and  C_52 
REMARK   24  A    between atoms: C_52  and  O_54 
REMARK   25  A    between atoms: C_55  and  C_56 
REMARK   26  A    between atoms: C_56  and  C_57 
REMARK   27  A    between atoms: C_57  and  C_58 
REMARK   28  A    between atoms: C_58  and  O_60 
ROOT
ATOM      1  O   UNK d   0       5.379 -16.092  -7.238  0.00  0.00    -0.650 OA
ATOM      2  C   UNK d   0       6.347 -16.039  -8.030  0.00  0.00     0.139 C 
ENDROOT
BRANCH   2   3
ATOM      3  O   UNK d   0       7.149 -17.143  -8.188  0.00  0.00    -0.776 OA
ATOM      4  H   UNK d   0       7.883 -17.164  -8.899  0.00  0.00     0.167 HD
ENDBRANCH   2   3
BRANCH   2   5
ATOM      5  C   UNK d   0       6.622 -14.788  -8.792  0.00  0.00     0.115 C 
BRANCH   5   6
ATOM      6  C   UNK d   0       8.046 -14.780  -9.277  0.00  0.00     0.052 C 
BRANCH   6   7
ATOM      7  C   UNK d   0       8.916 -13.813  -8.511  0.00  0.00    -0.020 A 
ATOM      8  C   UNK d   0       9.533 -12.756  -8.973  0.00  0.00    -0.011 A 
ATOM      9  C   UNK d   0      10.254 -12.143  -7.870  0.00  0.00     0.067 A 
ATOM     10  C   UNK d   0      11.066 -11.011  -7.695  0.00  0.00     0.062 C 
ATOM     11  N   UNK d   0      10.024 -12.896  -6.774  0.00  0.00    -0.248 NA
ATOM     12  C   UNK d   0      11.449 -10.423  -6.485  0.00  0.00     0.041 A 
ATOM     13  N   UNK d   0      11.865 -10.969  -5.326  0.00  0.00    -0.355 N 
ATOM     14  C   UNK d   0      11.366  -9.025  -6.351  0.00  0.00    -0.022 A 
ATOM     15  C   UNK d   0      12.040  -9.954  -4.458  0.00  0.00     0.042 A 
ATOM     16  H   UNK d   0      12.050 -12.048  -5.131  0.00  0.00     0.166 HD
ATOM     17  C   UNK d   0      12.464  -9.964  -3.115  0.00  0.00     0.062 C 
ATOM     18  C   UNK d   0      11.736  -8.720  -5.065  0.00  0.00    -0.013 A 
ATOM     19  C   UNK d   0      12.075 -10.794  -2.094  0.00  0.00     0.067 A 
ATOM     20  N   UNK d   0      11.351 -11.865  -2.428  0.00  0.00    -0.248 NA
ATOM     21  C   UNK d   0      12.236 -10.819  -0.650  0.00  0.00    -0.011 A 
ATOM     22  C   UNK d   0      11.025 -12.588  -1.306  0.00  0.00     0.066 A 
ATOM     23  C   UNK d   0      10.302 -13.753  -1.513  0.00  0.00     0.062 C 
ATOM     24  C   UNK d   0      11.616 -11.869  -0.194  0.00  0.00    -0.020 A 
ATOM     25  C   UNK d   0       9.937 -14.334  -2.738  0.00  0.00     0.041 A 
ATOM     26  N   UNK d   0       9.510 -13.792  -3.885  0.00  0.00    -0.355 N 
ATOM     27  C   UNK d   0      10.026 -15.737  -2.872  0.00  0.00    -0.022 A 
ATOM     28  C   UNK d   0       9.326 -14.803  -4.749  0.00  0.00     0.042 A 
ATOM     29  H   UNK d   0       9.314 -12.709  -4.076  0.00  0.00     0.166 HD
ATOM     30  C   UNK d   0       8.896 -14.809  -6.085  0.00  0.00     0.062 C 
ATOM     31  C   UNK d   0       9.642 -16.042  -4.142  0.00  0.00    -0.013 A 
ATOM     32  C   UNK d   0       9.226 -13.916  -7.093  0.00  0.00     0.066 A 
BRANCH   8  33
ATOM     33  C   UNK d   0       9.519 -12.259 -10.362  0.00  0.00     0.151 C 
BRANCH  33  34
ATOM     34  C   UNK d   0      10.717 -11.469 -10.697  0.00  0.00     0.143 C 
ATOM     35  O   UNK d   0      11.829 -12.007 -10.789  0.00  0.00    -0.650 OA
BRANCH  34  36
ATOM     36  O   UNK d   0      10.595 -10.115 -10.910  0.00  0.00    -0.776 OA
ATOM     37  H   UNK d   0       9.826  -9.730 -11.476  0.00  0.00     0.167 HD
ENDBRANCH  34  36
ENDBRANCH  33  34
ENDBRANCH   8  33
BRANCH  31  38
ATOM     38  C   UNK d   0       9.589 -17.425  -4.749  0.00  0.00     0.151 C 
BRANCH  38  39
ATOM     39  C   UNK d   0       8.327 -18.093  -4.514  0.00  0.00     0.143 C 
ATOM     40  O   UNK d   0       8.229 -19.091  -3.778  0.00  0.00    -0.650 OA
BRANCH  39  41
ATOM     41  O   UNK d   0       7.171 -17.612  -5.128  0.00  0.00    -0.776 OA
ATOM     42  H   UNK d   0       7.149 -16.612  -5.352  0.00  0.00     0.167 HD
ENDBRANCH  39  41
ENDBRANCH  38  39
ENDBRANCH  31  38
BRANCH  27  43
ATOM     43  C   UNK d   0      10.450 -16.772  -1.860  0.00  0.00     0.052 C 
BRANCH  43  44
ATOM     44  C   UNK d   0      11.904 -16.708  -1.524  0.00  0.00     0.115 C 
BRANCH  44  45
ATOM     45  C   UNK d   0      12.644 -16.933  -2.793  0.00  0.00     0.139 C 
ATOM     46  O   UNK d   0      13.144 -15.937  -3.372  0.00  0.00    -0.650 OA
BRANCH  45  47
ATOM     47  O   UNK d   0      12.805 -18.182  -3.352  0.00  0.00    -0.776 OA
ATOM     48  H   UNK d   0      12.602 -18.382  -4.345  0.00  0.00     0.167 HD
ENDBRANCH  45  47
ENDBRANCH  44  45
ENDBRANCH  43  44
ENDBRANCH  27  43
BRANCH  24  49
ATOM     49  C   UNK d   0      11.556 -12.301   1.213  0.00  0.00     0.052 C 
BRANCH  49  50
ATOM     50  C   UNK d   0      10.530 -11.494   1.966  0.00  0.00     0.115 C 
BRANCH  50  51
ATOM     51  C   UNK d   0      10.824 -11.177   3.357  0.00  0.00     0.139 C 
ATOM     52  O   UNK d   0      10.779 -12.034   4.270  0.00  0.00    -0.650 OA
BRANCH  51  53
ATOM     53  O   UNK d   0      11.167  -9.880   3.707  0.00  0.00    -0.776 OA
ATOM     54  H   UNK d   0      10.436  -9.193   3.763  0.00  0.00     0.167 HD
ENDBRANCH  51  53
ENDBRANCH  50  51
ENDBRANCH  49  50
ENDBRANCH  24  49
BRANCH  21  55
ATOM     55  C   UNK d   0      12.997  -9.794   0.124  0.00  0.00     0.151 C 
BRANCH  55  56
ATOM     56  C   UNK d   0      14.431 -10.110   0.197  0.00  0.00     0.143 C 
ATOM     57  O   UNK d   0      15.063 -10.602  -0.759  0.00  0.00    -0.650 OA
BRANCH  56  58
ATOM     58  O   UNK d   0      15.096  -9.840   1.392  0.00  0.00    -0.776 OA
ATOM     59  H   UNK d   0      14.679 -10.281   2.232  0.00  0.00     0.167 HD
ENDBRANCH  56  58
ENDBRANCH  55  56
ENDBRANCH  21  55
BRANCH  18  60
ATOM     60  C   UNK d   0      11.783  -7.327  -4.486  0.00  0.00     0.151 C 
BRANCH  60  61
ATOM     61  C   UNK d   0      10.402  -7.007  -4.093  0.00  0.00     0.143 C 
ATOM     62  O   UNK d   0       9.596  -7.754  -3.538  0.00  0.00    -0.650 OA
BRANCH  61  63
ATOM     63  O   UNK d   0       9.978  -5.691  -4.398  0.00  0.00    -0.776 OA
ATOM     64  H   UNK d   0      10.081  -5.315  -5.324  0.00  0.00     0.167 HD
ENDBRANCH  61  63
ENDBRANCH  60  61
ENDBRANCH  18  60
BRANCH  14  65
ATOM     65  C   UNK d   0      11.061  -7.959  -7.365  0.00  0.00     0.052 C 
BRANCH  65  66
ATOM     66  C   UNK d   0      12.092  -6.888  -7.410  0.00  0.00     0.115 C 
BRANCH  66  67
ATOM     67  C   UNK d   0      11.710  -5.548  -7.760  0.00  0.00     0.139 C 
ATOM     68  O   UNK d   0      10.857  -4.939  -7.016  0.00  0.00    -0.650 OA
BRANCH  67  69
ATOM     69  O   UNK d   0      12.158  -4.788  -8.840  0.00  0.00    -0.776 OA
ATOM     70  H   UNK d   0      11.815  -5.081  -9.766  0.00  0.00     0.167 HD
ENDBRANCH  67  69
ENDBRANCH  66  67
ENDBRANCH  65  66
ENDBRANCH  14  65
ENDBRANCH   6   7
ENDBRANCH   5   6
ENDBRANCH   2   5
TORSDOF 28
ENDMDL
MODEL 3
REMARK VINA RESULT:      -9.5      1.829      7.892
REMARK  28 active torsions:
REMARK  status: ('A' for Active; 'I' for Inactive)
REMARK    1  A    between atoms: C_2  and  O_3 
REMARK    2  A    between atoms: C_2  and  C_4 
REMARK    3  A    between atoms: C_4  and  C_5 
REMARK    4  A    between atoms: C_5  and  C_6 
REMARK    5  A    between atoms: C_7  and  C_8 
REMARK    6  A    between atoms: C_8  and  C_9 
REMARK    7  A    between atoms: C_9  and  O_11 
REMARK    8  A    between atoms: C_28  and  C_29 
REMARK    9  A    between atoms: C_29  and  C_30 
REMARK   10  A    between atoms: C_30  and  O_32 
REMARK   11  A    between atoms: C_33  and  C_34 
REMARK   12  A    between atoms: C_34  and  C_35 
REMARK   13  A    between atoms: C_35  and  C_36 
REMARK   14  A    between atoms: C_36  and  O_38 
REMARK   15  A    between atoms: C_39  and  C_40 
REMARK   16  A    between atoms: C_40  and  C_41 
REMARK   17  A    between atoms: C_41  and  C_42 
REMARK   18  A    between atoms: C_42  and  O_44 
REMARK   19  A    between atoms: C_45  and  C_46 
REMARK   20  A    between atoms: C_46  and  C_47 
REMARK   21  A    between atoms: C_47  and  O_49 
REMARK   22  A    between atoms: C_50  and  C_51 
REMARK   23  A    between atoms: C_51  and  C_52 
REMARK   24  A    between atoms: C_52  and  O_54 
REMARK   25  A    between atoms: C_55  and  C_56 
REMARK   26  A    between atoms: C_56  and  C_57 
REMARK   27  A    between atoms: C_57  and  C_58 
REMARK   28  A    between atoms: C_58  and  O_60 
ROOT
ATOM      1  O   UNK d   0      10.788 -10.993   3.264  0.00  0.00    -0.650 OA
ATOM      2  C   UNK d   0      10.354 -12.113   2.912  0.00  0.00     0.139 C 
ENDROOT
BRANCH   2   3
ATOM      3  O   UNK d   0      10.429 -13.170   3.786  0.00  0.00    -0.776 OA
ATOM      4  H   UNK d   0      11.240 -13.791   3.796  0.00  0.00     0.167 HD
ENDBRANCH   2   3
BRANCH   2   5
ATOM      5  C   UNK d   0       9.765 -12.293   1.555  0.00  0.00     0.115 C 
BRANCH   5   6
ATOM      6  C   UNK d   0       9.887 -13.730   1.125  0.00  0.00     0.052 C 
BRANCH   6   7
ATOM      7  C   UNK d   0       9.887 -13.889  -0.377  0.00  0.00    -0.020 A 
ATOM      8  C   UNK d   0       9.547 -14.947  -1.067  0.00  0.00    -0.011 A 
ATOM      9  C   UNK d   0       9.717 -14.633  -2.476  0.00  0.00     0.067 A 
ATOM     10  C   UNK d   0       9.515 -15.300  -3.694  0.00  0.00     0.062 C 
ATOM     11  N   UNK d   0      10.170 -13.364  -2.552  0.00  0.00    -0.248 NA
ATOM     12  C   UNK d   0       9.471 -14.734  -4.973  0.00  0.00     0.041 A 
ATOM     13  N   UNK d   0      10.241 -13.794  -5.553  0.00  0.00    -0.355 N 
ATOM     14  C   UNK d   0       8.443 -15.120  -5.853  0.00  0.00    -0.022 A 
ATOM     15  C   UNK d   0       9.723 -13.567  -6.775  0.00  0.00     0.042 A 
ATOM     16  H   UNK d   0      11.144 -13.314  -5.115  0.00  0.00     0.166 HD
ATOM     17  C   UNK d   0      10.138 -12.685  -7.793  0.00  0.00     0.062 C 
ATOM     18  C   UNK d   0       8.595 -14.379  -6.999  0.00  0.00    -0.013 A 
ATOM     19  C   UNK d   0      10.525 -11.373  -7.694  0.00  0.00     0.067 A 
ATOM     20  N   UNK d   0      10.735 -10.897  -6.464  0.00  0.00    -0.248 NA
ATOM     21  C   UNK d   0      10.772 -10.284  -8.623  0.00  0.00    -0.011 A 
ATOM     22  C   UNK d   0      11.100  -9.574  -6.522  0.00  0.00     0.066 A 
ATOM     23  C   UNK d   0      11.387  -8.960  -5.311  0.00  0.00     0.062 C 
ATOM     24  C   UNK d   0      11.104  -9.232  -7.931  0.00  0.00    -0.020 A 
ATOM     25  C   UNK d   0      11.437  -9.550  -4.038  0.00  0.00     0.041 A 
ATOM     26  N   UNK d   0      10.663 -10.474  -3.457  0.00  0.00    -0.355 N 
ATOM     27  C   UNK d   0      12.472  -9.166  -3.158  0.00  0.00    -0.022 A 
ATOM     28  C   UNK d   0      11.172 -10.696  -2.234  0.00  0.00     0.042 A 
ATOM     29  H   UNK d   0       9.750 -10.947  -3.894  0.00  0.00     0.166 HD
ATOM     30  C   UNK d   0      10.764 -11.562  -1.208  0.00  0.00     0.062 C 
ATOM     31  C   UNK d   0      12.312  -9.886  -2.014  0.00  0.00    -0.013 A 
ATOM     32  C   UNK d   0      10.293 -12.860  -1.323  0.00  0.00     0.066 A 
BRANCH   8  33
ATOM     33  C   UNK d   0       9.078 -16.240  -0.534  0.00  0.00     0.151 C 
BRANCH  33  34
ATOM     34  C   UNK d   0       9.701 -17.394  -1.206  0.00  0.00     0.143 C 
ATOM     35  O   UNK d   0      10.927 -17.443  -1.383  0.00  0.00    -0.650 OA
BRANCH  34  36
ATOM     36  O   UNK d   0       8.908 -18.430  -1.642  0.00  0.00    -0.776 OA
ATOM     37  H   UNK d   0       8.190 -18.846  -1.034  0.00  0.00     0.167 HD
ENDBRANCH  34  36
ENDBRANCH  33  34
ENDBRANCH   8  33
BRANCH  31  38
ATOM     38  C   UNK d   0      13.195  -9.822  -0.790  0.00  0.00     0.151 C 
BRANCH  38  39
ATOM     39  C   UNK d   0      14.551 -10.254  -1.052  0.00  0.00     0.143 C 
ATOM     40  O   UNK d   0      14.810 -11.339  -1.601  0.00  0.00    -0.650 OA
BRANCH  39  41
ATOM     41  O   UNK d   0      15.616  -9.434  -0.681  0.00  0.00    -0.776 OA
ATOM     42  H   UNK d   0      15.869  -8.683  -1.332  0.00  0.00     0.167 HD
ENDBRANCH  39  41
ENDBRANCH  38  39
ENDBRANCH  31  38
BRANCH  27  43
ATOM     43  C   UNK d   0      13.578  -8.161  -3.359  0.00  0.00     0.052 C 
BRANCH  43  44
ATOM     44  C   UNK d   0      13.107  -6.744  -3.301  0.00  0.00     0.115 C 
BRANCH  44  45
ATOM     45  C   UNK d   0      14.114  -5.994  -2.505  0.00  0.00     0.139 C 
ATOM     46  O   UNK d   0      15.124  -6.616  -2.092  0.00  0.00    -0.650 OA
BRANCH  45  47
ATOM     47  O   UNK d   0      13.986  -4.654  -2.210  0.00  0.00    -0.776 OA
ATOM     48  H   UNK d   0      13.074  -4.207  -2.019  0.00  0.00     0.167 HD
ENDBRANCH  45  47
ENDBRANCH  44  45
ENDBRANCH  43  44
ENDBRANCH  27  43
BRANCH  24  49
ATOM     49  C   UNK d   0      11.477  -7.916  -8.476  0.00  0.00     0.052 C 
BRANCH  49  50
ATOM     50  C   UNK d   0      11.776  -6.951  -7.357  0.00  0.00     0.115 C 
BRANCH  50  51
ATOM     51  C   UNK d   0      11.529  -5.538  -7.614  0.00  0.00     0.139 C 
ATOM     52  O   UNK d   0      10.798  -4.835  -6.877  0.00  0.00    -0.650 OA
BRANCH  51  53
ATOM     53  O   UNK d   0      12.114  -4.927  -8.712  0.00  0.00    -0.776 OA
ATOM     54  H   UNK d   0      12.965  -4.410  -8.571  0.00  0.00     0.167 HD
ENDBRANCH  51  53
ENDBRANCH  50  51
ENDBRANCH  49  50
ENDBRANCH  24  49
BRANCH  21  55
ATOM     55  C   UNK d   0      10.655 -10.408 -10.106  0.00  0.00     0.151 C 
BRANCH  55  56
ATOM     56  C   UNK d   0      11.917 -10.844 -10.724  0.00  0.00     0.143 C 
ATOM     57  O   UNK d   0      12.816 -10.047 -11.057  0.00  0.00    -0.650 OA
BRANCH  56  58
ATOM     58  O   UNK d   0      12.097 -12.209 -10.939  0.00  0.00    -0.776 OA
ATOM     59  H   UNK d   0      11.738 -12.821 -10.183  0.00  0.00     0.167 HD
ENDBRANCH  56  58
ENDBRANCH  55  56
ENDBRANCH  21  55
BRANCH  18  60
ATOM     60  C   UNK d   0       7.699 -14.467  -8.210  0.00  0.00     0.151 C 
BRANCH  60  61
ATOM     61  C   UNK d   0       8.347 -15.419  -9.124  0.00  0.00     0.143 C 
ATOM     62  O   UNK d   0       8.796 -16.530  -8.842  0.00  0.00    -0.650 OA
BRANCH  61  63
ATOM     63  O   UNK d   0       8.452 -14.987 -10.468  0.00  0.00    -0.776 OA
ATOM     64  H   UNK d   0       7.645 -14.947 -11.064  0.00  0.00     0.167 HD
ENDBRANCH  61  63
ENDBRANCH  60  61
ENDBRANCH  18  60
BRANCH  14  65
ATOM     65  C   UNK d   0       7.400 -16.193  -5.732  0.00  0.00     0.052 C 
BRANCH  65  66
ATOM     66  C   UNK d   0       7.932 -17.556  -6.004  0.00  0.00     0.115 C 
BRANCH  66  67
ATOM     67  C   UNK d   0       8.280 -18.416  -4.908  0.00  0.00     0.139 C 
ATOM     68  O   UNK d   0       7.334 -18.905  -4.188  0.00  0.00    -0.650 OA
BRANCH  67  69
ATOM     69  O   UNK d   0       9.555 -18.807  -4.502  0.00  0.00    -0.776 OA
ATOM     70  H   UNK d   0      10.097 -19.350  -5.189  0.00  0.00     0.167 HD
ENDBRANCH  67  69
ENDBRANCH  66  67
ENDBRANCH  65  66
ENDBRANCH  14  65
ENDBRANCH   6   7
ENDBRANCH   5   6
ENDBRANCH   2   5
TORSDOF 28
ENDMDL
MODEL 4
REMARK VINA RESULT:      -9.3      4.512     10.696
REMARK  28 active torsions:
REMARK  status: ('A' for Active; 'I' for Inactive)
REMARK    1  A    between atoms: C_2  and  O_3 
REMARK    2  A    between atoms: C_2  and  C_4 
REMARK    3  A    between atoms: C_4  and  C_5 
REMARK    4  A    between atoms: C_5  and  C_6 
REMARK    5  A    between atoms: C_7  and  C_8 
REMARK    6  A    between atoms: C_8  and  C_9 
REMARK    7  A    between atoms: C_9  and  O_11 
REMARK    8  A    between atoms: C_28  and  C_29 
REMARK    9  A    between atoms: C_29  and  C_30 
REMARK   10  A    between atoms: C_30  and  O_32 
REMARK   11  A    between atoms: C_33  and  C_34 
REMARK   12  A    between atoms: C_34  and  C_35 
REMARK   13  A    between atoms: C_35  and  C_36 
REMARK   14  A    between atoms: C_36  and  O_38 
REMARK   15  A    between atoms: C_39  and  C_40 
REMARK   16  A    between atoms: C_40  and  C_41 
REMARK   17  A    between atoms: C_41  and  C_42 
REMARK   18  A    between atoms: C_42  and  O_44 
REMARK   19  A    between atoms: C_45  and  C_46 
REMARK   20  A    between atoms: C_46  and  C_47 
REMARK   21  A    between atoms: C_47  and  O_49 
REMARK   22  A    between atoms: C_50  and  C_51 
REMARK   23  A    between atoms: C_51  and  C_52 
REMARK   24  A    between atoms: C_52  and  O_54 
REMARK   25  A    between atoms: C_55  and  C_56 
REMARK   26  A    between atoms: C_56  and  C_57 
REMARK   27  A    between atoms: C_57  and  C_58 
REMARK   28  A    between atoms: C_58  and  O_60 
ROOT
ATOM      1  O   UNK d   0      12.909 -16.133  -0.974  0.00  0.00    -0.650 OA
ATOM      2  C   UNK d   0      12.462 -16.393  -2.113  0.00  0.00     0.139 C 
ENDROOT
BRANCH   2   3
ATOM      3  O   UNK d   0      12.768 -17.598  -2.698  0.00  0.00    -0.776 OA
ATOM      4  H   UNK d   0      13.600 -18.123  -2.420  0.00  0.00     0.167 HD
ENDBRANCH   2   3
BRANCH   2   5
ATOM      5  C   UNK d   0      11.607 -15.402  -2.825  0.00  0.00     0.115 C 
BRANCH   5   6
ATOM      6  C   UNK d   0      10.155 -15.666  -2.532  0.00  0.00     0.052 C 
BRANCH   6   7
ATOM      7  C   UNK d   0       9.479 -16.469  -3.618  0.00  0.00    -0.020 A 
ATOM      8  C   UNK d   0       9.122 -17.727  -3.575  0.00  0.00    -0.011 A 
ATOM      9  C   UNK d   0       8.518 -18.062  -4.854  0.00  0.00     0.067 A 
ATOM     10  C   UNK d   0       7.931 -19.199  -5.430  0.00  0.00     0.062 C 
ATOM     11  N   UNK d   0       8.554 -16.949  -5.618  0.00  0.00    -0.248 NA
ATOM     12  C   UNK d   0       7.147 -19.254  -6.587  0.00  0.00     0.041 A 
ATOM     13  N   UNK d   0       7.291 -18.654  -7.785  0.00  0.00    -0.355 N 
ATOM     14  C   UNK d   0       5.954 -19.999  -6.567  0.00  0.00    -0.022 A 
ATOM     15  C   UNK d   0       6.216 -18.994  -8.521  0.00  0.00     0.042 A 
ATOM     16  H   UNK d   0       8.144 -18.020  -8.109  0.00  0.00     0.166 HD
ATOM     17  C   UNK d   0       5.866 -18.645  -9.841  0.00  0.00     0.062 C 
ATOM     18  C   UNK d   0       5.355 -19.836  -7.791  0.00  0.00    -0.013 A 
ATOM     19  C   UNK d   0       5.920 -17.418 -10.452  0.00  0.00     0.067 A 
ATOM     20  N   UNK d   0       6.565 -16.447  -9.802  0.00  0.00    -0.248 NA
ATOM     21  C   UNK d   0       5.419 -16.845 -11.690  0.00  0.00    -0.011 A 
ATOM     22  C   UNK d   0       6.523 -15.280 -10.524  0.00  0.00     0.066 A 
ATOM     23  C   UNK d   0       7.191 -14.193  -9.980  0.00  0.00     0.062 C 
ATOM     24  C   UNK d   0       5.772 -15.592 -11.725  0.00  0.00    -0.020 A 
ATOM     25  C   UNK d   0       7.983 -14.162  -8.822  0.00  0.00     0.041 A 
ATOM     26  N   UNK d   0       7.833 -14.745  -7.627  0.00  0.00    -0.355 N 
ATOM     27  C   UNK d   0       9.183 -13.417  -8.845  0.00  0.00    -0.022 A 
ATOM     28  C   UNK d   0       8.899 -14.401  -6.888  0.00  0.00     0.042 A 
ATOM     29  H   UNK d   0       6.969 -15.374  -7.299  0.00  0.00     0.166 HD
ATOM     30  C   UNK d   0       9.255 -14.733  -5.571  0.00  0.00     0.062 C 
ATOM     31  C   UNK d   0       9.769 -13.563  -7.626  0.00  0.00    -0.013 A 
ATOM     32  C   UNK d   0       9.120 -15.955  -4.931  0.00  0.00     0.066 A 
BRANCH   8  33
ATOM     33  C   UNK d   0       9.297 -18.658  -2.446  0.00  0.00     0.151 C 
BRANCH  33  34
ATOM     34  C   UNK d   0       8.080 -18.794  -1.625  0.00  0.00     0.143 C 
ATOM     35  O   UNK d   0       8.013 -18.284  -0.498  0.00  0.00    -0.650 OA
BRANCH  34  36
ATOM     36  O   UNK d   0       7.007 -19.498  -2.119  0.00  0.00    -0.776 OA
ATOM     37  H   UNK d   0       6.722 -19.417  -3.105  0.00  0.00     0.167 HD
ENDBRANCH  34  36
ENDBRANCH  33  34
ENDBRANCH   8  33
BRANCH  31  38
ATOM     38  C   UNK d   0      11.081 -12.956  -7.189  0.00  0.00     0.151 C 
BRANCH  38  39
ATOM     39  C   UNK d   0      10.911 -11.729  -6.441  0.00  0.00     0.143 C 
ATOM     40  O   UNK d   0      11.119 -10.610  -6.942  0.00  0.00    -0.650 OA
BRANCH  39  41
ATOM     41  O   UNK d   0      10.499 -11.787  -5.110  0.00  0.00    -0.776 OA
ATOM     42  H   UNK d   0      10.028 -12.647  -4.810  0.00  0.00     0.167 HD
ENDBRANCH  39  41
ENDBRANCH  38  39
ENDBRANCH  31  38
BRANCH  27  43
ATOM     43  C   UNK d   0       9.776 -12.589  -9.958  0.00  0.00     0.052 C 
BRANCH  43  44
ATOM     44  C   UNK d   0       9.519 -11.125  -9.807  0.00  0.00     0.115 C 
BRANCH  44  45
ATOM     45  C   UNK d   0      10.809 -10.437 -10.074  0.00  0.00     0.139 C 
ATOM     46  O   UNK d   0      11.731 -11.099 -10.612  0.00  0.00    -0.650 OA
BRANCH  45  47
ATOM     47  O   UNK d   0      11.029  -9.113  -9.762  0.00  0.00    -0.776 OA
ATOM     48  H   UNK d   0      11.806  -8.802  -9.158  0.00  0.00     0.167 HD
ENDBRANCH  45  47
ENDBRANCH  44  45
ENDBRANCH  43  44
ENDBRANCH  27  43
BRANCH  24  49
ATOM     49  C   UNK d   0       5.505 -14.645 -12.820  0.00  0.00     0.052 C 
BRANCH  49  50
ATOM     50  C   UNK d   0       6.775 -14.343 -13.573  0.00  0.00     0.115 C 
BRANCH  50  51
ATOM     51  C   UNK d   0       6.966 -15.015 -14.851  0.00  0.00     0.139 C 
ATOM     52  O   UNK d   0       6.951 -14.404 -15.946  0.00  0.00    -0.650 OA
BRANCH  51  53
ATOM     53  O   UNK d   0       7.172 -16.386 -14.882  0.00  0.00    -0.776 OA
ATOM     54  H   UNK d   0       6.860 -16.931 -14.097  0.00  0.00     0.167 HD
ENDBRANCH  51  53
ENDBRANCH  50  51
ENDBRANCH  49  50
ENDBRANCH  24  49
BRANCH  21  55
ATOM     55  C   UNK d   0       4.645 -17.610 -12.712  0.00  0.00     0.151 C 
BRANCH  55  56
ATOM     56  C   UNK d   0       5.340 -18.839 -13.124  0.00  0.00     0.143 C 
ATOM     57  O   UNK d   0       6.359 -18.829 -13.842  0.00  0.00    -0.650 OA
BRANCH  56  58
ATOM     58  O   UNK d   0       4.823 -20.056 -12.684  0.00  0.00    -0.776 OA
ATOM     59  H   UNK d   0       4.058 -19.980 -11.990  0.00  0.00     0.167 HD
ENDBRANCH  56  58
ENDBRANCH  55  56
ENDBRANCH  21  55
BRANCH  18  60
ATOM     60  C   UNK d   0       4.043 -20.458  -8.202  0.00  0.00     0.151 C 
BRANCH  60  61
ATOM     61  C   UNK d   0       4.391 -21.657  -8.980  0.00  0.00     0.143 C 
ATOM     62  O   UNK d   0       4.692 -21.705 -10.173  0.00  0.00    -0.650 OA
BRANCH  61  63
ATOM     63  O   UNK d   0       4.369 -22.873  -8.256  0.00  0.00    -0.776 OA
ATOM     64  H   UNK d   0       5.158 -23.494  -8.262  0.00  0.00     0.167 HD
ENDBRANCH  61  63
ENDBRANCH  60  61
ENDBRANCH  18  60
BRANCH  14  65
ATOM     65  C   UNK d   0       5.393 -20.923  -5.524  0.00  0.00     0.052 C 
BRANCH  65  66
ATOM     66  C   UNK d   0       4.612 -20.212  -4.476  0.00  0.00     0.115 C 
BRANCH  66  67
ATOM     67  C   UNK d   0       3.351 -19.612  -4.813  0.00  0.00     0.139 C 
ATOM     68  O   UNK d   0       3.333 -18.372  -5.153  0.00  0.00    -0.650 OA
BRANCH  67  69
ATOM     69  O   UNK d   0       2.094 -20.215  -4.821  0.00  0.00    -0.776 OA
ATOM     70  H   UNK d   0       1.739 -20.499  -5.745  0.00  0.00     0.167 HD
ENDBRANCH  67  69
ENDBRANCH  66  67
ENDBRANCH  65  66
ENDBRANCH  14  65
ENDBRANCH   6   7
ENDBRANCH   5   6
ENDBRANCH   2   5
TORSDOF 28
ENDMDL
MODEL 5
REMARK VINA RESULT:      -9.2      1.719      8.609
REMARK  28 active torsions:
REMARK  status: ('A' for Active; 'I' for Inactive)
REMARK    1  A    between atoms: C_2  and  O_3 
REMARK    2  A    between atoms: C_2  and  C_4 
REMARK    3  A    between atoms: C_4  and  C_5 
REMARK    4  A    between atoms: C_5  and  C_6 
REMARK    5  A    between atoms: C_7  and  C_8 
REMARK    6  A    between atoms: C_8  and  C_9 
REMARK    7  A    between atoms: C_9  and  O_11 
REMARK    8  A    between atoms: C_28  and  C_29 
REMARK    9  A    between atoms: C_29  and  C_30 
REMARK   10  A    between atoms: C_30  and  O_32 
REMARK   11  A    between atoms: C_33  and  C_34 
REMARK   12  A    between atoms: C_34  and  C_35 
REMARK   13  A    between atoms: C_35  and  C_36 
REMARK   14  A    between atoms: C_36  and  O_38 
REMARK   15  A    between atoms: C_39  and  C_40 
REMARK   16  A    between atoms: C_40  and  C_41 
REMARK   17  A    between atoms: C_41  and  C_42 
REMARK   18  A    between atoms: C_42  and  O_44 
REMARK   19  A    between atoms: C_45  and  C_46 
REMARK   20  A    between atoms: C_46  and  C_47 
REMARK   21  A    between atoms: C_47  and  O_49 
REMARK   22  A    between atoms: C_50  and  C_51 
REMARK   23  A    between atoms: C_51  and  C_52 
REMARK   24  A    between atoms: C_52  and  O_54 
REMARK   25  A    between atoms: C_55  and  C_56 
REMARK   26  A    between atoms: C_56  and  C_57 
REMARK   27  A    between atoms: C_57  and  C_58 
REMARK   28  A    between atoms: C_58  and  O_60 
ROOT
ATOM      1  O   UNK d   0      14.814  -5.418  -3.931  0.00  0.00    -0.650 OA
ATOM      2  C   UNK d   0      14.249  -5.557  -2.823  0.00  0.00     0.139 C 
ENDROOT
BRANCH   2   3
ATOM      3  O   UNK d   0      14.081  -4.462  -2.011  0.00  0.00    -0.776 OA
ATOM      4  H   UNK d   0      14.172  -4.540  -0.996  0.00  0.00     0.167 HD
ENDBRANCH   2   3
BRANCH   2   5
ATOM      5  C   UNK d   0      13.768  -6.901  -2.393  0.00  0.00     0.115 C 
BRANCH   5   6
ATOM      6  C   UNK d   0      12.768  -7.434  -3.383  0.00  0.00     0.052 C 
BRANCH   6   7
ATOM      7  C   UNK d   0      12.483  -8.904  -3.187  0.00  0.00    -0.020 A 
ATOM      8  C   UNK d   0      12.689  -9.620  -2.112  0.00  0.00    -0.011 A 
ATOM      9  C   UNK d   0      12.270 -10.982  -2.397  0.00  0.00     0.067 A 
ATOM     10  C   UNK d   0      12.210 -12.193  -1.689  0.00  0.00     0.062 C 
ATOM     11  N   UNK d   0      11.827 -11.006  -3.672  0.00  0.00    -0.248 NA
ATOM     12  C   UNK d   0      11.511 -13.350  -2.048  0.00  0.00     0.041 A 
ATOM     13  N   UNK d   0      11.378 -13.974  -3.235  0.00  0.00    -0.355 N 
ATOM     14  C   UNK d   0      10.743 -14.011  -1.073  0.00  0.00    -0.022 A 
ATOM     15  C   UNK d   0      10.539 -15.008  -3.038  0.00  0.00     0.042 A 
ATOM     16  H   UNK d   0      11.882 -13.699  -4.187  0.00  0.00     0.166 HD
ATOM     17  C   UNK d   0      10.062 -15.981  -3.939  0.00  0.00     0.062 C 
ATOM     18  C   UNK d   0      10.119 -15.064  -1.695  0.00  0.00    -0.013 A 
ATOM     19  C   UNK d   0       9.589 -15.816  -5.216  0.00  0.00     0.067 A 
ATOM     20  N   UNK d   0       9.772 -14.619  -5.779  0.00  0.00    -0.248 NA
ATOM     21  C   UNK d   0       8.882 -16.639  -6.183  0.00  0.00    -0.011 A 
ATOM     22  C   UNK d   0       9.235 -14.599  -7.043  0.00  0.00     0.066 A 
ATOM     23  C   UNK d   0       9.389 -13.422  -7.760  0.00  0.00     0.062 C 
ATOM     24  C   UNK d   0       8.675 -15.920  -7.248  0.00  0.00    -0.020 A 
ATOM     25  C   UNK d   0      10.107 -12.275  -7.386  0.00  0.00     0.041 A 
ATOM     26  N   UNK d   0      10.227 -11.646  -6.211  0.00  0.00    -0.355 N 
ATOM     27  C   UNK d   0      10.881 -11.614  -8.365  0.00  0.00    -0.022 A 
ATOM     28  C   UNK d   0      11.056 -10.609  -6.406  0.00  0.00     0.042 A 
ATOM     29  H   UNK d   0       9.711 -11.917  -5.257  0.00  0.00     0.166 HD
ATOM     30  C   UNK d   0      11.531  -9.628  -5.521  0.00  0.00     0.062 C 
ATOM     31  C   UNK d   0      11.486 -10.560  -7.753  0.00  0.00    -0.013 A 
ATOM     32  C   UNK d   0      11.929  -9.787  -4.203  0.00  0.00     0.066 A 
BRANCH   8  33
ATOM     33  C   UNK d   0      13.250  -9.152  -0.831  0.00  0.00     0.151 C 
BRANCH  33  34
ATOM     34  C   UNK d   0      14.541  -9.787  -0.507  0.00  0.00     0.143 C 
ATOM     35  O   UNK d   0      15.342 -10.092  -1.402  0.00  0.00    -0.650 OA
BRANCH  34  36
ATOM     36  O   UNK d   0      14.856 -10.044   0.807  0.00  0.00    -0.776 OA
ATOM     37  H   UNK d   0      14.301  -9.647   1.577  0.00  0.00     0.167 HD
ENDBRANCH  34  36
ENDBRANCH  33  34
ENDBRANCH   8  33
BRANCH  31  38
ATOM     38  C   UNK d   0      12.425  -9.571  -8.403  0.00  0.00     0.151 C 
BRANCH  38  39
ATOM     39  C   UNK d   0      11.734  -8.449  -9.002  0.00  0.00     0.143 C 
ATOM     40  O   UNK d   0      11.373  -8.449 -10.192  0.00  0.00    -0.650 OA
BRANCH  39  41
ATOM     41  O   UNK d   0      11.455  -7.322  -8.229  0.00  0.00    -0.776 OA
ATOM     42  H   UNK d   0      10.468  -7.128  -8.036  0.00  0.00     0.167 HD
ENDBRANCH  39  41
ENDBRANCH  38  39
ENDBRANCH  31  38
BRANCH  27  43
ATOM     43  C   UNK d   0      11.060 -11.941  -9.827  0.00  0.00     0.052 C 
BRANCH  43  44
ATOM     44  C   UNK d   0       9.915 -11.495 -10.677  0.00  0.00     0.115 C 
BRANCH  44  45
ATOM     45  C   UNK d   0       9.148 -12.717 -11.032  0.00  0.00     0.139 C 
ATOM     46  O   UNK d   0       9.778 -13.693 -11.510  0.00  0.00    -0.650 OA
BRANCH  45  47
ATOM     47  O   UNK d   0       7.786 -12.823 -10.854  0.00  0.00    -0.776 OA
ATOM     48  H   UNK d   0       7.141 -13.100 -11.612  0.00  0.00     0.167 HD
ENDBRANCH  45  47
ENDBRANCH  44  45
ENDBRANCH  43  44
ENDBRANCH  27  43
BRANCH  24  49
ATOM     49  C   UNK d   0       8.023 -16.374  -8.489  0.00  0.00     0.052 C 
BRANCH  49  50
ATOM     50  C   UNK d   0       6.548 -16.066  -8.450  0.00  0.00     0.115 C 
BRANCH  50  51
ATOM     51  C   UNK d   0       5.632 -17.170  -8.702  0.00  0.00     0.139 C 
ATOM     52  O   UNK d   0       4.417 -17.123  -8.398  0.00  0.00    -0.650 OA
BRANCH  51  53
ATOM     53  O   UNK d   0       6.102 -18.330  -9.298  0.00  0.00    -0.776 OA
ATOM     54  H   UNK d   0       6.564 -18.253 -10.188  0.00  0.00     0.167 HD
ENDBRANCH  51  53
ENDBRANCH  50  51
ENDBRANCH  49  50
ENDBRANCH  24  49
BRANCH  21  55
ATOM     55  C   UNK d   0       8.492 -18.060  -5.943  0.00  0.00     0.151 C 
BRANCH  55  56
ATOM     56  C   UNK d   0       9.572 -18.995  -6.292  0.00  0.00     0.143 C 
ATOM     57  O   UNK d   0       9.583 -19.648  -7.355  0.00  0.00    -0.650 OA
BRANCH  56  58
ATOM     58  O   UNK d   0      10.619 -19.145  -5.385  0.00  0.00    -0.776 OA
ATOM     59  H   UNK d   0      10.330 -19.219  -4.393  0.00  0.00     0.167 HD
ENDBRANCH  56  58
ENDBRANCH  55  56
ENDBRANCH  21  55
BRANCH  18  60
ATOM     60  C   UNK d   0       9.187 -16.039  -1.019  0.00  0.00     0.151 C 
BRANCH  60  61
ATOM     61  C   UNK d   0       9.774 -17.371  -1.230  0.00  0.00     0.143 C 
ATOM     62  O   UNK d   0      10.971 -17.657  -1.271  0.00  0.00    -0.650 OA
BRANCH  61  63
ATOM     63  O   UNK d   0       8.839 -18.421  -1.400  0.00  0.00    -0.776 OA
ATOM     64  H   UNK d   0       8.925 -19.280  -0.886  0.00  0.00     0.167 HD
ENDBRANCH  61  63
ENDBRANCH  60  61
ENDBRANCH  18  60
BRANCH  14  65
ATOM     65  C   UNK d   0      10.632 -13.784   0.408  0.00  0.00     0.052 C 
BRANCH  65  66
ATOM     66  C   UNK d   0      10.246 -12.391   0.756  0.00  0.00     0.115 C 
BRANCH  66  67
ATOM     67  C   UNK d   0      10.959 -11.691   1.787  0.00  0.00     0.139 C 
ATOM     68  O   UNK d   0      10.307 -11.293   2.822  0.00  0.00    -0.650 OA
BRANCH  67  69
ATOM     69  O   UNK d   0      12.315 -11.370   1.820  0.00  0.00    -0.776 OA
ATOM     70  H   UNK d   0      12.845 -11.576   0.960  0.00  0.00     0.167 HD
ENDBRANCH  67  69
ENDBRANCH  66  67
ENDBRANCH  65  66
ENDBRANCH  14  65
ENDBRANCH   6   7
ENDBRANCH   5   6
ENDBRANCH   2   5
TORSDOF 28
ENDMDL
MODEL 6
REMARK VINA RESULT:      -9.2      1.926      3.204
REMARK  28 active torsions:
REMARK  status: ('A' for Active; 'I' for Inactive)
REMARK    1  A    between atoms: C_2  and  O_3 
REMARK    2  A    between atoms: C_2  and  C_4 
REMARK    3  A    between atoms: C_4  and  C_5 
REMARK    4  A    between atoms: C_5  and  C_6 
REMARK    5  A    between atoms: C_7  and  C_8 
REMARK    6  A    between atoms: C_8  and  C_9 
REMARK    7  A    between atoms: C_9  and  O_11 
REMARK    8  A    between atoms: C_28  and  C_29 
REMARK    9  A    between atoms: C_29  and  C_30 
REMARK   10  A    between atoms: C_30  and  O_32 
REMARK   11  A    between atoms: C_33  and  C_34 
REMARK   12  A    between atoms: C_34  and  C_35 
REMARK   13  A    between atoms: C_35  and  C_36 
REMARK   14  A    between atoms: C_36  and  O_38 
REMARK   15  A    between atoms: C_39  and  C_40 
REMARK   16  A    between atoms: C_40  and  C_41 
REMARK   17  A    between atoms: C_41  and  C_42 
REMARK   18  A    between atoms: C_42  and  O_44 
REMARK   19  A    between atoms: C_45  and  C_46 
REMARK   20  A    between atoms: C_46  and  C_47 
REMARK   21  A    between atoms: C_47  and  O_49 
REMARK   22  A    between atoms: C_50  and  C_51 
REMARK   23  A    between atoms: C_51  and  C_52 
REMARK   24  A    between atoms: C_52  and  O_54 
REMARK   25  A    between atoms: C_55  and  C_56 
REMARK   26  A    between atoms: C_56  and  C_57 
REMARK   27  A    between atoms: C_57  and  C_58 
REMARK   28  A    between atoms: C_58  and  O_60 
ROOT
ATOM      1  O   UNK d   0      11.423  -8.064 -12.051  0.00  0.00    -0.650 OA
ATOM      2  C   UNK d   0      11.418  -8.560 -10.903  0.00  0.00     0.139 C 
ENDROOT
BRANCH   2   3
ATOM      3  O   UNK d   0      11.105  -7.765  -9.827  0.00  0.00    -0.776 OA
ATOM      4  H   UNK d   0      11.837  -7.363  -9.237  0.00  0.00     0.167 HD
ENDBRANCH   2   3
BRANCH   2   5
ATOM      5  C   UNK d   0      11.751 -10.000 -10.709  0.00  0.00     0.115 C 
BRANCH   5   6
ATOM      6  C   UNK d   0      10.664 -10.865 -11.289  0.00  0.00     0.052 C 
BRANCH   6   7
ATOM      7  C   UNK d   0      10.121 -11.862 -10.294  0.00  0.00    -0.020 A 
ATOM      8  C   UNK d   0       9.365 -12.901 -10.537  0.00  0.00    -0.011 A 
ATOM      9  C   UNK d   0       9.088 -13.556  -9.270  0.00  0.00     0.067 A 
ATOM     10  C   UNK d   0       8.381 -14.694  -8.851  0.00  0.00     0.062 C 
ATOM     11  N   UNK d   0       9.710 -12.845  -8.306  0.00  0.00    -0.248 NA
ATOM     12  C   UNK d   0       8.457 -15.329  -7.607  0.00  0.00     0.041 A 
ATOM     13  N   UNK d   0       8.499 -14.828  -6.357  0.00  0.00    -0.355 N 
ATOM     14  C   UNK d   0       8.566 -16.731  -7.563  0.00  0.00    -0.022 A 
ATOM     15  C   UNK d   0       8.640 -15.875  -5.523  0.00  0.00     0.042 A 
ATOM     16  H   UNK d   0       8.412 -13.757  -6.070  0.00  0.00     0.166 HD
ATOM     17  C   UNK d   0       8.735 -15.917  -4.117  0.00  0.00     0.062 C 
ATOM     18  C   UNK d   0       8.685 -17.085  -6.242  0.00  0.00    -0.013 A 
ATOM     19  C   UNK d   0       9.479 -15.126  -3.280  0.00  0.00     0.067 A 
ATOM     20  N   UNK d   0      10.046 -14.043  -3.816  0.00  0.00    -0.248 NA
ATOM     21  C   UNK d   0       9.856 -15.156  -1.876  0.00  0.00    -0.011 A 
ATOM     22  C   UNK d   0      10.767 -13.362  -2.865  0.00  0.00     0.066 A 
ATOM     23  C   UNK d   0      11.380 -12.189  -3.280  0.00  0.00     0.062 C 
ATOM     24  C   UNK d   0      10.613 -14.123  -1.641  0.00  0.00    -0.020 A 
ATOM     25  C   UNK d   0      11.280 -11.562  -4.531  0.00  0.00     0.041 A 
ATOM     26  N   UNK d   0      11.254 -12.059  -5.774  0.00  0.00    -0.355 N 
ATOM     27  C   UNK d   0      11.167 -10.155  -4.574  0.00  0.00    -0.022 A 
ATOM     28  C   UNK d   0      11.122 -11.015  -6.608  0.00  0.00     0.042 A 
ATOM     29  H   UNK d   0      11.352 -13.134  -6.061  0.00  0.00     0.166 HD
ATOM     30  C   UNK d   0      11.036 -10.959  -8.008  0.00  0.00     0.062 C 
ATOM     31  C   UNK d   0      11.066  -9.801  -5.884  0.00  0.00    -0.013 A 
ATOM     32  C   UNK d   0      10.350 -11.813  -8.858  0.00  0.00     0.066 A 
BRANCH   8  33
ATOM     33  C   UNK d   0       8.866 -13.344 -11.852  0.00  0.00     0.151 C 
BRANCH  33  34
ATOM     34  C   UNK d   0       7.433 -13.691 -11.832  0.00  0.00     0.143 C 
ATOM     35  O   UNK d   0       6.580 -12.850 -11.515  0.00  0.00    -0.650 OA
BRANCH  34  36
ATOM     36  O   UNK d   0       7.042 -14.966 -12.168  0.00  0.00    -0.776 OA
ATOM     37  H   UNK d   0       7.441 -15.450 -12.984  0.00  0.00     0.167 HD
ENDBRANCH  34  36
ENDBRANCH  33  34
ENDBRANCH   8  33
BRANCH  31  38
ATOM     38  C   UNK d   0      10.911  -8.396  -6.419  0.00  0.00     0.151 C 
BRANCH  38  39
ATOM     39  C   UNK d   0      12.181  -7.744  -6.658  0.00  0.00     0.143 C 
ATOM     40  O   UNK d   0      13.256  -8.204  -6.234  0.00  0.00    -0.650 OA
BRANCH  39  41
ATOM     41  O   UNK d   0      12.215  -6.556  -7.388  0.00  0.00    -0.776 OA
ATOM     42  H   UNK d   0      11.387  -6.336  -7.950  0.00  0.00     0.167 HD
ENDBRANCH  39  41
ENDBRANCH  38  39
ENDBRANCH  31  38
BRANCH  27  43
ATOM     43  C   UNK d   0      11.154  -9.160  -3.441  0.00  0.00     0.052 C 
BRANCH  43  44
ATOM     44  C   UNK d   0      12.484  -9.001  -2.779  0.00  0.00     0.115 C 
BRANCH  44  45
ATOM     45  C   UNK d   0      12.808  -7.551  -2.820  0.00  0.00     0.139 C 
ATOM     46  O   UNK d   0      13.747  -7.134  -2.097  0.00  0.00    -0.650 OA
BRANCH  45  47
ATOM     47  O   UNK d   0      12.129  -6.656  -3.617  0.00  0.00    -0.776 OA
ATOM     48  H   UNK d   0      11.472  -6.951  -4.357  0.00  0.00     0.167 HD
ENDBRANCH  45  47
ENDBRANCH  44  45
ENDBRANCH  43  44
ENDBRANCH  27  43
BRANCH  24  49
ATOM     49  C   UNK d   0      11.186 -13.746  -0.338  0.00  0.00     0.052 C 
BRANCH  49  50
ATOM     50  C   UNK d   0      10.473 -12.540   0.219  0.00  0.00     0.115 C 
BRANCH  50  51
ATOM     51  C   UNK d   0      10.509 -12.355   1.663  0.00  0.00     0.139 C 
ATOM     52  O   UNK d   0       9.476 -12.371   2.374  0.00  0.00    -0.650 OA
BRANCH  51  53
ATOM     53  O   UNK d   0      11.725 -12.149   2.298  0.00  0.00    -0.776 OA
ATOM     54  H   UNK d   0      11.724 -11.666   3.180  0.00  0.00     0.167 HD
ENDBRANCH  51  53
ENDBRANCH  50  51
ENDBRANCH  49  50
ENDBRANCH  24  49
BRANCH  21  55
ATOM     55  C   UNK d   0       9.416 -16.211  -0.916  0.00  0.00     0.151 C 
BRANCH  55  56
ATOM     56  C   UNK d   0       9.777 -17.561  -1.376  0.00  0.00     0.143 C 
ATOM     57  O   UNK d   0       8.968 -18.510  -1.384  0.00  0.00    -0.650 OA
BRANCH  56  58
ATOM     58  O   UNK d   0      11.083 -17.769  -1.818  0.00  0.00    -0.776 OA
ATOM     59  H   UNK d   0      11.515 -16.958  -2.296  0.00  0.00     0.167 HD
ENDBRANCH  56  58
ENDBRANCH  55  56
ENDBRANCH  21  55
BRANCH  18  60
ATOM     60  C   UNK d   0       8.836 -18.499  -5.737  0.00  0.00     0.151 C 
BRANCH  60  61
ATOM     61  C   UNK d   0      10.283 -18.742  -5.640  0.00  0.00     0.143 C 
ATOM     62  O   UNK d   0      11.011 -18.512  -4.674  0.00  0.00    -0.650 OA
BRANCH  61  63
ATOM     63  O   UNK d   0      10.878 -19.300  -6.797  0.00  0.00    -0.776 OA
ATOM     64  H   UNK d   0      10.773 -18.865  -7.696  0.00  0.00     0.167 HD
ENDBRANCH  61  63
ENDBRANCH  60  61
ENDBRANCH  18  60
BRANCH  14  65
ATOM     65  C   UNK d   0       8.467 -17.757  -8.656  0.00  0.00     0.052 C 
BRANCH  65  66
ATOM     66  C   UNK d   0       7.077 -18.240  -8.876  0.00  0.00     0.115 C 
BRANCH  66  67
ATOM     67  C   UNK d   0       6.136 -17.409  -9.573  0.00  0.00     0.139 C 
ATOM     68  O   UNK d   0       5.351 -16.660  -8.883  0.00  0.00    -0.650 OA
BRANCH  67  69
ATOM     69  O   UNK d   0       5.952 -17.299 -10.951  0.00  0.00    -0.776 OA
ATOM     70  H   UNK d   0       6.743 -17.605 -11.534  0.00  0.00     0.167 HD
ENDBRANCH  67  69
ENDBRANCH  66  67
ENDBRANCH  65  66
ENDBRANCH  14  65
ENDBRANCH   6   7
ENDBRANCH   5   6
ENDBRANCH   2   5
TORSDOF 28
ENDMDL
MODEL 7
REMARK VINA RESULT:      -9.0      3.621      9.598
REMARK  28 active torsions:
REMARK  status: ('A' for Active; 'I' for Inactive)
REMARK    1  A    between atoms: C_2  and  O_3 
REMARK    2  A    between atoms: C_2  and  C_4 
REMARK    3  A    between atoms: C_4  and  C_5 
REMARK    4  A    between atoms: C_5  and  C_6 
REMARK    5  A    between atoms: C_7  and  C_8 
REMARK    6  A    between atoms: C_8  and  C_9 
REMARK    7  A    between atoms: C_9  and  O_11 
REMARK    8  A    between atoms: C_28  and  C_29 
REMARK    9  A    between atoms: C_29  and  C_30 
REMARK   10  A    between atoms: C_30  and  O_32 
REMARK   11  A    between atoms: C_33  and  C_34 
REMARK   12  A    between atoms: C_34  and  C_35 
REMARK   13  A    between atoms: C_35  and  C_36 
REMARK   14  A    between atoms: C_36  and  O_38 
REMARK   15  A    between atoms: C_39  and  C_40 
REMARK   16  A    between atoms: C_40  and  C_41 
REMARK   17  A    between atoms: C_41  and  C_42 
REMARK   18  A    between atoms: C_42  and  O_44 
REMARK   19  A    between atoms: C_45  and  C_46 
REMARK   20  A    between atoms: C_46  and  C_47 
REMARK   21  A    between atoms: C_47  and  O_49 
REMARK   22  A    between atoms: C_50  and  C_51 
REMARK   23  A    between atoms: C_51  and  C_52 
REMARK   24  A    between atoms: C_52  and  O_54 
REMARK   25  A    between atoms: C_55  and  C_56 
REMARK   26  A    between atoms: C_56  and  C_57 
REMARK   27  A    between atoms: C_57  and  C_58 
REMARK   28  A    between atoms: C_58  and  O_60 
ROOT
ATOM      1  O   UNK d   0       3.853 -19.752  -1.677  0.00  0.00    -0.650 OA
ATOM      2  C   UNK d   0       4.379 -20.350  -2.641  0.00  0.00     0.139 C 
ENDROOT
BRANCH   2   3
ATOM      3  O   UNK d   0       4.764 -21.661  -2.492  0.00  0.00    -0.776 OA
ATOM      4  H   UNK d   0       5.556 -21.913  -1.897  0.00  0.00     0.167 HD
ENDBRANCH   2   3
BRANCH   2   5
ATOM      5  C   UNK d   0       4.584 -19.644  -3.938  0.00  0.00     0.115 C 
BRANCH   5   6
ATOM      6  C   UNK d   0       5.965 -19.921  -4.465  0.00  0.00     0.052 C 
BRANCH   6   7
ATOM      7  C   UNK d   0       6.301 -19.088  -5.680  0.00  0.00    -0.020 A 
ATOM      8  C   UNK d   0       5.863 -19.247  -6.902  0.00  0.00    -0.011 A 
ATOM      9  C   UNK d   0       6.466 -18.215  -7.729  0.00  0.00     0.067 A 
ATOM     10  C   UNK d   0       6.398 -17.829  -9.077  0.00  0.00     0.062 C 
ATOM     11  N   UNK d   0       7.262 -17.476  -6.929  0.00  0.00    -0.248 NA
ATOM     12  C   UNK d   0       6.842 -16.626  -9.637  0.00  0.00     0.041 A 
ATOM     13  N   UNK d   0       7.967 -15.914  -9.432  0.00  0.00    -0.355 N 
ATOM     14  C   UNK d   0       6.005 -15.947 -10.541  0.00  0.00    -0.022 A 
ATOM     15  C   UNK d   0       7.862 -14.798 -10.177  0.00  0.00     0.042 A 
ATOM     16  H   UNK d   0       8.827 -16.205  -8.789  0.00  0.00     0.166 HD
ATOM     17  C   UNK d   0       8.753 -13.717 -10.333  0.00  0.00     0.062 C 
ATOM     18  C   UNK d   0       6.645 -14.782 -10.886  0.00  0.00    -0.013 A 
ATOM     19  C   UNK d   0       9.457 -13.034  -9.375  0.00  0.00     0.067 A 
ATOM     20  N   UNK d   0       9.474 -13.559  -8.147  0.00  0.00    -0.248 NA
ATOM     21  C   UNK d   0      10.229 -11.803  -9.325  0.00  0.00    -0.011 A 
ATOM     22  C   UNK d   0      10.200 -12.761  -7.298  0.00  0.00     0.066 A 
ATOM     23  C   UNK d   0      10.332 -13.211  -5.992  0.00  0.00     0.062 C 
ATOM     24  C   UNK d   0      10.658 -11.648  -8.105  0.00  0.00    -0.020 A 
ATOM     25  C   UNK d   0       9.890 -14.429  -5.453  0.00  0.00     0.041 A 
ATOM     26  N   UNK d   0       8.765 -15.128  -5.645  0.00  0.00    -0.355 N 
ATOM     27  C   UNK d   0      10.732 -15.112  -4.549  0.00  0.00    -0.022 A 
ATOM     28  C   UNK d   0       8.864 -16.239  -4.896  0.00  0.00     0.042 A 
ATOM     29  H   UNK d   0       7.898 -14.830  -6.283  0.00  0.00     0.166 HD
ATOM     30  C   UNK d   0       7.981 -17.317  -4.724  0.00  0.00     0.062 C 
ATOM     31  C   UNK d   0      10.091 -16.258  -4.192  0.00  0.00    -0.013 A 
ATOM     32  C   UNK d   0       7.207 -17.949  -5.683  0.00  0.00     0.066 A 
BRANCH   8  33
ATOM     33  C   UNK d   0       4.928 -20.283  -7.380  0.00  0.00     0.151 C 
BRANCH  33  34
ATOM     34  C   UNK d   0       3.627 -19.730  -7.797  0.00  0.00     0.143 C 
ATOM     35  O   UNK d   0       3.209 -19.890  -8.953  0.00  0.00    -0.650 OA
BRANCH  34  36
ATOM     36  O   UNK d   0       2.871 -19.025  -6.890  0.00  0.00    -0.776 OA
ATOM     37  H   UNK d   0       2.238 -19.505  -6.235  0.00  0.00     0.167 HD
ENDBRANCH  34  36
ENDBRANCH  33  34
ENDBRANCH   8  33
BRANCH  31  38
ATOM     38  C   UNK d   0      10.616 -17.317  -3.250  0.00  0.00     0.151 C 
BRANCH  38  39
ATOM     39  C   UNK d   0      11.496 -18.263  -3.903  0.00  0.00     0.143 C 
ATOM     40  O   UNK d   0      11.096 -19.050  -4.779  0.00  0.00    -0.650 OA
BRANCH  39  41
ATOM     41  O   UNK d   0      12.844 -18.303  -3.547  0.00  0.00    -0.776 OA
ATOM     42  H   UNK d   0      13.217 -17.484  -3.056  0.00  0.00     0.167 HD
ENDBRANCH  39  41
ENDBRANCH  38  39
ENDBRANCH  31  38
BRANCH  27  43
ATOM     43  C   UNK d   0      12.091 -14.722  -4.023  0.00  0.00     0.052 C 
BRANCH  43  44
ATOM     44  C   UNK d   0      12.065 -13.494  -3.171  0.00  0.00     0.115 C 
BRANCH  44  45
ATOM     45  C   UNK d   0      13.108 -12.583  -3.709  0.00  0.00     0.139 C 
ATOM     46  O   UNK d   0      12.803 -11.378  -3.893  0.00  0.00    -0.650 OA
BRANCH  45  47
ATOM     47  O   UNK d   0      14.387 -13.002  -4.004  0.00  0.00    -0.776 OA
ATOM     48  H   UNK d   0      14.692 -13.984  -3.905  0.00  0.00     0.167 HD
ENDBRANCH  45  47
ENDBRANCH  44  45
ENDBRANCH  43  44
ENDBRANCH  27  43
BRANCH  24  49
ATOM     49  C   UNK d   0      11.513 -10.551  -7.619  0.00  0.00     0.052 C 
BRANCH  49  50
ATOM     50  C   UNK d   0      10.689  -9.313  -7.374  0.00  0.00     0.115 C 
BRANCH  50  51
ATOM     51  C   UNK d   0      11.011  -8.524  -6.192  0.00  0.00     0.139 C 
ATOM     52  O   UNK d   0      10.308  -7.558  -5.812  0.00  0.00    -0.650 OA
BRANCH  51  53
ATOM     53  O   UNK d   0      12.137  -8.835  -5.445  0.00  0.00    -0.776 OA
ATOM     54  H   UNK d   0      12.241  -8.405  -4.542  0.00  0.00     0.167 HD
ENDBRANCH  51  53
ENDBRANCH  50  51
ENDBRANCH  49  50
ENDBRANCH  24  49
BRANCH  21  55
ATOM     55  C   UNK d   0      10.461 -10.914 -10.501  0.00  0.00     0.151 C 
BRANCH  55  56
ATOM     56  C   UNK d   0      11.885 -10.836 -10.860  0.00  0.00     0.143 C 
ATOM     57  O   UNK d   0      12.476  -9.754 -11.046  0.00  0.00    -0.650 OA
BRANCH  56  58
ATOM     58  O   UNK d   0      12.588 -12.033 -10.995  0.00  0.00    -0.776 OA
ATOM     59  H   UNK d   0      12.678 -12.379 -11.967  0.00  0.00     0.167 HD
ENDBRANCH  56  58
ENDBRANCH  55  56
ENDBRANCH  21  55
BRANCH  18  60
ATOM     60  C   UNK d   0       6.098 -13.743 -11.832  0.00  0.00     0.151 C 
BRANCH  60  61
ATOM     61  C   UNK d   0       6.526 -14.157 -13.177  0.00  0.00     0.143 C 
ATOM     62  O   UNK d   0       7.660 -14.484 -13.527  0.00  0.00    -0.650 OA
BRANCH  61  63
ATOM     63  O   UNK d   0       5.504 -14.172 -14.157  0.00  0.00    -0.776 OA
ATOM     64  H   UNK d   0       5.419 -14.935 -14.805  0.00  0.00     0.167 HD
ENDBRANCH  61  63
ENDBRANCH  60  61
ENDBRANCH  18  60
BRANCH  14  65
ATOM     65  C   UNK d   0       4.705 -16.357 -11.172  0.00  0.00     0.052 C 
BRANCH  65  66
ATOM     66  C   UNK d   0       4.888 -17.133 -12.428  0.00  0.00     0.115 C 
BRANCH  66  67
ATOM     67  C   UNK d   0       5.113 -18.549 -12.364  0.00  0.00     0.139 C 
ATOM     68  O   UNK d   0       5.942 -19.078 -13.193  0.00  0.00    -0.650 OA
BRANCH  67  69
ATOM     69  O   UNK d   0       4.530 -19.466 -11.490  0.00  0.00    -0.776 OA
ATOM     70  H   UNK d   0       5.095 -20.301 -11.274  0.00  0.00     0.167 HD
ENDBRANCH  67  69
ENDBRANCH  66  67
ENDBRANCH  65  66
ENDBRANCH  14  65
ENDBRANCH   6   7
ENDBRANCH   5   6
ENDBRANCH   2   5
TORSDOF 28
ENDMDL
MODEL 8
REMARK VINA RESULT:      -8.7      2.049      9.816
REMARK  28 active torsions:
REMARK  status: ('A' for Active; 'I' for Inactive)
REMARK    1  A    between atoms: C_2  and  O_3 
REMARK    2  A    between atoms: C_2  and  C_4 
REMARK    3  A    between atoms: C_4  and  C_5 
REMARK    4  A    between atoms: C_5  and  C_6 
REMARK    5  A    between atoms: C_7  and  C_8 
REMARK    6  A    between atoms: C_8  and  C_9 
REMARK    7  A    between atoms: C_9  and  O_11 
REMARK    8  A    between atoms: C_28  and  C_29 
REMARK    9  A    between atoms: C_29  and  C_30 
REMARK   10  A    between atoms: C_30  and  O_32 
REMARK   11  A    between atoms: C_33  and  C_34 
REMARK   12  A    between atoms: C_34  and  C_35 
REMARK   13  A    between atoms: C_35  and  C_36 
REMARK   14  A    between atoms: C_36  and  O_38 
REMARK   15  A    between atoms: C_39  and  C_40 
REMARK   16  A    between atoms: C_40  and  C_41 
REMARK   17  A    between atoms: C_41  and  C_42 
REMARK   18  A    between atoms: C_42  and  O_44 
REMARK   19  A    between atoms: C_45  and  C_46 
REMARK   20  A    between atoms: C_46  and  C_47 
REMARK   21  A    between atoms: C_47  and  O_49 
REMARK   22  A    between atoms: C_50  and  C_51 
REMARK   23  A    between atoms: C_51  and  C_52 
REMARK   24  A    between atoms: C_52  and  O_54 
REMARK   25  A    between atoms: C_55  and  C_56 
REMARK   26  A    between atoms: C_56  and  C_57 
REMARK   27  A    between atoms: C_57  and  C_58 
REMARK   28  A    between atoms: C_58  and  O_60 
ROOT
ATOM      1  O   UNK d   0       9.835 -18.583  -5.940  0.00  0.00    -0.650 OA
ATOM      2  C   UNK d   0      10.696 -18.696  -5.040  0.00  0.00     0.139 C 
ENDROOT
BRANCH   2   3
ATOM      3  O   UNK d   0      11.869 -19.358  -5.310  0.00  0.00    -0.776 OA
ATOM      4  H   UNK d   0      12.018 -20.319  -4.995  0.00  0.00     0.167 HD
ENDBRANCH   2   3
BRANCH   2   5
ATOM      5  C   UNK d   0      10.447 -18.117  -3.689  0.00  0.00     0.115 C 
BRANCH   5   6
ATOM      6  C   UNK d   0       9.238 -17.223  -3.724  0.00  0.00     0.052 C 
BRANCH   6   7
ATOM      7  C   UNK d   0       9.598 -15.757  -3.690  0.00  0.00    -0.020 A 
ATOM      8  C   UNK d   0       9.890 -15.031  -2.642  0.00  0.00    -0.011 A 
ATOM      9  C   UNK d   0      10.159 -13.678  -3.100  0.00  0.00     0.067 A 
ATOM     10  C   UNK d   0      10.537 -12.464  -2.504  0.00  0.00     0.062 C 
ATOM     11  N   UNK d   0      10.003 -13.669  -4.440  0.00  0.00    -0.248 NA
ATOM     12  C   UNK d   0      11.024 -11.320  -3.147  0.00  0.00     0.041 A 
ATOM     13  N   UNK d   0      10.634 -10.707  -4.280  0.00  0.00    -0.355 N 
ATOM     14  C   UNK d   0      12.148 -10.666  -2.612  0.00  0.00    -0.022 A 
ATOM     15  C   UNK d   0      11.487  -9.685  -4.483  0.00  0.00     0.042 A 
ATOM     16  H   UNK d   0       9.762 -10.979  -4.915  0.00  0.00     0.166 HD
ATOM     17  C   UNK d   0      11.536  -8.726  -5.514  0.00  0.00     0.062 C 
ATOM     18  C   UNK d   0      12.451  -9.628  -3.457  0.00  0.00    -0.013 A 
ATOM     19  C   UNK d   0      11.404  -8.907  -6.867  0.00  0.00     0.067 A 
ATOM     20  N   UNK d   0      10.979 -10.105  -7.278  0.00  0.00    -0.248 NA
ATOM     21  C   UNK d   0      11.629  -8.102  -8.056  0.00  0.00    -0.011 A 
ATOM     22  C   UNK d   0      10.911 -10.141  -8.649  0.00  0.00     0.066 A 
ATOM     23  C   UNK d   0      10.446 -11.321  -9.212  0.00  0.00     0.062 C 
ATOM     24  C   UNK d   0      11.342  -8.831  -9.096  0.00  0.00    -0.020 A 
ATOM     25  C   UNK d   0       9.949 -12.453  -8.549  0.00  0.00     0.041 A 
ATOM     26  N   UNK d   0      10.345 -13.072  -7.430  0.00  0.00    -0.355 N 
ATOM     27  C   UNK d   0       8.817 -13.107  -9.084  0.00  0.00    -0.022 A 
ATOM     28  C   UNK d   0       9.501 -14.097  -7.231  0.00  0.00     0.042 A 
ATOM     29  H   UNK d   0      11.228 -12.804  -6.800  0.00  0.00     0.166 HD
ATOM     30  C   UNK d   0       9.447 -15.064  -6.215  0.00  0.00     0.062 C 
ATOM     31  C   UNK d   0       8.527 -14.147  -8.256  0.00  0.00    -0.013 A 
ATOM     32  C   UNK d   0       9.665 -14.890  -4.857  0.00  0.00     0.066 A 
BRANCH   8  33
ATOM     33  C   UNK d   0       9.937 -15.481  -1.239  0.00  0.00     0.151 C 
BRANCH  33  34
ATOM     34  C   UNK d   0       9.828 -14.368  -0.278  0.00  0.00     0.143 C 
ATOM     35  O   UNK d   0       8.761 -13.754  -0.134  0.00  0.00    -0.650 OA
BRANCH  34  36
ATOM     36  O   UNK d   0      10.928 -14.007   0.465  0.00  0.00    -0.776 OA
ATOM     37  H   UNK d   0      11.851 -13.884   0.028  0.00  0.00     0.167 HD
ENDBRANCH  34  36
ENDBRANCH  33  34
ENDBRANCH   8  33
BRANCH  31  38
ATOM     38  C   UNK d   0       7.386 -15.124  -8.419  0.00  0.00     0.151 C 
BRANCH  38  39
ATOM     39  C   UNK d   0       7.811 -16.505  -8.321  0.00  0.00     0.143 C 
ATOM     40  O   UNK d   0       7.345 -17.286  -7.473  0.00  0.00    -0.650 OA
BRANCH  39  41
ATOM     41  O   UNK d   0       8.775 -16.990  -9.204  0.00  0.00    -0.776 OA
ATOM     42  H   UNK d   0       8.612 -17.922  -9.598  0.00  0.00     0.167 HD
ENDBRANCH  39  41
ENDBRANCH  38  39
ENDBRANCH  31  38
BRANCH  27  43
ATOM     43  C   UNK d   0       8.024 -12.786 -10.326  0.00  0.00     0.052 C 
BRANCH  43  44
ATOM     44  C   UNK d   0       8.624 -13.349 -11.573  0.00  0.00     0.115 C 
BRANCH  44  45
ATOM     45  C   UNK d   0       7.544 -14.105 -12.260  0.00  0.00     0.139 C 
ATOM     46  O   UNK d   0       6.423 -14.178 -11.698  0.00  0.00    -0.650 OA
BRANCH  45  47
ATOM     47  O   UNK d   0       7.722 -14.718 -13.481  0.00  0.00    -0.776 OA
ATOM     48  H   UNK d   0       7.519 -15.718 -13.641  0.00  0.00     0.167 HD
ENDBRANCH  45  47
ENDBRANCH  44  45
ENDBRANCH  43  44
ENDBRANCH  27  43
BRANCH  24  49
ATOM     49  C   UNK d   0      11.393  -8.396 -10.502  0.00  0.00     0.052 C 
BRANCH  49  50
ATOM     50  C   UNK d   0      11.609  -9.580 -11.409  0.00  0.00     0.115 C 
BRANCH  50  51
ATOM     51  C   UNK d   0      12.987  -9.948 -11.706  0.00  0.00     0.139 C 
ATOM     52  O   UNK d   0      13.754  -9.217 -12.376  0.00  0.00    -0.650 OA
BRANCH  51  53
ATOM     53  O   UNK d   0      13.491 -11.153 -11.239  0.00  0.00    -0.776 OA
ATOM     54  H   UNK d   0      13.173 -11.487 -10.346  0.00  0.00     0.167 HD
ENDBRANCH  51  53
ENDBRANCH  50  51
ENDBRANCH  49  50
ENDBRANCH  24  49
BRANCH  21  55
ATOM     55  C   UNK d   0      12.102  -6.686  -8.028  0.00  0.00     0.151 C 
BRANCH  55  56
ATOM     56  C   UNK d   0      11.100  -5.781  -7.444  0.00  0.00     0.143 C 
ATOM     57  O   UNK d   0      10.987  -5.603  -6.215  0.00  0.00    -0.650 OA
BRANCH  56  58
ATOM     58  O   UNK d   0      10.251  -5.103  -8.317  0.00  0.00    -0.776 OA
ATOM     59  H   UNK d   0      10.724  -4.446  -8.963  0.00  0.00     0.167 HD
ENDBRANCH  56  58
ENDBRANCH  55  56
ENDBRANCH  21  55
BRANCH  18  60
ATOM     60  C   UNK d   0      13.596  -8.664  -3.268  0.00  0.00     0.151 C 
BRANCH  60  61
ATOM     61  C   UNK d   0      13.050  -7.534  -2.502  0.00  0.00     0.143 C 
ATOM     62  O   UNK d   0      12.782  -7.512  -1.300  0.00  0.00    -0.650 OA
BRANCH  61  63
ATOM     63  O   UNK d   0      12.818  -6.355  -3.250  0.00  0.00    -0.776 OA
ATOM     64  H   UNK d   0      12.970  -5.447  -2.848  0.00  0.00     0.167 HD
ENDBRANCH  61  63
ENDBRANCH  60  61
ENDBRANCH  18  60
BRANCH  14  65
ATOM     65  C   UNK d   0      12.890 -10.885  -1.324  0.00  0.00     0.052 C 
BRANCH  65  66
ATOM     66  C   UNK d   0      14.213 -11.537  -1.518  0.00  0.00     0.115 C 
BRANCH  66  67
ATOM     67  C   UNK d   0      14.361 -12.566  -2.509  0.00  0.00     0.139 C 
ATOM     68  O   UNK d   0      15.072 -12.318  -3.550  0.00  0.00    -0.650 OA
BRANCH  67  69
ATOM     69  O   UNK d   0      13.815 -13.849  -2.493  0.00  0.00    -0.776 OA
ATOM     70  H   UNK d   0      13.743 -14.316  -3.409  0.00  0.00     0.167 HD
ENDBRANCH  67  69
ENDBRANCH  66  67
ENDBRANCH  65  66
ENDBRANCH  14  65
ENDBRANCH   6   7
ENDBRANCH   5   6
ENDBRANCH   2   5
TORSDOF 28
ENDMDL
MODEL 9
REMARK VINA RESULT:      -8.7      3.219      8.864
REMARK  28 active torsions:
REMARK  status: ('A' for Active; 'I' for Inactive)
REMARK    1  A    between atoms: C_2  and  O_3 
REMARK    2  A    between atoms: C_2  and  C_4 
REMARK    3  A    between atoms: C_4  and  C_5 
REMARK    4  A    between atoms: C_5  and  C_6 
REMARK    5  A    between atoms: C_7  and  C_8 
REMARK    6  A    between atoms: C_8  and  C_9 
REMARK    7  A    between atoms: C_9  and  O_11 
REMARK    8  A    between atoms: C_28  and  C_29 
REMARK    9  A    between atoms: C_29  and  C_30 
REMARK   10  A    between atoms: C_30  and  O_32 
REMARK   11  A    between atoms: C_33  and  C_34 
REMARK   12  A    between atoms: C_34  and  C_35 
REMARK   13  A    between atoms: C_35  and  C_36 
REMARK   14  A    between atoms: C_36  and  O_38 
REMARK   15  A    between atoms: C_39  and  C_40 
REMARK   16  A    between atoms: C_40  and  C_41 
REMARK   17  A    between atoms: C_41  and  C_42 
REMARK   18  A    between atoms: C_42  and  O_44 
REMARK   19  A    between atoms: C_45  and  C_46 
REMARK   20  A    between atoms: C_46  and  C_47 
REMARK   21  A    between atoms: C_47  and  O_49 
REMARK   22  A    between atoms: C_50  and  C_51 
REMARK   23  A    between atoms: C_51  and  C_52 
REMARK   24  A    between atoms: C_52  and  O_54 
REMARK   25  A    between atoms: C_55  and  C_56 
REMARK   26  A    between atoms: C_56  and  C_57 
REMARK   27  A    between atoms: C_57  and  C_58 
REMARK   28  A    between atoms: C_58  and  O_60 
ROOT
ATOM      1  O   UNK d   0       7.572 -18.610  -0.829  0.00  0.00    -0.650 OA
ATOM      2  C   UNK d   0       8.606 -18.591  -1.533  0.00  0.00     0.139 C 
ENDROOT
BRANCH   2   3
ATOM      3  O   UNK d   0       9.705 -17.891  -1.097  0.00  0.00    -0.776 OA
ATOM      4  H   UNK d   0       9.986 -17.017  -1.546  0.00  0.00     0.167 HD
ENDBRANCH   2   3
BRANCH   2   5
ATOM      5  C   UNK d   0       8.641 -19.321  -2.832  0.00  0.00     0.115 C 
BRANCH   5   6
ATOM      6  C   UNK d   0       7.335 -19.149  -3.558  0.00  0.00     0.052 C 
BRANCH   6   7
ATOM      7  C   UNK d   0       7.490 -18.413  -4.867  0.00  0.00    -0.020 A 
ATOM      8  C   UNK d   0       6.948 -18.712  -6.020  0.00  0.00    -0.011 A 
ATOM      9  C   UNK d   0       7.391 -17.724  -6.989  0.00  0.00     0.067 A 
ATOM     10  C   UNK d   0       7.166 -17.469  -8.351  0.00  0.00     0.062 C 
ATOM     11  N   UNK d   0       8.205 -16.864  -6.342  0.00  0.00    -0.248 NA
ATOM     12  C   UNK d   0       7.464 -16.297  -9.055  0.00  0.00     0.041 A 
ATOM     13  N   UNK d   0       8.548 -15.499  -9.028  0.00  0.00    -0.355 N 
ATOM     14  C   UNK d   0       6.496 -15.760  -9.923  0.00  0.00    -0.022 A 
ATOM     15  C   UNK d   0       8.290 -14.465  -9.851  0.00  0.00     0.042 A 
ATOM     16  H   UNK d   0       9.485 -15.673  -8.455  0.00  0.00     0.166 HD
ATOM     17  C   UNK d   0       9.080 -13.349 -10.191  0.00  0.00     0.062 C 
ATOM     18  C   UNK d   0       7.013 -14.593 -10.430  0.00  0.00    -0.013 A 
ATOM     19  C   UNK d   0       9.821 -12.536  -9.372  0.00  0.00     0.067 A 
ATOM     20  N   UNK d   0       9.996 -12.943  -8.112  0.00  0.00    -0.248 NA
ATOM     21  C   UNK d   0      10.503 -11.259  -9.506  0.00  0.00    -0.011 A 
ATOM     22  C   UNK d   0      10.740 -12.025  -7.413  0.00  0.00     0.066 A 
ATOM     23  C   UNK d   0      11.030 -12.343  -6.094  0.00  0.00     0.062 C 
ATOM     24  C   UNK d   0      11.035 -10.964  -8.356  0.00  0.00    -0.020 A 
ATOM     25  C   UNK d   0      10.733 -13.531  -5.410  0.00  0.00     0.041 A 
ATOM     26  N   UNK d   0       9.649 -14.317  -5.425  0.00  0.00    -0.355 N 
ATOM     27  C   UNK d   0      11.706 -14.073  -4.542  0.00  0.00    -0.022 A 
ATOM     28  C   UNK d   0       9.900 -15.344  -4.598  0.00  0.00     0.042 A 
ATOM     29  H   UNK d   0       8.704 -14.135  -5.993  0.00  0.00     0.166 HD
ATOM     30  C   UNK d   0       9.120 -16.456  -4.244  0.00  0.00     0.062 C 
ATOM     31  C   UNK d   0      11.188 -15.220  -4.025  0.00  0.00    -0.013 A 
ATOM     32  C   UNK d   0       8.305 -17.223  -5.061  0.00  0.00     0.066 A 
BRANCH   8  33
ATOM     33  C   UNK d   0       6.050 -19.846  -6.309  0.00  0.00     0.151 C 
BRANCH  33  34
ATOM     34  C   UNK d   0       4.666 -19.421  -6.586  0.00  0.00     0.143 C 
ATOM     35  O   UNK d   0       4.070 -18.652  -5.818  0.00  0.00    -0.650 OA
BRANCH  34  36
ATOM     36  O   UNK d   0       4.029 -19.888  -7.712  0.00  0.00    -0.776 OA
ATOM     37  H   UNK d   0       4.446 -19.777  -8.646  0.00  0.00     0.167 HD
ENDBRANCH  34  36
ENDBRANCH  33  34
ENDBRANCH   8  33
BRANCH  31  38
ATOM     38  C   UNK d   0      11.877 -16.151  -3.055  0.00  0.00     0.151 C 
BRANCH  38  39
ATOM     39  C   UNK d   0      11.717 -15.744  -1.675  0.00  0.00     0.143 C 
ATOM     40  O   UNK d   0      12.521 -16.074  -0.786  0.00  0.00    -0.650 OA
BRANCH  39  41
ATOM     41  O   UNK d   0      10.626 -14.952  -1.316  0.00  0.00    -0.776 OA
ATOM     42  H   UNK d   0      10.650 -14.530  -0.383  0.00  0.00     0.167 HD
ENDBRANCH  39  41
ENDBRANCH  38  39
ENDBRANCH  31  38
BRANCH  27  43
ATOM     43  C   UNK d   0      13.077 -13.549  -4.194  0.00  0.00     0.052 C 
BRANCH  43  44
ATOM     44  C   UNK d   0      13.109 -12.782  -2.913  0.00  0.00     0.115 C 
BRANCH  44  45
ATOM     45  C   UNK d   0      12.814 -11.366  -3.258  0.00  0.00     0.139 C 
ATOM     46  O   UNK d   0      13.674 -10.725  -3.910  0.00  0.00    -0.650 OA
BRANCH  45  47
ATOM     47  O   UNK d   0      11.641 -10.738  -2.898  0.00  0.00    -0.776 OA
ATOM     48  H   UNK d   0      11.001 -11.116  -2.181  0.00  0.00     0.167 HD
ENDBRANCH  45  47
ENDBRANCH  44  45
ENDBRANCH  43  44
ENDBRANCH  27  43
BRANCH  24  49
ATOM     49  C   UNK d   0      11.850  -9.775  -8.055  0.00  0.00     0.052 C 
BRANCH  49  50
ATOM     50  C   UNK d   0      10.972  -8.638  -7.598  0.00  0.00     0.115 C 
BRANCH  50  51
ATOM     51  C   UNK d   0      11.010  -8.297  -6.182  0.00  0.00     0.139 C 
ATOM     52  O   UNK d   0      10.234  -7.456  -5.668  0.00  0.00    -0.650 OA
BRANCH  51  53
ATOM     53  O   UNK d   0      11.934  -8.913  -5.352  0.00  0.00    -0.776 OA
ATOM     54  H   UNK d   0      11.621  -9.674  -4.776  0.00  0.00     0.167 HD
ENDBRANCH  51  53
ENDBRANCH  50  51
ENDBRANCH  49  50
ENDBRANCH  24  49
BRANCH  21  55
ATOM     55  C   UNK d   0      10.554 -10.469 -10.772  0.00  0.00     0.151 C 
BRANCH  55  56
ATOM     56  C   UNK d   0      11.935 -10.243 -11.225  0.00  0.00     0.143 C 
ATOM     57  O   UNK d   0      12.328  -9.149 -11.675  0.00  0.00    -0.650 OA
BRANCH  56  58
ATOM     58  O   UNK d   0      12.829 -11.310 -11.140  0.00  0.00    -0.776 OA
ATOM     59  H   UNK d   0      12.423 -12.238 -11.354  0.00  0.00     0.167 HD
ENDBRANCH  56  58
ENDBRANCH  55  56
ENDBRANCH  21  55
BRANCH  18  60
ATOM     60  C   UNK d   0       6.302 -13.684 -11.401  0.00  0.00     0.151 C 
BRANCH  60  61
ATOM     61  C   UNK d   0       6.489 -14.286 -12.730  0.00  0.00     0.143 C 
ATOM     62  O   UNK d   0       5.609 -14.609 -13.529  0.00  0.00    -0.650 OA
BRANCH  61  63
ATOM     63  O   UNK d   0       7.835 -14.507 -13.107  0.00  0.00    -0.776 OA
ATOM     64  H   UNK d   0       8.466 -15.009 -12.507  0.00  0.00     0.167 HD
ENDBRANCH  61  63
ENDBRANCH  60  61
ENDBRANCH  18  60
BRANCH  14  65
ATOM     65  C   UNK d   0       5.175 -16.310 -10.380  0.00  0.00     0.052 C 
BRANCH  65  66
ATOM     66  C   UNK d   0       5.315 -17.445 -11.331  0.00  0.00     0.115 C 
BRANCH  66  67
ATOM     67  C   UNK d   0       5.118 -18.790 -10.867  0.00  0.00     0.139 C 
ATOM     68  O   UNK d   0       3.915 -19.208 -10.690  0.00  0.00    -0.650 OA
BRANCH  67  69
ATOM     69  O   UNK d   0       6.094 -19.741 -10.571  0.00  0.00    -0.776 OA
ATOM     70  H   UNK d   0       6.227 -20.481 -11.276  0.00  0.00     0.167 HD
ENDBRANCH  67  69
ENDBRANCH  66  67
ENDBRANCH  65  66
ENDBRANCH  14  65
ENDBRANCH   6   7
ENDBRANCH   5   6
ENDBRANCH   2   5
TORSDOF 28
ENDMDL
MODEL 10
REMARK VINA RESULT:      -8.5      3.732      9.912
REMARK  28 active torsions:
REMARK  status: ('A' for Active; 'I' for Inactive)
REMARK    1  A    between atoms: C_2  and  O_3 
REMARK    2  A    between atoms: C_2  and  C_4 
REMARK    3  A    between atoms: C_4  and  C_5 
REMARK    4  A    between atoms: C_5  and  C_6 
REMARK    5  A    between atoms: C_7  and  C_8 
REMARK    6  A    between atoms: C_8  and  C_9 
REMARK    7  A    between atoms: C_9  and  O_11 
REMARK    8  A    between atoms: C_28  and  C_29 
REMARK    9  A    between atoms: C_29  and  C_30 
REMARK   10  A    between atoms: C_30  and  O_32 
REMARK   11  A    between atoms: C_33  and  C_34 
REMARK   12  A    between atoms: C_34  and  C_35 
REMARK   13  A    between atoms: C_35  and  C_36 
REMARK   14  A    between atoms: C_36  and  O_38 
REMARK   15  A    between atoms: C_39  and  C_40 
REMARK   16  A    between atoms: C_40  and  C_41 
REMARK   17  A    between atoms: C_41  and  C_42 
REMARK   18  A    between atoms: C_42  and  O_44 
REMARK   19  A    between atoms: C_45  and  C_46 
REMARK   20  A    between atoms: C_46  and  C_47 
REMARK   21  A    between atoms: C_47  and  O_49 
REMARK   22  A    between atoms: C_50  and  C_51 
REMARK   23  A    between atoms: C_51  and  C_52 
REMARK   24  A    between atoms: C_52  and  O_54 
REMARK   25  A    between atoms: C_55  and  C_56 
REMARK   26  A    between atoms: C_56  and  C_57 
REMARK   27  A    between atoms: C_57  and  C_58 
REMARK   28  A    between atoms: C_58  and  O_60 
ROOT
ATOM      1  O   UNK d   0      11.636 -10.801  -1.795  0.00  0.00    -0.650 OA
ATOM      2  C   UNK d   0      10.695 -11.495  -2.239  0.00  0.00     0.139 C 
ENDROOT
BRANCH   2   3
ATOM      3  O   UNK d   0       9.901 -10.991  -3.241  0.00  0.00    -0.776 OA
ATOM      4  H   UNK d   0       8.953 -10.660  -3.047  0.00  0.00     0.167 HD
ENDBRANCH   2   3
BRANCH   2   5
ATOM      5  C   UNK d   0      10.440 -12.854  -1.683  0.00  0.00     0.115 C 
BRANCH   5   6
ATOM      6  C   UNK d   0      11.315 -13.867  -2.372  0.00  0.00     0.052 C 
BRANCH   6   7
ATOM      7  C   UNK d   0      10.520 -14.961  -3.043  0.00  0.00    -0.020 A 
ATOM      8  C   UNK d   0      10.285 -16.167  -2.594  0.00  0.00    -0.011 A 
ATOM      9  C   UNK d   0       9.484 -16.864  -3.587  0.00  0.00     0.067 A 
ATOM     10  C   UNK d   0       8.898 -18.133  -3.706  0.00  0.00     0.062 C 
ATOM     11  N   UNK d   0       9.283 -16.008  -4.611  0.00  0.00    -0.248 NA
ATOM     12  C   UNK d   0       7.920 -18.532  -4.623  0.00  0.00     0.041 A 
ATOM     13  N   UNK d   0       7.788 -18.287  -5.941  0.00  0.00    -0.355 N 
ATOM     14  C   UNK d   0       6.819 -19.278  -4.163  0.00  0.00    -0.022 A 
ATOM     15  C   UNK d   0       6.627 -18.851  -6.327  0.00  0.00     0.042 A 
ATOM     16  H   UNK d   0       8.509 -17.743  -6.589  0.00  0.00     0.166 HD
ATOM     17  C   UNK d   0       6.010 -18.895  -7.593  0.00  0.00     0.062 C 
ATOM     18  C   UNK d   0       5.992 -19.481  -5.240  0.00  0.00    -0.013 A 
ATOM     19  C   UNK d   0       5.845 -17.886  -8.507  0.00  0.00     0.067 A 
ATOM     20  N   UNK d   0       6.516 -16.753  -8.285  0.00  0.00    -0.248 NA
ATOM     21  C   UNK d   0       5.076 -17.697  -9.726  0.00  0.00    -0.011 A 
ATOM     22  C   UNK d   0       6.241 -15.836  -9.270  0.00  0.00     0.066 A 
ATOM     23  C   UNK d   0       6.904 -14.621  -9.183  0.00  0.00     0.062 C 
ATOM     24  C   UNK d   0       5.309 -16.493 -10.165  0.00  0.00    -0.020 A 
ATOM     25  C   UNK d   0       7.893 -14.244  -8.261  0.00  0.00     0.041 A 
ATOM     26  N   UNK d   0       8.017 -14.475  -6.949  0.00  0.00    -0.355 N 
ATOM     27  C   UNK d   0       8.999 -13.500  -8.724  0.00  0.00    -0.022 A 
ATOM     28  C   UNK d   0       9.169 -13.906  -6.559  0.00  0.00     0.042 A 
ATOM     29  H   UNK d   0       7.286 -15.013  -6.296  0.00  0.00     0.166 HD
ATOM     30  C   UNK d   0       9.790 -13.847  -5.302  0.00  0.00     0.062 C 
ATOM     31  C   UNK d   0       9.812 -13.282  -7.655  0.00  0.00    -0.013 A 
ATOM     32  C   UNK d   0       9.880 -14.845  -4.345  0.00  0.00     0.066 A 
BRANCH   8  33
ATOM     33  C   UNK d   0      10.745 -16.741  -1.316  0.00  0.00     0.151 C 
BRANCH  33  34
ATOM     34  C   UNK d   0      12.183 -17.063  -1.319  0.00  0.00     0.143 C 
ATOM     35  O   UNK d   0      12.917 -16.711  -0.385  0.00  0.00    -0.650 OA
BRANCH  34  36
ATOM     36  O   UNK d   0      12.715 -17.764  -2.377  0.00  0.00    -0.776 OA
ATOM     37  H   UNK d   0      12.720 -17.373  -3.329  0.00  0.00     0.167 HD
ENDBRANCH  34  36
ENDBRANCH  33  34
ENDBRANCH   8  33
BRANCH  31  38
ATOM     38  C   UNK d   0      11.127 -12.538  -7.671  0.00  0.00     0.151 C 
BRANCH  38  39
ATOM     39  C   UNK d   0      11.064 -11.271  -6.975  0.00  0.00     0.143 C 
ATOM     40  O   UNK d   0      11.337 -11.160  -5.767  0.00  0.00    -0.650 OA
BRANCH  39  41
ATOM     41  O   UNK d   0      10.685 -10.124  -7.672  0.00  0.00    -0.776 OA
ATOM     42  H   UNK d   0      10.535 -10.225  -8.680  0.00  0.00     0.167 HD
ENDBRANCH  39  41
ENDBRANCH  38  39
ENDBRANCH  31  38
BRANCH  27  43
ATOM     43  C   UNK d   0       9.303 -12.998 -10.114  0.00  0.00     0.052 C 
BRANCH  43  44
ATOM     44  C   UNK d   0       9.157 -11.517 -10.253  0.00  0.00     0.115 C 
BRANCH  44  45
ATOM     45  C   UNK d   0      10.486 -10.997 -10.668  0.00  0.00     0.139 C 
ATOM     46  O   UNK d   0      11.401 -11.827 -10.895  0.00  0.00    -0.650 OA
BRANCH  45  47
ATOM     47  O   UNK d   0      10.749  -9.653 -10.817  0.00  0.00    -0.776 OA
ATOM     48  H   UNK d   0      10.456  -8.944 -10.125  0.00  0.00     0.167 HD
ENDBRANCH  45  47
ENDBRANCH  44  45
ENDBRANCH  43  44
ENDBRANCH  27  43
BRANCH  24  49
ATOM     49  C   UNK d   0       4.764 -15.898 -11.397  0.00  0.00     0.052 C 
BRANCH  49  50
ATOM     50  C   UNK d   0       5.764 -16.006 -12.519  0.00  0.00     0.115 C 
BRANCH  50  51
ATOM     51  C   UNK d   0       6.418 -14.777 -12.948  0.00  0.00     0.139 C 
ATOM     52  O   UNK d   0       6.126 -13.655 -12.473  0.00  0.00    -0.650 OA
BRANCH  51  53
ATOM     53  O   UNK d   0       7.403 -14.828 -13.922  0.00  0.00    -0.776 OA
ATOM     54  H   UNK d   0       7.754 -13.961 -14.289  0.00  0.00     0.167 HD
ENDBRANCH  51  53
ENDBRANCH  50  51
ENDBRANCH  49  50
ENDBRANCH  24  49
BRANCH  21  55
ATOM     55  C   UNK d   0       4.193 -18.739 -10.327  0.00  0.00     0.151 C 
BRANCH  55  56
ATOM     56  C   UNK d   0       2.784 -18.554  -9.948  0.00  0.00     0.143 C 
ATOM     57  O   UNK d   0       2.432 -17.843  -8.986  0.00  0.00    -0.650 OA
BRANCH  56  58
ATOM     58  O   UNK d   0       1.816 -19.209 -10.707  0.00  0.00    -0.776 OA
ATOM     59  H   UNK d   0       1.663 -18.814 -11.653  0.00  0.00     0.167 HD
ENDBRANCH  56  58
ENDBRANCH  55  56
ENDBRANCH  21  55
BRANCH  18  60
ATOM     60  C   UNK d   0       4.684 -20.232  -5.195  0.00  0.00     0.151 C 
BRANCH  60  61
ATOM     61  C   UNK d   0       3.652 -19.227  -4.899  0.00  0.00     0.143 C 
ATOM     62  O   UNK d   0       3.556 -18.098  -5.381  0.00  0.00    -0.650 OA
BRANCH  61  63
ATOM     63  O   UNK d   0       2.674 -19.626  -3.956  0.00  0.00    -0.776 OA
ATOM     64  H   UNK d   0       2.407 -20.590  -3.863  0.00  0.00     0.167 HD
ENDBRANCH  61  63
ENDBRANCH  60  61
ENDBRANCH  18  60
BRANCH  14  65
ATOM     65  C   UNK d   0       6.542 -19.891  -2.820  0.00  0.00     0.052 C 
BRANCH  65  66
ATOM     66  C   UNK d   0       5.778 -21.164  -2.908  0.00  0.00     0.115 C 
BRANCH  66  67
ATOM     67  C   UNK d   0       4.727 -21.430  -1.967  0.00  0.00     0.139 C 
ATOM     68  O   UNK d   0       4.129 -20.433  -1.417  0.00  0.00    -0.650 OA
BRANCH  67  69
ATOM     69  O   UNK d   0       4.247 -22.671  -1.552  0.00  0.00    -0.776 OA
ATOM     70  H   UNK d   0       3.255 -22.860  -1.758  0.00  0.00     0.167 HD
ENDBRANCH  67  69
ENDBRANCH  66  67
ENDBRANCH  65  66
ENDBRANCH  14  65
ENDBRANCH   6   7
ENDBRANCH   5   6
ENDBRANCH   2   5
TORSDOF 28
ENDMDL
MODEL 11
REMARK VINA RESULT:      -8.4      1.713      2.524
REMARK  28 active torsions:
REMARK  status: ('A' for Active; 'I' for Inactive)
REMARK    1  A    between atoms: C_2  and  O_3 
REMARK    2  A    between atoms: C_2  and  C_4 
REMARK    3  A    between atoms: C_4  and  C_5 
REMARK    4  A    between atoms: C_5  and  C_6 
REMARK    5  A    between atoms: C_7  and  C_8 
REMARK    6  A    between atoms: C_8  and  C_9 
REMARK    7  A    between atoms: C_9  and  O_11 
REMARK    8  A    between atoms: C_28  and  C_29 
REMARK    9  A    between atoms: C_29  and  C_30 
REMARK   10  A    between atoms: C_30  and  O_32 
REMARK   11  A    between atoms: C_33  and  C_34 
REMARK   12  A    between atoms: C_34  and  C_35 
REMARK   13  A    between atoms: C_35  and  C_36 
REMARK   14  A    between atoms: C_36  and  O_38 
REMARK   15  A    between atoms: C_39  and  C_40 
REMARK   16  A    between atoms: C_40  and  C_41 
REMARK   17  A    between atoms: C_41  and  C_42 
REMARK   18  A    between atoms: C_42  and  O_44 
REMARK   19  A    between atoms: C_45  and  C_46 
REMARK   20  A    between atoms: C_46  and  C_47 
REMARK   21  A    between atoms: C_47  and  O_49 
REMARK   22  A    between atoms: C_50  and  C_51 
REMARK   23  A    between atoms: C_51  and  C_52 
REMARK   24  A    between atoms: C_52  and  O_54 
REMARK   25  A    between atoms: C_55  and  C_56 
REMARK   26  A    between atoms: C_56  and  C_57 
REMARK   27  A    between atoms: C_57  and  C_58 
REMARK   28  A    between atoms: C_58  and  O_60 
ROOT
ATOM      1  O   UNK d   0      12.588  -9.639 -11.053  0.00  0.00    -0.650 OA
ATOM      2  C   UNK d   0      11.609  -9.209 -10.403  0.00  0.00     0.139 C 
ENDROOT
BRANCH   2   3
ATOM      3  O   UNK d   0      10.789  -8.263 -10.968  0.00  0.00    -0.776 OA
ATOM      4  H   UNK d   0       9.897  -8.524 -11.394  0.00  0.00     0.167 HD
ENDBRANCH   2   3
BRANCH   2   5
ATOM      5  C   UNK d   0      11.339  -9.721  -9.029  0.00  0.00     0.115 C 
BRANCH   5   6
ATOM      6  C   UNK d   0      11.328 -11.226  -9.031  0.00  0.00     0.052 C 
BRANCH   6   7
ATOM      7  C   UNK d   0      10.906 -11.805  -7.702  0.00  0.00    -0.020 A 
ATOM      8  C   UNK d   0      10.107 -12.820  -7.491  0.00  0.00    -0.011 A 
ATOM      9  C   UNK d   0       9.991 -13.003  -6.054  0.00  0.00     0.067 A 
ATOM     10  C   UNK d   0       9.328 -13.896  -5.197  0.00  0.00     0.062 C 
ATOM     11  N   UNK d   0      10.748 -12.053  -5.466  0.00  0.00    -0.248 NA
ATOM     12  C   UNK d   0       9.558 -14.088  -3.831  0.00  0.00     0.041 A 
ATOM     13  N   UNK d   0       9.775 -13.207  -2.835  0.00  0.00    -0.355 N 
ATOM     14  C   UNK d   0       9.649 -15.401  -3.334  0.00  0.00    -0.022 A 
ATOM     15  C   UNK d   0      10.008 -13.928  -1.722  0.00  0.00     0.042 A 
ATOM     16  H   UNK d   0       9.744 -12.098  -2.914  0.00  0.00     0.166 HD
ATOM     17  C   UNK d   0      10.288 -13.510  -0.406  0.00  0.00     0.062 C 
ATOM     18  C   UNK d   0       9.938 -15.308  -1.996  0.00  0.00    -0.013 A 
ATOM     19  C   UNK d   0      11.150 -12.534   0.024  0.00  0.00     0.067 A 
ATOM     20  N   UNK d   0      11.658 -11.723  -0.908  0.00  0.00    -0.248 NA
ATOM     21  C   UNK d   0      11.710 -12.122   1.300  0.00  0.00    -0.011 A 
ATOM     22  C   UNK d   0      12.511 -10.812  -0.333  0.00  0.00     0.066 A 
ATOM     23  C   UNK d   0      13.082  -9.879  -1.186  0.00  0.00     0.062 C 
ATOM     24  C   UNK d   0      12.508 -11.117   1.084  0.00  0.00    -0.020 A 
ATOM     25  C   UNK d   0      12.827  -9.694  -2.554  0.00  0.00     0.041 A 
ATOM     26  N   UNK d   0      12.627 -10.570  -3.546  0.00  0.00    -0.355 N 
ATOM     27  C   UNK d   0      12.732  -8.376  -3.051  0.00  0.00    -0.022 A 
ATOM     28  C   UNK d   0      12.403  -9.854  -4.659  0.00  0.00     0.042 A 
ATOM     29  H   UNK d   0      12.669 -11.684  -3.468  0.00  0.00     0.166 HD
ATOM     30  C   UNK d   0      12.132 -10.256  -5.977  0.00  0.00     0.062 C 
ATOM     31  C   UNK d   0      12.463  -8.468  -4.382  0.00  0.00    -0.013 A 
ATOM     32  C   UNK d   0      11.325 -11.300  -6.403  0.00  0.00     0.066 A 
BRANCH   8  33
ATOM     33  C   UNK d   0       9.431 -13.641  -8.512  0.00  0.00     0.151 C 
BRANCH  33  34
ATOM     34  C   UNK d   0       8.414 -14.541  -7.939  0.00  0.00     0.143 C 
ATOM     35  O   UNK d   0       7.265 -14.137  -7.707  0.00  0.00    -0.650 OA
BRANCH  34  36
ATOM     36  O   UNK d   0       8.748 -15.845  -7.657  0.00  0.00    -0.776 OA
ATOM     37  H   UNK d   0       8.345 -16.627  -8.190  0.00  0.00     0.167 HD
ENDBRANCH  34  36
ENDBRANCH  33  34
ENDBRANCH   8  33
BRANCH  31  38
ATOM     38  C   UNK d   0      12.262  -7.311  -5.332  0.00  0.00     0.151 C 
BRANCH  38  39
ATOM     39  C   UNK d   0      10.902  -6.815  -5.334  0.00  0.00     0.143 C 
ATOM     40  O   UNK d   0       9.945  -7.500  -5.737  0.00  0.00    -0.650 OA
BRANCH  39  41
ATOM     41  O   UNK d   0      10.640  -5.527  -4.869  0.00  0.00    -0.776 OA
ATOM     42  H   UNK d   0      10.454  -4.810  -5.577  0.00  0.00     0.167 HD
ENDBRANCH  39  41
ENDBRANCH  38  39
ENDBRANCH  31  38
BRANCH  27  43
ATOM     43  C   UNK d   0      12.886  -7.064  -2.322  0.00  0.00     0.052 C 
BRANCH  43  44
ATOM     44  C   UNK d   0      14.303  -6.748  -1.969  0.00  0.00     0.115 C 
BRANCH  44  45
ATOM     45  C   UNK d   0      14.662  -5.514  -2.716  0.00  0.00     0.139 C 
ATOM     46  O   UNK d   0      14.948  -4.485  -2.056  0.00  0.00    -0.650 OA
BRANCH  45  47
ATOM     47  O   UNK d   0      14.699  -5.459  -4.092  0.00  0.00    -0.776 OA
ATOM     48  H   UNK d   0      15.163  -6.178  -4.670  0.00  0.00     0.167 HD
ENDBRANCH  45  47
ENDBRANCH  44  45
ENDBRANCH  43  44
ENDBRANCH  27  43
BRANCH  24  49
ATOM     49  C   UNK d   0      13.256 -10.366   2.107  0.00  0.00     0.052 C 
BRANCH  49  50
ATOM     50  C   UNK d   0      12.567  -9.060   2.407  0.00  0.00     0.115 C 
BRANCH  50  51
ATOM     51  C   UNK d   0      11.868  -8.954   3.681  0.00  0.00     0.139 C 
ATOM     52  O   UNK d   0      10.830  -9.609   3.939  0.00  0.00    -0.650 OA
BRANCH  51  53
ATOM     53  O   UNK d   0      12.350  -8.099   4.660  0.00  0.00    -0.776 OA
ATOM     54  H   UNK d   0      12.249  -7.109   4.518  0.00  0.00     0.167 HD
ENDBRANCH  51  53
ENDBRANCH  50  51
ENDBRANCH  49  50
ENDBRANCH  24  49
BRANCH  21  55
ATOM     55  C   UNK d   0      11.385 -12.774   2.604  0.00  0.00     0.151 C 
BRANCH  55  56
ATOM     56  C   UNK d   0      10.004 -12.500   3.028  0.00  0.00     0.143 C 
ATOM     57  O   UNK d   0       9.474 -13.062   4.006  0.00  0.00    -0.650 OA
BRANCH  56  58
ATOM     58  O   UNK d   0       9.271 -11.570   2.292  0.00  0.00    -0.776 OA
ATOM     59  H   UNK d   0       9.284 -11.717   1.267  0.00  0.00     0.167 HD
ENDBRANCH  56  58
ENDBRANCH  55  56
ENDBRANCH  21  55
BRANCH  18  60
ATOM     60  C   UNK d   0      10.131 -16.482  -1.068  0.00  0.00     0.151 C 
BRANCH  60  61
ATOM     61  C   UNK d   0       8.780 -16.916  -0.680  0.00  0.00     0.143 C 
ATOM     62  O   UNK d   0       7.990 -16.318   0.052  0.00  0.00    -0.650 OA
BRANCH  61  63
ATOM     63  O   UNK d   0       8.368 -18.158  -1.219  0.00  0.00    -0.776 OA
ATOM     64  H   UNK d   0       8.265 -18.968  -0.634  0.00  0.00     0.167 HD
ENDBRANCH  61  63
ENDBRANCH  60  61
ENDBRANCH  18  60
BRANCH  14  65
ATOM     65  C   UNK d   0       9.388 -16.722  -4.001  0.00  0.00     0.052 C 
BRANCH  65  66
ATOM     66  C   UNK d   0      10.635 -17.474  -4.310  0.00  0.00     0.115 C 
BRANCH  66  67
ATOM     67  C   UNK d   0      10.588 -18.588  -5.215  0.00  0.00     0.139 C 
ATOM     68  O   UNK d   0      11.671 -19.244  -5.436  0.00  0.00    -0.650 OA
BRANCH  67  69
ATOM     69  O   UNK d   0       9.484 -19.073  -5.915  0.00  0.00    -0.776 OA
ATOM     70  H   UNK d   0       8.665 -18.449  -5.947  0.00  0.00     0.167 HD
ENDBRANCH  67  69
ENDBRANCH  66  67
ENDBRANCH  65  66
ENDBRANCH  14  65
ENDBRANCH   6   7
ENDBRANCH   5   6
ENDBRANCH   2   5
TORSDOF 28
ENDMDL
MODEL 12
REMARK VINA RESULT:      -8.3      3.905     10.519
REMARK  28 active torsions:
REMARK  status: ('A' for Active; 'I' for Inactive)
REMARK    1  A    between atoms: C_2  and  O_3 
REMARK    2  A    between atoms: C_2  and  C_4 
REMARK    3  A    between atoms: C_4  and  C_5 
REMARK    4  A    between atoms: C_5  and  C_6 
REMARK    5  A    between atoms: C_7  and  C_8 
REMARK    6  A    between atoms: C_8  and  C_9 
REMARK    7  A    between atoms: C_9  and  O_11 
REMARK    8  A    between atoms: C_28  and  C_29 
REMARK    9  A    between atoms: C_29  and  C_30 
REMARK   10  A    between atoms: C_30  and  O_32 
REMARK   11  A    between atoms: C_33  and  C_34 
REMARK   12  A    between atoms: C_34  and  C_35 
REMARK   13  A    between atoms: C_35  and  C_36 
REMARK   14  A    between atoms: C_36  and  O_38 
REMARK   15  A    between atoms: C_39  and  C_40 
REMARK   16  A    between atoms: C_40  and  C_41 
REMARK   17  A    between atoms: C_41  and  C_42 
REMARK   18  A    between atoms: C_42  and  O_44 
REMARK   19  A    between atoms: C_45  and  C_46 
REMARK   20  A    between atoms: C_46  and  C_47 
REMARK   21  A    between atoms: C_47  and  O_49 
REMARK   22  A    between atoms: C_50  and  C_51 
REMARK   23  A    between atoms: C_51  and  C_52 
REMARK   24  A    between atoms: C_52  and  O_54 
REMARK   25  A    between atoms: C_55  and  C_56 
REMARK   26  A    between atoms: C_56  and  C_57 
REMARK   27  A    between atoms: C_57  and  C_58 
REMARK   28  A    between atoms: C_58  and  O_60 
ROOT
ATOM      1  O   UNK d   0      10.511 -13.201  -0.331  0.00  0.00    -0.650 OA
ATOM      2  C   UNK d   0      10.644 -12.948  -1.549  0.00  0.00     0.139 C 
ENDROOT
BRANCH   2   3
ATOM      3  O   UNK d   0      11.478 -11.927  -1.937  0.00  0.00    -0.776 OA
ATOM      4  H   UNK d   0      12.420 -12.118  -2.284  0.00  0.00     0.167 HD
ENDBRANCH   2   3
BRANCH   2   5
ATOM      5  C   UNK d   0       9.903 -13.747  -2.565  0.00  0.00     0.115 C 
BRANCH   5   6
ATOM      6  C   UNK d   0      10.773 -14.860  -3.083  0.00  0.00     0.052 C 
BRANCH   6   7
ATOM      7  C   UNK d   0      10.067 -15.726  -4.098  0.00  0.00    -0.020 A 
ATOM      8  C   UNK d   0       9.790 -17.002  -4.005  0.00  0.00    -0.011 A 
ATOM      9  C   UNK d   0       9.112 -17.400  -5.227  0.00  0.00     0.067 A 
ATOM     10  C   UNK d   0       8.551 -18.583  -5.735  0.00  0.00     0.062 C 
ATOM     11  N   UNK d   0       9.023 -16.306  -6.012  0.00  0.00    -0.248 NA
ATOM     12  C   UNK d   0       7.686 -18.710  -6.827  0.00  0.00     0.041 A 
ATOM     13  N   UNK d   0       7.703 -18.130  -8.043  0.00  0.00    -0.355 N 
ATOM     14  C   UNK d   0       6.545 -19.523  -6.701  0.00  0.00    -0.022 A 
ATOM     15  C   UNK d   0       6.598 -18.549  -8.688  0.00  0.00     0.042 A 
ATOM     16  H   UNK d   0       8.490 -17.455  -8.444  0.00  0.00     0.166 HD
ATOM     17  C   UNK d   0       6.128 -18.251  -9.983  0.00  0.00     0.062 C 
ATOM     18  C   UNK d   0       5.847 -19.423  -7.878  0.00  0.00    -0.013 A 
ATOM     19  C   UNK d   0       6.062 -17.038 -10.618  0.00  0.00     0.067 A 
ATOM     20  N   UNK d   0       6.696 -16.016 -10.038  0.00  0.00    -0.248 NA
ATOM     21  C   UNK d   0       5.436 -16.523 -11.825  0.00  0.00    -0.011 A 
ATOM     22  C   UNK d   0       6.529 -14.870 -10.777  0.00  0.00     0.066 A 
ATOM     23  C   UNK d   0       7.170 -13.734 -10.306  0.00  0.00     0.062 C 
ATOM     24  C   UNK d   0       5.709 -15.253 -11.910  0.00  0.00    -0.020 A 
ATOM     25  C   UNK d   0       8.045 -13.630  -9.213  0.00  0.00     0.041 A 
ATOM     26  N   UNK d   0       8.021 -14.194  -8.000  0.00  0.00    -0.355 N 
ATOM     27  C   UNK d   0       9.193 -12.818  -9.342  0.00  0.00    -0.022 A 
ATOM     28  C   UNK d   0       9.117 -13.771  -7.351  0.00  0.00     0.042 A 
ATOM     29  H   UNK d   0       7.224 -14.865  -7.594  0.00  0.00     0.166 HD
ATOM     30  C   UNK d   0       9.592 -14.052  -6.060  0.00  0.00     0.062 C 
ATOM     31  C   UNK d   0       9.877 -12.902  -8.169  0.00  0.00    -0.013 A 
ATOM     32  C   UNK d   0       9.579 -15.265  -5.389  0.00  0.00     0.066 A 
BRANCH   8  33
ATOM     33  C   UNK d   0      10.105 -17.895  -2.875  0.00  0.00     0.151 C 
BRANCH  33  34
ATOM     34  C   UNK d   0       9.003 -17.994  -1.901  0.00  0.00     0.143 C 
ATOM     35  O   UNK d   0       8.993 -17.294  -0.878  0.00  0.00    -0.650 OA
BRANCH  34  36
ATOM     36  O   UNK d   0       7.973 -18.876  -2.133  0.00  0.00    -0.776 OA
ATOM     37  H   UNK d   0       7.007 -18.546  -2.265  0.00  0.00     0.167 HD
ENDBRANCH  34  36
ENDBRANCH  33  34
ENDBRANCH   8  33
BRANCH  31  38
ATOM     38  C   UNK d   0      11.180 -12.210  -7.846  0.00  0.00     0.151 C 
BRANCH  38  39
ATOM     39  C   UNK d   0      10.993 -10.965  -7.130  0.00  0.00     0.143 C 
ATOM     40  O   UNK d   0      10.611  -9.925  -7.693  0.00  0.00    -0.650 OA
BRANCH  39  41
ATOM     41  O   UNK d   0      11.246 -10.918  -5.759  0.00  0.00    -0.776 OA
ATOM     42  H   UNK d   0      12.147 -10.524  -5.469  0.00  0.00     0.167 HD
ENDBRANCH  39  41
ENDBRANCH  38  39
ENDBRANCH  31  38
BRANCH  27  43
ATOM     43  C   UNK d   0       9.649 -11.982 -10.513  0.00  0.00     0.052 C 
BRANCH  43  44
ATOM     44  C   UNK d   0      11.133 -11.963 -10.681  0.00  0.00     0.115 C 
BRANCH  44  45
ATOM     45  C   UNK d   0      11.526 -10.536 -10.817  0.00  0.00     0.139 C 
ATOM     46  O   UNK d   0      12.731 -10.275 -11.059  0.00  0.00    -0.650 OA
BRANCH  45  47
ATOM     47  O   UNK d   0      10.628  -9.499 -10.695  0.00  0.00    -0.776 OA
ATOM     48  H   UNK d   0      10.363  -8.890 -11.487  0.00  0.00     0.167 HD
ENDBRANCH  45  47
ENDBRANCH  44  45
ENDBRANCH  43  44
ENDBRANCH  27  43
BRANCH  24  49
ATOM     49  C   UNK d   0       5.304 -14.348 -12.999  0.00  0.00     0.052 C 
BRANCH  49  50
ATOM     50  C   UNK d   0       6.257 -14.466 -14.161  0.00  0.00     0.115 C 
BRANCH  50  51
ATOM     51  C   UNK d   0       5.730 -14.166 -15.485  0.00  0.00     0.139 C 
ATOM     52  O   UNK d   0       6.375 -14.392 -16.536  0.00  0.00    -0.650 OA
BRANCH  51  53
ATOM     53  O   UNK d   0       4.468 -13.607 -15.612  0.00  0.00    -0.776 OA
ATOM     54  H   UNK d   0       3.711 -14.201 -15.900  0.00  0.00     0.167 HD
ENDBRANCH  51  53
ENDBRANCH  50  51
ENDBRANCH  49  50
ENDBRANCH  24  49
BRANCH  21  55
ATOM     55  C   UNK d   0       4.633 -17.355 -12.769  0.00  0.00     0.151 C 
BRANCH  55  56
ATOM     56  C   UNK d   0       5.477 -18.009 -13.782  0.00  0.00     0.143 C 
ATOM     57  O   UNK d   0       5.432 -17.711 -14.992  0.00  0.00    -0.650 OA
BRANCH  56  58
ATOM     58  O   UNK d   0       6.357 -19.000 -13.352  0.00  0.00    -0.776 OA
ATOM     59  H   UNK d   0       7.352 -18.715 -13.318  0.00  0.00     0.167 HD
ENDBRANCH  56  58
ENDBRANCH  55  56
ENDBRANCH  21  55
BRANCH  18  60
ATOM     60  C   UNK d   0       4.547 -20.129  -8.175  0.00  0.00     0.151 C 
BRANCH  60  61
ATOM     61  C   UNK d   0       3.481 -19.177  -7.828  0.00  0.00     0.143 C 
ATOM     62  O   UNK d   0       3.283 -18.070  -8.330  0.00  0.00    -0.650 OA
BRANCH  61  63
ATOM     63  O   UNK d   0       2.602 -19.603  -6.803  0.00  0.00    -0.776 OA
ATOM     64  H   UNK d   0       1.646 -19.297  -6.780  0.00  0.00     0.167 HD
ENDBRANCH  61  63
ENDBRANCH  60  61
ENDBRANCH  18  60
BRANCH  14  65
ATOM     65  C   UNK d   0       6.121 -20.454  -5.601  0.00  0.00     0.052 C 
BRANCH  65  66
ATOM     66  C   UNK d   0       5.625 -19.740  -4.393  0.00  0.00     0.115 C 
BRANCH  66  67
ATOM     67  C   UNK d   0       4.504 -20.265  -3.667  0.00  0.00     0.139 C 
ATOM     68  O   UNK d   0       3.323 -20.068  -4.135  0.00  0.00    -0.650 OA
BRANCH  67  69
ATOM     69  O   UNK d   0       4.523 -20.986  -2.474  0.00  0.00    -0.776 OA
ATOM     70  H   UNK d   0       3.726 -20.826  -1.841  0.00  0.00     0.167 HD
ENDBRANCH  67  69
ENDBRANCH  66  67
ENDBRANCH  65  66
ENDBRANCH  14  65
ENDBRANCH   6   7
ENDBRANCH   5   6
ENDBRANCH   2   5
TORSDOF 28
ENDMDL
MODEL 13
REMARK VINA RESULT:      -8.2      1.464      2.188
REMARK  28 active torsions:
REMARK  status: ('A' for Active; 'I' for Inactive)
REMARK    1  A    between atoms: C_2  and  O_3 
REMARK    2  A    between atoms: C_2  and  C_4 
REMARK    3  A    between atoms: C_4  and  C_5 
REMARK    4  A    between atoms: C_5  and  C_6 
REMARK    5  A    between atoms: C_7  and  C_8 
REMARK    6  A    between atoms: C_8  and  C_9 
REMARK    7  A    between atoms: C_9  and  O_11 
REMARK    8  A    between atoms: C_28  and  C_29 
REMARK    9  A    between atoms: C_29  and  C_30 
REMARK   10  A    between atoms: C_30  and  O_32 
REMARK   11  A    between atoms: C_33  and  C_34 
REMARK   12  A    between atoms: C_34  and  C_35 
REMARK   13  A    between atoms: C_35  and  C_36 
REMARK   14  A    between atoms: C_36  and  O_38 
REMARK   15  A    between atoms: C_39  and  C_40 
REMARK   16  A    between atoms: C_40  and  C_41 
REMARK   17  A    between atoms: C_41  and  C_42 
REMARK   18  A    between atoms: C_42  and  O_44 
REMARK   19  A    between atoms: C_45  and  C_46 
REMARK   20  A    between atoms: C_46  and  C_47 
REMARK   21  A    between atoms: C_47  and  O_49 
REMARK   22  A    between atoms: C_50  and  C_51 
REMARK   23  A    between atoms: C_51  and  C_52 
REMARK   24  A    between atoms: C_52  and  O_54 
REMARK   25  A    between atoms: C_55  and  C_56 
REMARK   26  A    between atoms: C_56  and  C_57 
REMARK   27  A    between atoms: C_57  and  C_58 
REMARK   28  A    between atoms: C_58  and  O_60 
ROOT
ATOM      1  O   UNK d   0      11.546  -9.374 -11.915  0.00  0.00    -0.650 OA
ATOM      2  C   UNK d   0      11.443  -9.438 -10.670  0.00  0.00     0.139 C 
ENDROOT
BRANCH   2   3
ATOM      3  O   UNK d   0      11.058  -8.322  -9.968  0.00  0.00    -0.776 OA
ATOM      4  H   UNK d   0      10.505  -7.585 -10.410  0.00  0.00     0.167 HD
ENDBRANCH   2   3
BRANCH   2   5
ATOM      5  C   UNK d   0      11.738 -10.715  -9.959  0.00  0.00     0.115 C 
BRANCH   5   6
ATOM      6  C   UNK d   0      10.562 -11.648 -10.063  0.00  0.00     0.052 C 
BRANCH   6   7
ATOM      7  C   UNK d   0      10.203 -12.281  -8.740  0.00  0.00    -0.020 A 
ATOM      8  C   UNK d   0       9.520 -13.378  -8.539  0.00  0.00    -0.011 A 
ATOM      9  C   UNK d   0       9.421 -13.584  -7.104  0.00  0.00     0.067 A 
ATOM     10  C   UNK d   0       8.858 -14.551  -6.256  0.00  0.00     0.062 C 
ATOM     11  N   UNK d   0      10.068 -12.561  -6.507  0.00  0.00    -0.248 NA
ATOM     12  C   UNK d   0       9.106 -14.728  -4.890  0.00  0.00     0.041 A 
ATOM     13  N   UNK d   0       9.222 -13.836  -3.888  0.00  0.00    -0.355 N 
ATOM     14  C   UNK d   0       9.339 -16.027  -4.403  0.00  0.00    -0.022 A 
ATOM     15  C   UNK d   0       9.531 -14.536  -2.779  0.00  0.00     0.042 A 
ATOM     16  H   UNK d   0       9.070 -12.737  -3.958  0.00  0.00     0.166 HD
ATOM     17  C   UNK d   0       9.761 -14.100  -1.459  0.00  0.00     0.062 C 
ATOM     18  C   UNK d   0       9.613 -15.912  -3.063  0.00  0.00    -0.013 A 
ATOM     19  C   UNK d   0      10.509 -13.038  -1.019  0.00  0.00     0.067 A 
ATOM     20  N   UNK d   0      10.927 -12.169  -1.943  0.00  0.00    -0.248 NA
ATOM     21  C   UNK d   0      11.017 -12.577   0.262  0.00  0.00    -0.011 A 
ATOM     22  C   UNK d   0      11.672 -11.174  -1.360  0.00  0.00     0.066 A 
ATOM     23  C   UNK d   0      12.140 -10.178  -2.204  0.00  0.00     0.062 C 
ATOM     24  C   UNK d   0      11.701 -11.488   0.055  0.00  0.00    -0.020 A 
ATOM     25  C   UNK d   0      11.869 -10.011  -3.571  0.00  0.00     0.041 A 
ATOM     26  N   UNK d   0      11.769 -10.896  -4.570  0.00  0.00    -0.355 N 
ATOM     27  C   UNK d   0      11.631  -8.708  -4.058  0.00  0.00    -0.022 A 
ATOM     28  C   UNK d   0      11.470 -10.200  -5.679  0.00  0.00     0.042 A 
ATOM     29  H   UNK d   0      11.933 -11.999  -4.500  0.00  0.00     0.166 HD
ATOM     30  C   UNK d   0      11.247 -10.620  -7.000  0.00  0.00     0.062 C 
ATOM     31  C   UNK d   0      11.377  -8.818  -5.390  0.00  0.00    -0.013 A 
ATOM     32  C   UNK d   0      10.561 -11.742  -7.436  0.00  0.00     0.066 A 
BRANCH   8  33
ATOM     33  C   UNK d   0       8.940 -14.261  -9.568  0.00  0.00     0.151 C 
BRANCH  33  34
ATOM     34  C   UNK d   0       8.006 -13.555 -10.464  0.00  0.00     0.143 C 
ATOM     35  O   UNK d   0       7.469 -12.494 -10.115  0.00  0.00    -0.650 OA
BRANCH  34  36
ATOM     36  O   UNK d   0       7.727 -14.085 -11.702  0.00  0.00    -0.776 OA
ATOM     37  H   UNK d   0       7.173 -14.947 -11.802  0.00  0.00     0.167 HD
ENDBRANCH  34  36
ENDBRANCH  33  34
ENDBRANCH   8  33
BRANCH  31  38
ATOM     38  C   UNK d   0      11.051  -7.683  -6.333  0.00  0.00     0.151 C 
BRANCH  38  39
ATOM     39  C   UNK d   0      12.233  -7.039  -6.865  0.00  0.00     0.143 C 
ATOM     40  O   UNK d   0      13.383  -7.429  -6.594  0.00  0.00    -0.650 OA
BRANCH  39  41
ATOM     41  O   UNK d   0      12.093  -5.941  -7.713  0.00  0.00    -0.776 OA
ATOM     42  H   UNK d   0      11.948  -6.141  -8.708  0.00  0.00     0.167 HD
ENDBRANCH  39  41
ENDBRANCH  38  39
ENDBRANCH  31  38
BRANCH  27  43
ATOM     43  C   UNK d   0      11.638  -7.393  -3.319  0.00  0.00     0.052 C 
BRANCH  43  44
ATOM     44  C   UNK d   0      12.683  -7.320  -2.253  0.00  0.00     0.115 C 
BRANCH  44  45
ATOM     45  C   UNK d   0      13.725  -6.380  -2.743  0.00  0.00     0.139 C 
ATOM     46  O   UNK d   0      13.529  -5.797  -3.838  0.00  0.00    -0.650 OA
BRANCH  45  47
ATOM     47  O   UNK d   0      14.885  -6.122  -2.045  0.00  0.00    -0.776 OA
ATOM     48  H   UNK d   0      15.615  -6.835  -1.888  0.00  0.00     0.167 HD
ENDBRANCH  45  47
ENDBRANCH  44  45
ENDBRANCH  43  44
ENDBRANCH  27  43
BRANCH  24  49
ATOM     49  C   UNK d   0      12.359 -10.668   1.086  0.00  0.00     0.052 C 
BRANCH  49  50
ATOM     50  C   UNK d   0      13.276  -9.657   0.445  0.00  0.00     0.115 C 
BRANCH  50  51
ATOM     51  C   UNK d   0      14.686  -9.716   0.805  0.00  0.00     0.139 C 
ATOM     52  O   UNK d   0      15.598  -9.815  -0.049  0.00  0.00    -0.650 OA
BRANCH  51  53
ATOM     53  O   UNK d   0      15.056  -9.663   2.140  0.00  0.00    -0.776 OA
ATOM     54  H   UNK d   0      14.637  -8.960   2.723  0.00  0.00     0.167 HD
ENDBRANCH  51  53
ENDBRANCH  50  51
ENDBRANCH  49  50
ENDBRANCH  24  49
BRANCH  21  55
ATOM     55  C   UNK d   0      10.763 -13.271   1.559  0.00  0.00     0.151 C 
BRANCH  55  56
ATOM     56  C   UNK d   0       9.891 -12.483   2.444  0.00  0.00     0.143 C 
ATOM     57  O   UNK d   0       9.028 -11.694   2.013  0.00  0.00    -0.650 OA
BRANCH  56  58
ATOM     58  O   UNK d   0      10.052 -12.639   3.820  0.00  0.00    -0.776 OA
ATOM     59  H   UNK d   0       9.386 -13.296   4.265  0.00  0.00     0.167 HD
ENDBRANCH  56  58
ENDBRANCH  55  56
ENDBRANCH  21  55
BRANCH  18  60
ATOM     60  C   UNK d   0       9.932 -17.066  -2.144  0.00  0.00     0.151 C 
BRANCH  60  61
ATOM     61  C   UNK d   0      11.399 -17.124  -2.064  0.00  0.00     0.143 C 
ATOM     62  O   UNK d   0      12.158 -17.766  -2.792  0.00  0.00    -0.650 OA
BRANCH  61  63
ATOM     63  O   UNK d   0      11.977 -16.349  -1.030  0.00  0.00    -0.776 OA
ATOM     64  H   UNK d   0      11.455 -16.115  -0.204  0.00  0.00     0.167 HD
ENDBRANCH  61  63
ENDBRANCH  60  61
ENDBRANCH  18  60
BRANCH  14  65
ATOM     65  C   UNK d   0       9.227 -17.363  -5.081  0.00  0.00     0.052 C 
BRANCH  65  66
ATOM     66  C   UNK d   0      10.445 -17.727  -5.854  0.00  0.00     0.115 C 
BRANCH  66  67
ATOM     67  C   UNK d   0      11.059 -19.009  -5.652  0.00  0.00     0.139 C 
ATOM     68  O   UNK d   0      11.522 -19.636  -6.674  0.00  0.00    -0.650 OA
BRANCH  67  69
ATOM     69  O   UNK d   0      11.229 -19.693  -4.449  0.00  0.00    -0.776 OA
ATOM     70  H   UNK d   0      11.779 -19.203  -3.728  0.00  0.00     0.167 HD
ENDBRANCH  67  69
ENDBRANCH  66  67
ENDBRANCH  65  66
ENDBRANCH  14  65
ENDBRANCH   6   7
ENDBRANCH   5   6
ENDBRANCH   2   5
TORSDOF 28
ENDMDL
MODEL 14
REMARK VINA RESULT:      -8.2      3.156      9.154
REMARK  28 active torsions:
REMARK  status: ('A' for Active; 'I' for Inactive)
REMARK    1  A    between atoms: C_2  and  O_3 
REMARK    2  A    between atoms: C_2  and  C_4 
REMARK    3  A    between atoms: C_4  and  C_5 
REMARK    4  A    between atoms: C_5  and  C_6 
REMARK    5  A    between atoms: C_7  and  C_8 
REMARK    6  A    between atoms: C_8  and  C_9 
REMARK    7  A    between atoms: C_9  and  O_11 
REMARK    8  A    between atoms: C_28  and  C_29 
REMARK    9  A    between atoms: C_29  and  C_30 
REMARK   10  A    between atoms: C_30  and  O_32 
REMARK   11  A    between atoms: C_33  and  C_34 
REMARK   12  A    between atoms: C_34  and  C_35 
REMARK   13  A    between atoms: C_35  and  C_36 
REMARK   14  A    between atoms: C_36  and  O_38 
REMARK   15  A    between atoms: C_39  and  C_40 
REMARK   16  A    between atoms: C_40  and  C_41 
REMARK   17  A    between atoms: C_41  and  C_42 
REMARK   18  A    between atoms: C_42  and  O_44 
REMARK   19  A    between atoms: C_45  and  C_46 
REMARK   20  A    between atoms: C_46  and  C_47 
REMARK   21  A    between atoms: C_47  and  O_49 
REMARK   22  A    between atoms: C_50  and  C_51 
REMARK   23  A    between atoms: C_51  and  C_52 
REMARK   24  A    between atoms: C_52  and  O_54 
REMARK   25  A    between atoms: C_55  and  C_56 
REMARK   26  A    between atoms: C_56  and  C_57 
REMARK   27  A    between atoms: C_57  and  C_58 
REMARK   28  A    between atoms: C_58  and  O_60 
ROOT
ATOM      1  O   UNK d   0      12.666  -9.155 -11.907  0.00  0.00    -0.650 OA
ATOM      2  C   UNK d   0      11.561  -9.202 -11.322  0.00  0.00     0.139 C 
ENDROOT
BRANCH   2   3
ATOM      3  O   UNK d   0      10.992  -8.038 -10.864  0.00  0.00    -0.776 OA
ATOM      4  H   UNK d   0      10.459  -8.018  -9.992  0.00  0.00     0.167 HD
ENDBRANCH   2   3
BRANCH   2   5
ATOM      5  C   UNK d   0      10.874 -10.509 -11.124  0.00  0.00     0.115 C 
BRANCH   5   6
ATOM      6  C   UNK d   0       9.877 -10.406 -10.002  0.00  0.00     0.052 C 
BRANCH   6   7
ATOM      7  C   UNK d   0      10.194 -11.335  -8.855  0.00  0.00    -0.020 A 
ATOM      8  C   UNK d   0      11.155 -11.218  -7.975  0.00  0.00    -0.011 A 
ATOM      9  C   UNK d   0      11.072 -12.354  -7.071  0.00  0.00     0.067 A 
ATOM     10  C   UNK d   0      11.769 -12.798  -5.937  0.00  0.00     0.062 C 
ATOM     11  N   UNK d   0      10.034 -13.115  -7.479  0.00  0.00    -0.248 NA
ATOM     12  C   UNK d   0      11.366 -13.781  -5.026  0.00  0.00     0.041 A 
ATOM     13  N   UNK d   0      10.796 -14.986  -5.217  0.00  0.00    -0.355 N 
ATOM     14  C   UNK d   0      11.493 -13.525  -3.649  0.00  0.00    -0.022 A 
ATOM     15  C   UNK d   0      10.551 -15.498  -3.996  0.00  0.00     0.042 A 
ATOM     16  H   UNK d   0      10.589 -15.474  -6.195  0.00  0.00     0.166 HD
ATOM     17  C   UNK d   0       9.971 -16.726  -3.620  0.00  0.00     0.062 C 
ATOM     18  C   UNK d   0      10.974 -14.610  -2.987  0.00  0.00    -0.013 A 
ATOM     19  C   UNK d   0       8.853 -17.341  -4.122  0.00  0.00     0.067 A 
ATOM     20  N   UNK d   0       8.336 -16.834  -5.244  0.00  0.00    -0.248 NA
ATOM     21  C   UNK d   0       8.013 -18.461  -3.732  0.00  0.00    -0.011 A 
ATOM     22  C   UNK d   0       7.218 -17.540  -5.615  0.00  0.00     0.066 A 
ATOM     23  C   UNK d   0       6.599 -17.141  -6.791  0.00  0.00     0.062 C 
ATOM     24  C   UNK d   0       7.055 -18.570  -4.607  0.00  0.00    -0.020 A 
ATOM     25  C   UNK d   0       7.027 -16.160  -7.698  0.00  0.00     0.041 A 
ATOM     26  N   UNK d   0       7.580 -14.956  -7.509  0.00  0.00    -0.355 N 
ATOM     27  C   UNK d   0       6.904 -16.420  -9.081  0.00  0.00    -0.022 A 
ATOM     28  C   UNK d   0       7.817 -14.439  -8.725  0.00  0.00     0.042 A 
ATOM     29  H   UNK d   0       7.778 -14.463  -6.525  0.00  0.00     0.166 HD
ATOM     30  C   UNK d   0       8.385 -13.216  -9.113  0.00  0.00     0.062 C 
ATOM     31  C   UNK d   0       7.401 -15.336  -9.738  0.00  0.00    -0.013 A 
ATOM     32  C   UNK d   0       9.464 -12.556  -8.547  0.00  0.00     0.066 A 
BRANCH   8  33
ATOM     33  C   UNK d   0      12.158 -10.140  -7.897  0.00  0.00     0.151 C 
BRANCH  33  34
ATOM     34  C   UNK d   0      11.594  -8.871  -7.401  0.00  0.00     0.143 C 
ATOM     35  O   UNK d   0      11.784  -7.809  -8.010  0.00  0.00    -0.650 OA
BRANCH  34  36
ATOM     36  O   UNK d   0      10.849  -8.870  -6.244  0.00  0.00    -0.776 OA
ATOM     37  H   UNK d   0       9.900  -8.473  -6.221  0.00  0.00     0.167 HD
ENDBRANCH  34  36
ENDBRANCH  33  34
ENDBRANCH   8  33
BRANCH  31  38
ATOM     38  C   UNK d   0       7.491 -15.166 -11.236  0.00  0.00     0.151 C 
BRANCH  38  39
ATOM     39  C   UNK d   0       6.452 -14.309 -11.767  0.00  0.00     0.143 C 
ATOM     40  O   UNK d   0       6.583 -13.075 -11.845  0.00  0.00    -0.650 OA
BRANCH  39  41
ATOM     41  O   UNK d   0       5.257 -14.874 -12.211  0.00  0.00    -0.776 OA
ATOM     42  H   UNK d   0       4.453 -14.809 -11.579  0.00  0.00     0.167 HD
ENDBRANCH  39  41
ENDBRANCH  38  39
ENDBRANCH  31  38
BRANCH  27  43
ATOM     43  C   UNK d   0       6.340 -17.630  -9.782  0.00  0.00     0.052 C 
BRANCH  43  44
ATOM     44  C   UNK d   0       4.947 -17.428 -10.283  0.00  0.00     0.115 C 
BRANCH  44  45
ATOM     45  C   UNK d   0       4.073 -18.321  -9.479  0.00  0.00     0.139 C 
ATOM     46  O   UNK d   0       3.557 -17.858  -8.432  0.00  0.00    -0.650 OA
BRANCH  45  47
ATOM     47  O   UNK d   0       3.805 -19.624  -9.838  0.00  0.00    -0.776 OA
ATOM     48  H   UNK d   0       3.089 -20.199  -9.365  0.00  0.00     0.167 HD
ENDBRANCH  45  47
ENDBRANCH  44  45
ENDBRANCH  43  44
ENDBRANCH  27  43
BRANCH  24  49
ATOM     49  C   UNK d   0       6.000 -19.597  -4.617  0.00  0.00     0.052 C 
BRANCH  49  50
ATOM     50  C   UNK d   0       6.211 -20.555  -5.762  0.00  0.00     0.115 C 
BRANCH  50  51
ATOM     51  C   UNK d   0       5.149 -20.650  -6.754  0.00  0.00     0.139 C 
ATOM     52  O   UNK d   0       5.329 -21.144  -7.892  0.00  0.00    -0.650 OA
BRANCH  51  53
ATOM     53  O   UNK d   0       3.881 -20.180  -6.449  0.00  0.00    -0.776 OA
ATOM     54  H   UNK d   0       3.706 -19.856  -5.514  0.00  0.00     0.167 HD
ENDBRANCH  51  53
ENDBRANCH  50  51
ENDBRANCH  49  50
ENDBRANCH  24  49
BRANCH  21  55
ATOM     55  C   UNK d   0       8.257 -19.309  -2.527  0.00  0.00     0.151 C 
BRANCH  55  56
ATOM     56  C   UNK d   0       8.342 -18.507  -1.297  0.00  0.00     0.143 C 
ATOM     57  O   UNK d   0       7.370 -18.336  -0.535  0.00  0.00    -0.650 OA
BRANCH  56  58
ATOM     58  O   UNK d   0       9.568 -17.923  -0.986  0.00  0.00    -0.776 OA
ATOM     59  H   UNK d   0       9.816 -17.937   0.020  0.00  0.00     0.167 HD
ENDBRANCH  56  58
ENDBRANCH  55  56
ENDBRANCH  21  55
BRANCH  18  60
ATOM     60  C   UNK d   0      10.901 -14.755  -1.487  0.00  0.00     0.151 C 
BRANCH  60  61
ATOM     61  C   UNK d   0       9.573 -14.256  -1.098  0.00  0.00     0.143 C 
ATOM     62  O   UNK d   0       9.062 -13.181  -1.414  0.00  0.00    -0.650 OA
BRANCH  61  63
ATOM     63  O   UNK d   0       8.821 -15.125  -0.271  0.00  0.00    -0.776 OA
ATOM     64  H   UNK d   0       7.833 -14.995  -0.146  0.00  0.00     0.167 HD
ENDBRANCH  61  63
ENDBRANCH  60  61
ENDBRANCH  18  60
BRANCH  14  65
ATOM     65  C   UNK d   0      12.150 -12.388  -2.919  0.00  0.00     0.052 C 
BRANCH  65  66
ATOM     66  C   UNK d   0      13.462 -12.760  -2.324  0.00  0.00     0.115 C 
BRANCH  66  67
ATOM     67  C   UNK d   0      14.676 -12.289  -2.928  0.00  0.00     0.139 C 
ATOM     68  O   UNK d   0      14.951 -12.665  -4.127  0.00  0.00    -0.650 OA
BRANCH  67  69
ATOM     69  O   UNK d   0      15.636 -11.445  -2.370  0.00  0.00    -0.776 OA
ATOM     70  H   UNK d   0      15.480 -11.177  -1.387  0.00  0.00     0.167 HD
ENDBRANCH  67  69
ENDBRANCH  66  67
ENDBRANCH  65  66
ENDBRANCH  14  65
ENDBRANCH   6   7
ENDBRANCH   5   6
ENDBRANCH   2   5
TORSDOF 28
ENDMDL
MODEL 15
REMARK VINA RESULT:      -8.2      1.944      7.472
REMARK  28 active torsions:
REMARK  status: ('A' for Active; 'I' for Inactive)
REMARK    1  A    between atoms: C_2  and  O_3 
REMARK    2  A    between atoms: C_2  and  C_4 
REMARK    3  A    between atoms: C_4  and  C_5 
REMARK    4  A    between atoms: C_5  and  C_6 
REMARK    5  A    between atoms: C_7  and  C_8 
REMARK    6  A    between atoms: C_8  and  C_9 
REMARK    7  A    between atoms: C_9  and  O_11 
REMARK    8  A    between atoms: C_28  and  C_29 
REMARK    9  A    between atoms: C_29  and  C_30 
REMARK   10  A    between atoms: C_30  and  O_32 
REMARK   11  A    between atoms: C_33  and  C_34 
REMARK   12  A    between atoms: C_34  and  C_35 
REMARK   13  A    between atoms: C_35  and  C_36 
REMARK   14  A    between atoms: C_36  and  O_38 
REMARK   15  A    between atoms: C_39  and  C_40 
REMARK   16  A    between atoms: C_40  and  C_41 
REMARK   17  A    between atoms: C_41  and  C_42 
REMARK   18  A    between atoms: C_42  and  O_44 
REMARK   19  A    between atoms: C_45  and  C_46 
REMARK   20  A    between atoms: C_46  and  C_47 
REMARK   21  A    between atoms: C_47  and  O_49 
REMARK   22  A    between atoms: C_50  and  C_51 
REMARK   23  A    between atoms: C_51  and  C_52 
REMARK   24  A    between atoms: C_52  and  O_54 
REMARK   25  A    between atoms: C_55  and  C_56 
REMARK   26  A    between atoms: C_56  and  C_57 
REMARK   27  A    between atoms: C_57  and  C_58 
REMARK   28  A    between atoms: C_58  and  O_60 
ROOT
ATOM      1  O   UNK d   0      11.000 -19.356  -6.753  0.00  0.00    -0.650 OA
ATOM      2  C   UNK d   0      10.246 -19.153  -7.730  0.00  0.00     0.139 C 
ENDROOT
BRANCH   2   3
ATOM      3  O   UNK d   0      10.790 -19.029  -8.986  0.00  0.00    -0.776 OA
ATOM      4  H   UNK d   0      11.605 -18.435  -9.151  0.00  0.00     0.167 HD
ENDBRANCH   2   3
BRANCH   2   5
ATOM      5  C   UNK d   0       8.773 -19.046  -7.530  0.00  0.00     0.115 C 
BRANCH   5   6
ATOM      6  C   UNK d   0       8.300 -17.664  -7.892  0.00  0.00     0.052 C 
BRANCH   6   7
ATOM      7  C   UNK d   0       8.518 -16.666  -6.780  0.00  0.00    -0.020 A 
ATOM      8  C   UNK d   0       8.264 -16.822  -5.506  0.00  0.00    -0.011 A 
ATOM      9  C   UNK d   0       8.628 -15.590  -4.826  0.00  0.00     0.067 A 
ATOM     10  C   UNK d   0       8.624 -15.126  -3.501  0.00  0.00     0.062 C 
ATOM     11  N   UNK d   0       9.088 -14.736  -5.763  0.00  0.00    -0.248 NA
ATOM     12  C   UNK d   0       9.277 -13.996  -2.997  0.00  0.00     0.041 A 
ATOM     13  N   UNK d   0       9.401 -12.750  -3.492  0.00  0.00    -0.355 N 
ATOM     14  C   UNK d   0      10.000 -14.107  -1.796  0.00  0.00    -0.022 A 
ATOM     15  C   UNK d   0      10.190 -12.070  -2.639  0.00  0.00     0.042 A 
ATOM     16  H   UNK d   0       8.924 -12.353  -4.415  0.00  0.00     0.166 HD
ATOM     17  C   UNK d   0      10.638 -10.734  -2.677  0.00  0.00     0.062 C 
ATOM     18  C   UNK d   0      10.586 -12.888  -1.564  0.00  0.00    -0.013 A 
ATOM     19  C   UNK d   0      11.138 -10.021  -3.737  0.00  0.00     0.067 A 
ATOM     20  N   UNK d   0      11.016 -10.572  -4.947  0.00  0.00    -0.248 NA
ATOM     21  C   UNK d   0      11.823  -8.752  -3.912  0.00  0.00    -0.011 A 
ATOM     22  C   UNK d   0      11.572  -9.756  -5.901  0.00  0.00     0.066 A 
ATOM     23  C   UNK d   0      11.481 -10.191  -7.215  0.00  0.00     0.062 C 
ATOM     24  C   UNK d   0      12.078  -8.604  -5.180  0.00  0.00    -0.020 A 
ATOM     25  C   UNK d   0      10.809 -11.323  -7.701  0.00  0.00     0.041 A 
ATOM     26  N   UNK d   0      10.698 -12.566  -7.217  0.00  0.00    -0.355 N 
ATOM     27  C   UNK d   0      10.080 -11.209  -8.905  0.00  0.00    -0.022 A 
ATOM     28  C   UNK d   0       9.918 -13.249  -8.070  0.00  0.00     0.042 A 
ATOM     29  H   UNK d   0      11.187 -12.966  -6.295  0.00  0.00     0.166 HD
ATOM     30  C   UNK d   0       9.473 -14.580  -8.050  0.00  0.00     0.062 C 
ATOM     31  C   UNK d   0       9.512 -12.423  -9.146  0.00  0.00    -0.013 A 
ATOM     32  C   UNK d   0       9.049 -15.323  -6.960  0.00  0.00     0.066 A 
BRANCH   8  33
ATOM     33  C   UNK d   0       7.705 -18.022  -4.856  0.00  0.00     0.151 C 
BRANCH  33  34
ATOM     34  C   UNK d   0       8.616 -18.606  -3.856  0.00  0.00     0.143 C 
ATOM     35  O   UNK d   0       8.188 -19.019  -2.768  0.00  0.00    -0.650 OA
BRANCH  34  36
ATOM     36  O   UNK d   0       9.960 -18.691  -4.135  0.00  0.00    -0.776 OA
ATOM     37  H   UNK d   0      10.383 -19.570  -4.466  0.00  0.00     0.167 HD
ENDBRANCH  34  36
ENDBRANCH  33  34
ENDBRANCH   8  33
BRANCH  31  38
ATOM     38  C   UNK d   0       8.627 -12.776 -10.318  0.00  0.00     0.151 C 
BRANCH  38  39
ATOM     39  C   UNK d   0       9.342 -13.456 -11.377  0.00  0.00     0.143 C 
ATOM     40  O   UNK d   0      10.579 -13.395 -11.490  0.00  0.00    -0.650 OA
BRANCH  39  41
ATOM     41  O   UNK d   0       8.632 -14.211 -12.310  0.00  0.00    -0.776 OA
ATOM     42  H   UNK d   0       8.684 -13.905 -13.287  0.00  0.00     0.167 HD
ENDBRANCH  39  41
ENDBRANCH  38  39
ENDBRANCH  31  38
BRANCH  27  43
ATOM     43  C   UNK d   0       9.909 -10.017  -9.813  0.00  0.00     0.052 C 
BRANCH  43  44
ATOM     44  C   UNK d   0      10.781 -10.069 -11.025  0.00  0.00     0.115 C 
BRANCH  44  45
ATOM     45  C   UNK d   0      11.312  -8.695 -11.225  0.00  0.00     0.139 C 
ATOM     46  O   UNK d   0      12.140  -8.509 -12.151  0.00  0.00    -0.650 OA
BRANCH  45  47
ATOM     47  O   UNK d   0      10.929  -7.625 -10.445  0.00  0.00    -0.776 OA
ATOM     48  H   UNK d   0      11.194  -7.534  -9.451  0.00  0.00     0.167 HD
ENDBRANCH  45  47
ENDBRANCH  44  45
ENDBRANCH  43  44
ENDBRANCH  27  43
BRANCH  24  49
ATOM     49  C   UNK d   0      12.727  -7.439  -5.805  0.00  0.00     0.052 C 
BRANCH  49  50
ATOM     50  C   UNK d   0      11.821  -6.236  -5.742  0.00  0.00     0.115 C 
BRANCH  50  51
ATOM     51  C   UNK d   0      11.317  -5.717  -7.006  0.00  0.00     0.139 C 
ATOM     52  O   UNK d   0      10.554  -4.724  -7.073  0.00  0.00    -0.650 OA
BRANCH  51  53
ATOM     53  O   UNK d   0      11.681  -6.331  -8.195  0.00  0.00    -0.776 OA
ATOM     54  H   UNK d   0      11.709  -5.772  -9.030  0.00  0.00     0.167 HD
ENDBRANCH  51  53
ENDBRANCH  50  51
ENDBRANCH  49  50
ENDBRANCH  24  49
BRANCH  21  55
ATOM     55  C   UNK d   0      12.146  -7.816  -2.794  0.00  0.00     0.151 C 
BRANCH  55  56
ATOM     56  C   UNK d   0      13.546  -7.941  -2.359  0.00  0.00     0.143 C 
ATOM     57  O   UNK d   0      14.378  -7.022  -2.490  0.00  0.00    -0.650 OA
BRANCH  56  58
ATOM     58  O   UNK d   0      13.940  -9.145  -1.777  0.00  0.00    -0.776 OA
ATOM     59  H   UNK d   0      13.258  -9.919  -1.872  0.00  0.00     0.167 HD
ENDBRANCH  56  58
ENDBRANCH  55  56
ENDBRANCH  21  55
BRANCH  18  60
ATOM     60  C   UNK d   0      11.465 -12.562  -0.381  0.00  0.00     0.151 C 
BRANCH  60  61
ATOM     61  C   UNK d   0      10.556 -12.397   0.764  0.00  0.00     0.143 C 
ATOM     62  O   UNK d   0       9.456 -11.844   0.764  0.00  0.00    -0.650 OA
BRANCH  61  63
ATOM     63  O   UNK d   0      11.020 -12.942   1.985  0.00  0.00    -0.776 OA
ATOM     64  H   UNK d   0      10.395 -13.419   2.610  0.00  0.00     0.167 HD
ENDBRANCH  61  63
ENDBRANCH  60  61
ENDBRANCH  18  60
BRANCH  14  65
ATOM     65  C   UNK d   0      10.098 -15.237  -0.810  0.00  0.00     0.052 C 
BRANCH  65  66
ATOM     66  C   UNK d   0      10.912 -16.377  -1.311  0.00  0.00     0.115 C 
BRANCH  66  67
ATOM     67  C   UNK d   0      12.024 -16.128  -2.184  0.00  0.00     0.139 C 
ATOM     68  O   UNK d   0      11.943 -16.514  -3.408  0.00  0.00    -0.650 OA
BRANCH  67  69
ATOM     69  O   UNK d   0      13.230 -15.499  -1.872  0.00  0.00    -0.776 OA
ATOM     70  H   UNK d   0      13.728 -15.068  -2.664  0.00  0.00     0.167 HD
ENDBRANCH  67  69
ENDBRANCH  66  67
ENDBRANCH  65  66
ENDBRANCH  14  65
ENDBRANCH   6   7
ENDBRANCH   5   6
ENDBRANCH   2   5
TORSDOF 28
ENDMDL
MODEL 16
REMARK VINA RESULT:      -8.2      3.937     10.699
REMARK  28 active torsions:
REMARK  status: ('A' for Active; 'I' for Inactive)
REMARK    1  A    between atoms: C_2  and  O_3 
REMARK    2  A    between atoms: C_2  and  C_4 
REMARK    3  A    between atoms: C_4  and  C_5 
REMARK    4  A    between atoms: C_5  and  C_6 
REMARK    5  A    between atoms: C_7  and  C_8 
REMARK    6  A    between atoms: C_8  and  C_9 
REMARK    7  A    between atoms: C_9  and  O_11 
REMARK    8  A    between atoms: C_28  and  C_29 
REMARK    9  A    between atoms: C_29  and  C_30 
REMARK   10  A    between atoms: C_30  and  O_32 
REMARK   11  A    between atoms: C_33  and  C_34 
REMARK   12  A    between atoms: C_34  and  C_35 
REMARK   13  A    between atoms: C_35  and  C_36 
REMARK   14  A    between atoms: C_36  and  O_38 
REMARK   15  A    between atoms: C_39  and  C_40 
REMARK   16  A    between atoms: C_40  and  C_41 
REMARK   17  A    between atoms: C_41  and  C_42 
REMARK   18  A    between atoms: C_42  and  O_44 
REMARK   19  A    between atoms: C_45  and  C_46 
REMARK   20  A    between atoms: C_46  and  C_47 
REMARK   21  A    between atoms: C_47  and  O_49 
REMARK   22  A    between atoms: C_50  and  C_51 
REMARK   23  A    between atoms: C_51  and  C_52 
REMARK   24  A    between atoms: C_52  and  O_54 
REMARK   25  A    between atoms: C_55  and  C_56 
REMARK   26  A    between atoms: C_56  and  C_57 
REMARK   27  A    between atoms: C_57  and  C_58 
REMARK   28  A    between atoms: C_58  and  O_60 
ROOT
ATOM      1  O   UNK d   0      10.604  -9.609  -3.365  0.00  0.00    -0.650 OA
ATOM      2  C   UNK d   0      11.014 -10.492  -4.150  0.00  0.00     0.139 C 
ENDROOT
BRANCH   2   3
ATOM      3  O   UNK d   0      12.100 -10.230  -4.950  0.00  0.00    -0.776 OA
ATOM      4  H   UNK d   0      12.545 -10.972  -5.494  0.00  0.00     0.167 HD
ENDBRANCH   2   3
BRANCH   2   5
ATOM      5  C   UNK d   0      10.329 -11.814  -4.213  0.00  0.00     0.115 C 
BRANCH   5   6
ATOM      6  C   UNK d   0      11.216 -12.825  -4.887  0.00  0.00     0.052 C 
BRANCH   6   7
ATOM      7  C   UNK d   0      10.501 -14.123  -5.178  0.00  0.00    -0.020 A 
ATOM      8  C   UNK d   0      10.493 -15.211  -4.450  0.00  0.00    -0.011 A 
ATOM      9  C   UNK d   0       9.678 -16.199  -5.136  0.00  0.00     0.067 A 
ATOM     10  C   UNK d   0       9.262 -17.517  -4.888  0.00  0.00     0.062 C 
ATOM     11  N   UNK d   0       9.233 -15.630  -6.276  0.00  0.00    -0.248 NA
ATOM     12  C   UNK d   0       8.241 -18.219  -5.537  0.00  0.00     0.041 A 
ATOM     13  N   UNK d   0       7.910 -18.301  -6.840  0.00  0.00    -0.355 N 
ATOM     14  C   UNK d   0       7.321 -18.951  -4.764  0.00  0.00    -0.022 A 
ATOM     15  C   UNK d   0       6.800 -19.059  -6.913  0.00  0.00     0.042 A 
ATOM     16  H   UNK d   0       8.462 -17.848  -7.693  0.00  0.00     0.166 HD
ATOM     17  C   UNK d   0       6.040 -19.460  -8.029  0.00  0.00     0.062 C 
ATOM     18  C   UNK d   0       6.400 -19.484  -5.631  0.00  0.00    -0.013 A 
ATOM     19  C   UNK d   0       5.623 -18.714  -9.102  0.00  0.00     0.067 A 
ATOM     20  N   UNK d   0       6.153 -17.496  -9.234  0.00  0.00    -0.248 NA
ATOM     21  C   UNK d   0       4.688 -18.895 -10.200  0.00  0.00    -0.011 A 
ATOM     22  C   UNK d   0       5.632 -16.866 -10.338  0.00  0.00     0.066 A 
ATOM     23  C   UNK d   0       6.127 -15.600 -10.616  0.00  0.00     0.062 C 
ATOM     24  C   UNK d   0       4.695 -17.808 -10.917  0.00  0.00    -0.020 A 
ATOM     25  C   UNK d   0       7.163 -14.918  -9.960  0.00  0.00     0.041 A 
ATOM     26  N   UNK d   0       7.482 -14.824  -8.663  0.00  0.00    -0.355 N 
ATOM     27  C   UNK d   0       8.088 -14.188 -10.736  0.00  0.00    -0.022 A 
ATOM     28  C   UNK d   0       8.584 -14.062  -8.587  0.00  0.00     0.042 A 
ATOM     29  H   UNK d   0       6.920 -15.271  -7.806  0.00  0.00     0.166 HD
ATOM     30  C   UNK d   0       9.345 -13.647  -7.483  0.00  0.00     0.062 C 
ATOM     31  C   UNK d   0       8.992 -13.643  -9.876  0.00  0.00    -0.013 A 
ATOM     32  C   UNK d   0       9.692 -14.381  -6.360  0.00  0.00     0.066 A 
BRANCH   8  33
ATOM     33  C   UNK d   0      11.185 -15.421  -3.165  0.00  0.00     0.151 C 
BRANCH  33  34
ATOM     34  C   UNK d   0      12.440 -16.181  -3.310  0.00  0.00     0.143 C 
ATOM     35  O   UNK d   0      12.428 -17.416  -3.408  0.00  0.00    -0.650 OA
BRANCH  34  36
ATOM     36  O   UNK d   0      13.639 -15.507  -3.335  0.00  0.00    -0.776 OA
ATOM     37  H   UNK d   0      14.044 -15.105  -2.479  0.00  0.00     0.167 HD
ENDBRANCH  34  36
ENDBRANCH  33  34
ENDBRANCH   8  33
BRANCH  31  38
ATOM     38  C   UNK d   0      10.179 -12.788 -10.254  0.00  0.00     0.151 C 
BRANCH  38  39
ATOM     39  C   UNK d   0       9.836 -11.391 -10.413  0.00  0.00     0.143 C 
ATOM     40  O   UNK d   0      10.473 -10.631 -11.164  0.00  0.00    -0.650 OA
BRANCH  39  41
ATOM     41  O   UNK d   0       8.755 -10.864  -9.707  0.00  0.00    -0.776 OA
ATOM     42  H   UNK d   0       8.315 -10.025 -10.096  0.00  0.00     0.167 HD
ENDBRANCH  39  41
ENDBRANCH  38  39
ENDBRANCH  31  38
BRANCH  27  43
ATOM     43  C   UNK d   0       8.142 -13.992 -12.231  0.00  0.00     0.052 C 
BRANCH  43  44
ATOM     44  C   UNK d   0       6.804 -14.096 -12.889  0.00  0.00     0.115 C 
BRANCH  44  45
ATOM     45  C   UNK d   0       6.981 -14.975 -14.074  0.00  0.00     0.139 C 
ATOM     46  O   UNK d   0       7.566 -14.501 -15.079  0.00  0.00    -0.650 OA
BRANCH  45  47
ATOM     47  O   UNK d   0       6.537 -16.279 -14.111  0.00  0.00    -0.776 OA
ATOM     48  H   UNK d   0       6.519 -16.889 -13.277  0.00  0.00     0.167 HD
ENDBRANCH  45  47
ENDBRANCH  44  45
ENDBRANCH  43  44
ENDBRANCH  27  43
BRANCH  24  49
ATOM     49  C   UNK d   0       3.921 -17.575 -12.149  0.00  0.00     0.052 C 
BRANCH  49  50
ATOM     50  C   UNK d   0       2.755 -16.662 -11.871  0.00  0.00     0.115 C 
BRANCH  50  51
ATOM     51  C   UNK d   0       1.673 -17.194 -11.055  0.00  0.00     0.139 C 
ATOM     52  O   UNK d   0       1.330 -16.677  -9.965  0.00  0.00    -0.650 OA
BRANCH  51  53
ATOM     53  O   UNK d   0       0.982 -18.319 -11.479  0.00  0.00    -0.776 OA
ATOM     54  H   UNK d   0       0.158 -18.590 -10.973  0.00  0.00     0.167 HD
ENDBRANCH  51  53
ENDBRANCH  50  51
ENDBRANCH  49  50
ENDBRANCH  24  49
BRANCH  21  55
ATOM     55  C   UNK d   0       3.888 -20.136 -10.420  0.00  0.00     0.151 C 
BRANCH  55  56
ATOM     56  C   UNK d   0       3.070 -20.480  -9.247  0.00  0.00     0.143 C 
ATOM     57  O   UNK d   0       3.251 -21.517  -8.579  0.00  0.00    -0.650 OA
BRANCH  56  58
ATOM     58  O   UNK d   0       2.053 -19.598  -8.884  0.00  0.00    -0.776 OA
ATOM     59  H   UNK d   0       1.103 -20.010  -8.868  0.00  0.00     0.167 HD
ENDBRANCH  56  58
ENDBRANCH  55  56
ENDBRANCH  21  55
BRANCH  18  60
ATOM     60  C   UNK d   0       5.224 -20.339  -5.226  0.00  0.00     0.151 C 
BRANCH  60  61
ATOM     61  C   UNK d   0       4.198 -19.406  -4.735  0.00  0.00     0.143 C 
ATOM     62  O   UNK d   0       3.547 -19.499  -3.694  0.00  0.00    -0.650 OA
BRANCH  61  63
ATOM     63  O   UNK d   0       3.950 -18.289  -5.569  0.00  0.00    -0.776 OA
ATOM     64  H   UNK d   0       3.649 -18.409  -6.520  0.00  0.00     0.167 HD
ENDBRANCH  61  63
ENDBRANCH  60  61
ENDBRANCH  18  60
BRANCH  14  65
ATOM     65  C   UNK d   0       7.302 -19.261  -3.294  0.00  0.00     0.052 C 
BRANCH  65  66
ATOM     66  C   UNK d   0       8.633 -19.099  -2.649  0.00  0.00     0.115 C 
BRANCH  66  67
ATOM     67  C   UNK d   0       8.741 -18.377  -1.413  0.00  0.00     0.139 C 
ATOM     68  O   UNK d   0       9.809 -17.695  -1.193  0.00  0.00    -0.650 OA
BRANCH  67  69
ATOM     69  O   UNK d   0       7.809 -18.313  -0.378  0.00  0.00    -0.776 OA
ATOM     70  H   UNK d   0       6.909 -17.869  -0.612  0.00  0.00     0.167 HD
ENDBRANCH  67  69
ENDBRANCH  66  67
ENDBRANCH  65  66
ENDBRANCH  14  65
ENDBRANCH   6   7
ENDBRANCH   5   6
ENDBRANCH   2   5
TORSDOF 28
ENDMDL
MODEL 17
REMARK VINA RESULT:      -8.0      1.696      8.381
REMARK  28 active torsions:
REMARK  status: ('A' for Active; 'I' for Inactive)
REMARK    1  A    between atoms: C_2  and  O_3 
REMARK    2  A    between atoms: C_2  and  C_4 
REMARK    3  A    between atoms: C_4  and  C_5 
REMARK    4  A    between atoms: C_5  and  C_6 
REMARK    5  A    between atoms: C_7  and  C_8 
REMARK    6  A    between atoms: C_8  and  C_9 
REMARK    7  A    between atoms: C_9  and  O_11 
REMARK    8  A    between atoms: C_28  and  C_29 
REMARK    9  A    between atoms: C_29  and  C_30 
REMARK   10  A    between atoms: C_30  and  O_32 
REMARK   11  A    between atoms: C_33  and  C_34 
REMARK   12  A    between atoms: C_34  and  C_35 
REMARK   13  A    between atoms: C_35  and  C_36 
REMARK   14  A    between atoms: C_36  and  O_38 
REMARK   15  A    between atoms: C_39  and  C_40 
REMARK   16  A    between atoms: C_40  and  C_41 
REMARK   17  A    between atoms: C_41  and  C_42 
REMARK   18  A    between atoms: C_42  and  O_44 
REMARK   19  A    between atoms: C_45  and  C_46 
REMARK   20  A    between atoms: C_46  and  C_47 
REMARK   21  A    between atoms: C_47  and  O_49 
REMARK   22  A    between atoms: C_50  and  C_51 
REMARK   23  A    between atoms: C_51  and  C_52 
REMARK   24  A    between atoms: C_52  and  O_54 
REMARK   25  A    between atoms: C_55  and  C_56 
REMARK   26  A    between atoms: C_56  and  C_57 
REMARK   27  A    between atoms: C_57  and  C_58 
REMARK   28  A    between atoms: C_58  and  O_60 
ROOT
ATOM      1  O   UNK d   0      11.408 -19.520  -7.324  0.00  0.00    -0.650 OA
ATOM      2  C   UNK d   0      10.368 -19.331  -6.654  0.00  0.00     0.139 C 
ENDROOT
BRANCH   2   3
ATOM      3  O   UNK d   0       9.238 -20.056  -6.947  0.00  0.00    -0.776 OA
ATOM      4  H   UNK d   0       9.300 -21.029  -7.253  0.00  0.00     0.167 HD
ENDBRANCH   2   3
BRANCH   2   5
ATOM      5  C   UNK d   0      10.359 -18.328  -5.552  0.00  0.00     0.115 C 
BRANCH   5   6
ATOM      6  C   UNK d   0       9.238 -17.346  -5.754  0.00  0.00     0.052 C 
BRANCH   6   7
ATOM      7  C   UNK d   0       9.427 -16.076  -4.960  0.00  0.00    -0.020 A 
ATOM      8  C   UNK d   0       9.253 -15.904  -3.675  0.00  0.00    -0.011 A 
ATOM      9  C   UNK d   0       9.546 -14.514  -3.367  0.00  0.00     0.067 A 
ATOM     10  C   UNK d   0       9.571 -13.716  -2.213  0.00  0.00     0.062 C 
ATOM     11  N   UNK d   0       9.885 -13.911  -4.526  0.00  0.00    -0.248 NA
ATOM     12  C   UNK d   0      10.152 -12.452  -2.070  0.00  0.00     0.041 A 
ATOM     13  N   UNK d   0      10.145 -11.376  -2.881  0.00  0.00    -0.355 N 
ATOM     14  C   UNK d   0      10.942 -12.190  -0.936  0.00  0.00    -0.022 A 
ATOM     15  C   UNK d   0      10.918 -10.442  -2.294  0.00  0.00     0.042 A 
ATOM     16  H   UNK d   0       9.590 -11.272  -3.839  0.00  0.00     0.166 HD
ATOM     17  C   UNK d   0      11.249  -9.137  -2.711  0.00  0.00     0.062 C 
ATOM     18  C   UNK d   0      11.435 -10.916  -1.073  0.00  0.00    -0.013 A 
ATOM     19  C   UNK d   0      11.632  -8.700  -3.953  0.00  0.00     0.067 A 
ATOM     20  N   UNK d   0      11.495  -9.560  -4.966  0.00  0.00    -0.248 NA
ATOM     21  C   UNK d   0      12.198  -7.480  -4.502  0.00  0.00    -0.011 A 
ATOM     22  C   UNK d   0      11.932  -8.991  -6.137  0.00  0.00     0.066 A 
ATOM     23  C   UNK d   0      11.810  -9.765  -7.281  0.00  0.00     0.062 C 
ATOM     24  C   UNK d   0      12.375  -7.657  -5.780  0.00  0.00    -0.020 A 
ATOM     25  C   UNK d   0      11.212 -11.028  -7.406  0.00  0.00     0.041 A 
ATOM     26  N   UNK d   0      11.231 -12.102  -6.608  0.00  0.00    -0.355 N 
ATOM     27  C   UNK d   0      10.415 -11.288  -8.542  0.00  0.00    -0.022 A 
ATOM     28  C   UNK d   0      10.468 -13.038  -7.195  0.00  0.00     0.042 A 
ATOM     29  H   UNK d   0      11.798 -12.209  -5.650  0.00  0.00     0.166 HD
ATOM     30  C   UNK d   0      10.138 -14.343  -6.796  0.00  0.00     0.062 C 
ATOM     31  C   UNK d   0       9.940 -12.557  -8.416  0.00  0.00    -0.013 A 
ATOM     32  C   UNK d   0       9.833 -14.796  -5.522  0.00  0.00     0.066 A 
BRANCH   8  33
ATOM     33  C   UNK d   0       8.830 -16.923  -2.696  0.00  0.00     0.151 C 
BRANCH  33  34
ATOM     34  C   UNK d   0       9.956 -17.462  -1.911  0.00  0.00     0.143 C 
ATOM     35  O   UNK d   0      11.100 -17.006  -2.044  0.00  0.00    -0.650 OA
BRANCH  34  36
ATOM     36  O   UNK d   0       9.729 -18.486  -1.021  0.00  0.00    -0.776 OA
ATOM     37  H   UNK d   0       8.994 -18.418  -0.304  0.00  0.00     0.167 HD
ENDBRANCH  34  36
ENDBRANCH  33  34
ENDBRANCH   8  33
BRANCH  31  38
ATOM     38  C   UNK d   0       9.028 -13.269  -9.389  0.00  0.00     0.151 C 
BRANCH  38  39
ATOM     39  C   UNK d   0       8.069 -14.131  -8.732  0.00  0.00     0.143 C 
ATOM     40  O   UNK d   0       7.220 -13.695  -7.934  0.00  0.00    -0.650 OA
BRANCH  39  41
ATOM     41  O   UNK d   0       8.085 -15.500  -8.994  0.00  0.00    -0.776 OA
ATOM     42  H   UNK d   0       8.665 -16.081  -8.381  0.00  0.00     0.167 HD
ENDBRANCH  39  41
ENDBRANCH  38  39
ENDBRANCH  31  38
BRANCH  27  43
ATOM     43  C   UNK d   0      10.098 -10.395  -9.716  0.00  0.00     0.052 C 
BRANCH  43  44
ATOM     44  C   UNK d   0      10.791 -10.806 -10.975  0.00  0.00     0.115 C 
BRANCH  44  45
ATOM     45  C   UNK d   0      11.784  -9.743 -11.279  0.00  0.00     0.139 C 
ATOM     46  O   UNK d   0      11.355  -8.607 -11.601  0.00  0.00    -0.650 OA
BRANCH  45  47
ATOM     47  O   UNK d   0      13.145  -9.952 -11.217  0.00  0.00    -0.776 OA
ATOM     48  H   UNK d   0      13.621 -10.293 -10.366  0.00  0.00     0.167 HD
ENDBRANCH  45  47
ENDBRANCH  44  45
ENDBRANCH  43  44
ENDBRANCH  27  43
BRANCH  24  49
ATOM     49  C   UNK d   0      12.892  -6.660  -6.732  0.00  0.00     0.052 C 
BRANCH  49  50
ATOM     50  C   UNK d   0      11.770  -5.791  -7.241  0.00  0.00     0.115 C 
BRANCH  50  51
ATOM     51  C   UNK d   0      11.407  -5.929  -8.645  0.00  0.00     0.139 C 
ATOM     52  O   UNK d   0      11.039  -4.958  -9.348  0.00  0.00    -0.650 OA
BRANCH  51  53
ATOM     53  O   UNK d   0      11.461  -7.176  -9.248  0.00  0.00    -0.776 OA
ATOM     54  H   UNK d   0      10.708  -7.443  -9.858  0.00  0.00     0.167 HD
ENDBRANCH  51  53
ENDBRANCH  50  51
ENDBRANCH  49  50
ENDBRANCH  24  49
BRANCH  21  55
ATOM     55  C   UNK d   0      12.499  -6.261  -3.694  0.00  0.00     0.151 C 
BRANCH  55  56
ATOM     56  C   UNK d   0      13.837  -6.320  -3.085  0.00  0.00     0.143 C 
ATOM     57  O   UNK d   0      14.146  -7.155  -2.213  0.00  0.00    -0.650 OA
BRANCH  56  58
ATOM     58  O   UNK d   0      14.787  -5.394  -3.515  0.00  0.00    -0.776 OA
ATOM     59  H   UNK d   0      15.746  -5.557  -3.160  0.00  0.00     0.167 HD
ENDBRANCH  56  58
ENDBRANCH  55  56
ENDBRANCH  21  55
BRANCH  18  60
ATOM     60  C   UNK d   0      12.342 -10.229  -0.082  0.00  0.00     0.151 C 
BRANCH  60  61
ATOM     61  C   UNK d   0      13.685 -10.249  -0.683  0.00  0.00     0.143 C 
ATOM     62  O   UNK d   0      14.090 -11.003  -1.569  0.00  0.00    -0.650 OA
BRANCH  61  63
ATOM     63  O   UNK d   0      14.589  -9.289  -0.170  0.00  0.00    -0.776 OA
ATOM     64  H   UNK d   0      15.542  -9.253  -0.485  0.00  0.00     0.167 HD
ENDBRANCH  61  63
ENDBRANCH  60  61
ENDBRANCH  18  60
BRANCH  14  65
ATOM     65  C   UNK d   0      11.185 -13.008   0.300  0.00  0.00     0.052 C 
BRANCH  65  66
ATOM     66  C   UNK d   0      10.165 -12.779   1.359  0.00  0.00     0.115 C 
BRANCH  66  67
ATOM     67  C   UNK d   0      10.566 -12.735   2.737  0.00  0.00     0.139 C 
ATOM     68  O   UNK d   0      11.795 -12.474   3.010  0.00  0.00    -0.650 OA
BRANCH  67  69
ATOM     69  O   UNK d   0       9.773 -12.947   3.864  0.00  0.00    -0.776 OA
ATOM     70  H   UNK d   0      10.270 -13.262   4.709  0.00  0.00     0.167 HD
ENDBRANCH  67  69
ENDBRANCH  66  67
ENDBRANCH  65  66
ENDBRANCH  14  65
ENDBRANCH   6   7
ENDBRANCH   5   6
ENDBRANCH   2   5
TORSDOF 28
ENDMDL
MODEL 18
REMARK VINA RESULT:      -7.8      2.486      8.271
REMARK  28 active torsions:
REMARK  status: ('A' for Active; 'I' for Inactive)
REMARK    1  A    between atoms: C_2  and  O_3 
REMARK    2  A    between atoms: C_2  and  C_4 
REMARK    3  A    between atoms: C_4  and  C_5 
REMARK    4  A    between atoms: C_5  and  C_6 
REMARK    5  A    between atoms: C_7  and  C_8 
REMARK    6  A    between atoms: C_8  and  C_9 
REMARK    7  A    between atoms: C_9  and  O_11 
REMARK    8  A    between atoms: C_28  and  C_29 
REMARK    9  A    between atoms: C_29  and  C_30 
REMARK   10  A    between atoms: C_30  and  O_32 
REMARK   11  A    between atoms: C_33  and  C_34 
REMARK   12  A    between atoms: C_34  and  C_35 
REMARK   13  A    between atoms: C_35  and  C_36 
REMARK   14  A    between atoms: C_36  and  O_38 
REMARK   15  A    between atoms: C_39  and  C_40 
REMARK   16  A    between atoms: C_40  and  C_41 
REMARK   17  A    between atoms: C_41  and  C_42 
REMARK   18  A    between atoms: C_42  and  O_44 
REMARK   19  A    between atoms: C_45  and  C_46 
REMARK   20  A    between atoms: C_46  and  C_47 
REMARK   21  A    between atoms: C_47  and  O_49 
REMARK   22  A    between atoms: C_50  and  C_51 
REMARK   23  A    between atoms: C_51  and  C_52 
REMARK   24  A    between atoms: C_52  and  O_54 
REMARK   25  A    between atoms: C_55  and  C_56 
REMARK   26  A    between atoms: C_56  and  C_57 
REMARK   27  A    between atoms: C_57  and  C_58 
REMARK   28  A    between atoms: C_58  and  O_60 
ROOT
ATOM      1  O   UNK d   0       7.137 -18.432  -0.122  0.00  0.00    -0.650 OA
ATOM      2  C   UNK d   0       8.058 -17.653  -0.452  0.00  0.00     0.139 C 
ENDROOT
BRANCH   2   3
ATOM      3  O   UNK d   0       8.160 -16.430   0.167  0.00  0.00    -0.776 OA
ATOM      4  H   UNK d   0       8.876 -16.256   0.875  0.00  0.00     0.167 HD
ENDBRANCH   2   3
BRANCH   2   5
ATOM      5  C   UNK d   0       9.033 -18.051  -1.507  0.00  0.00     0.115 C 
BRANCH   5   6
ATOM      6  C   UNK d   0       8.309 -18.665  -2.675  0.00  0.00     0.052 C 
BRANCH   6   7
ATOM      7  C   UNK d   0       8.485 -17.873  -3.949  0.00  0.00    -0.020 A 
ATOM      8  C   UNK d   0       8.118 -18.214  -5.158  0.00  0.00    -0.011 A 
ATOM      9  C   UNK d   0       8.504 -17.142  -6.059  0.00  0.00     0.067 A 
ATOM     10  C   UNK d   0       8.385 -16.882  -7.434  0.00  0.00     0.062 C 
ATOM     11  N   UNK d   0       9.106 -16.190  -5.315  0.00  0.00    -0.248 NA
ATOM     12  C   UNK d   0       8.572 -15.658  -8.084  0.00  0.00     0.041 A 
ATOM     13  N   UNK d   0       9.514 -14.707  -7.930  0.00  0.00    -0.355 N 
ATOM     14  C   UNK d   0       7.629 -15.245  -9.043  0.00  0.00    -0.022 A 
ATOM     15  C   UNK d   0       9.188 -13.699  -8.760  0.00  0.00     0.042 A 
ATOM     16  H   UNK d   0      10.402 -14.757  -7.261  0.00  0.00     0.166 HD
ATOM     17  C   UNK d   0       9.830 -12.467  -8.997  0.00  0.00     0.062 C 
ATOM     18  C   UNK d   0       8.012 -13.999  -9.475  0.00  0.00    -0.013 A 
ATOM     19  C   UNK d   0      10.350 -11.577  -8.091  0.00  0.00     0.067 A 
ATOM     20  N   UNK d   0      10.453 -11.993  -6.826  0.00  0.00    -0.248 NA
ATOM     21  C   UNK d   0      10.839 -10.209  -8.133  0.00  0.00    -0.011 A 
ATOM     22  C   UNK d   0      10.972 -10.995  -6.038  0.00  0.00     0.066 A 
ATOM     23  C   UNK d   0      11.169 -11.306  -4.700  0.00  0.00     0.062 C 
ATOM     24  C   UNK d   0      11.198  -9.874  -6.928  0.00  0.00    -0.020 A 
ATOM     25  C   UNK d   0      10.986 -12.547  -4.069  0.00  0.00     0.041 A 
ATOM     26  N   UNK d   0      10.042 -13.485  -4.212  0.00  0.00    -0.355 N 
ATOM     27  C   UNK d   0      11.935 -12.962  -3.110  0.00  0.00    -0.022 A 
ATOM     28  C   UNK d   0      10.360 -14.488  -3.378  0.00  0.00     0.042 A 
ATOM     29  H   UNK d   0       9.145 -13.429  -4.876  0.00  0.00     0.166 HD
ATOM     30  C   UNK d   0       9.725 -15.714  -3.126  0.00  0.00     0.062 C 
ATOM     31  C   UNK d   0      11.547 -14.190  -2.668  0.00  0.00    -0.013 A 
ATOM     32  C   UNK d   0       9.126 -16.570  -4.037  0.00  0.00     0.066 A 
BRANCH   8  33
ATOM     33  C   UNK d   0       7.438 -19.460  -5.557  0.00  0.00     0.151 C 
BRANCH  33  34
ATOM     34  C   UNK d   0       5.984 -19.288  -5.728  0.00  0.00     0.143 C 
ATOM     35  O   UNK d   0       5.298 -20.168  -6.266  0.00  0.00    -0.650 OA
BRANCH  34  36
ATOM     36  O   UNK d   0       5.385 -18.132  -5.284  0.00  0.00    -0.776 OA
ATOM     37  H   UNK d   0       5.304 -17.305  -5.891  0.00  0.00     0.167 HD
ENDBRANCH  34  36
ENDBRANCH  33  34
ENDBRANCH   8  33
BRANCH  31  38
ATOM     38  C   UNK d   0      12.265 -15.036  -1.644  0.00  0.00     0.151 C 
BRANCH  38  39
ATOM     39  C   UNK d   0      12.623 -16.345  -2.148  0.00  0.00     0.143 C 
ATOM     40  O   UNK d   0      13.020 -16.524  -3.313  0.00  0.00    -0.650 OA
BRANCH  39  41
ATOM     41  O   UNK d   0      12.526 -17.454  -1.309  0.00  0.00    -0.776 OA
ATOM     42  H   UNK d   0      12.835 -17.328  -0.340  0.00  0.00     0.167 HD
ENDBRANCH  39  41
ENDBRANCH  38  39
ENDBRANCH  31  38
BRANCH  27  43
ATOM     43  C   UNK d   0      13.167 -12.250  -2.610  0.00  0.00     0.052 C 
BRANCH  43  44
ATOM     44  C   UNK d   0      12.892 -11.324  -1.469  0.00  0.00     0.115 C 
BRANCH  44  45
ATOM     45  C   UNK d   0      13.952 -10.284  -1.502  0.00  0.00     0.139 C 
ATOM     46  O   UNK d   0      13.716  -9.217  -2.123  0.00  0.00    -0.650 OA
BRANCH  45  47
ATOM     47  O   UNK d   0      15.172 -10.439  -0.879  0.00  0.00    -0.776 OA
ATOM     48  H   UNK d   0      15.263 -10.722   0.110  0.00  0.00     0.167 HD
ENDBRANCH  45  47
ENDBRANCH  44  45
ENDBRANCH  43  44
ENDBRANCH  27  43
BRANCH  24  49
ATOM     49  C   UNK d   0      11.787  -8.585  -6.524  0.00  0.00     0.052 C 
BRANCH  49  50
ATOM     50  C   UNK d   0      10.805  -7.795  -5.698  0.00  0.00     0.115 C 
BRANCH  50  51
ATOM     51  C   UNK d   0      11.262  -6.521  -5.160  0.00  0.00     0.139 C 
ATOM     52  O   UNK d   0      12.475  -6.211  -5.095  0.00  0.00    -0.650 OA
BRANCH  51  53
ATOM     53  O   UNK d   0      10.336  -5.601  -4.693  0.00  0.00    -0.776 OA
ATOM     54  H   UNK d   0       9.840  -5.814  -3.845  0.00  0.00     0.167 HD
ENDBRANCH  51  53
ENDBRANCH  50  51
ENDBRANCH  49  50
ENDBRANCH  24  49
BRANCH  21  55
ATOM     55  C   UNK d   0      10.901  -9.383  -9.374  0.00  0.00     0.151 C 
BRANCH  55  56
ATOM     56  C   UNK d   0      11.905  -9.888 -10.324  0.00  0.00     0.143 C 
ATOM     57  O   UNK d   0      12.588 -10.907 -10.105  0.00  0.00    -0.650 OA
BRANCH  56  58
ATOM     58  O   UNK d   0      12.085  -9.183 -11.513  0.00  0.00    -0.776 OA
ATOM     59  H   UNK d   0      13.051  -9.200 -11.887  0.00  0.00     0.167 HD
ENDBRANCH  56  58
ENDBRANCH  55  56
ENDBRANCH  21  55
BRANCH  18  60
ATOM     60  C   UNK d   0       7.276 -13.177 -10.503  0.00  0.00     0.151 C 
BRANCH  60  61
ATOM     61  C   UNK d   0       7.692 -13.701 -11.812  0.00  0.00     0.143 C 
ATOM     62  O   UNK d   0       8.835 -13.735 -12.269  0.00  0.00    -0.650 OA
BRANCH  61  63
ATOM     63  O   UNK d   0       6.646 -14.217 -12.615  0.00  0.00    -0.776 OA
ATOM     64  H   UNK d   0       5.730 -13.804 -12.601  0.00  0.00     0.167 HD
ENDBRANCH  61  63
ENDBRANCH  60  61
ENDBRANCH  18  60
BRANCH  14  65
ATOM     65  C   UNK d   0       6.462 -15.972  -9.647  0.00  0.00     0.052 C 
BRANCH  65  66
ATOM     66  C   UNK d   0       5.454 -16.393  -8.638  0.00  0.00     0.115 C 
BRANCH  66  67
ATOM     67  C   UNK d   0       4.840 -17.687  -8.742  0.00  0.00     0.139 C 
ATOM     68  O   UNK d   0       3.586 -17.795  -8.478  0.00  0.00    -0.650 OA
BRANCH  67  69
ATOM     69  O   UNK d   0       5.443 -18.891  -9.105  0.00  0.00    -0.776 OA
ATOM     70  H   UNK d   0       5.129 -19.724  -8.585  0.00  0.00     0.167 HD
ENDBRANCH  67  69
ENDBRANCH  66  67
ENDBRANCH  65  66
ENDBRANCH  14  65
ENDBRANCH   6   7
ENDBRANCH   5   6
ENDBRANCH   2   5
TORSDOF 28
ENDMDL
MODEL 19
REMARK VINA RESULT:      -7.7      4.375     11.000
REMARK  28 active torsions:
REMARK  status: ('A' for Active; 'I' for Inactive)
REMARK    1  A    between atoms: C_2  and  O_3 
REMARK    2  A    between atoms: C_2  and  C_4 
REMARK    3  A    between atoms: C_4  and  C_5 
REMARK    4  A    between atoms: C_5  and  C_6 
REMARK    5  A    between atoms: C_7  and  C_8 
REMARK    6  A    between atoms: C_8  and  C_9 
REMARK    7  A    between atoms: C_9  and  O_11 
REMARK    8  A    between atoms: C_28  and  C_29 
REMARK    9  A    between atoms: C_29  and  C_30 
REMARK   10  A    between atoms: C_30  and  O_32 
REMARK   11  A    between atoms: C_33  and  C_34 
REMARK   12  A    between atoms: C_34  and  C_35 
REMARK   13  A    between atoms: C_35  and  C_36 
REMARK   14  A    between atoms: C_36  and  O_38 
REMARK   15  A    between atoms: C_39  and  C_40 
REMARK   16  A    between atoms: C_40  and  C_41 
REMARK   17  A    between atoms: C_41  and  C_42 
REMARK   18  A    between atoms: C_42  and  O_44 
REMARK   19  A    between atoms: C_45  and  C_46 
REMARK   20  A    between atoms: C_46  and  C_47 
REMARK   21  A    between atoms: C_47  and  O_49 
REMARK   22  A    between atoms: C_50  and  C_51 
REMARK   23  A    between atoms: C_51  and  C_52 
REMARK   24  A    between atoms: C_52  and  O_54 
REMARK   25  A    between atoms: C_55  and  C_56 
REMARK   26  A    between atoms: C_56  and  C_57 
REMARK   27  A    between atoms: C_57  and  C_58 
REMARK   28  A    between atoms: C_58  and  O_60 
ROOT
ATOM      1  O   UNK d   0      11.332 -10.351  -6.087  0.00  0.00    -0.650 OA
ATOM      2  C   UNK d   0      10.992 -10.733  -4.945  0.00  0.00     0.139 C 
ENDROOT
BRANCH   2   3
ATOM      3  O   UNK d   0      11.375 -10.001  -3.847  0.00  0.00    -0.776 OA
ATOM      4  H   UNK d   0      10.684  -9.645  -3.183  0.00  0.00     0.167 HD
ENDBRANCH   2   3
BRANCH   2   5
ATOM      5  C   UNK d   0      10.179 -11.972  -4.782  0.00  0.00     0.115 C 
BRANCH   5   6
ATOM      6  C   UNK d   0      11.042 -13.187  -4.986  0.00  0.00     0.052 C 
BRANCH   6   7
ATOM      7  C   UNK d   0      10.239 -14.416  -5.342  0.00  0.00    -0.020 A 
ATOM      8  C   UNK d   0      10.130 -15.525  -4.656  0.00  0.00    -0.011 A 
ATOM      9  C   UNK d   0       9.261 -16.424  -5.397  0.00  0.00     0.067 A 
ATOM     10  C   UNK d   0       8.742 -17.714  -5.209  0.00  0.00     0.062 C 
ATOM     11  N   UNK d   0       8.892 -15.783  -6.526  0.00  0.00    -0.248 NA
ATOM     12  C   UNK d   0       7.688 -18.313  -5.907  0.00  0.00     0.041 A 
ATOM     13  N   UNK d   0       7.388 -18.324  -7.220  0.00  0.00    -0.355 N 
ATOM     14  C   UNK d   0       6.695 -18.999  -5.185  0.00  0.00    -0.022 A 
ATOM     15  C   UNK d   0       6.226 -18.992  -7.348  0.00  0.00     0.042 A 
ATOM     16  H   UNK d   0       7.995 -17.885  -8.042  0.00  0.00     0.166 HD
ATOM     17  C   UNK d   0       5.468 -19.295  -8.497  0.00  0.00     0.062 C 
ATOM     18  C   UNK d   0       5.760 -19.430  -6.093  0.00  0.00    -0.013 A 
ATOM     19  C   UNK d   0       5.137 -18.482  -9.551  0.00  0.00     0.067 A 
ATOM     20  N   UNK d   0       5.762 -17.304  -9.625  0.00  0.00    -0.248 NA
ATOM     21  C   UNK d   0       4.221 -18.552 -10.677  0.00  0.00    -0.011 A 
ATOM     22  C   UNK d   0       5.319 -16.598 -10.717  0.00  0.00     0.066 A 
ATOM     23  C   UNK d   0       5.915 -15.365 -10.936  0.00  0.00     0.062 C 
ATOM     24  C   UNK d   0       4.330 -17.445 -11.353  0.00  0.00    -0.020 A 
ATOM     25  C   UNK d   0       6.981 -14.786 -10.230  0.00  0.00     0.041 A 
ATOM     26  N   UNK d   0       7.272 -14.763  -8.924  0.00  0.00    -0.355 N 
ATOM     27  C   UNK d   0       7.980 -14.102 -10.957  0.00  0.00    -0.022 A 
ATOM     28  C   UNK d   0       8.426 -14.089  -8.793  0.00  0.00     0.042 A 
ATOM     29  H   UNK d   0       6.655 -15.195  -8.098  0.00  0.00     0.166 HD
ATOM     30  C   UNK d   0       9.185 -13.773  -7.656  0.00  0.00     0.062 C 
ATOM     31  C   UNK d   0       8.898 -13.658 -10.055  0.00  0.00    -0.013 A 
ATOM     32  C   UNK d   0       9.446 -14.570  -6.552  0.00  0.00     0.066 A 
BRANCH   8  33
ATOM     33  C   UNK d   0      10.770 -15.832  -3.363  0.00  0.00     0.151 C 
BRANCH  33  34
ATOM     34  C   UNK d   0      12.158 -16.304  -3.511  0.00  0.00     0.143 C 
ATOM     35  O   UNK d   0      13.113 -15.523  -3.384  0.00  0.00    -0.650 OA
BRANCH  34  36
ATOM     36  O   UNK d   0      12.395 -17.629  -3.794  0.00  0.00    -0.776 OA
ATOM     37  H   UNK d   0      11.621 -18.302  -3.883  0.00  0.00     0.167 HD
ENDBRANCH  34  36
ENDBRANCH  33  34
ENDBRANCH   8  33
BRANCH  31  38
ATOM     38  C   UNK d   0      10.156 -12.883 -10.372  0.00  0.00     0.151 C 
BRANCH  38  39
ATOM     39  C   UNK d   0       9.936 -11.453 -10.422  0.00  0.00     0.143 C 
ATOM     40  O   UNK d   0      10.688 -10.687 -11.049  0.00  0.00    -0.650 OA
BRANCH  39  41
ATOM     41  O   UNK d   0       8.847 -10.902  -9.749  0.00  0.00    -0.776 OA
ATOM     42  H   UNK d   0       8.101 -11.548  -9.470  0.00  0.00     0.167 HD
ENDBRANCH  39  41
ENDBRANCH  38  39
ENDBRANCH  31  38
BRANCH  27  43
ATOM     43  C   UNK d   0       8.088 -13.859 -12.441  0.00  0.00     0.052 C 
BRANCH  43  44
ATOM     44  C   UNK d   0       6.795 -14.046 -13.166  0.00  0.00     0.115 C 
BRANCH  44  45
ATOM     45  C   UNK d   0       7.139 -14.519 -14.532  0.00  0.00     0.139 C 
ATOM     46  O   UNK d   0       8.253 -15.073 -14.704  0.00  0.00    -0.650 OA
BRANCH  45  47
ATOM     47  O   UNK d   0       6.289 -14.381 -15.608  0.00  0.00    -0.776 OA
ATOM     48  H   UNK d   0       5.320 -14.034 -15.515  0.00  0.00     0.167 HD
ENDBRANCH  45  47
ENDBRANCH  44  45
ENDBRANCH  43  44
ENDBRANCH  27  43
BRANCH  24  49
ATOM     49  C   UNK d   0       3.610 -17.111 -12.594  0.00  0.00     0.052 C 
BRANCH  49  50
ATOM     50  C   UNK d   0       2.549 -16.075 -12.322  0.00  0.00     0.115 C 
BRANCH  50  51
ATOM     51  C   UNK d   0       1.417 -16.481 -11.501  0.00  0.00     0.139 C 
ATOM     52  O   UNK d   0       1.266 -16.095 -10.318  0.00  0.00    -0.650 OA
BRANCH  51  53
ATOM     53  O   UNK d   0       0.457 -17.332 -12.028  0.00  0.00    -0.776 OA
ATOM     54  H   UNK d   0       0.638 -17.758 -12.920  0.00  0.00     0.167 HD
ENDBRANCH  51  53
ENDBRANCH  50  51
ENDBRANCH  49  50
ENDBRANCH  24  49
BRANCH  21  55
ATOM     55  C   UNK d   0       3.337 -19.721 -10.963  0.00  0.00     0.151 C 
BRANCH  55  56
ATOM     56  C   UNK d   0       4.026 -20.755 -11.749  0.00  0.00     0.143 C 
ATOM     57  O   UNK d   0       3.655 -21.094 -12.890  0.00  0.00    -0.650 OA
BRANCH  56  58
ATOM     58  O   UNK d   0       5.139 -21.370 -11.179  0.00  0.00    -0.776 OA
ATOM     59  H   UNK d   0       5.156 -22.403 -11.260  0.00  0.00     0.167 HD
ENDBRANCH  56  58
ENDBRANCH  55  56
ENDBRANCH  21  55
BRANCH  18  60
ATOM     60  C   UNK d   0       4.513 -20.206  -5.748  0.00  0.00     0.151 C 
BRANCH  60  61
ATOM     61  C   UNK d   0       3.439 -19.209  -5.622  0.00  0.00     0.143 C 
ATOM     62  O   UNK d   0       3.140 -18.564  -4.616  0.00  0.00    -0.650 OA
BRANCH  61  63
ATOM     63  O   UNK d   0       2.684 -18.985  -6.798  0.00  0.00    -0.776 OA
ATOM     64  H   UNK d   0       2.910 -18.233  -7.424  0.00  0.00     0.167 HD
ENDBRANCH  61  63
ENDBRANCH  60  61
ENDBRANCH  18  60
BRANCH  14  65
ATOM     65  C   UNK d   0       6.614 -19.359  -3.728  0.00  0.00     0.052 C 
BRANCH  65  66
ATOM     66  C   UNK d   0       6.077 -20.726  -3.496  0.00  0.00     0.115 C 
BRANCH  66  67
ATOM     67  C   UNK d   0       4.960 -20.912  -2.613  0.00  0.00     0.139 C 
ATOM     68  O   UNK d   0       4.717 -22.095  -2.172  0.00  0.00    -0.650 OA
BRANCH  67  69
ATOM     69  O   UNK d   0       4.067 -19.946  -2.152  0.00  0.00    -0.776 OA
ATOM     70  H   UNK d   0       3.107 -20.273  -1.971  0.00  0.00     0.167 HD
ENDBRANCH  67  69
ENDBRANCH  66  67
ENDBRANCH  65  66
ENDBRANCH  14  65
ENDBRANCH   6   7
ENDBRANCH   5   6
ENDBRANCH   2   5
TORSDOF 28
ENDMDL
MODEL 20
REMARK VINA RESULT:      -7.4     32.573     35.467
REMARK  28 active torsions:
REMARK  status: ('A' for Active; 'I' for Inactive)
REMARK    1  A    between atoms: C_2  and  O_3 
REMARK    2  A    between atoms: C_2  and  C_4 
REMARK    3  A    between atoms: C_4  and  C_5 
REMARK    4  A    between atoms: C_5  and  C_6 
REMARK    5  A    between atoms: C_7  and  C_8 
REMARK    6  A    between atoms: C_8  and  C_9 
REMARK    7  A    between atoms: C_9  and  O_11 
REMARK    8  A    between atoms: C_28  and  C_29 
REMARK    9  A    between atoms: C_29  and  C_30 
REMARK   10  A    between atoms: C_30  and  O_32 
REMARK   11  A    between atoms: C_33  and  C_34 
REMARK   12  A    between atoms: C_34  and  C_35 
REMARK   13  A    between atoms: C_35  and  C_36 
REMARK   14  A    between atoms: C_36  and  O_38 
REMARK   15  A    between atoms: C_39  and  C_40 
REMARK   16  A    between atoms: C_40  and  C_41 
REMARK   17  A    between atoms: C_41  and  C_42 
REMARK   18  A    between atoms: C_42  and  O_44 
REMARK   19  A    between atoms: C_45  and  C_46 
REMARK   20  A    between atoms: C_46  and  C_47 
REMARK   21  A    between atoms: C_47  and  O_49 
REMARK   22  A    between atoms: C_50  and  C_51 
REMARK   23  A    between atoms: C_51  and  C_52 
REMARK   24  A    between atoms: C_52  and  O_54 
REMARK   25  A    between atoms: C_55  and  C_56 
REMARK   26  A    between atoms: C_56  and  C_57 
REMARK   27  A    between atoms: C_57  and  C_58 
REMARK   28  A    between atoms: C_58  and  O_60 
ROOT
ATOM      1  O   UNK d   0     -18.760  -3.208   6.823  0.00  0.00    -0.650 OA
ATOM      2  C   UNK d   0     -17.893  -2.394   6.436  0.00  0.00     0.139 C 
ENDROOT
BRANCH   2   3
ATOM      3  O   UNK d   0     -17.461  -1.411   7.293  0.00  0.00    -0.776 OA
ATOM      4  H   UNK d   0     -16.469  -1.179   7.373  0.00  0.00     0.167 HD
ENDBRANCH   2   3
BRANCH   2   5
ATOM      5  C   UNK d   0     -17.336  -2.494   5.057  0.00  0.00     0.115 C 
BRANCH   5   6
ATOM      6  C   UNK d   0     -17.400  -3.918   4.574  0.00  0.00     0.052 C 
BRANCH   6   7
ATOM      7  C   UNK d   0     -18.245  -4.073   3.333  0.00  0.00    -0.020 A 
ATOM      8  C   UNK d   0     -17.873  -4.536   2.167  0.00  0.00    -0.011 A 
ATOM      9  C   UNK d   0     -19.025  -4.488   1.281  0.00  0.00     0.067 A 
ATOM     10  C   UNK d   0     -19.295  -4.845  -0.049  0.00  0.00     0.062 C 
ATOM     11  N   UNK d   0     -20.054  -3.976   1.989  0.00  0.00    -0.248 NA
ATOM     12  C   UNK d   0     -20.550  -4.983  -0.651  0.00  0.00     0.041 A 
ATOM     13  N   UNK d   0     -21.659  -4.224  -0.572  0.00  0.00    -0.355 N 
ATOM     14  C   UNK d   0     -20.800  -6.112  -1.453  0.00  0.00    -0.022 A 
ATOM     15  C   UNK d   0     -22.609  -4.846  -1.297  0.00  0.00     0.042 A 
ATOM     16  H   UNK d   0     -21.763  -3.258  -0.031  0.00  0.00     0.166 HD
ATOM     17  C   UNK d   0     -23.947  -4.485  -1.549  0.00  0.00     0.062 C 
ATOM     18  C   UNK d   0     -22.107  -6.033  -1.864  0.00  0.00    -0.013 A 
ATOM     19  C   UNK d   0     -24.895  -4.019  -0.674  0.00  0.00     0.067 A 
ATOM     20  N   UNK d   0     -24.472  -3.663   0.542  0.00  0.00    -0.248 NA
ATOM     21  C   UNK d   0     -26.332  -3.804  -0.706  0.00  0.00    -0.011 A 
ATOM     22  C   UNK d   0     -25.528  -3.234   1.307  0.00  0.00     0.066 A 
ATOM     23  C   UNK d   0     -25.224  -2.797   2.588  0.00  0.00     0.062 C 
ATOM     24  C   UNK d   0     -26.697  -3.349   0.457  0.00  0.00    -0.020 A 
ATOM     25  C   UNK d   0     -23.955  -2.654   3.170  0.00  0.00     0.041 A 
ATOM     26  N   UNK d   0     -22.857  -3.417   3.103  0.00  0.00    -0.355 N 
ATOM     27  C   UNK d   0     -23.704  -1.519   3.971  0.00  0.00    -0.022 A 
ATOM     28  C   UNK d   0     -21.911  -2.803   3.832  0.00  0.00     0.042 A 
ATOM     29  H   UNK d   0     -22.758  -4.393   2.568  0.00  0.00     0.166 HD
ATOM     30  C   UNK d   0     -20.579  -3.155   4.099  0.00  0.00     0.062 C 
ATOM     31  C   UNK d   0     -22.413  -1.605   4.393  0.00  0.00    -0.013 A 
ATOM     32  C   UNK d   0     -19.650  -3.706   3.231  0.00  0.00     0.066 A 
BRANCH   8  33
ATOM     33  C   UNK d   0     -16.531  -5.021   1.794  0.00  0.00     0.151 C 
BRANCH  33  34
ATOM     34  C   UNK d   0     -15.747  -4.015   1.054  0.00  0.00     0.143 C 
ATOM     35  O   UNK d   0     -15.048  -3.187   1.654  0.00  0.00    -0.650 OA
BRANCH  34  36
ATOM     36  O   UNK d   0     -15.796  -3.999  -0.321  0.00  0.00    -0.776 OA
ATOM     37  H   UNK d   0     -15.140  -3.429  -0.872  0.00  0.00     0.167 HD
ENDBRANCH  34  36
ENDBRANCH  33  34
ENDBRANCH   8  33
BRANCH  31  38
ATOM     38  C   UNK d   0     -21.692  -0.604   5.266  0.00  0.00     0.151 C 
BRANCH  38  39
ATOM     39  C   UNK d   0     -21.593  -1.031   6.646  0.00  0.00     0.143 C 
ATOM     40  O   UNK d   0     -22.459  -1.743   7.186  0.00  0.00    -0.650 OA
BRANCH  39  41
ATOM     41  O   UNK d   0     -20.494  -0.638   7.409  0.00  0.00    -0.776 OA
ATOM     42  H   UNK d   0     -19.783  -0.072   6.936  0.00  0.00     0.167 HD
ENDBRANCH  39  41
ENDBRANCH  38  39
ENDBRANCH  31  38
BRANCH  27  43
ATOM     43  C   UNK d   0     -24.626  -0.384   4.341  0.00  0.00     0.052 C 
BRANCH  43  44
ATOM     44  C   UNK d   0     -24.229   0.922   3.734  0.00  0.00     0.115 C 
BRANCH  44  45
ATOM     45  C   UNK d   0     -25.282   1.268   2.744  0.00  0.00     0.139 C 
ATOM     46  O   UNK d   0     -24.948   1.379   1.539  0.00  0.00    -0.650 OA
BRANCH  45  47
ATOM     47  O   UNK d   0     -26.601   1.463   3.094  0.00  0.00    -0.776 OA
ATOM     48  H   UNK d   0     -27.387   1.242   2.462  0.00  0.00     0.167 HD
ENDBRANCH  45  47
ENDBRANCH  44  45
ENDBRANCH  43  44
ENDBRANCH  27  43
BRANCH  24  49
ATOM     49  C   UNK d   0     -28.063  -2.960   0.848  0.00  0.00     0.052 C 
BRANCH  49  50
ATOM     50  C   UNK d   0     -28.505  -1.746   0.073  0.00  0.00     0.115 C 
BRANCH  50  51
ATOM     51  C   UNK d   0     -27.861  -0.480   0.397  0.00  0.00     0.139 C 
ATOM     52  O   UNK d   0     -28.391   0.376   1.145  0.00  0.00    -0.650 OA
BRANCH  51  53
ATOM     53  O   UNK d   0     -26.614  -0.188  -0.133  0.00  0.00    -0.776 OA
ATOM     54  H   UNK d   0     -26.312  -0.697  -0.945  0.00  0.00     0.167 HD
ENDBRANCH  51  53
ENDBRANCH  50  51
ENDBRANCH  49  50
ENDBRANCH  24  49
BRANCH  21  55
ATOM     55  C   UNK d   0     -27.189  -4.073  -1.899  0.00  0.00     0.151 C 
BRANCH  55  56
ATOM     56  C   UNK d   0     -27.601  -5.483  -1.975  0.00  0.00     0.143 C 
ATOM     57  O   UNK d   0     -28.260  -5.943  -2.929  0.00  0.00    -0.650 OA
BRANCH  56  58
ATOM     58  O   UNK d   0     -27.230  -6.325  -0.928  0.00  0.00    -0.776 OA
ATOM     59  H   UNK d   0     -27.148  -5.863  -0.005  0.00  0.00     0.167 HD
ENDBRANCH  56  58
ENDBRANCH  55  56
ENDBRANCH  21  55
BRANCH  18  60
ATOM     60  C   UNK d   0     -22.801  -7.047  -2.740  0.00  0.00     0.151 C 
BRANCH  60  61
ATOM     61  C   UNK d   0     -23.450  -7.996  -1.822  0.00  0.00     0.143 C 
ATOM     62  O   UNK d   0     -22.910  -8.906  -1.192  0.00  0.00    -0.650 OA
BRANCH  61  63
ATOM     63  O   UNK d   0     -24.846  -7.822  -1.664  0.00  0.00    -0.776 OA
ATOM     64  H   UNK d   0     -25.478  -7.977  -2.430  0.00  0.00     0.167 HD
ENDBRANCH  61  63
ENDBRANCH  60  61
ENDBRANCH  18  60
BRANCH  14  65
ATOM     65  C   UNK d   0     -19.879  -7.196  -1.936  0.00  0.00     0.052 C 
BRANCH  65  66
ATOM     66  C   UNK d   0     -19.201  -6.856  -3.216  0.00  0.00     0.115 C 
BRANCH  66  67
ATOM     67  C   UNK d   0     -18.528  -7.884  -3.959  0.00  0.00     0.139 C 
ATOM     68  O   UNK d   0     -18.037  -8.884  -3.318  0.00  0.00    -0.650 OA
BRANCH  67  69
ATOM     69  O   UNK d   0     -18.326  -7.946  -5.338  0.00  0.00    -0.776 OA
ATOM     70  H   UNK d   0     -18.257  -8.893  -5.738  0.00  0.00     0.167 HD
ENDBRANCH  67  69
ENDBRANCH  66  67
ENDBRANCH  65  66
ENDBRANCH  14  65
ENDBRANCH   6   7
ENDBRANCH   5   6
ENDBRANCH   2   5
TORSDOF 28
ENDMDL
